MODEL 1
REMARK VINA RESULT:     -12.1      0.000      0.000
REMARK SMILES O=C(NCCCCCCNC(=O)c1ccnc(-n2cnnn2)c1)c1ccc(-c2c3nc(c(-c4cc(S(=O)(=O)[O-])ccc4F)c4ccc([nH]4)c(-c4cc(S(=O)(=O)[O-])ccc4F)c4nc(c(-c5cc(S(=O)(=O)[O-])ccc5F)c5ccc2[nH]5)C=C4)C=C3)cc1
REMARK SMILES IDX 5 1 4 2 3 3 1 4 2 5 24 7 25 8 86 9 26 10 85 11 27 12 28 13
REMARK SMILES IDX 29 14 79 15 30 16 84 17 78 18 80 19 31 20 83 21 77 22 76 23
REMARK SMILES IDX 32 25 64 26 44 27 63 28 45 29 48 30 62 31 81 32 46 33 47 34
REMARK SMILES IDX 61 36 82 37 49 38 33 39 34 40 42 41 35 42 41 43 43 44 40 45
REMARK SMILES IDX 36 46 37 47 38 48 39 49 65 50 66 51 74 52 67 53 73 54 75 55
REMARK SMILES IDX 72 56 68 57 69 58 70 59 71 60 50 61 51 62 59 63 52 64 58 65
REMARK SMILES IDX 60 66 57 67 53 68 54 69 55 70 56 71 6 72 7 73 8 74 9 75
REMARK SMILES IDX 10 76 11 77 12 79 13 80 14 81 23 82 15 83 17 84 16 85 18 86
REMARK SMILES IDX 19 87 22 88 20 89 21 90
REMARK H PARENT 3 6 80 24 48 35 10 78
REMARK Flexibility Score: inf
ROOT
ATOM      1  C   UNL A   1      33.119  28.339  26.892  1.00  0.00     0.021 C 
ENDROOT
BRANCH   1   2
ATOM      2  C   UNL A   1      34.575  28.762  27.075  1.00  0.00     0.116 C 
BRANCH   2   3
ATOM      3  N   UNL A   1      34.796  29.670  28.181  1.00  0.00    -0.352 N 
ATOM      4  O   UNL A   1      35.714  30.896  29.775  1.00  0.00    -0.269 OA
ATOM      5  C   UNL A   1      35.899  30.046  28.899  1.00  0.00     0.251 C 
ATOM      6  H   UNL A   1      33.972  30.115  28.482  1.00  0.00     0.163 HD
BRANCH   5   7
ATOM      7  C   UNL A   1      37.267  29.482  28.718  1.00  0.00     0.039 A 
ATOM      8  C   UNL A   1      38.102  29.728  27.628  1.00  0.00     0.014 A 
ATOM      9  C   UNL A   1      37.753  28.680  29.767  1.00  0.00     0.014 A 
ATOM     10  C   UNL A   1      39.371  29.153  27.561  1.00  0.00     0.010 A 
ATOM     11  C   UNL A   1      39.032  28.125  29.717  1.00  0.00     0.010 A 
ATOM     12  C   UNL A   1      39.842  28.354  28.605  1.00  0.00    -0.014 A 
BRANCH  12  13
ATOM     13  C   UNL A   1      41.244  27.927  28.558  1.00  0.00     0.031 A 
ATOM     14  C   UNL A   1      41.512  26.625  27.870  1.00  0.00     0.074 A 
ATOM     15  C   UNL A   1      42.290  28.695  28.921  1.00  0.00     0.049 A 
ATOM     16  N   UNL A   1      42.149  25.588  28.313  1.00  0.00    -0.248 NA
ATOM     17  C   UNL A   1      40.954  26.446  26.521  1.00  0.00     0.031 C 
ATOM     18  C   UNL A   1      42.268  30.106  29.306  1.00  0.00     0.029 A 
ATOM     19  N   UNL A   1      43.624  28.393  28.900  1.00  0.00    -0.354 N 
ATOM     20  C   UNL A   1      42.237  24.696  27.244  1.00  0.00     0.074 A 
ATOM     21  C   UNL A   1      41.389  25.226  26.208  1.00  0.00     0.031 C 
ATOM     22  C   UNL A   1      43.527  30.594  29.263  1.00  0.00     0.029 A 
ATOM     23  C   UNL A   1      44.450  29.507  28.972  1.00  0.00     0.049 A 
ATOM     24  H   UNL A   1      43.967  27.472  28.839  1.00  0.00     0.167 HD
ATOM     25  C   UNL A   1      43.123  23.661  27.221  1.00  0.00     0.034 A 
ATOM     26  C   UNL A   1      45.785  29.560  28.735  1.00  0.00     0.034 A 
ATOM     27  C   UNL A   1      43.585  23.320  28.543  1.00  0.00     0.049 A 
ATOM     28  C   UNL A   1      46.335  28.195  28.891  1.00  0.00     0.074 A 
ATOM     29  C   UNL A   1      42.966  22.932  29.715  1.00  0.00     0.029 A 
ATOM     30  N   UNL A   1      44.870  23.648  28.904  1.00  0.00    -0.354 N 
ATOM     31  N   UNL A   1      46.381  27.552  30.025  1.00  0.00    -0.248 NA
ATOM     32  C   UNL A   1      46.499  27.367  27.707  1.00  0.00     0.031 C 
ATOM     33  C   UNL A   1      43.733  23.534  30.755  1.00  0.00     0.029 A 
ATOM     34  C   UNL A   1      44.790  24.218  30.150  1.00  0.00     0.049 A 
ATOM     35  H   UNL A   1      45.687  23.503  28.374  1.00  0.00     0.167 HD
ATOM     36  C   UNL A   1      46.163  26.225  29.697  1.00  0.00     0.074 A 
ATOM     37  C   UNL A   1      46.368  26.157  28.254  1.00  0.00     0.031 C 
ATOM     38  C   UNL A   1      45.567  25.365  30.575  1.00  0.00     0.034 A 
BRANCH  25  39
ATOM     39  C   UNL A   1      43.772  23.106  25.972  1.00  0.00     0.023 A 
ATOM     40  C   UNL A   1      43.709  21.716  25.742  1.00  0.00     0.031 A 
ATOM     41  C   UNL A   1      44.669  23.823  25.148  1.00  0.00     0.131 A 
ATOM     42  C   UNL A   1      44.540  21.099  24.788  1.00  0.00     0.055 A 
ATOM     43  C   UNL A   1      45.439  23.216  24.150  1.00  0.00     0.041 A 
ATOM     44  F   UNL A   1      44.920  25.126  25.326  1.00  0.00    -0.206 F 
ATOM     45  C   UNL A   1      45.397  21.843  23.982  1.00  0.00     0.022 A 
BRANCH  42  46
ATOM     46  S   UNL A   1      44.621  19.287  24.746  1.00  0.00     0.124 S 
ATOM     47  O   UNL A   1      44.607  19.021  23.312  1.00  0.00    -0.237 OA
ATOM     48  O   UNL A   1      45.878  19.027  25.438  1.00  0.00    -0.237 OA
ATOM     49  O   UNL A   1      43.416  18.879  25.466  1.00  0.00    -0.744 OA
ENDBRANCH  42  46
ENDBRANCH  25  39
BRANCH  26  50
ATOM     50  C   UNL A   1      46.537  30.683  28.118  1.00  0.00     0.023 A 
ATOM     51  C   UNL A   1      45.949  31.578  27.205  1.00  0.00     0.031 A 
ATOM     52  C   UNL A   1      47.822  31.021  28.603  1.00  0.00     0.131 A 
ATOM     53  C   UNL A   1      46.646  32.741  26.803  1.00  0.00     0.055 A 
ATOM     54  C   UNL A   1      48.514  32.159  28.188  1.00  0.00     0.041 A 
ATOM     55  F   UNL A   1      48.416  30.295  29.564  1.00  0.00    -0.206 F 
ATOM     56  C   UNL A   1      47.924  33.029  27.287  1.00  0.00     0.022 A 
BRANCH  53  57
ATOM     57  S   UNL A   1      45.839  33.961  25.719  1.00  0.00     0.124 S 
ATOM     58  O   UNL A   1      44.998  33.117  24.876  1.00  0.00    -0.237 OA
ATOM     59  O   UNL A   1      45.148  34.821  26.672  1.00  0.00    -0.237 OA
ATOM     60  O   UNL A   1      46.963  34.595  25.027  1.00  0.00    -0.744 OA
ENDBRANCH  53  57
ENDBRANCH  26  50
BRANCH  38  61
ATOM     61  C   UNL A   1      45.460  25.767  32.032  1.00  0.00     0.023 A 
ATOM     62  C   UNL A   1      44.276  26.227  32.649  1.00  0.00     0.031 A 
ATOM     63  C   UNL A   1      46.581  25.551  32.854  1.00  0.00     0.131 A 
ATOM     64  C   UNL A   1      44.249  26.467  34.035  1.00  0.00     0.055 A 
ATOM     65  C   UNL A   1      46.545  25.772  34.231  1.00  0.00     0.041 A 
ATOM     66  F   UNL A   1      47.728  25.080  32.335  1.00  0.00    -0.206 F 
ATOM     67  C   UNL A   1      45.379  26.239  34.827  1.00  0.00     0.022 A 
BRANCH  64  68
ATOM     68  S   UNL A   1      42.733  27.084  34.835  1.00  0.00     0.124 S 
ATOM     69  O   UNL A   1      43.223  27.738  36.042  1.00  0.00    -0.237 OA
ATOM     70  O   UNL A   1      42.172  27.963  33.811  1.00  0.00    -0.237 OA
ATOM     71  O   UNL A   1      41.957  25.866  35.075  1.00  0.00    -0.744 OA
ENDBRANCH  64  68
ENDBRANCH  38  61
ENDBRANCH  12  13
ENDBRANCH   5   7
ENDBRANCH   2   3
ENDBRANCH   1   2
BRANCH   1  72
ATOM     72  C   UNL A   1      32.657  28.254  25.432  1.00  0.00     0.002 C 
BRANCH  72  73
ATOM     73  C   UNL A   1      33.540  28.978  24.410  1.00  0.00     0.002 C 
BRANCH  73  74
ATOM     74  C   UNL A   1      33.047  28.937  22.958  1.00  0.00     0.021 C 
BRANCH  74  75
ATOM     75  C   UNL A   1      31.846  28.023  22.713  1.00  0.00     0.116 C 
BRANCH  75  76
ATOM     76  N   UNL A   1      32.169  26.980  21.753  1.00  0.00    -0.352 N 
ATOM     77  C   UNL A   1      32.854  25.816  21.946  1.00  0.00     0.251 C 
ATOM     78  H   UNL A   1      31.850  27.136  20.835  1.00  0.00     0.163 HD
ATOM     79  O   UNL A   1      33.288  25.171  20.986  1.00  0.00    -0.269 OA
BRANCH  77  80
ATOM     80  C   UNL A   1      33.108  25.308  23.305  1.00  0.00     0.045 A 
ATOM     81  C   UNL A   1      34.386  25.343  23.854  1.00  0.00     0.034 A 
ATOM     82  C   UNL A   1      32.015  24.893  24.068  1.00  0.00     0.063 A 
ATOM     83  C   UNL A   1      34.524  24.937  25.165  1.00  0.00     0.114 A 
ATOM     84  C   UNL A   1      32.246  24.509  25.383  1.00  0.00     0.157 A 
ATOM     85  N   UNL A   1      33.489  24.530  25.933  1.00  0.00    -0.237 NA
BRANCH  84  86
ATOM     86  N   UNL A   1      31.159  24.094  26.198  1.00  0.00    -0.182 N 
ATOM     87  C   UNL A   1      30.973  22.907  26.862  1.00  0.00     0.254 A 
ATOM     88  N   UNL A   1      30.084  24.878  26.447  1.00  0.00    -0.039 NA
ATOM     89  N   UNL A   1      29.807  22.921  27.467  1.00  0.00    -0.117 NA
ATOM     90  N   UNL A   1      29.264  24.149  27.191  1.00  0.00    -0.024 NA
ENDBRANCH  84  86
ENDBRANCH  77  80
ENDBRANCH  75  76
ENDBRANCH  74  75
ENDBRANCH  73  74
ENDBRANCH  72  73
ENDBRANCH   1  72
TORSDOF 17
ENDMDL
MODEL 2
REMARK VINA RESULT:     -12.1      3.512      6.065
REMARK SMILES O=C(NCCCCCCNC(=O)c1ccnc(-n2cnnn2)c1)c1ccc(-c2c3nc(c(-c4cc(S(=O)(=O)[O-])ccc4F)c4ccc([nH]4)c(-c4cc(S(=O)(=O)[O-])ccc4F)c4nc(c(-c5cc(S(=O)(=O)[O-])ccc5F)c5ccc2[nH]5)C=C4)C=C3)cc1
REMARK SMILES IDX 5 1 4 2 3 3 1 4 2 5 24 7 25 8 86 9 26 10 85 11 27 12 28 13
REMARK SMILES IDX 29 14 79 15 30 16 84 17 78 18 80 19 31 20 83 21 77 22 76 23
REMARK SMILES IDX 32 25 64 26 44 27 63 28 45 29 48 30 62 31 81 32 46 33 47 34
REMARK SMILES IDX 61 36 82 37 49 38 33 39 34 40 42 41 35 42 41 43 43 44 40 45
REMARK SMILES IDX 36 46 37 47 38 48 39 49 65 50 66 51 74 52 67 53 73 54 75 55
REMARK SMILES IDX 72 56 68 57 69 58 70 59 71 60 50 61 51 62 59 63 52 64 58 65
REMARK SMILES IDX 60 66 57 67 53 68 54 69 55 70 56 71 6 72 7 73 8 74 9 75
REMARK SMILES IDX 10 76 11 77 12 79 13 80 14 81 23 82 15 83 17 84 16 85 18 86
REMARK SMILES IDX 19 87 22 88 20 89 21 90
REMARK H PARENT 3 6 80 24 48 35 10 78
REMARK Flexibility Score: inf
ROOT
ATOM      1  C   UNL A   1      36.416  33.151  29.145  1.00  0.00     0.021 C 
ENDROOT
BRANCH   1   2
ATOM      2  C   UNL A   1      35.871  31.867  29.767  1.00  0.00     0.116 C 
BRANCH   2   3
ATOM      3  N   UNL A   1      35.264  30.958  28.817  1.00  0.00    -0.352 N 
ATOM      4  O   UNL A   1      34.887  29.308  27.395  1.00  0.00    -0.269 OA
ATOM      5  C   UNL A   1      35.719  29.884  28.102  1.00  0.00     0.251 C 
ATOM      6  H   UNL A   1      34.314  31.156  28.650  1.00  0.00     0.163 HD
BRANCH   5   7
ATOM      7  C   UNL A   1      37.129  29.401  28.095  1.00  0.00     0.039 A 
ATOM      8  C   UNL A   1      38.085  29.717  27.129  1.00  0.00     0.014 A 
ATOM      9  C   UNL A   1      37.519  28.601  29.186  1.00  0.00     0.014 A 
ATOM     10  C   UNL A   1      39.383  29.215  27.221  1.00  0.00     0.010 A 
ATOM     11  C   UNL A   1      38.823  28.119  29.296  1.00  0.00     0.010 A 
ATOM     12  C   UNL A   1      39.758  28.418  28.306  1.00  0.00    -0.014 A 
BRANCH  12  13
ATOM     13  C   UNL A   1      41.176  28.070  28.438  1.00  0.00     0.031 A 
ATOM     14  C   UNL A   1      41.615  26.825  27.734  1.00  0.00     0.074 A 
ATOM     15  C   UNL A   1      42.113  28.871  28.982  1.00  0.00     0.049 A 
ATOM     16  N   UNL A   1      42.246  25.800  28.214  1.00  0.00    -0.248 NA
ATOM     17  C   UNL A   1      41.262  26.691  26.313  1.00  0.00     0.031 C 
ATOM     18  C   UNL A   1      41.952  30.256  29.426  1.00  0.00     0.029 A 
ATOM     19  N   UNL A   1      43.452  28.643  29.137  1.00  0.00    -0.354 N 
ATOM     20  C   UNL A   1      42.536  24.975  27.127  1.00  0.00     0.074 A 
ATOM     21  C   UNL A   1      41.810  25.515  26.007  1.00  0.00     0.031 C 
ATOM     22  C   UNL A   1      43.173  30.812  29.586  1.00  0.00     0.029 A 
ATOM     23  C   UNL A   1      44.191  29.794  29.378  1.00  0.00     0.049 A 
ATOM     24  H   UNL A   1      43.856  27.747  29.081  1.00  0.00     0.167 HD
ATOM     25  C   UNL A   1      43.478  23.991  27.181  1.00  0.00     0.034 A 
ATOM     26  C   UNL A   1      45.540  29.931  29.335  1.00  0.00     0.034 A 
ATOM     27  C   UNL A   1      43.772  23.603  28.537  1.00  0.00     0.049 A 
ATOM     28  C   UNL A   1      46.145  28.591  29.503  1.00  0.00     0.074 A 
ATOM     29  C   UNL A   1      43.020  23.118  29.590  1.00  0.00     0.029 A 
ATOM     30  N   UNL A   1      44.971  23.979  29.092  1.00  0.00    -0.354 N 
ATOM     31  N   UNL A   1      46.072  27.890  30.601  1.00  0.00    -0.248 NA
ATOM     32  C   UNL A   1      46.523  27.840  28.316  1.00  0.00     0.031 C 
ATOM     33  C   UNL A   1      43.598  23.702  30.756  1.00  0.00     0.029 A 
ATOM     34  C   UNL A   1      44.684  24.474  30.340  1.00  0.00     0.049 A 
ATOM     35  H   UNL A   1      45.862  23.907  28.677  1.00  0.00     0.167 HD
ATOM     36  C   UNL A   1      45.983  26.573  30.182  1.00  0.00     0.074 A 
ATOM     37  C   UNL A   1      46.390  26.596  28.781  1.00  0.00     0.031 C 
ATOM     38  C   UNL A   1      45.324  25.635  30.925  1.00  0.00     0.034 A 
BRANCH  25  39
ATOM     39  C   UNL A   1      44.327  23.542  26.012  1.00  0.00     0.023 A 
ATOM     40  C   UNL A   1      44.226  22.202  25.584  1.00  0.00     0.031 A 
ATOM     41  C   UNL A   1      45.411  24.276  25.479  1.00  0.00     0.131 A 
ATOM     42  C   UNL A   1      45.191  21.639  24.727  1.00  0.00     0.055 A 
ATOM     43  C   UNL A   1      46.325  23.733  24.570  1.00  0.00     0.041 A 
ATOM     44  F   UNL A   1      45.700  25.520  25.880  1.00  0.00    -0.206 F 
ATOM     45  C   UNL A   1      46.234  22.400  24.207  1.00  0.00     0.022 A 
BRANCH  42  46
ATOM     46  S   UNL A   1      45.168  19.846  24.450  1.00  0.00     0.124 S 
ATOM     47  O   UNL A   1      46.578  19.503  24.598  1.00  0.00    -0.237 OA
ATOM     48  O   UNL A   1      44.279  19.390  25.513  1.00  0.00    -0.237 OA
ATOM     49  O   UNL A   1      44.636  19.720  23.095  1.00  0.00    -0.744 OA
ENDBRANCH  42  46
ENDBRANCH  25  39
BRANCH  26  50
ATOM     50  C   UNL A   1      46.302  31.125  28.885  1.00  0.00     0.023 A 
ATOM     51  C   UNL A   1      45.972  31.839  27.718  1.00  0.00     0.031 A 
ATOM     52  C   UNL A   1      47.257  31.717  29.744  1.00  0.00     0.131 A 
ATOM     53  C   UNL A   1      46.597  33.076  27.442  1.00  0.00     0.055 A 
ATOM     54  C   UNL A   1      47.886  32.928  29.458  1.00  0.00     0.041 A 
ATOM     55  F   UNL A   1      47.550  31.174  30.937  1.00  0.00    -0.206 F 
ATOM     56  C   UNL A   1      47.553  33.618  28.304  1.00  0.00     0.022 A 
BRANCH  53  57
ATOM     57  S   UNL A   1      46.084  34.058  25.997  1.00  0.00     0.124 S 
ATOM     58  O   UNL A   1      45.236  33.118  25.270  1.00  0.00    -0.237 OA
ATOM     59  O   UNL A   1      45.413  35.196  26.613  1.00  0.00    -0.237 OA
ATOM     60  O   UNL A   1      47.351  34.379  25.338  1.00  0.00    -0.744 OA
ENDBRANCH  53  57
ENDBRANCH  26  50
BRANCH  38  61
ATOM     61  C   UNL A   1      44.991  25.949  32.369  1.00  0.00     0.023 A 
ATOM     62  C   UNL A   1      43.830  26.633  32.791  1.00  0.00     0.031 A 
ATOM     63  C   UNL A   1      45.831  25.418  33.365  1.00  0.00     0.131 A 
ATOM     64  C   UNL A   1      43.554  26.777  34.163  1.00  0.00     0.055 A 
ATOM     65  C   UNL A   1      45.545  25.545  34.724  1.00  0.00     0.041 A 
ATOM     66  F   UNL A   1      46.933  24.725  33.030  1.00  0.00    -0.206 F 
ATOM     67  C   UNL A   1      44.407  26.233  35.129  1.00  0.00     0.022 A 
BRANCH  64  68
ATOM     68  S   UNL A   1      42.071  27.679  34.716  1.00  0.00     0.124 S 
ATOM     69  O   UNL A   1      42.604  28.936  35.225  1.00  0.00    -0.237 OA
ATOM     70  O   UNL A   1      41.279  27.765  33.491  1.00  0.00    -0.237 OA
ATOM     71  O   UNL A   1      41.502  26.800  35.741  1.00  0.00    -0.744 OA
ENDBRANCH  64  68
ENDBRANCH  38  61
ENDBRANCH  12  13
ENDBRANCH   5   7
ENDBRANCH   2   3
ENDBRANCH   1   2
BRANCH   1  72
ATOM     72  C   UNL A   1      37.943  33.197  29.007  1.00  0.00     0.002 C 
BRANCH  72  73
ATOM     73  C   UNL A   1      38.717  32.155  29.821  1.00  0.00     0.002 C 
BRANCH  73  74
ATOM     74  C   UNL A   1      39.407  32.678  31.087  1.00  0.00     0.021 C 
BRANCH  74  75
ATOM     75  C   UNL A   1      39.285  34.186  31.308  1.00  0.00     0.116 C 
BRANCH  75  76
ATOM     76  N   UNL A   1      39.269  34.508  32.725  1.00  0.00    -0.352 N 
ATOM     77  C   UNL A   1      38.203  34.616  33.571  1.00  0.00     0.251 C 
ATOM     78  H   UNL A   1      40.150  34.672  33.133  1.00  0.00     0.163 HD
ATOM     79  O   UNL A   1      38.322  35.166  34.671  1.00  0.00    -0.269 OA
BRANCH  77  80
ATOM     80  C   UNL A   1      36.881  34.095  33.186  1.00  0.00     0.045 A 
ATOM     81  C   UNL A   1      36.524  32.778  33.463  1.00  0.00     0.034 A 
ATOM     82  C   UNL A   1      35.956  34.985  32.637  1.00  0.00     0.063 A 
ATOM     83  C   UNL A   1      35.234  32.394  33.156  1.00  0.00     0.114 A 
ATOM     84  C   UNL A   1      34.678  34.513  32.368  1.00  0.00     0.157 A 
ATOM     85  N   UNL A   1      34.313  33.228  32.625  1.00  0.00    -0.237 NA
BRANCH  84  86
ATOM     86  N   UNL A   1      33.703  35.390  31.823  1.00  0.00    -0.182 N 
ATOM     87  C   UNL A   1      33.445  35.697  30.510  1.00  0.00     0.254 A 
ATOM     88  N   UNL A   1      32.831  36.089  32.587  1.00  0.00    -0.039 NA
ATOM     89  N   UNL A   1      32.483  36.589  30.448  1.00  0.00    -0.117 NA
ATOM     90  N   UNL A   1      32.119  36.828  31.748  1.00  0.00    -0.024 NA
ENDBRANCH  84  86
ENDBRANCH  77  80
ENDBRANCH  75  76
ENDBRANCH  74  75
ENDBRANCH  73  74
ENDBRANCH  72  73
ENDBRANCH   1  72
TORSDOF 17
ENDMDL
MODEL 3
REMARK VINA RESULT:     -12.1      4.434      9.071
REMARK SMILES O=C(NCCCCCCNC(=O)c1ccnc(-n2cnnn2)c1)c1ccc(-c2c3nc(c(-c4cc(S(=O)(=O)[O-])ccc4F)c4ccc([nH]4)c(-c4cc(S(=O)(=O)[O-])ccc4F)c4nc(c(-c5cc(S(=O)(=O)[O-])ccc5F)c5ccc2[nH]5)C=C4)C=C3)cc1
REMARK SMILES IDX 5 1 4 2 3 3 1 4 2 5 24 7 25 8 86 9 26 10 85 11 27 12 28 13
REMARK SMILES IDX 29 14 79 15 30 16 84 17 78 18 80 19 31 20 83 21 77 22 76 23
REMARK SMILES IDX 32 25 64 26 44 27 63 28 45 29 48 30 62 31 81 32 46 33 47 34
REMARK SMILES IDX 61 36 82 37 49 38 33 39 34 40 42 41 35 42 41 43 43 44 40 45
REMARK SMILES IDX 36 46 37 47 38 48 39 49 65 50 66 51 74 52 67 53 73 54 75 55
REMARK SMILES IDX 72 56 68 57 69 58 70 59 71 60 50 61 51 62 59 63 52 64 58 65
REMARK SMILES IDX 60 66 57 67 53 68 54 69 55 70 56 71 6 72 7 73 8 74 9 75
REMARK SMILES IDX 10 76 11 77 12 79 13 80 14 81 23 82 15 83 17 84 16 85 18 86
REMARK SMILES IDX 19 87 22 88 20 89 21 90
REMARK H PARENT 3 6 80 24 48 35 10 78
REMARK Flexibility Score: inf
ROOT
ATOM      1  C   UNL A   1      38.449  22.188  25.707  1.00  0.00     0.021 C 
ENDROOT
BRANCH   1   2
ATOM      2  C   UNL A   1      39.647  21.948  26.624  1.00  0.00     0.116 C 
BRANCH   2   3
ATOM      3  N   UNL A   1      40.931  22.173  25.995  1.00  0.00    -0.352 N 
ATOM      4  O   UNL A   1      42.886  23.011  25.392  1.00  0.00    -0.269 OA
ATOM      5  C   UNL A   1      41.860  23.177  26.058  1.00  0.00     0.251 C 
ATOM      6  H   UNL A   1      41.194  21.444  25.388  1.00  0.00     0.163 HD
BRANCH   5   7
ATOM      7  C   UNL A   1      41.699  24.439  26.832  1.00  0.00     0.039 A 
ATOM      8  C   UNL A   1      42.362  24.746  28.021  1.00  0.00     0.014 A 
ATOM      9  C   UNL A   1      40.841  25.407  26.275  1.00  0.00     0.014 A 
ATOM     10  C   UNL A   1      42.143  25.964  28.663  1.00  0.00     0.010 A 
ATOM     11  C   UNL A   1      40.640  26.637  26.900  1.00  0.00     0.010 A 
ATOM     12  C   UNL A   1      41.285  26.915  28.105  1.00  0.00    -0.014 A 
BRANCH  12  13
ATOM     13  C   UNL A   1      41.234  28.240  28.731  1.00  0.00     0.031 A 
ATOM     14  C   UNL A   1      42.312  29.198  28.329  1.00  0.00     0.074 A 
ATOM     15  C   UNL A   1      40.210  28.694  29.478  1.00  0.00     0.049 A 
ATOM     16  N   UNL A   1      43.126  29.867  29.082  1.00  0.00    -0.248 NA
ATOM     17  C   UNL A   1      42.533  29.402  26.889  1.00  0.00     0.031 C 
ATOM     18  C   UNL A   1      38.922  28.041  29.716  1.00  0.00     0.029 A 
ATOM     19  N   UNL A   1      40.065  29.910  30.088  1.00  0.00    -0.354 N 
ATOM     20  C   UNL A   1      43.840  30.713  28.232  1.00  0.00     0.074 A 
ATOM     21  C   UNL A   1      43.515  30.304  26.891  1.00  0.00     0.031 C 
ATOM     22  C   UNL A   1      38.056  28.947  30.219  1.00  0.00     0.029 A 
ATOM     23  C   UNL A   1      38.757  30.200  30.454  1.00  0.00     0.049 A 
ATOM     24  H   UNL A   1      40.818  30.523  30.252  1.00  0.00     0.167 HD
ATOM     25  C   UNL A   1      44.530  31.798  28.685  1.00  0.00     0.034 A 
ATOM     26  C   UNL A   1      38.258  31.398  30.848  1.00  0.00     0.034 A 
ATOM     27  C   UNL A   1      44.826  31.697  30.091  1.00  0.00     0.049 A 
ATOM     28  C   UNL A   1      39.383  32.230  31.329  1.00  0.00     0.074 A 
ATOM     29  C   UNL A   1      45.500  30.781  30.876  1.00  0.00     0.029 A 
ATOM     30  N   UNL A   1      44.140  32.494  30.975  1.00  0.00    -0.354 N 
ATOM     31  N   UNL A   1      40.080  31.967  32.399  1.00  0.00    -0.248 NA
ATOM     32  C   UNL A   1      40.000  33.172  30.408  1.00  0.00     0.031 C 
ATOM     33  C   UNL A   1      44.784  30.752  32.108  1.00  0.00     0.029 A 
ATOM     34  C   UNL A   1      43.744  31.679  32.007  1.00  0.00     0.049 A 
ATOM     35  H   UNL A   1      43.965  33.459  30.887  1.00  0.00     0.167 HD
ATOM     36  C   UNL A   1      41.371  32.368  32.097  1.00  0.00     0.074 A 
ATOM     37  C   UNL A   1      41.234  33.211  30.914  1.00  0.00     0.031 C 
ATOM     38  C   UNL A   1      42.454  31.758  32.663  1.00  0.00     0.034 A 
BRANCH  25  39
ATOM     39  C   UNL A   1      44.727  33.082  27.909  1.00  0.00     0.023 A 
ATOM     40  C   UNL A   1      43.913  34.190  28.224  1.00  0.00     0.031 A 
ATOM     41  C   UNL A   1      45.473  33.190  26.713  1.00  0.00     0.131 A 
ATOM     42  C   UNL A   1      43.823  35.294  27.356  1.00  0.00     0.055 A 
ATOM     43  C   UNL A   1      45.435  34.321  25.891  1.00  0.00     0.041 A 
ATOM     44  F   UNL A   1      46.199  32.175  26.227  1.00  0.00    -0.206 F 
ATOM     45  C   UNL A   1      44.588  35.372  26.196  1.00  0.00     0.022 A 
BRANCH  42  46
ATOM     46  S   UNL A   1      42.547  36.545  27.671  1.00  0.00     0.124 S 
ATOM     47  O   UNL A   1      41.368  35.718  27.903  1.00  0.00    -0.237 OA
ATOM     48  O   UNL A   1      43.087  37.238  28.836  1.00  0.00    -0.237 OA
ATOM     49  O   UNL A   1      42.526  37.326  26.436  1.00  0.00    -0.744 OA
ENDBRANCH  42  46
ENDBRANCH  25  39
BRANCH  26  50
ATOM     50  C   UNL A   1      36.900  31.934  30.569  1.00  0.00     0.023 A 
ATOM     51  C   UNL A   1      36.141  32.615  31.539  1.00  0.00     0.031 A 
ATOM     52  C   UNL A   1      36.416  31.967  29.241  1.00  0.00     0.131 A 
ATOM     53  C   UNL A   1      34.947  33.276  31.168  1.00  0.00     0.055 A 
ATOM     54  C   UNL A   1      35.227  32.604  28.884  1.00  0.00     0.041 A 
ATOM     55  F   UNL A   1      37.128  31.450  28.227  1.00  0.00    -0.206 F 
ATOM     56  C   UNL A   1      34.488  33.268  29.849  1.00  0.00     0.022 A 
BRANCH  53  57
ATOM     57  S   UNL A   1      34.028  34.259  32.395  1.00  0.00     0.124 S 
ATOM     58  O   UNL A   1      35.080  35.086  32.979  1.00  0.00    -0.237 OA
ATOM     59  O   UNL A   1      33.043  34.948  31.570  1.00  0.00    -0.237 OA
ATOM     60  O   UNL A   1      33.472  33.246  33.293  1.00  0.00    -0.744 OA
ENDBRANCH  53  57
ENDBRANCH  26  50
BRANCH  38  61
ATOM     61  C   UNL A   1      42.246  30.881  33.879  1.00  0.00     0.023 A 
ATOM     62  C   UNL A   1      42.009  29.489  33.831  1.00  0.00     0.031 A 
ATOM     63  C   UNL A   1      42.423  31.467  35.146  1.00  0.00     0.131 A 
ATOM     64  C   UNL A   1      41.942  28.742  35.021  1.00  0.00     0.055 A 
ATOM     65  C   UNL A   1      42.374  30.719  36.324  1.00  0.00     0.041 A 
ATOM     66  F   UNL A   1      42.687  32.779  35.260  1.00  0.00    -0.206 F 
ATOM     67  C   UNL A   1      42.126  29.353  36.266  1.00  0.00     0.022 A 
BRANCH  64  68
ATOM     68  S   UNL A   1      41.612  26.951  34.968  1.00  0.00     0.124 S 
ATOM     69  O   UNL A   1      41.389  26.602  36.365  1.00  0.00    -0.237 OA
ATOM     70  O   UNL A   1      40.446  26.871  34.092  1.00  0.00    -0.237 OA
ATOM     71  O   UNL A   1      42.839  26.398  34.391  1.00  0.00    -0.744 OA
ENDBRANCH  64  68
ENDBRANCH  38  61
ENDBRANCH  12  13
ENDBRANCH   5   7
ENDBRANCH   2   3
ENDBRANCH   1   2
BRANCH   1  72
ATOM     72  C   UNL A   1      37.659  23.468  26.008  1.00  0.00     0.002 C 
BRANCH  72  73
ATOM     73  C   UNL A   1      36.286  23.577  25.338  1.00  0.00     0.002 C 
BRANCH  73  74
ATOM     74  C   UNL A   1      35.929  22.447  24.364  1.00  0.00     0.021 C 
BRANCH  74  75
ATOM     75  C   UNL A   1      35.197  21.263  24.996  1.00  0.00     0.116 C 
BRANCH  75  76
ATOM     76  N   UNL A   1      33.853  21.636  25.407  1.00  0.00    -0.352 N 
ATOM     77  C   UNL A   1      32.655  21.164  24.956  1.00  0.00     0.251 C 
ATOM     78  H   UNL A   1      33.800  22.325  26.107  1.00  0.00     0.163 HD
ATOM     79  O   UNL A   1      31.606  21.771  25.196  1.00  0.00    -0.269 OA
BRANCH  77  80
ATOM     80  C   UNL A   1      32.583  19.929  24.157  1.00  0.00     0.045 A 
ATOM     81  C   UNL A   1      32.242  19.969  22.809  1.00  0.00     0.034 A 
ATOM     82  C   UNL A   1      32.975  18.732  24.759  1.00  0.00     0.063 A 
ATOM     83  C   UNL A   1      32.290  18.782  22.107  1.00  0.00     0.114 A 
ATOM     84  C   UNL A   1      33.001  17.586  23.974  1.00  0.00     0.157 A 
ATOM     85  N   UNL A   1      32.664  17.605  22.657  1.00  0.00    -0.237 NA
BRANCH  84  86
ATOM     86  N   UNL A   1      33.408  16.350  24.544  1.00  0.00    -0.182 N 
ATOM     87  C   UNL A   1      32.642  15.347  25.085  1.00  0.00     0.254 A 
ATOM     88  N   UNL A   1      34.704  15.969  24.631  1.00  0.00    -0.039 NA
ATOM     89  N   UNL A   1      33.423  14.394  25.539  1.00  0.00    -0.117 NA
ATOM     90  N   UNL A   1      34.701  14.801  25.257  1.00  0.00    -0.024 NA
ENDBRANCH  84  86
ENDBRANCH  77  80
ENDBRANCH  75  76
ENDBRANCH  74  75
ENDBRANCH  73  74
ENDBRANCH  72  73
ENDBRANCH   1  72
TORSDOF 17
ENDMDL
