MODEL 1
REMARK VINA RESULT:     -11.0      0.000      0.000
REMARK SMILES CS(=O)(=O)Nc1cc(NS(C)(=O)=O)cc(C(=O)NCCCCCCNC(=O)c2ccc(-c3c4nc(c(-c5cc(S(=O)(=O)[O-])ccc5F)c5ccc([nH]5)c(-c5cc(S(=O)(=O)[O-])ccc5F)c5nc(c(-c6cc(S(=O)(=O)[O-])ccc6F)c6ccc3[nH]6)C=C5)C=C4)cc2)c1
REMARK SMILES IDX 22 1 21 2 20 3 19 4 18 5 16 6 17 7 15 9 6 10 7 11 91 12 8 13
REMARK SMILES IDX 14 14 5 15 2 17 1 18 3 19 4 20 9 21 10 23 11 24 12 25 13 26
REMARK SMILES IDX 23 27 24 28 25 29 26 30 27 32 28 33 29 34 90 35 30 36 89 37
REMARK SMILES IDX 31 38 32 39 33 40 83 41 34 42 88 43 82 44 84 45 35 46 87 47
REMARK SMILES IDX 81 48 80 49 36 51 68 52 48 53 67 54 49 55 52 56 66 57 85 58
REMARK SMILES IDX 50 59 51 60 65 62 86 63 53 64 37 65 38 66 46 67 39 68 45 69
REMARK SMILES IDX 47 70 44 71 40 72 41 73 42 74 43 75 69 76 70 77 78 78 71 79
REMARK SMILES IDX 77 80 79 81 76 82 72 83 73 84 74 85 75 86 54 87 55 88 63 89
REMARK SMILES IDX 56 90 62 91 64 92 61 93 57 94 58 95 59 96 60 97
REMARK H PARENT 18 8 5 16 9 22 25 31 84 50 52 61
REMARK Flexibility Score: inf
ROOT
ATOM      1  C   UNL A   1      31.985  27.141  26.085  1.00  0.00     0.002 C 
ENDROOT
BRANCH   1   2
ATOM      2  C   UNL A   1      30.801  26.564  25.297  1.00  0.00     0.002 C 
BRANCH   2   3
ATOM      3  C   UNL A   1      31.199  25.784  24.039  1.00  0.00     0.021 C 
BRANCH   3   4
ATOM      4  C   UNL A   1      30.751  24.324  24.095  1.00  0.00     0.116 C 
BRANCH   4   5
ATOM      5  N   UNL A   1      30.517  23.922  25.468  1.00  0.00    -0.352 N 
ATOM      6  C   UNL A   1      31.045  22.962  26.285  1.00  0.00     0.251 C 
ATOM      7  O   UNL A   1      30.572  22.880  27.422  1.00  0.00    -0.269 OA
ATOM      8  H   UNL A   1      29.822  24.461  25.911  1.00  0.00     0.163 HD
BRANCH   6   9
ATOM      9  C   UNL A   1      32.199  22.086  25.930  1.00  0.00     0.043 A 
ATOM     10  C   UNL A   1      33.265  20.329  24.671  1.00  0.00     0.051 A 
ATOM     11  C   UNL A   1      34.520  20.801  25.057  1.00  0.00     0.053 A 
ATOM     12  C   UNL A   1      32.118  20.894  25.216  1.00  0.00     0.040 A 
ATOM     13  C   UNL A   1      34.627  21.835  25.982  1.00  0.00     0.051 A 
ATOM     14  C   UNL A   1      33.470  22.534  26.329  1.00  0.00     0.040 A 
BRANCH  10  15
ATOM     15  N   UNL A   1      33.243  19.252  23.743  1.00  0.00    -0.284 N 
ATOM     16  H   UNL A   1      32.925  19.440  22.831  1.00  0.00     0.180 HD
BRANCH  15  17
ATOM     17  S   UNL A   1      33.720  17.687  24.092  1.00  0.00     0.229 S 
ATOM     18  C   UNL A   1      32.720  17.242  25.503  1.00  0.00     0.183 C 
ATOM     19  O   UNL A   1      35.109  17.708  24.501  1.00  0.00    -0.207 OA
ATOM     20  O   UNL A   1      33.284  16.892  22.966  1.00  0.00    -0.207 OA
ENDBRANCH  15  17
ENDBRANCH  10  15
BRANCH  13  21
ATOM     21  N   UNL A   1      35.882  22.359  26.445  1.00  0.00    -0.284 N 
ATOM     22  H   UNL A   1      36.047  22.462  27.411  1.00  0.00     0.180 HD
BRANCH  21  23
ATOM     23  S   UNL A   1      37.083  22.802  25.325  1.00  0.00     0.229 S 
ATOM     24  C   UNL A   1      37.927  24.036  26.284  1.00  0.00     0.183 C 
ATOM     25  O   UNL A   1      37.962  21.656  25.204  1.00  0.00    -0.207 OA
ATOM     26  O   UNL A   1      36.522  23.454  24.167  1.00  0.00    -0.207 OA
ENDBRANCH  21  23
ENDBRANCH  13  21
ENDBRANCH   6   9
ENDBRANCH   4   5
ENDBRANCH   3   4
ENDBRANCH   2   3
ENDBRANCH   1   2
BRANCH   1  27
ATOM     27  C   UNL A   1      31.844  28.619  26.460  1.00  0.00     0.021 C 
BRANCH  27  28
ATOM     28  C   UNL A   1      33.018  29.484  26.015  1.00  0.00     0.116 C 
BRANCH  28  29
ATOM     29  N   UNL A   1      32.763  30.893  26.279  1.00  0.00    -0.352 N 
ATOM     30  C   UNL A   1      33.356  31.726  27.192  1.00  0.00     0.251 C 
ATOM     31  H   UNL A   1      32.064  31.306  25.724  1.00  0.00     0.163 HD
ATOM     32  O   UNL A   1      32.823  32.794  27.477  1.00  0.00    -0.269 OA
BRANCH  30  33
ATOM     33  C   UNL A   1      34.626  31.325  27.830  1.00  0.00     0.039 A 
ATOM     34  C   UNL A   1      35.655  32.262  27.941  1.00  0.00     0.014 A 
ATOM     35  C   UNL A   1      34.806  30.022  28.305  1.00  0.00     0.014 A 
ATOM     36  C   UNL A   1      36.846  31.905  28.575  1.00  0.00     0.010 A 
ATOM     37  C   UNL A   1      35.962  29.693  29.005  1.00  0.00     0.010 A 
ATOM     38  C   UNL A   1      36.998  30.628  29.141  1.00  0.00    -0.014 A 
BRANCH  38  39
ATOM     39  C   UNL A   1      38.235  30.255  29.873  1.00  0.00     0.031 A 
ATOM     40  C   UNL A   1      39.182  29.243  29.286  1.00  0.00     0.074 A 
ATOM     41  C   UNL A   1      38.475  30.789  31.087  1.00  0.00     0.049 A 
ATOM     42  N   UNL A   1      40.276  28.742  29.798  1.00  0.00    -0.248 NA
ATOM     43  C   UNL A   1      38.842  28.706  27.958  1.00  0.00     0.031 C 
ATOM     44  C   UNL A   1      37.606  31.750  31.772  1.00  0.00     0.029 A 
ATOM     45  N   UNL A   1      39.510  30.596  31.968  1.00  0.00    -0.354 N 
ATOM     46  C   UNL A   1      40.746  27.822  28.866  1.00  0.00     0.074 A 
ATOM     47  C   UNL A   1      39.789  27.797  27.781  1.00  0.00     0.031 C 
ATOM     48  C   UNL A   1      38.156  32.080  32.951  1.00  0.00     0.029 A 
ATOM     49  C   UNL A   1      39.385  31.314  33.136  1.00  0.00     0.049 A 
ATOM     50  H   UNL A   1      40.271  30.000  31.782  1.00  0.00     0.167 HD
ATOM     51  C   UNL A   1      41.881  27.081  28.907  1.00  0.00     0.034 A 
ATOM     52  C   UNL A   1      40.159  31.336  34.240  1.00  0.00     0.034 A 
ATOM     53  C   UNL A   1      42.828  27.130  29.992  1.00  0.00     0.049 A 
ATOM     54  C   UNL A   1      41.402  30.479  34.269  1.00  0.00     0.074 A 
ATOM     55  C   UNL A   1      44.040  26.472  30.103  1.00  0.00     0.029 A 
ATOM     56  N   UNL A   1      42.669  27.867  31.159  1.00  0.00    -0.354 N 
ATOM     57  N   UNL A   1      41.864  29.663  33.349  1.00  0.00    -0.248 NA
ATOM     58  C   UNL A   1      42.233  30.554  35.477  1.00  0.00     0.031 C 
ATOM     59  C   UNL A   1      44.570  26.740  31.369  1.00  0.00     0.029 A 
ATOM     60  C   UNL A   1      43.740  27.645  32.011  1.00  0.00     0.049 A 
ATOM     61  H   UNL A   1      41.907  28.458  31.353  1.00  0.00     0.167 HD
ATOM     62  C   UNL A   1      43.059  29.158  33.857  1.00  0.00     0.074 A 
ATOM     63  C   UNL A   1      43.253  29.775  35.151  1.00  0.00     0.031 C 
ATOM     64  C   UNL A   1      43.920  28.266  33.302  1.00  0.00     0.034 A 
BRANCH  51  65
ATOM     65  C   UNL A   1      42.146  26.133  27.761  1.00  0.00     0.023 A 
ATOM     66  C   UNL A   1      41.756  24.783  27.806  1.00  0.00     0.031 A 
ATOM     67  C   UNL A   1      42.787  26.594  26.598  1.00  0.00     0.131 A 
ATOM     68  C   UNL A   1      42.060  23.931  26.733  1.00  0.00     0.055 A 
ATOM     69  C   UNL A   1      43.016  25.760  25.502  1.00  0.00     0.041 A 
ATOM     70  F   UNL A   1      43.205  27.866  26.506  1.00  0.00    -0.206 F 
ATOM     71  C   UNL A   1      42.661  24.416  25.570  1.00  0.00     0.022 A 
BRANCH  68  72
ATOM     72  S   UNL A   1      41.766  22.151  26.927  1.00  0.00     0.124 S 
ATOM     73  O   UNL A   1      40.426  22.135  27.507  1.00  0.00    -0.237 OA
ATOM     74  O   UNL A   1      41.876  21.663  25.557  1.00  0.00    -0.237 OA
ATOM     75  O   UNL A   1      42.834  21.724  27.829  1.00  0.00    -0.744 OA
ENDBRANCH  68  72
ENDBRANCH  51  65
BRANCH  52  76
ATOM     76  C   UNL A   1      39.781  32.167  35.422  1.00  0.00     0.023 A 
ATOM     77  C   UNL A   1      38.987  31.643  36.455  1.00  0.00     0.031 A 
ATOM     78  C   UNL A   1      40.150  33.522  35.501  1.00  0.00     0.131 A 
ATOM     79  C   UNL A   1      38.531  32.484  37.483  1.00  0.00     0.055 A 
ATOM     80  C   UNL A   1      39.752  34.337  36.562  1.00  0.00     0.041 A 
ATOM     81  F   UNL A   1      40.908  34.078  34.542  1.00  0.00    -0.206 F 
ATOM     82  C   UNL A   1      38.921  33.823  37.553  1.00  0.00     0.022 A 
BRANCH  79  83
ATOM     83  S   UNL A   1      37.316  31.833  38.661  1.00  0.00     0.124 S 
ATOM     84  O   UNL A   1      38.037  31.946  39.924  1.00  0.00    -0.237 OA
ATOM     85  O   UNL A   1      36.196  32.749  38.477  1.00  0.00    -0.237 OA
ATOM     86  O   UNL A   1      37.086  30.467  38.193  1.00  0.00    -0.744 OA
ENDBRANCH  79  83
ENDBRANCH  52  76
BRANCH  64  87
ATOM     87  C   UNL A   1      45.179  27.952  34.075  1.00  0.00     0.023 A 
ATOM     88  C   UNL A   1      46.362  28.694  33.906  1.00  0.00     0.031 A 
ATOM     89  C   UNL A   1      45.194  26.886  34.993  1.00  0.00     0.131 A 
ATOM     90  C   UNL A   1      47.525  28.321  34.597  1.00  0.00     0.055 A 
ATOM     91  C   UNL A   1      46.334  26.566  35.731  1.00  0.00     0.041 A 
ATOM     92  F   UNL A   1      44.096  26.139  35.191  1.00  0.00    -0.206 F 
ATOM     93  C   UNL A   1      47.512  27.275  35.524  1.00  0.00     0.022 A 
BRANCH  90  94
ATOM     94  S   UNL A   1      49.083  29.154  34.191  1.00  0.00     0.124 S 
ATOM     95  O   UNL A   1      50.010  28.540  35.136  1.00  0.00    -0.237 OA
ATOM     96  O   UNL A   1      49.272  28.796  32.789  1.00  0.00    -0.237 OA
ATOM     97  O   UNL A   1      48.791  30.566  34.436  1.00  0.00    -0.744 OA
ENDBRANCH  90  94
ENDBRANCH  64  87
ENDBRANCH  38  39
ENDBRANCH  30  33
ENDBRANCH  28  29
ENDBRANCH  27  28
ENDBRANCH   1  27
TORSDOF 20
ENDMDL
MODEL 2
REMARK VINA RESULT:     -10.9      1.484      2.832
REMARK SMILES CS(=O)(=O)Nc1cc(NS(C)(=O)=O)cc(C(=O)NCCCCCCNC(=O)c2ccc(-c3c4nc(c(-c5cc(S(=O)(=O)[O-])ccc5F)c5ccc([nH]5)c(-c5cc(S(=O)(=O)[O-])ccc5F)c5nc(c(-c6cc(S(=O)(=O)[O-])ccc6F)c6ccc3[nH]6)C=C5)C=C4)cc2)c1
REMARK SMILES IDX 22 1 21 2 20 3 19 4 18 5 16 6 17 7 15 9 6 10 7 11 91 12 8 13
REMARK SMILES IDX 14 14 5 15 2 17 1 18 3 19 4 20 9 21 10 23 11 24 12 25 13 26
REMARK SMILES IDX 23 27 24 28 25 29 26 30 27 32 28 33 29 34 90 35 30 36 89 37
REMARK SMILES IDX 31 38 32 39 33 40 83 41 34 42 88 43 82 44 84 45 35 46 87 47
REMARK SMILES IDX 81 48 80 49 36 51 68 52 48 53 67 54 49 55 52 56 66 57 85 58
REMARK SMILES IDX 50 59 51 60 65 62 86 63 53 64 37 65 38 66 46 67 39 68 45 69
REMARK SMILES IDX 47 70 44 71 40 72 41 73 42 74 43 75 69 76 70 77 78 78 71 79
REMARK SMILES IDX 77 80 79 81 76 82 72 83 73 84 74 85 75 86 54 87 55 88 63 89
REMARK SMILES IDX 56 90 62 91 64 92 61 93 57 94 58 95 59 96 60 97
REMARK H PARENT 18 8 5 16 9 22 25 31 84 50 52 61
REMARK Flexibility Score: inf
ROOT
ATOM      1  C   UNL A   1      31.588  26.778  25.803  1.00  0.00     0.002 C 
ENDROOT
BRANCH   1   2
ATOM      2  C   UNL A   1      30.341  26.388  24.998  1.00  0.00     0.002 C 
BRANCH   2   3
ATOM      3  C   UNL A   1      30.639  25.859  23.589  1.00  0.00     0.021 C 
BRANCH   3   4
ATOM      4  C   UNL A   1      30.605  24.332  23.523  1.00  0.00     0.116 C 
BRANCH   4   5
ATOM      5  N   UNL A   1      30.308  23.779  24.829  1.00  0.00    -0.352 N 
ATOM      6  C   UNL A   1      30.900  22.838  25.625  1.00  0.00     0.251 C 
ATOM      7  O   UNL A   1      30.340  22.585  26.695  1.00  0.00    -0.269 OA
ATOM      8  H   UNL A   1      29.499  24.168  25.234  1.00  0.00     0.163 HD
BRANCH   6   9
ATOM      9  C   UNL A   1      32.205  22.178  25.332  1.00  0.00     0.043 A 
ATOM     10  C   UNL A   1      34.551  21.777  25.710  1.00  0.00     0.051 A 
ATOM     11  C   UNL A   1      34.475  20.588  24.983  1.00  0.00     0.053 A 
ATOM     12  C   UNL A   1      33.450  22.623  25.766  1.00  0.00     0.040 A 
ATOM     13  C   UNL A   1      33.302  20.247  24.317  1.00  0.00     0.051 A 
ATOM     14  C   UNL A   1      32.151  20.991  24.582  1.00  0.00     0.040 A 
BRANCH  10  15
ATOM     15  N   UNL A   1      35.794  22.065  26.339  1.00  0.00    -0.284 N 
ATOM     16  H   UNL A   1      35.844  21.972  27.317  1.00  0.00     0.180 HD
BRANCH  15  17
ATOM     17  S   UNL A   1      37.177  22.551  25.532  1.00  0.00     0.229 S 
ATOM     18  C   UNL A   1      36.561  23.205  23.989  1.00  0.00     0.183 C 
ATOM     19  O   UNL A   1      37.980  21.382  25.247  1.00  0.00    -0.207 OA
ATOM     20  O   UNL A   1      37.705  23.653  26.305  1.00  0.00    -0.207 OA
ENDBRANCH  15  17
ENDBRANCH  10  15
BRANCH  13  21
ATOM     21  N   UNL A   1      33.154  19.054  23.531  1.00  0.00    -0.284 N 
ATOM     22  H   UNL A   1      32.687  19.089  22.664  1.00  0.00     0.180 HD
BRANCH  21  23
ATOM     23  S   UNL A   1      33.785  17.579  24.098  1.00  0.00     0.229 S 
ATOM     24  C   UNL A   1      32.765  17.367  25.537  1.00  0.00     0.183 C 
ATOM     25  O   UNL A   1      33.396  16.577  23.126  1.00  0.00    -0.207 OA
ATOM     26  O   UNL A   1      35.149  17.716  24.544  1.00  0.00    -0.207 OA
ENDBRANCH  21  23
ENDBRANCH  13  21
ENDBRANCH   6   9
ENDBRANCH   4   5
ENDBRANCH   3   4
ENDBRANCH   2   3
ENDBRANCH   1   2
BRANCH   1  27
ATOM     27  C   UNL A   1      31.580  28.213  26.338  1.00  0.00     0.021 C 
BRANCH  27  28
ATOM     28  C   UNL A   1      32.761  29.055  25.869  1.00  0.00     0.116 C 
BRANCH  28  29
ATOM     29  N   UNL A   1      32.490  30.476  26.026  1.00  0.00    -0.352 N 
ATOM     30  C   UNL A   1      33.050  31.375  26.895  1.00  0.00     0.251 C 
ATOM     31  H   UNL A   1      31.804  30.843  25.424  1.00  0.00     0.163 HD
ATOM     32  O   UNL A   1      32.503  32.457  27.090  1.00  0.00    -0.269 OA
BRANCH  30  33
ATOM     33  C   UNL A   1      34.305  31.031  27.595  1.00  0.00     0.039 A 
ATOM     34  C   UNL A   1      35.248  32.032  27.830  1.00  0.00     0.014 A 
ATOM     35  C   UNL A   1      34.553  29.718  28.007  1.00  0.00     0.014 A 
ATOM     36  C   UNL A   1      36.420  31.726  28.522  1.00  0.00     0.010 A 
ATOM     37  C   UNL A   1      35.684  29.432  28.765  1.00  0.00     0.010 A 
ATOM     38  C   UNL A   1      36.634  30.431  29.025  1.00  0.00    -0.014 A 
BRANCH  38  39
ATOM     39  C   UNL A   1      37.847  30.106  29.818  1.00  0.00     0.031 A 
ATOM     40  C   UNL A   1      38.861  29.133  29.279  1.00  0.00     0.074 A 
ATOM     41  C   UNL A   1      38.004  30.647  31.043  1.00  0.00     0.049 A 
ATOM     42  N   UNL A   1      39.947  28.674  29.846  1.00  0.00    -0.248 NA
ATOM     43  C   UNL A   1      38.609  28.585  27.936  1.00  0.00     0.031 C 
ATOM     44  C   UNL A   1      37.065  31.572  31.682  1.00  0.00     0.029 A 
ATOM     45  N   UNL A   1      39.000  30.494  31.974  1.00  0.00    -0.354 N 
ATOM     46  C   UNL A   1      40.499  27.775  28.939  1.00  0.00     0.074 A 
ATOM     47  C   UNL A   1      39.599  27.714  27.807  1.00  0.00     0.031 C 
ATOM     48  C   UNL A   1      37.542  31.921  32.888  1.00  0.00     0.029 A 
ATOM     49  C   UNL A   1      38.789  31.204  33.134  1.00  0.00     0.049 A 
ATOM     50  H   UNL A   1      39.793  29.929  31.827  1.00  0.00     0.167 HD
ATOM     51  C   UNL A   1      41.658  27.079  29.036  1.00  0.00     0.034 A 
ATOM     52  C   UNL A   1      39.505  31.255  34.275  1.00  0.00     0.034 A 
ATOM     53  C   UNL A   1      42.548  27.164  30.168  1.00  0.00     0.049 A 
ATOM     54  C   UNL A   1      40.778  30.447  34.367  1.00  0.00     0.074 A 
ATOM     55  C   UNL A   1      43.778  26.554  30.340  1.00  0.00     0.029 A 
ATOM     56  N   UNL A   1      42.302  27.892  31.325  1.00  0.00    -0.354 N 
ATOM     57  N   UNL A   1      41.318  29.652  33.471  1.00  0.00    -0.248 NA
ATOM     58  C   UNL A   1      41.544  30.553  35.615  1.00  0.00     0.031 C 
ATOM     59  C   UNL A   1      44.233  26.841  31.631  1.00  0.00     0.029 A 
ATOM     60  C   UNL A   1      43.337  27.711  32.230  1.00  0.00     0.049 A 
ATOM     61  H   UNL A   1      41.508  28.453  31.480  1.00  0.00     0.167 HD
ATOM     62  C   UNL A   1      42.505  29.193  34.038  1.00  0.00     0.074 A 
ATOM     63  C   UNL A   1      42.609  29.815  35.341  1.00  0.00     0.031 C 
ATOM     64  C   UNL A   1      43.427  28.337  33.528  1.00  0.00     0.034 A 
BRANCH  51  65
ATOM     65  C   UNL A   1      42.018  26.145  27.906  1.00  0.00     0.023 A 
ATOM     66  C   UNL A   1      41.658  24.786  27.920  1.00  0.00     0.031 A 
ATOM     67  C   UNL A   1      42.720  26.627  26.787  1.00  0.00     0.131 A 
ATOM     68  C   UNL A   1      42.049  23.947  26.865  1.00  0.00     0.055 A 
ATOM     69  C   UNL A   1      43.038  25.806  25.705  1.00  0.00     0.041 A 
ATOM     70  F   UNL A   1      43.113  27.910  26.728  1.00  0.00    -0.206 F 
ATOM     71  C   UNL A   1      42.711  24.453  25.744  1.00  0.00     0.022 A 
BRANCH  68  72
ATOM     72  S   UNL A   1      41.786  22.160  27.032  1.00  0.00     0.124 S 
ATOM     73  O   UNL A   1      42.694  21.829  28.126  1.00  0.00    -0.237 OA
ATOM     74  O   UNL A   1      40.362  22.078  27.336  1.00  0.00    -0.237 OA
ATOM     75  O   UNL A   1      42.176  21.633  25.726  1.00  0.00    -0.744 OA
ENDBRANCH  68  72
ENDBRANCH  51  65
BRANCH  52  76
ATOM     76  C   UNL A   1      39.036  32.068  35.437  1.00  0.00     0.023 A 
ATOM     77  C   UNL A   1      38.480  31.459  36.574  1.00  0.00     0.031 A 
ATOM     78  C   UNL A   1      39.070  33.474  35.396  1.00  0.00     0.131 A 
ATOM     79  C   UNL A   1      37.922  32.251  37.589  1.00  0.00     0.055 A 
ATOM     80  C   UNL A   1      38.576  34.257  36.440  1.00  0.00     0.041 A 
ATOM     81  F   UNL A   1      39.590  34.111  34.334  1.00  0.00    -0.206 F 
ATOM     82  C   UNL A   1      37.979  33.646  37.538  1.00  0.00     0.022 A 
BRANCH  79  83
ATOM     83  S   UNL A   1      37.001  31.431  38.920  1.00  0.00     0.124 S 
ATOM     84  O   UNL A   1      35.770  32.213  38.954  1.00  0.00    -0.237 OA
ATOM     85  O   UNL A   1      36.883  30.069  38.412  1.00  0.00    -0.237 OA
ATOM     86  O   UNL A   1      37.873  31.589  40.083  1.00  0.00    -0.744 OA
ENDBRANCH  79  83
ENDBRANCH  52  76
BRANCH  64  87
ATOM     87  C   UNL A   1      44.657  28.071  34.363  1.00  0.00     0.023 A 
ATOM     88  C   UNL A   1      44.705  27.034  35.311  1.00  0.00     0.031 A 
ATOM     89  C   UNL A   1      45.800  28.877  34.206  1.00  0.00     0.131 A 
ATOM     90  C   UNL A   1      45.847  26.870  36.110  1.00  0.00     0.055 A 
ATOM     91  C   UNL A   1      46.960  28.662  34.953  1.00  0.00     0.041 A 
ATOM     92  F   UNL A   1      45.811  29.885  33.320  1.00  0.00    -0.206 F 
ATOM     93  C   UNL A   1      46.982  27.665  35.922  1.00  0.00     0.022 A 
BRANCH  90  94
ATOM     94  S   UNL A   1      45.793  25.674  37.472  1.00  0.00     0.124 S 
ATOM     95  O   UNL A   1      47.129  25.805  38.043  1.00  0.00    -0.237 OA
ATOM     96  O   UNL A   1      44.696  26.181  38.289  1.00  0.00    -0.237 OA
ATOM     97  O   UNL A   1      45.528  24.402  36.800  1.00  0.00    -0.744 OA
ENDBRANCH  90  94
ENDBRANCH  64  87
ENDBRANCH  38  39
ENDBRANCH  30  33
ENDBRANCH  28  29
ENDBRANCH  27  28
ENDBRANCH   1  27
TORSDOF 20
ENDMDL
MODEL 3
REMARK VINA RESULT:     -10.8      2.180      2.864
REMARK SMILES CS(=O)(=O)Nc1cc(NS(C)(=O)=O)cc(C(=O)NCCCCCCNC(=O)c2ccc(-c3c4nc(c(-c5cc(S(=O)(=O)[O-])ccc5F)c5ccc([nH]5)c(-c5cc(S(=O)(=O)[O-])ccc5F)c5nc(c(-c6cc(S(=O)(=O)[O-])ccc6F)c6ccc3[nH]6)C=C5)C=C4)cc2)c1
REMARK SMILES IDX 22 1 21 2 20 3 19 4 18 5 16 6 17 7 15 9 6 10 7 11 91 12 8 13
REMARK SMILES IDX 14 14 5 15 2 17 1 18 3 19 4 20 9 21 10 23 11 24 12 25 13 26
REMARK SMILES IDX 23 27 24 28 25 29 26 30 27 32 28 33 29 34 90 35 30 36 89 37
REMARK SMILES IDX 31 38 32 39 33 40 83 41 34 42 88 43 82 44 84 45 35 46 87 47
REMARK SMILES IDX 81 48 80 49 36 51 68 52 48 53 67 54 49 55 52 56 66 57 85 58
REMARK SMILES IDX 50 59 51 60 65 62 86 63 53 64 37 65 38 66 46 67 39 68 45 69
REMARK SMILES IDX 47 70 44 71 40 72 41 73 42 74 43 75 69 76 70 77 78 78 71 79
REMARK SMILES IDX 77 80 79 81 76 82 72 83 73 84 74 85 75 86 54 87 55 88 63 89
REMARK SMILES IDX 56 90 62 91 64 92 61 93 57 94 58 95 59 96 60 97
REMARK H PARENT 18 8 5 16 9 22 25 31 84 50 52 61
REMARK Flexibility Score: inf
ROOT
ATOM      1  C   UNL A   1      32.481  29.397  27.035  1.00  0.00     0.002 C 
ENDROOT
BRANCH   1   2
ATOM      2  C   UNL A   1      31.426  28.369  27.465  1.00  0.00     0.002 C 
BRANCH   2   3
ATOM      3  C   UNL A   1      31.100  27.315  26.400  1.00  0.00     0.021 C 
BRANCH   3   4
ATOM      4  C   UNL A   1      32.060  26.126  26.447  1.00  0.00     0.116 C 
BRANCH   4   5
ATOM      5  N   UNL A   1      31.421  24.988  27.076  1.00  0.00    -0.352 N 
ATOM      6  C   UNL A   1      31.316  23.661  26.767  1.00  0.00     0.251 C 
ATOM      7  O   UNL A   1      30.649  22.963  27.536  1.00  0.00    -0.269 OA
ATOM      8  H   UNL A   1      30.960  25.223  27.914  1.00  0.00     0.163 HD
BRANCH   6   9
ATOM      9  C   UNL A   1      32.019  22.995  25.632  1.00  0.00     0.043 A 
ATOM     10  C   UNL A   1      33.149  21.140  24.587  1.00  0.00     0.051 A 
ATOM     11  C   UNL A   1      32.933  21.706  23.329  1.00  0.00     0.053 A 
ATOM     12  C   UNL A   1      32.807  21.852  25.730  1.00  0.00     0.040 A 
ATOM     13  C   UNL A   1      32.376  22.976  23.217  1.00  0.00     0.051 A 
ATOM     14  C   UNL A   1      31.831  23.562  24.360  1.00  0.00     0.040 A 
BRANCH  10  15
ATOM     15  N   UNL A   1      33.748  19.851  24.615  1.00  0.00    -0.284 N 
ATOM     16  H   UNL A   1      34.713  19.798  24.798  1.00  0.00     0.180 HD
BRANCH  15  17
ATOM     17  S   UNL A   1      32.926  18.416  24.360  1.00  0.00     0.229 S 
ATOM     18  C   UNL A   1      34.222  17.189  24.300  1.00  0.00     0.183 C 
ATOM     19  O   UNL A   1      32.288  18.474  23.062  1.00  0.00    -0.207 OA
ATOM     20  O   UNL A   1      32.156  18.195  25.563  1.00  0.00    -0.207 OA
ENDBRANCH  15  17
ENDBRANCH  10  15
BRANCH  13  21
ATOM     21  N   UNL A   1      32.144  23.633  21.960  1.00  0.00    -0.284 N 
ATOM     22  H   UNL A   1      31.521  23.239  21.306  1.00  0.00     0.180 HD
BRANCH  21  23
ATOM     23  S   UNL A   1      32.946  25.090  21.603  1.00  0.00     0.229 S 
ATOM     24  C   UNL A   1      31.693  26.239  22.118  1.00  0.00     0.183 C 
ATOM     25  O   UNL A   1      34.047  25.182  22.541  1.00  0.00    -0.207 OA
ATOM     26  O   UNL A   1      33.141  25.261  20.184  1.00  0.00    -0.207 OA
ENDBRANCH  21  23
ENDBRANCH  13  21
ENDBRANCH   6   9
ENDBRANCH   4   5
ENDBRANCH   3   4
ENDBRANCH   2   3
ENDBRANCH   1   2
BRANCH   1  27
ATOM     27  C   UNL A   1      31.960  30.832  26.908  1.00  0.00     0.021 C 
BRANCH  27  28
ATOM     28  C   UNL A   1      33.027  31.842  26.501  1.00  0.00     0.116 C 
BRANCH  28  29
ATOM     29  N   UNL A   1      32.694  33.178  26.975  1.00  0.00    -0.352 N 
ATOM     30  C   UNL A   1      33.132  33.835  28.095  1.00  0.00     0.251 C 
ATOM     31  H   UNL A   1      32.063  33.680  26.411  1.00  0.00     0.163 HD
ATOM     32  O   UNL A   1      32.533  34.831  28.490  1.00  0.00    -0.269 OA
BRANCH  30  33
ATOM     33  C   UNL A   1      34.318  33.334  28.820  1.00  0.00     0.039 A 
ATOM     34  C   UNL A   1      34.148  32.364  29.809  1.00  0.00     0.014 A 
ATOM     35  C   UNL A   1      35.592  33.833  28.533  1.00  0.00     0.014 A 
ATOM     36  C   UNL A   1      35.265  31.858  30.475  1.00  0.00     0.010 A 
ATOM     37  C   UNL A   1      36.709  33.271  29.141  1.00  0.00     0.010 A 
ATOM     38  C   UNL A   1      36.558  32.283  30.125  1.00  0.00    -0.014 A 
BRANCH  38  39
ATOM     39  C   UNL A   1      37.759  31.707  30.781  1.00  0.00     0.031 A 
ATOM     40  C   UNL A   1      38.585  30.672  30.066  1.00  0.00     0.074 A 
ATOM     41  C   UNL A   1      38.072  32.080  32.038  1.00  0.00     0.049 A 
ATOM     42  N   UNL A   1      39.628  30.008  30.494  1.00  0.00    -0.248 NA
ATOM     43  C   UNL A   1      38.170  30.319  28.698  1.00  0.00     0.031 C 
ATOM     44  C   UNL A   1      37.320  33.047  32.843  1.00  0.00     0.029 A 
ATOM     45  N   UNL A   1      39.095  31.688  32.866  1.00  0.00    -0.354 N 
ATOM     46  C   UNL A   1      39.984  29.150  29.458  1.00  0.00     0.074 A 
ATOM     47  C   UNL A   1      39.014  29.341  28.402  1.00  0.00     0.031 C 
ATOM     48  C   UNL A   1      37.920  33.189  34.036  1.00  0.00     0.029 A 
ATOM     49  C   UNL A   1      39.064  32.285  34.107  1.00  0.00     0.049 A 
ATOM     50  H   UNL A   1      39.786  31.040  32.598  1.00  0.00     0.167 HD
ATOM     51  C   UNL A   1      41.035  28.296  29.390  1.00  0.00     0.034 A 
ATOM     52  C   UNL A   1      39.853  32.108  35.186  1.00  0.00     0.034 A 
ATOM     53  C   UNL A   1      41.999  28.130  30.450  1.00  0.00     0.049 A 
ATOM     54  C   UNL A   1      40.998  31.129  35.092  1.00  0.00     0.074 A 
ATOM     55  C   UNL A   1      43.136  27.342  30.459  1.00  0.00     0.029 A 
ATOM     56  N   UNL A   1      41.936  28.749  31.692  1.00  0.00    -0.354 N 
ATOM     57  N   UNL A   1      41.358  30.373  34.079  1.00  0.00    -0.248 NA
ATOM     58  C   UNL A   1      41.851  30.987  36.279  1.00  0.00     0.031 C 
ATOM     59  C   UNL A   1      43.711  27.416  31.732  1.00  0.00     0.029 A 
ATOM     60  C   UNL A   1      42.991  28.328  32.487  1.00  0.00     0.049 A 
ATOM     61  H   UNL A   1      41.244  29.392  31.967  1.00  0.00     0.167 HD
ATOM     62  C   UNL A   1      42.501  29.696  34.499  1.00  0.00     0.074 A 
ATOM     63  C   UNL A   1      42.778  30.147  35.846  1.00  0.00     0.031 C 
ATOM     64  C   UNL A   1      43.254  28.784  33.831  1.00  0.00     0.034 A 
BRANCH  51  65
ATOM     65  C   UNL A   1      41.181  27.455  28.145  1.00  0.00     0.023 A 
ATOM     66  C   UNL A   1      40.847  26.089  28.125  1.00  0.00     0.031 A 
ATOM     67  C   UNL A   1      41.649  28.034  26.952  1.00  0.00     0.131 A 
ATOM     68  C   UNL A   1      41.038  25.339  26.955  1.00  0.00     0.055 A 
ATOM     69  C   UNL A   1      41.762  27.301  25.770  1.00  0.00     0.041 A 
ATOM     70  F   UNL A   1      42.007  29.327  26.916  1.00  0.00    -0.206 F 
ATOM     71  C   UNL A   1      41.466  25.941  25.770  1.00  0.00     0.022 A 
BRANCH  68  72
ATOM     72  S   UNL A   1      40.835  23.538  27.034  1.00  0.00     0.124 S 
ATOM     73  O   UNL A   1      41.674  23.097  25.923  1.00  0.00    -0.237 OA
ATOM     74  O   UNL A   1      41.326  23.223  28.371  1.00  0.00    -0.237 OA
ATOM     75  O   UNL A   1      39.399  23.346  26.836  1.00  0.00    -0.744 OA
ENDBRANCH  68  72
ENDBRANCH  51  65
BRANCH  52  76
ATOM     76  C   UNL A   1      39.582  32.841  36.458  1.00  0.00     0.023 A 
ATOM     77  C   UNL A   1      38.688  32.334  37.414  1.00  0.00     0.031 A 
ATOM     78  C   UNL A   1      40.161  34.100  36.704  1.00  0.00     0.131 A 
ATOM     79  C   UNL A   1      38.347  33.107  38.535  1.00  0.00     0.055 A 
ATOM     80  C   UNL A   1      39.872  34.835  37.855  1.00  0.00     0.041 A 
ATOM     81  F   UNL A   1      41.023  34.636  35.825  1.00  0.00    -0.206 F 
ATOM     82  C   UNL A   1      38.944  34.348  38.770  1.00  0.00     0.022 A 
BRANCH  79  83
ATOM     83  S   UNL A   1      37.013  32.525  39.617  1.00  0.00     0.124 S 
ATOM     84  O   UNL A   1      35.845  32.681  38.757  1.00  0.00    -0.237 OA
ATOM     85  O   UNL A   1      37.426  31.155  39.897  1.00  0.00    -0.237 OA
ATOM     86  O   UNL A   1      37.077  33.439  40.756  1.00  0.00    -0.744 OA
ENDBRANCH  79  83
ENDBRANCH  52  76
BRANCH  64  87
ATOM     87  C   UNL A   1      44.485  28.261  34.533  1.00  0.00     0.023 A 
ATOM     88  C   UNL A   1      44.431  27.167  35.414  1.00  0.00     0.031 A 
ATOM     89  C   UNL A   1      45.732  28.874  34.316  1.00  0.00     0.131 A 
ATOM     90  C   UNL A   1      45.590  26.760  36.094  1.00  0.00     0.055 A 
ATOM     91  C   UNL A   1      46.895  28.419  34.940  1.00  0.00     0.041 A 
ATOM     92  F   UNL A   1      45.843  29.927  33.490  1.00  0.00    -0.206 F 
ATOM     93  C   UNL A   1      46.824  27.366  35.846  1.00  0.00     0.022 A 
BRANCH  90  94
ATOM     94  S   UNL A   1      45.442  25.497  37.387  1.00  0.00     0.124 S 
ATOM     95  O   UNL A   1      44.831  24.389  36.660  1.00  0.00    -0.237 OA
ATOM     96  O   UNL A   1      46.830  25.305  37.795  1.00  0.00    -0.237 OA
ATOM     97  O   UNL A   1      44.584  26.131  38.388  1.00  0.00    -0.744 OA
ENDBRANCH  90  94
ENDBRANCH  64  87
ENDBRANCH  38  39
ENDBRANCH  30  33
ENDBRANCH  28  29
ENDBRANCH  27  28
ENDBRANCH   1  27
TORSDOF 20
ENDMDL
