MODEL 1
REMARK VINA RESULT:     -11.6      0.000      0.000
REMARK SMILES Cc1cc(C)n([C@@H](C(=O)NCCCCCCNC(=O)c2ccc(-c3c4nc(c(-c5cc(S(=O)(=O)[O-])ccc5F)c5ccc([nH]5)c(-c5cc(S(=O)(=O)[O-])ccc5F)c5nc(c(-c6cc(S(=O)(=O)[O-])ccc6F)c6ccc3[nH]6)C=C5)C=C4)cc2)C(C)C)n1
REMARK SMILES IDX 14 1 13 2 12 3 11 4 10 5 8 6 9 7 7 9 6 10 1 11 2 12 3 13
REMARK SMILES IDX 86 14 4 15 5 16 83 17 84 18 85 19 15 20 16 21 17 22 18 23
REMARK SMILES IDX 19 25 20 26 21 27 82 28 22 29 81 30 23 31 24 32 25 33 75 34
REMARK SMILES IDX 26 35 80 36 74 37 76 38 27 39 79 40 73 41 72 42 28 44 60 45
REMARK SMILES IDX 40 46 59 47 41 48 44 49 58 50 77 51 42 52 43 53 57 55 78 56
REMARK SMILES IDX 45 57 29 58 30 59 38 60 31 61 37 62 39 63 36 64 32 65 33 66
REMARK SMILES IDX 34 67 35 68 61 69 62 70 70 71 63 72 69 73 71 74 68 75 64 76
REMARK SMILES IDX 65 77 66 78 67 79 46 80 47 81 55 82 48 83 54 84 56 85 53 86
REMARK SMILES IDX 49 87 50 88 51 89 52 90
REMARK H PARENT 10 8 17 24 76 43 44 54
REMARK Flexibility Score: inf
ROOT
ATOM      1  C   UNL A   1      36.115  21.062  25.331  1.00  0.00     0.002 C 
ENDROOT
BRANCH   1   2
ATOM      2  C   UNL A   1      34.725  20.628  24.835  1.00  0.00     0.002 C 
BRANCH   2   3
ATOM      3  C   UNL A   1      33.654  20.457  25.922  1.00  0.00     0.021 C 
BRANCH   3   4
ATOM      4  C   UNL A   1      33.686  21.546  26.994  1.00  0.00     0.116 C 
BRANCH   4   5
ATOM      5  N   UNL A   1      32.340  21.962  27.346  1.00  0.00    -0.354 N 
ATOM      6  C   UNL A   1      31.622  23.032  26.889  1.00  0.00     0.245 C 
ATOM      7  O   UNL A   1      30.578  23.303  27.490  1.00  0.00    -0.273 OA
ATOM      8  H   UNL A   1      31.879  21.394  28.006  1.00  0.00     0.163 HD
BRANCH   6   9
ATOM      9  C   UNL A   1      32.090  23.799  25.650  1.00  0.00     0.199 C 
BRANCH   9  10
ATOM     10  N   UNL A   1      32.528  25.149  26.019  1.00  0.00    -0.257 N 
ATOM     11  C   UNL A   1      31.533  28.301  27.321  1.00  0.00     0.069 C 
ATOM     12  C   UNL A   1      32.244  27.128  26.756  1.00  0.00     0.060 A 
ATOM     13  C   UNL A   1      33.551  27.078  26.236  1.00  0.00     0.048 A 
ATOM     14  N   UNL A   1      31.638  25.940  26.668  1.00  0.00    -0.177 NA
ATOM     15  C   UNL A   1      33.721  25.789  25.774  1.00  0.00     0.037 A 
ATOM     16  C   UNL A   1      34.902  25.185  25.112  1.00  0.00     0.066 C 
ENDBRANCH   9  10
BRANCH   9  17
ATOM     17  C   UNL A   1      31.054  23.789  24.491  1.00  0.00     0.017 C 
ATOM     18  C   UNL A   1      31.133  25.075  23.656  1.00  0.00     0.010 C 
ATOM     19  C   UNL A   1      31.259  22.597  23.540  1.00  0.00     0.010 C 
ENDBRANCH   9  17
ENDBRANCH   6   9
ENDBRANCH   4   5
ENDBRANCH   3   4
ENDBRANCH   2   3
ENDBRANCH   1   2
BRANCH   1  20
ATOM     20  C   UNL A   1      37.288  20.146  24.954  1.00  0.00     0.021 C 
BRANCH  20  21
ATOM     21  C   UNL A   1      38.615  20.596  25.537  1.00  0.00     0.116 C 
BRANCH  21  22
ATOM     22  N   UNL A   1      39.522  19.474  25.818  1.00  0.00    -0.352 N 
ATOM     23  C   UNL A   1      40.889  19.519  26.072  1.00  0.00     0.251 C 
ATOM     24  H   UNL A   1      39.110  18.580  25.828  1.00  0.00     0.163 HD
ATOM     25  O   UNL A   1      41.593  18.539  25.916  1.00  0.00    -0.269 OA
BRANCH  23  26
ATOM     26  C   UNL A   1      41.445  20.795  26.561  1.00  0.00     0.039 A 
ATOM     27  C   UNL A   1      42.205  21.669  25.776  1.00  0.00     0.014 A 
ATOM     28  C   UNL A   1      41.109  21.125  27.864  1.00  0.00     0.014 A 
ATOM     29  C   UNL A   1      42.567  22.903  26.321  1.00  0.00     0.010 A 
ATOM     30  C   UNL A   1      41.195  22.420  28.261  1.00  0.00     0.010 A 
ATOM     31  C   UNL A   1      42.051  23.264  27.574  1.00  0.00    -0.014 A 
BRANCH  31  32
ATOM     32  C   UNL A   1      42.286  24.546  28.222  1.00  0.00     0.031 A 
ATOM     33  C   UNL A   1      41.212  25.543  27.993  1.00  0.00     0.074 A 
ATOM     34  C   UNL A   1      43.216  24.660  29.204  1.00  0.00     0.049 A 
ATOM     35  N   UNL A   1      41.292  26.654  27.341  1.00  0.00    -0.248 NA
ATOM     36  C   UNL A   1      39.834  25.188  28.381  1.00  0.00     0.031 C 
ATOM     37  C   UNL A   1      44.119  23.624  29.734  1.00  0.00     0.029 A 
ATOM     38  N   UNL A   1      43.460  25.696  30.047  1.00  0.00    -0.354 N 
ATOM     39  C   UNL A   1      40.050  27.262  27.481  1.00  0.00     0.074 A 
ATOM     40  C   UNL A   1      39.146  26.222  27.891  1.00  0.00     0.031 C 
ATOM     41  C   UNL A   1      44.603  24.003  30.939  1.00  0.00     0.029 A 
ATOM     42  C   UNL A   1      44.192  25.371  31.191  1.00  0.00     0.049 A 
ATOM     43  H   UNL A   1      43.142  26.609  29.865  1.00  0.00     0.167 HD
ATOM     44  C   UNL A   1      39.934  28.618  27.531  1.00  0.00     0.034 A 
ATOM     45  C   UNL A   1      44.424  26.165  32.275  1.00  0.00     0.034 A 
ATOM     46  C   UNL A   1      41.154  29.255  27.079  1.00  0.00     0.049 A 
ATOM     47  C   UNL A   1      44.199  27.560  31.813  1.00  0.00     0.074 A 
ATOM     48  C   UNL A   1      41.891  29.210  25.910  1.00  0.00     0.029 A 
ATOM     49  N   UNL A   1      42.017  29.740  28.036  1.00  0.00    -0.354 N 
ATOM     50  N   UNL A   1      44.933  28.128  30.893  1.00  0.00    -0.248 NA
ATOM     51  C   UNL A   1      42.859  28.111  31.959  1.00  0.00     0.031 C 
ATOM     52  C   UNL A   1      43.251  29.149  26.344  1.00  0.00     0.029 A 
ATOM     53  C   UNL A   1      43.274  29.268  27.736  1.00  0.00     0.049 A 
ATOM     54  H   UNL A   1      41.779  30.319  28.796  1.00  0.00     0.167 HD
ATOM     55  C   UNL A   1      44.032  28.777  30.060  1.00  0.00     0.074 A 
ATOM     56  C   UNL A   1      42.777  28.803  30.816  1.00  0.00     0.031 C 
ATOM     57  C   UNL A   1      44.289  28.955  28.728  1.00  0.00     0.034 A 
BRANCH  44  58
ATOM     58  C   UNL A   1      38.893  29.368  28.334  1.00  0.00     0.023 A 
ATOM     59  C   UNL A   1      39.058  29.395  29.732  1.00  0.00     0.031 A 
ATOM     60  C   UNL A   1      37.633  29.797  27.855  1.00  0.00     0.131 A 
ATOM     61  C   UNL A   1      37.989  29.736  30.578  1.00  0.00     0.055 A 
ATOM     62  C   UNL A   1      36.596  30.204  28.699  1.00  0.00     0.041 A 
ATOM     63  F   UNL A   1      37.293  29.756  26.562  1.00  0.00    -0.206 F 
ATOM     64  C   UNL A   1      36.758  30.143  30.070  1.00  0.00     0.022 A 
BRANCH  61  65
ATOM     65  S   UNL A   1      38.180  29.458  32.356  1.00  0.00     0.124 S 
ATOM     66  O   UNL A   1      37.557  30.655  32.911  1.00  0.00    -0.237 OA
ATOM     67  O   UNL A   1      37.454  28.207  32.544  1.00  0.00    -0.237 OA
ATOM     68  O   UNL A   1      39.628  29.372  32.531  1.00  0.00    -0.744 OA
ENDBRANCH  61  65
ENDBRANCH  44  58
BRANCH  45  69
ATOM     69  C   UNL A   1      44.424  25.751  33.715  1.00  0.00     0.023 A 
ATOM     70  C   UNL A   1      43.398  26.083  34.633  1.00  0.00     0.031 A 
ATOM     71  C   UNL A   1      45.362  24.786  34.151  1.00  0.00     0.131 A 
ATOM     72  C   UNL A   1      43.350  25.465  35.912  1.00  0.00     0.055 A 
ATOM     73  C   UNL A   1      45.307  24.179  35.410  1.00  0.00     0.041 A 
ATOM     74  F   UNL A   1      46.324  24.333  33.331  1.00  0.00    -0.206 F 
ATOM     75  C   UNL A   1      44.296  24.511  36.293  1.00  0.00     0.022 A 
BRANCH  72  76
ATOM     76  S   UNL A   1      42.007  25.841  37.094  1.00  0.00     0.124 S 
ATOM     77  O   UNL A   1      42.741  26.147  38.315  1.00  0.00    -0.237 OA
ATOM     78  O   UNL A   1      41.324  26.956  36.448  1.00  0.00    -0.237 OA
ATOM     79  O   UNL A   1      41.234  24.598  37.140  1.00  0.00    -0.744 OA
ENDBRANCH  72  76
ENDBRANCH  45  69
BRANCH  57  80
ATOM     80  C   UNL A   1      45.678  28.616  28.208  1.00  0.00     0.023 A 
ATOM     81  C   UNL A   1      46.107  27.330  27.796  1.00  0.00     0.031 A 
ATOM     82  C   UNL A   1      46.563  29.687  28.003  1.00  0.00     0.131 A 
ATOM     83  C   UNL A   1      47.383  27.158  27.215  1.00  0.00     0.055 A 
ATOM     84  C   UNL A   1      47.814  29.518  27.409  1.00  0.00     0.041 A 
ATOM     85  F   UNL A   1      46.208  30.937  28.344  1.00  0.00    -0.206 F 
ATOM     86  C   UNL A   1      48.232  28.251  27.017  1.00  0.00     0.022 A 
BRANCH  83  87
ATOM     87  S   UNL A   1      47.976  25.504  26.720  1.00  0.00     0.124 S 
ATOM     88  O   UNL A   1      49.419  25.586  26.918  1.00  0.00    -0.237 OA
ATOM     89  O   UNL A   1      47.255  24.620  27.632  1.00  0.00    -0.237 OA
ATOM     90  O   UNL A   1      47.561  25.398  25.320  1.00  0.00    -0.744 OA
ENDBRANCH  83  87
ENDBRANCH  57  80
ENDBRANCH  31  32
ENDBRANCH  23  26
ENDBRANCH  21  22
ENDBRANCH  20  21
ENDBRANCH   1  20
TORSDOF 18
ENDMDL
MODEL 2
REMARK VINA RESULT:     -11.2      4.449      9.681
REMARK SMILES Cc1cc(C)n([C@@H](C(=O)NCCCCCCNC(=O)c2ccc(-c3c4nc(c(-c5cc(S(=O)(=O)[O-])ccc5F)c5ccc([nH]5)c(-c5cc(S(=O)(=O)[O-])ccc5F)c5nc(c(-c6cc(S(=O)(=O)[O-])ccc6F)c6ccc3[nH]6)C=C5)C=C4)cc2)C(C)C)n1
REMARK SMILES IDX 14 1 13 2 12 3 11 4 10 5 8 6 9 7 7 9 6 10 1 11 2 12 3 13
REMARK SMILES IDX 86 14 4 15 5 16 83 17 84 18 85 19 15 20 16 21 17 22 18 23
REMARK SMILES IDX 19 25 20 26 21 27 82 28 22 29 81 30 23 31 24 32 25 33 75 34
REMARK SMILES IDX 26 35 80 36 74 37 76 38 27 39 79 40 73 41 72 42 28 44 60 45
REMARK SMILES IDX 40 46 59 47 41 48 44 49 58 50 77 51 42 52 43 53 57 55 78 56
REMARK SMILES IDX 45 57 29 58 30 59 38 60 31 61 37 62 39 63 36 64 32 65 33 66
REMARK SMILES IDX 34 67 35 68 61 69 62 70 70 71 63 72 69 73 71 74 68 75 64 76
REMARK SMILES IDX 65 77 66 78 67 79 46 80 47 81 55 82 48 83 54 84 56 85 53 86
REMARK SMILES IDX 49 87 50 88 51 89 52 90
REMARK H PARENT 10 8 17 24 76 43 44 54
REMARK Flexibility Score: inf
ROOT
ATOM      1  C   UNL A   1      34.244  34.117  32.017  1.00  0.00     0.002 C 
ENDROOT
BRANCH   1   2
ATOM      2  C   UNL A   1      34.479  33.334  33.320  1.00  0.00     0.002 C 
BRANCH   2   3
ATOM      3  C   UNL A   1      35.213  34.097  34.432  1.00  0.00     0.021 C 
BRANCH   3   4
ATOM      4  C   UNL A   1      36.644  33.612  34.671  1.00  0.00     0.116 C 
BRANCH   4   5
ATOM      5  N   UNL A   1      36.874  32.340  34.010  1.00  0.00    -0.354 N 
ATOM      6  C   UNL A   1      38.024  31.857  33.450  1.00  0.00     0.245 C 
ATOM      7  O   UNL A   1      37.925  30.838  32.760  1.00  0.00    -0.273 OA
ATOM      8  H   UNL A   1      36.094  31.741  33.958  1.00  0.00     0.163 HD
BRANCH   6   9
ATOM      9  C   UNL A   1      39.365  32.538  33.737  1.00  0.00     0.199 C 
BRANCH   9  10
ATOM     10  N   UNL A   1      39.981  32.998  32.489  1.00  0.00    -0.257 N 
ATOM     11  C   UNL A   1      42.850  32.833  30.401  1.00  0.00     0.069 C 
ATOM     12  C   UNL A   1      41.541  33.109  31.042  1.00  0.00     0.060 A 
ATOM     13  C   UNL A   1      40.589  34.079  30.678  1.00  0.00     0.048 A 
ATOM     14  N   UNL A   1      41.149  32.418  32.116  1.00  0.00    -0.177 NA
ATOM     15  C   UNL A   1      39.583  33.986  31.618  1.00  0.00     0.037 A 
ATOM     16  C   UNL A   1      38.337  34.783  31.732  1.00  0.00     0.066 C 
ENDBRANCH   9  10
BRANCH   9  17
ATOM     17  C   UNL A   1      40.320  31.675  34.609  1.00  0.00     0.017 C 
ATOM     18  C   UNL A   1      41.360  32.545  35.330  1.00  0.00     0.010 C 
ATOM     19  C   UNL A   1      39.562  30.867  35.675  1.00  0.00     0.010 C 
ENDBRANCH   9  17
ENDBRANCH   6   9
ENDBRANCH   4   5
ENDBRANCH   3   4
ENDBRANCH   2   3
ENDBRANCH   1   2
BRANCH   1  20
ATOM     20  C   UNL A   1      35.108  33.710  30.814  1.00  0.00     0.021 C 
BRANCH  20  21
ATOM     21  C   UNL A   1      35.393  32.220  30.754  1.00  0.00     0.116 C 
BRANCH  21  22
ATOM     22  N   UNL A   1      34.833  31.583  29.554  1.00  0.00    -0.352 N 
ATOM     23  C   UNL A   1      35.519  31.042  28.470  1.00  0.00     0.251 C 
ATOM     24  H   UNL A   1      33.851  31.532  29.511  1.00  0.00     0.163 HD
ATOM     25  O   UNL A   1      34.978  30.892  27.391  1.00  0.00    -0.269 OA
BRANCH  23  26
ATOM     26  C   UNL A   1      36.920  30.636  28.692  1.00  0.00     0.039 A 
ATOM     27  C   UNL A   1      37.914  31.491  29.182  1.00  0.00     0.014 A 
ATOM     28  C   UNL A   1      37.196  29.302  28.441  1.00  0.00     0.014 A 
ATOM     29  C   UNL A   1      39.171  30.951  29.464  1.00  0.00     0.010 A 
ATOM     30  C   UNL A   1      38.296  28.738  29.000  1.00  0.00     0.010 A 
ATOM     31  C   UNL A   1      39.345  29.563  29.365  1.00  0.00    -0.014 A 
BRANCH  31  32
ATOM     32  C   UNL A   1      40.578  28.863  29.700  1.00  0.00     0.031 A 
ATOM     33  C   UNL A   1      40.791  28.682  31.157  1.00  0.00     0.074 A 
ATOM     34  C   UNL A   1      41.250  28.161  28.752  1.00  0.00     0.049 A 
ATOM     35  N   UNL A   1      41.716  29.203  31.891  1.00  0.00    -0.248 NA
ATOM     36  C   UNL A   1      39.751  27.980  31.933  1.00  0.00     0.031 C 
ATOM     37  C   UNL A   1      40.928  28.013  27.323  1.00  0.00     0.029 A 
ATOM     38  N   UNL A   1      42.294  27.306  28.890  1.00  0.00    -0.354 N 
ATOM     39  C   UNL A   1      41.534  28.668  33.161  1.00  0.00     0.074 A 
ATOM     40  C   UNL A   1      40.194  28.147  33.182  1.00  0.00     0.031 C 
ATOM     41  C   UNL A   1      41.584  26.948  26.808  1.00  0.00     0.029 A 
ATOM     42  C   UNL A   1      42.503  26.444  27.811  1.00  0.00     0.049 A 
ATOM     43  H   UNL A   1      42.862  27.292  29.694  1.00  0.00     0.167 HD
ATOM     44  C   UNL A   1      42.595  28.437  33.983  1.00  0.00     0.034 A 
ATOM     45  C   UNL A   1      43.355  25.381  27.756  1.00  0.00     0.034 A 
ATOM     46  C   UNL A   1      43.775  29.127  33.504  1.00  0.00     0.049 A 
ATOM     47  C   UNL A   1      44.357  25.607  28.831  1.00  0.00     0.074 A 
ATOM     48  C   UNL A   1      44.079  30.449  33.233  1.00  0.00     0.029 A 
ATOM     49  N   UNL A   1      44.717  28.390  32.820  1.00  0.00    -0.354 N 
ATOM     50  N   UNL A   1      45.180  26.622  28.830  1.00  0.00    -0.248 NA
ATOM     51  C   UNL A   1      44.075  25.046  30.145  1.00  0.00     0.031 C 
ATOM     52  C   UNL A   1      44.812  30.407  32.009  1.00  0.00     0.029 A 
ATOM     53  C   UNL A   1      45.009  29.068  31.659  1.00  0.00     0.049 A 
ATOM     54  H   UNL A   1      45.109  27.535  33.108  1.00  0.00     0.167 HD
ATOM     55  C   UNL A   1      45.165  27.104  30.131  1.00  0.00     0.074 A 
ATOM     56  C   UNL A   1      44.532  26.040  30.915  1.00  0.00     0.031 C 
ATOM     57  C   UNL A   1      45.375  28.427  30.407  1.00  0.00     0.034 A 
BRANCH  44  58
ATOM     58  C   UNL A   1      42.684  27.306  34.983  1.00  0.00     0.023 A 
ATOM     59  C   UNL A   1      43.449  26.182  34.615  1.00  0.00     0.031 A 
ATOM     60  C   UNL A   1      41.856  27.141  36.118  1.00  0.00     0.131 A 
ATOM     61  C   UNL A   1      43.303  24.957  35.290  1.00  0.00     0.055 A 
ATOM     62  C   UNL A   1      41.769  25.941  36.829  1.00  0.00     0.041 A 
ATOM     63  F   UNL A   1      41.013  28.085  36.548  1.00  0.00    -0.206 F 
ATOM     64  C   UNL A   1      42.469  24.830  36.397  1.00  0.00     0.022 A 
BRANCH  61  65
ATOM     65  S   UNL A   1      44.082  23.487  34.577  1.00  0.00     0.124 S 
ATOM     66  O   UNL A   1      42.989  22.925  33.792  1.00  0.00    -0.237 OA
ATOM     67  O   UNL A   1      45.186  24.070  33.822  1.00  0.00    -0.237 OA
ATOM     68  O   UNL A   1      44.471  22.709  35.751  1.00  0.00    -0.744 OA
ENDBRANCH  61  65
ENDBRANCH  44  58
BRANCH  45  69
ATOM     69  C   UNL A   1      43.099  24.050  27.118  1.00  0.00     0.023 A 
ATOM     70  C   UNL A   1      44.018  23.393  26.264  1.00  0.00     0.031 A 
ATOM     71  C   UNL A   1      41.995  23.282  27.556  1.00  0.00     0.131 A 
ATOM     72  C   UNL A   1      43.806  22.040  25.885  1.00  0.00     0.055 A 
ATOM     73  C   UNL A   1      41.795  21.949  27.183  1.00  0.00     0.041 A 
ATOM     74  F   UNL A   1      41.111  23.777  28.437  1.00  0.00    -0.206 F 
ATOM     75  C   UNL A   1      42.704  21.319  26.352  1.00  0.00     0.022 A 
BRANCH  72  76
ATOM     76  S   UNL A   1      45.004  21.156  24.825  1.00  0.00     0.124 S 
ATOM     77  O   UNL A   1      44.710  19.759  25.117  1.00  0.00    -0.237 OA
ATOM     78  O   UNL A   1      44.652  21.630  23.492  1.00  0.00    -0.237 OA
ATOM     79  O   UNL A   1      46.303  21.622  25.313  1.00  0.00    -0.744 OA
ENDBRANCH  72  76
ENDBRANCH  45  69
BRANCH  57  80
ATOM     80  C   UNL A   1      45.838  29.336  29.278  1.00  0.00     0.023 A 
ATOM     81  C   UNL A   1      44.988  30.115  28.453  1.00  0.00     0.031 A 
ATOM     82  C   UNL A   1      47.223  29.514  29.126  1.00  0.00     0.131 A 
ATOM     83  C   UNL A   1      45.539  31.016  27.516  1.00  0.00     0.055 A 
ATOM     84  C   UNL A   1      47.763  30.421  28.215  1.00  0.00     0.041 A 
ATOM     85  F   UNL A   1      48.084  28.829  29.897  1.00  0.00    -0.206 F 
ATOM     86  C   UNL A   1      46.923  31.173  27.402  1.00  0.00     0.022 A 
BRANCH  83  87
ATOM     87  S   UNL A   1      44.465  31.994  26.409  1.00  0.00     0.124 S 
ATOM     88  O   UNL A   1      45.367  32.412  25.342  1.00  0.00    -0.237 OA
ATOM     89  O   UNL A   1      43.433  31.032  26.033  1.00  0.00    -0.237 OA
ATOM     90  O   UNL A   1      43.994  33.084  27.267  1.00  0.00    -0.744 OA
ENDBRANCH  83  87
ENDBRANCH  57  80
ENDBRANCH  31  32
ENDBRANCH  23  26
ENDBRANCH  21  22
ENDBRANCH  20  21
ENDBRANCH   1  20
TORSDOF 18
ENDMDL
MODEL 3
REMARK VINA RESULT:     -11.2      4.413      9.768
REMARK SMILES Cc1cc(C)n([C@@H](C(=O)NCCCCCCNC(=O)c2ccc(-c3c4nc(c(-c5cc(S(=O)(=O)[O-])ccc5F)c5ccc([nH]5)c(-c5cc(S(=O)(=O)[O-])ccc5F)c5nc(c(-c6cc(S(=O)(=O)[O-])ccc6F)c6ccc3[nH]6)C=C5)C=C4)cc2)C(C)C)n1
REMARK SMILES IDX 14 1 13 2 12 3 11 4 10 5 8 6 9 7 7 9 6 10 1 11 2 12 3 13
REMARK SMILES IDX 86 14 4 15 5 16 83 17 84 18 85 19 15 20 16 21 17 22 18 23
REMARK SMILES IDX 19 25 20 26 21 27 82 28 22 29 81 30 23 31 24 32 25 33 75 34
REMARK SMILES IDX 26 35 80 36 74 37 76 38 27 39 79 40 73 41 72 42 28 44 60 45
REMARK SMILES IDX 40 46 59 47 41 48 44 49 58 50 77 51 42 52 43 53 57 55 78 56
REMARK SMILES IDX 45 57 29 58 30 59 38 60 31 61 37 62 39 63 36 64 32 65 33 66
REMARK SMILES IDX 34 67 35 68 61 69 62 70 70 71 63 72 69 73 71 74 68 75 64 76
REMARK SMILES IDX 65 77 66 78 67 79 46 80 47 81 55 82 48 83 54 84 56 85 53 86
REMARK SMILES IDX 49 87 50 88 51 89 52 90
REMARK H PARENT 10 8 17 24 76 43 44 54
REMARK Flexibility Score: inf
ROOT
ATOM      1  C   UNL A   1      31.605  30.234  26.138  1.00  0.00     0.002 C 
ENDROOT
BRANCH   1   2
ATOM      2  C   UNL A   1      33.056  29.781  25.905  1.00  0.00     0.002 C 
BRANCH   2   3
ATOM      3  C   UNL A   1      33.514  28.567  26.725  1.00  0.00     0.021 C 
BRANCH   3   4
ATOM      4  C   UNL A   1      33.659  27.286  25.902  1.00  0.00     0.116 C 
BRANCH   4   5
ATOM      5  N   UNL A   1      32.864  26.213  26.473  1.00  0.00    -0.354 N 
ATOM      6  C   UNL A   1      32.828  24.891  26.128  1.00  0.00     0.245 C 
ATOM      7  O   UNL A   1      31.920  24.210  26.614  1.00  0.00    -0.273 OA
ATOM      8  H   UNL A   1      32.267  26.474  27.212  1.00  0.00     0.163 HD
BRANCH   6   9
ATOM      9  C   UNL A   1      33.916  24.301  25.227  1.00  0.00     0.199 C 
BRANCH   9  10
ATOM     10  N   UNL A   1      33.330  23.801  23.980  1.00  0.00    -0.257 N 
ATOM     11  C   UNL A   1      32.070  20.955  22.268  1.00  0.00     0.069 C 
ATOM     12  C   UNL A   1      32.526  22.297  22.700  1.00  0.00     0.060 A 
ATOM     13  C   UNL A   1      32.688  23.451  21.911  1.00  0.00     0.048 A 
ATOM     14  N   UNL A   1      32.872  22.524  23.972  1.00  0.00    -0.177 NA
ATOM     15  C   UNL A   1      33.198  24.415  22.756  1.00  0.00     0.037 A 
ATOM     16  C   UNL A   1      33.576  25.816  22.451  1.00  0.00     0.066 C 
ENDBRANCH   9  10
BRANCH   9  17
ATOM     17  C   UNL A   1      34.811  23.253  25.946  1.00  0.00     0.017 C 
ATOM     18  C   UNL A   1      36.271  23.721  26.023  1.00  0.00     0.010 C 
ATOM     19  C   UNL A   1      34.332  22.966  27.379  1.00  0.00     0.010 C 
ENDBRANCH   9  17
ENDBRANCH   6   9
ENDBRANCH   4   5
ENDBRANCH   3   4
ENDBRANCH   2   3
ENDBRANCH   1   2
BRANCH   1  20
ATOM     20  C   UNL A   1      31.405  31.711  26.509  1.00  0.00     0.021 C 
BRANCH  20  21
ATOM     21  C   UNL A   1      32.605  32.324  27.206  1.00  0.00     0.116 C 
BRANCH  21  22
ATOM     22  N   UNL A   1      32.444  33.763  27.454  1.00  0.00    -0.352 N 
ATOM     23  C   UNL A   1      33.058  34.540  28.432  1.00  0.00     0.251 C 
ATOM     24  H   UNL A   1      31.825  34.238  26.853  1.00  0.00     0.163 HD
ATOM     25  O   UNL A   1      32.582  35.602  28.786  1.00  0.00    -0.269 OA
BRANCH  23  26
ATOM     26  C   UNL A   1      34.321  34.033  29.003  1.00  0.00     0.039 A 
ATOM     27  C   UNL A   1      34.440  33.511  30.296  1.00  0.00     0.014 A 
ATOM     28  C   UNL A   1      35.405  34.044  28.141  1.00  0.00     0.014 A 
ATOM     29  C   UNL A   1      35.663  32.950  30.672  1.00  0.00     0.010 A 
ATOM     30  C   UNL A   1      36.464  33.236  28.402  1.00  0.00     0.010 A 
ATOM     31  C   UNL A   1      36.671  32.822  29.706  1.00  0.00    -0.014 A 
BRANCH  31  32
ATOM     32  C   UNL A   1      37.962  32.191  29.943  1.00  0.00     0.031 A 
ATOM     33  C   UNL A   1      38.014  30.760  29.554  1.00  0.00     0.074 A 
ATOM     34  C   UNL A   1      39.067  32.947  30.163  1.00  0.00     0.049 A 
ATOM     35  N   UNL A   1      38.163  29.737  30.326  1.00  0.00    -0.248 NA
ATOM     36  C   UNL A   1      37.685  30.403  28.161  1.00  0.00     0.031 C 
ATOM     37  C   UNL A   1      39.171  34.415  30.244  1.00  0.00     0.029 A 
ATOM     38  N   UNL A   1      40.371  32.574  30.222  1.00  0.00    -0.354 N 
ATOM     39  C   UNL A   1      38.226  28.635  29.480  1.00  0.00     0.074 A 
ATOM     40  C   UNL A   1      37.677  29.069  28.224  1.00  0.00     0.031 C 
ATOM     41  C   UNL A   1      40.458  34.797  30.081  1.00  0.00     0.029 A 
ATOM     42  C   UNL A   1      41.293  33.611  30.062  1.00  0.00     0.049 A 
ATOM     43  H   UNL A   1      40.646  31.641  30.367  1.00  0.00     0.167 HD
ATOM     44  C   UNL A   1      38.991  27.553  29.795  1.00  0.00     0.034 A 
ATOM     45  C   UNL A   1      42.643  33.498  29.903  1.00  0.00     0.034 A 
ATOM     46  C   UNL A   1      39.380  27.587  31.190  1.00  0.00     0.049 A 
ATOM     47  C   UNL A   1      43.002  32.153  30.425  1.00  0.00     0.074 A 
ATOM     48  C   UNL A   1      38.686  27.634  32.385  1.00  0.00     0.029 A 
ATOM     49  N   UNL A   1      40.654  28.014  31.491  1.00  0.00    -0.354 N 
ATOM     50  N   UNL A   1      42.842  31.814  31.677  1.00  0.00    -0.248 NA
ATOM     51  C   UNL A   1      43.009  31.042  29.483  1.00  0.00     0.031 C 
ATOM     52  C   UNL A   1      39.405  28.576  33.182  1.00  0.00     0.029 A 
ATOM     53  C   UNL A   1      40.547  28.966  32.479  1.00  0.00     0.049 A 
ATOM     54  H   UNL A   1      41.488  27.697  31.077  1.00  0.00     0.167 HD
ATOM     55  C   UNL A   1      42.289  30.542  31.641  1.00  0.00     0.074 A 
ATOM     56  C   UNL A   1      42.495  30.085  30.264  1.00  0.00     0.031 C 
ATOM     57  C   UNL A   1      41.446  30.099  32.623  1.00  0.00     0.034 A 
BRANCH  44  58
ATOM     58  C   UNL A   1      39.706  26.677  28.790  1.00  0.00     0.023 A 
ATOM     59  C   UNL A   1      40.743  27.270  28.044  1.00  0.00     0.031 A 
ATOM     60  C   UNL A   1      39.257  25.419  28.325  1.00  0.00     0.131 A 
ATOM     61  C   UNL A   1      41.213  26.675  26.861  1.00  0.00     0.055 A 
ATOM     62  C   UNL A   1      39.779  24.797  27.187  1.00  0.00     0.041 A 
ATOM     63  F   UNL A   1      38.230  24.763  28.875  1.00  0.00    -0.206 F 
ATOM     64  C   UNL A   1      40.739  25.440  26.428  1.00  0.00     0.022 A 
BRANCH  61  65
ATOM     65  S   UNL A   1      42.322  27.634  25.800  1.00  0.00     0.124 S 
ATOM     66  O   UNL A   1      42.424  26.774  24.626  1.00  0.00    -0.237 OA
ATOM     67  O   UNL A   1      41.575  28.875  25.629  1.00  0.00    -0.237 OA
ATOM     68  O   UNL A   1      43.541  27.744  26.598  1.00  0.00    -0.744 OA
ENDBRANCH  61  65
ENDBRANCH  44  58
BRANCH  45  69
ATOM     69  C   UNL A   1      43.514  34.298  28.985  1.00  0.00     0.023 A 
ATOM     70  C   UNL A   1      43.995  33.826  27.739  1.00  0.00     0.031 A 
ATOM     71  C   UNL A   1      43.692  35.679  29.238  1.00  0.00     0.131 A 
ATOM     72  C   UNL A   1      44.619  34.717  26.825  1.00  0.00     0.055 A 
ATOM     73  C   UNL A   1      44.303  36.552  28.332  1.00  0.00     0.041 A 
ATOM     74  F   UNL A   1      43.196  36.250  30.348  1.00  0.00    -0.206 F 
ATOM     75  C   UNL A   1      44.763  36.075  27.117  1.00  0.00     0.022 A 
BRANCH  72  76
ATOM     76  S   UNL A   1      45.202  34.140  25.191  1.00  0.00     0.124 S 
ATOM     77  O   UNL A   1      44.159  34.626  24.297  1.00  0.00    -0.237 OA
ATOM     78  O   UNL A   1      46.506  34.782  25.078  1.00  0.00    -0.237 OA
ATOM     79  O   UNL A   1      45.250  32.684  25.339  1.00  0.00    -0.744 OA
ENDBRANCH  72  76
ENDBRANCH  45  69
BRANCH  57  80
ATOM     80  C   UNL A   1      41.288  30.948  33.876  1.00  0.00     0.023 A 
ATOM     81  C   UNL A   1      40.383  32.029  34.023  1.00  0.00     0.031 A 
ATOM     82  C   UNL A   1      42.003  30.548  35.016  1.00  0.00     0.131 A 
ATOM     83  C   UNL A   1      40.236  32.669  35.273  1.00  0.00     0.055 A 
ATOM     84  C   UNL A   1      41.839  31.166  36.256  1.00  0.00     0.041 A 
ATOM     85  F   UNL A   1      42.855  29.511  34.954  1.00  0.00    -0.206 F 
ATOM     86  C   UNL A   1      40.959  32.234  36.388  1.00  0.00     0.022 A 
BRANCH  83  87
ATOM     87  S   UNL A   1      39.113  34.094  35.475  1.00  0.00     0.124 S 
ATOM     88  O   UNL A   1      39.966  35.118  36.069  1.00  0.00    -0.237 OA
ATOM     89  O   UNL A   1      38.669  34.347  34.107  1.00  0.00    -0.237 OA
ATOM     90  O   UNL A   1      38.069  33.582  36.365  1.00  0.00    -0.744 OA
ENDBRANCH  83  87
ENDBRANCH  57  80
ENDBRANCH  31  32
ENDBRANCH  23  26
ENDBRANCH  21  22
ENDBRANCH  20  21
ENDBRANCH   1  20
TORSDOF 18
ENDMDL
