MODEL 1
REMARK VINA RESULT:     -13.3      0.000      0.000
REMARK SMILES CC1(C)[C@@]2(C(=O)NCCCCCCNC(=O)c3ccc(-c4c5nc(c(-c6cc(S(=O)(=O)[O-])ccc6F)c6ccc([nH]6)c(-c6cc(S(=O)(=O)[O-])ccc6F)c6nc(c(-c7cc(S(=O)(=O)[O-])ccc7F)c7ccc4[nH]7)C=C6)C=C5)cc3)CC[C@]1(C)/C(=N/NC(=O)c1ccc(Cl)cc1)C2
REMARK SMILES IDX 11 1 10 2 9 3 8 4 7 5 5 6 6 7 4 9 1 10 2 11 3 12 82 13 80 14
REMARK SMILES IDX 96 15 81 16 83 17 84 18 85 19 86 20 87 21 88 23 89 24 90 25
REMARK SMILES IDX 95 26 91 27 94 28 92 29 93 30 12 31 13 32 14 33 15 34 16 36
REMARK SMILES IDX 17 37 18 38 79 39 19 40 78 41 20 42 21 43 22 44 72 45 23 46
REMARK SMILES IDX 77 47 71 48 73 49 24 50 76 51 70 52 69 53 25 55 57 56 37 57
REMARK SMILES IDX 56 58 38 59 41 60 55 61 74 62 39 63 40 64 54 66 75 67 42 68
REMARK SMILES IDX 26 69 27 70 35 71 28 72 34 73 36 74 33 75 29 76 30 77 31 78
REMARK SMILES IDX 32 79 58 80 59 81 67 82 60 83 66 84 68 85 65 86 61 87 62 88
REMARK SMILES IDX 63 89 64 90 43 91 44 92 52 93 45 94 51 95 53 96 50 97 46 98
REMARK SMILES IDX 47 99 48 100 49 101
REMARK H PARENT 7 8 86 22 14 35 73 54 41 65
REMARK Flexibility Score: inf
ROOT
ATOM      1  C   UNL A   1      31.803  30.167  25.971  1.00  0.00     0.002 C 
ENDROOT
BRANCH   1   2
ATOM      2  C   UNL A   1      30.936  29.834  24.746  1.00  0.00     0.002 C 
BRANCH   2   3
ATOM      3  C   UNL A   1      31.683  29.070  23.648  1.00  0.00     0.021 C 
BRANCH   3   4
ATOM      4  C   UNL A   1      33.124  28.618  23.936  1.00  0.00     0.116 C 
BRANCH   4   5
ATOM      5  N   UNL A   1      33.751  27.673  23.020  1.00  0.00    -0.356 N 
ATOM      6  C   UNL A   1      33.480  26.346  22.787  1.00  0.00     0.227 C 
ATOM      7  O   UNL A   1      33.604  25.964  21.619  1.00  0.00    -0.274 OA
ATOM      8  H   UNL A   1      34.486  28.045  22.481  1.00  0.00     0.163 HD
BRANCH   6   9
ATOM      9  C   UNL A   1      33.231  25.331  23.913  1.00  0.00     0.060 C 
ATOM     10  C   UNL A   1      30.789  25.925  24.551  1.00  0.00     0.013 C 
ATOM     11  C   UNL A   1      31.772  24.802  24.150  1.00  0.00    -0.010 C 
ATOM     12  C   UNL A   1      31.093  24.008  23.012  1.00  0.00     0.013 C 
ATOM     13  C   UNL A   1      32.233  23.859  25.314  1.00  0.00     0.014 C 
ATOM     14  C   UNL A   1      33.659  25.770  25.352  1.00  0.00     0.019 C 
ATOM     15  C   UNL A   1      33.982  24.018  23.587  1.00  0.00     0.071 C 
ATOM     16  C   UNL A   1      32.893  24.832  26.301  1.00  0.00     0.014 C 
ATOM     17  C   UNL A   1      31.203  22.944  25.938  1.00  0.00     0.018 C 
ATOM     18  C   UNL A   1      33.467  23.145  24.681  1.00  0.00     0.046 C 
ATOM     19  N   UNL A   1      33.932  22.078  25.239  1.00  0.00    -0.181 NA
BRANCH  19  20
ATOM     20  N   UNL A   1      35.031  21.304  25.050  1.00  0.00    -0.243 N 
ATOM     21  C   UNL A   1      35.428  19.993  24.903  1.00  0.00     0.271 C 
ATOM     22  H   UNL A   1      35.825  21.885  25.001  1.00  0.00     0.194 HD
ATOM     23  O   UNL A   1      36.636  19.748  24.828  1.00  0.00    -0.267 OA
BRANCH  21  24
ATOM     24  C   UNL A   1      34.540  18.837  24.867  1.00  0.00     0.041 A 
ATOM     25  C   UNL A   1      34.985  17.668  24.237  1.00  0.00     0.015 A 
ATOM     26  C   UNL A   1      33.245  18.907  25.369  1.00  0.00     0.015 A 
ATOM     27  C   UNL A   1      34.233  16.497  24.331  1.00  0.00     0.021 A 
ATOM     28  C   UNL A   1      32.525  17.717  25.508  1.00  0.00     0.021 A 
ATOM     29  C   UNL A   1      33.041  16.511  25.043  1.00  0.00     0.041 A 
ATOM     30  Cl  UNL A   1      32.243  15.035  25.414  1.00  0.00    -0.084 Cl
ENDBRANCH  21  24
ENDBRANCH  19  20
ENDBRANCH   6   9
ENDBRANCH   4   5
ENDBRANCH   3   4
ENDBRANCH   2   3
ENDBRANCH   1   2
BRANCH   1  31
ATOM     31  C   UNL A   1      31.601  31.553  26.596  1.00  0.00     0.021 C 
BRANCH  31  32
ATOM     32  C   UNL A   1      32.866  32.196  27.156  1.00  0.00     0.116 C 
BRANCH  32  33
ATOM     33  N   UNL A   1      32.659  33.608  27.433  1.00  0.00    -0.352 N 
ATOM     34  C   UNL A   1      33.183  34.361  28.462  1.00  0.00     0.251 C 
ATOM     35  H   UNL A   1      32.071  34.087  26.807  1.00  0.00     0.163 HD
ATOM     36  O   UNL A   1      32.689  35.440  28.750  1.00  0.00    -0.269 OA
BRANCH  34  37
ATOM     37  C   UNL A   1      34.347  33.841  29.217  1.00  0.00     0.039 A 
ATOM     38  C   UNL A   1      34.141  32.956  30.278  1.00  0.00     0.014 A 
ATOM     39  C   UNL A   1      35.640  34.244  28.875  1.00  0.00     0.014 A 
ATOM     40  C   UNL A   1      35.241  32.431  30.965  1.00  0.00     0.010 A 
ATOM     41  C   UNL A   1      36.736  33.676  29.523  1.00  0.00     0.010 A 
ATOM     42  C   UNL A   1      36.548  32.769  30.578  1.00  0.00    -0.014 A 
BRANCH  42  43
ATOM     43  C   UNL A   1      37.736  32.205  31.273  1.00  0.00     0.031 A 
ATOM     44  C   UNL A   1      38.506  31.075  30.643  1.00  0.00     0.074 A 
ATOM     45  C   UNL A   1      38.070  32.645  32.502  1.00  0.00     0.049 A 
ATOM     46  N   UNL A   1      39.496  30.372  31.128  1.00  0.00    -0.248 NA
ATOM     47  C   UNL A   1      38.075  30.661  29.299  1.00  0.00     0.031 C 
ATOM     48  C   UNL A   1      37.372  33.702  33.237  1.00  0.00     0.029 A 
ATOM     49  N   UNL A   1      39.061  32.243  33.362  1.00  0.00    -0.354 N 
ATOM     50  C   UNL A   1      39.791  29.415  30.163  1.00  0.00     0.074 A 
ATOM     51  C   UNL A   1      38.837  29.598  29.089  1.00  0.00     0.031 C 
ATOM     52  C   UNL A   1      37.957  33.865  34.434  1.00  0.00     0.029 A 
ATOM     53  C   UNL A   1      39.044  32.898  34.572  1.00  0.00     0.049 A 
ATOM     54  H   UNL A   1      39.723  31.550  33.135  1.00  0.00     0.167 HD
ATOM     55  C   UNL A   1      40.778  28.482  30.163  1.00  0.00     0.034 A 
ATOM     56  C   UNL A   1      39.800  32.728  35.676  1.00  0.00     0.034 A 
ATOM     57  C   UNL A   1      41.730  28.329  31.236  1.00  0.00     0.049 A 
ATOM     58  C   UNL A   1      40.889  31.686  35.661  1.00  0.00     0.074 A 
ATOM     59  C   UNL A   1      42.821  27.479  31.306  1.00  0.00     0.029 A 
ATOM     60  N   UNL A   1      41.698  29.030  32.437  1.00  0.00    -0.354 N 
ATOM     61  N   UNL A   1      41.204  30.836  34.710  1.00  0.00    -0.248 NA
ATOM     62  C   UNL A   1      41.732  31.587  36.859  1.00  0.00     0.031 C 
ATOM     63  C   UNL A   1      43.401  27.613  32.572  1.00  0.00     0.029 A 
ATOM     64  C   UNL A   1      42.725  28.604  33.266  1.00  0.00     0.049 A 
ATOM     65  H   UNL A   1      41.041  29.727  32.664  1.00  0.00     0.167 HD
ATOM     66  C   UNL A   1      42.298  30.119  35.187  1.00  0.00     0.074 A 
ATOM     67  C   UNL A   1      42.594  30.644  36.505  1.00  0.00     0.031 C 
ATOM     68  C   UNL A   1      42.999  29.125  34.586  1.00  0.00     0.034 A 
BRANCH  55  69
ATOM     69  C   UNL A   1      40.845  27.540  28.983  1.00  0.00     0.023 A 
ATOM     70  C   UNL A   1      41.808  27.689  27.969  1.00  0.00     0.031 A 
ATOM     71  C   UNL A   1      39.907  26.502  28.848  1.00  0.00     0.131 A 
ATOM     72  C   UNL A   1      41.753  26.878  26.825  1.00  0.00     0.055 A 
ATOM     73  C   UNL A   1      39.913  25.640  27.748  1.00  0.00     0.041 A 
ATOM     74  F   UNL A   1      38.951  26.318  29.773  1.00  0.00    -0.206 F 
ATOM     75  C   UNL A   1      40.827  25.838  26.718  1.00  0.00     0.022 A 
BRANCH  72  76
ATOM     76  S   UNL A   1      42.798  27.314  25.406  1.00  0.00     0.124 S 
ATOM     77  O   UNL A   1      42.110  28.491  24.883  1.00  0.00    -0.237 OA
ATOM     78  O   UNL A   1      44.093  27.555  26.032  1.00  0.00    -0.237 OA
ATOM     79  O   UNL A   1      42.728  26.130  24.552  1.00  0.00    -0.744 OA
ENDBRANCH  72  76
ENDBRANCH  55  69
BRANCH  56  80
ATOM     80  C   UNL A   1      39.535  33.545  36.895  1.00  0.00     0.023 A 
ATOM     81  C   UNL A   1      38.891  32.996  38.015  1.00  0.00     0.031 A 
ATOM     82  C   UNL A   1      39.916  34.898  36.948  1.00  0.00     0.131 A 
ATOM     83  C   UNL A   1      38.619  33.805  39.130  1.00  0.00     0.055 A 
ATOM     84  C   UNL A   1      39.685  35.686  38.077  1.00  0.00     0.041 A 
ATOM     85  F   UNL A   1      40.543  35.469  35.907  1.00  0.00    -0.206 F 
ATOM     86  C   UNL A   1      39.024  35.141  39.174  1.00  0.00     0.022 A 
BRANCH  83  87
ATOM     87  S   UNL A   1      37.676  33.099  40.509  1.00  0.00     0.124 S 
ATOM     88  O   UNL A   1      38.365  31.831  40.721  1.00  0.00    -0.237 OA
ATOM     89  O   UNL A   1      37.855  34.109  41.546  1.00  0.00    -0.237 OA
ATOM     90  O   UNL A   1      36.321  32.993  39.974  1.00  0.00    -0.744 OA
ENDBRANCH  83  87
ENDBRANCH  56  80
BRANCH  68  91
ATOM     91  C   UNL A   1      44.186  28.567  35.333  1.00  0.00     0.023 A 
ATOM     92  C   UNL A   1      44.047  27.550  36.293  1.00  0.00     0.031 A 
ATOM     93  C   UNL A   1      45.477  29.055  35.067  1.00  0.00     0.131 A 
ATOM     94  C   UNL A   1      45.177  27.081  36.982  1.00  0.00     0.055 A 
ATOM     95  C   UNL A   1      46.604  28.547  35.715  1.00  0.00     0.041 A 
ATOM     96  F   UNL A   1      45.667  30.029  34.162  1.00  0.00    -0.206 F 
ATOM     97  C   UNL A   1      46.456  27.560  36.685  1.00  0.00     0.022 A 
BRANCH  94  98
ATOM     98  S   UNL A   1      44.947  25.883  38.323  1.00  0.00     0.124 S 
ATOM     99  O   UNL A   1      44.134  26.640  39.270  1.00  0.00    -0.237 OA
ATOM    100  O   UNL A   1      44.275  24.778  37.647  1.00  0.00    -0.237 OA
ATOM    101  O   UNL A   1      46.311  25.598  38.767  1.00  0.00    -0.744 OA
ENDBRANCH  94  98
ENDBRANCH  68  91
ENDBRANCH  42  43
ENDBRANCH  34  37
ENDBRANCH  32  33
ENDBRANCH  31  32
ENDBRANCH   1  31
TORSDOF 18
ENDMDL
MODEL 2
REMARK VINA RESULT:     -13.2      3.781      9.053
REMARK SMILES CC1(C)[C@@]2(C(=O)NCCCCCCNC(=O)c3ccc(-c4c5nc(c(-c6cc(S(=O)(=O)[O-])ccc6F)c6ccc([nH]6)c(-c6cc(S(=O)(=O)[O-])ccc6F)c6nc(c(-c7cc(S(=O)(=O)[O-])ccc7F)c7ccc4[nH]7)C=C6)C=C5)cc3)CC[C@]1(C)/C(=N/NC(=O)c1ccc(Cl)cc1)C2
REMARK SMILES IDX 11 1 10 2 9 3 8 4 7 5 5 6 6 7 4 9 1 10 2 11 3 12 82 13 80 14
REMARK SMILES IDX 96 15 81 16 83 17 84 18 85 19 86 20 87 21 88 23 89 24 90 25
REMARK SMILES IDX 95 26 91 27 94 28 92 29 93 30 12 31 13 32 14 33 15 34 16 36
REMARK SMILES IDX 17 37 18 38 79 39 19 40 78 41 20 42 21 43 22 44 72 45 23 46
REMARK SMILES IDX 77 47 71 48 73 49 24 50 76 51 70 52 69 53 25 55 57 56 37 57
REMARK SMILES IDX 56 58 38 59 41 60 55 61 74 62 39 63 40 64 54 66 75 67 42 68
REMARK SMILES IDX 26 69 27 70 35 71 28 72 34 73 36 74 33 75 29 76 30 77 31 78
REMARK SMILES IDX 32 79 58 80 59 81 67 82 60 83 66 84 68 85 65 86 61 87 62 88
REMARK SMILES IDX 63 89 64 90 43 91 44 92 52 93 45 94 51 95 53 96 50 97 46 98
REMARK SMILES IDX 47 99 48 100 49 101
REMARK H PARENT 7 8 86 22 14 35 73 54 41 65
REMARK Flexibility Score: inf
ROOT
ATOM      1  C   UNL A   1      31.926  28.618  27.502  1.00  0.00     0.002 C 
ENDROOT
BRANCH   1   2
ATOM      2  C   UNL A   1      31.110  27.316  27.528  1.00  0.00     0.002 C 
BRANCH   2   3
ATOM      3  C   UNL A   1      31.011  26.620  26.167  1.00  0.00     0.021 C 
BRANCH   3   4
ATOM      4  C   UNL A   1      30.084  25.399  26.046  1.00  0.00     0.116 C 
BRANCH   4   5
ATOM      5  N   UNL A   1      30.531  24.132  26.613  1.00  0.00    -0.356 N 
ATOM      6  C   UNL A   1      31.800  23.644  26.814  1.00  0.00     0.227 C 
ATOM      7  O   UNL A   1      31.966  22.968  27.833  1.00  0.00    -0.274 OA
ATOM      8  H   UNL A   1      29.807  23.528  26.897  1.00  0.00     0.163 HD
BRANCH   6   9
ATOM      9  C   UNL A   1      32.914  23.746  25.760  1.00  0.00     0.060 C 
ATOM     10  C   UNL A   1      34.730  22.249  26.847  1.00  0.00     0.013 C 
ATOM     11  C   UNL A   1      33.898  22.539  25.576  1.00  0.00    -0.010 C 
ATOM     12  C   UNL A   1      33.312  21.185  25.116  1.00  0.00     0.013 C 
ATOM     13  C   UNL A   1      34.667  23.257  24.414  1.00  0.00     0.014 C 
ATOM     14  C   UNL A   1      33.897  24.954  25.903  1.00  0.00     0.019 C 
ATOM     15  C   UNL A   1      32.273  23.834  24.354  1.00  0.00     0.071 C 
ATOM     16  C   UNL A   1      35.131  24.565  25.070  1.00  0.00     0.014 C 
ATOM     17  C   UNL A   1      35.764  22.492  23.708  1.00  0.00     0.018 C 
ATOM     18  C   UNL A   1      33.496  23.742  23.505  1.00  0.00     0.046 C 
ATOM     19  N   UNL A   1      33.751  24.119  22.297  1.00  0.00    -0.181 NA
BRANCH  19  20
ATOM     20  N   UNL A   1      33.030  24.706  21.308  1.00  0.00    -0.243 N 
ATOM     21  C   UNL A   1      32.176  25.758  21.059  1.00  0.00     0.271 C 
ATOM     22  H   UNL A   1      33.165  24.201  20.473  1.00  0.00     0.194 HD
ATOM     23  O   UNL A   1      31.671  25.855  19.936  1.00  0.00    -0.267 OA
BRANCH  21  24
ATOM     24  C   UNL A   1      31.772  26.768  22.029  1.00  0.00     0.041 A 
ATOM     25  C   UNL A   1      32.761  27.559  22.627  1.00  0.00     0.015 A 
ATOM     26  C   UNL A   1      30.446  26.898  22.425  1.00  0.00     0.015 A 
ATOM     27  C   UNL A   1      32.399  28.643  23.426  1.00  0.00     0.021 A 
ATOM     28  C   UNL A   1      30.087  28.018  23.181  1.00  0.00     0.021 A 
ATOM     29  C   UNL A   1      31.052  28.915  23.630  1.00  0.00     0.041 A 
ATOM     30  Cl  UNL A   1      30.575  30.392  24.368  1.00  0.00    -0.084 Cl
ENDBRANCH  21  24
ENDBRANCH  19  20
ENDBRANCH   6   9
ENDBRANCH   4   5
ENDBRANCH   3   4
ENDBRANCH   2   3
ENDBRANCH   1   2
BRANCH   1  31
ATOM     31  C   UNL A   1      33.432  28.478  27.242  1.00  0.00     0.021 C 
BRANCH  31  32
ATOM     32  C   UNL A   1      34.044  29.587  26.393  1.00  0.00     0.116 C 
BRANCH  32  33
ATOM     33  N   UNL A   1      33.878  30.885  27.025  1.00  0.00    -0.352 N 
ATOM     34  C   UNL A   1      34.549  31.395  28.116  1.00  0.00     0.251 C 
ATOM     35  H   UNL A   1      33.201  31.476  26.623  1.00  0.00     0.163 HD
ATOM     36  O   UNL A   1      34.101  32.357  28.721  1.00  0.00    -0.269 OA
BRANCH  34  37
ATOM     37  C   UNL A   1      35.813  30.756  28.548  1.00  0.00     0.039 A 
ATOM     38  C   UNL A   1      37.004  31.064  27.887  1.00  0.00     0.014 A 
ATOM     39  C   UNL A   1      35.809  29.841  29.605  1.00  0.00     0.014 A 
ATOM     40  C   UNL A   1      38.205  30.492  28.322  1.00  0.00     0.010 A 
ATOM     41  C   UNL A   1      37.013  29.318  30.072  1.00  0.00     0.010 A 
ATOM     42  C   UNL A   1      38.223  29.633  29.433  1.00  0.00    -0.014 A 
BRANCH  42  43
ATOM     43  C   UNL A   1      39.489  29.033  29.933  1.00  0.00     0.031 A 
ATOM     44  C   UNL A   1      40.240  29.697  31.055  1.00  0.00     0.074 A 
ATOM     45  C   UNL A   1      40.006  27.947  29.324  1.00  0.00     0.049 A 
ATOM     46  N   UNL A   1      41.409  29.402  31.562  1.00  0.00    -0.248 NA
ATOM     47  C   UNL A   1      39.600  30.874  31.662  1.00  0.00     0.031 C 
ATOM     48  C   UNL A   1      39.395  27.242  28.196  1.00  0.00     0.029 A 
ATOM     49  N   UNL A   1      41.174  27.262  29.550  1.00  0.00    -0.354 N 
ATOM     50  C   UNL A   1      41.659  30.371  32.529  1.00  0.00     0.074 A 
ATOM     51  C   UNL A   1      40.542  31.290  32.496  1.00  0.00     0.031 C 
ATOM     52  C   UNL A   1      40.192  26.225  27.831  1.00  0.00     0.029 A 
ATOM     53  C   UNL A   1      41.389  26.229  28.667  1.00  0.00     0.049 A 
ATOM     54  H   UNL A   1      41.799  27.488  30.276  1.00  0.00     0.167 HD
ATOM     55  C   UNL A   1      42.714  30.473  33.377  1.00  0.00     0.034 A 
ATOM     56  C   UNL A   1      42.438  25.393  28.530  1.00  0.00     0.034 A 
ATOM     57  C   UNL A   1      43.810  29.534  33.405  1.00  0.00     0.049 A 
ATOM     58  C   UNL A   1      43.603  25.522  29.478  1.00  0.00     0.074 A 
ATOM     59  C   UNL A   1      44.885  29.489  34.275  1.00  0.00     0.029 A 
ATOM     60  N   UNL A   1      43.981  28.483  32.511  1.00  0.00    -0.354 N 
ATOM     61  N   UNL A   1      43.792  26.399  30.438  1.00  0.00    -0.248 NA
ATOM     62  C   UNL A   1      44.689  24.544  29.336  1.00  0.00     0.031 C 
ATOM     63  C   UNL A   1      45.740  28.461  33.864  1.00  0.00     0.029 A 
ATOM     64  C   UNL A   1      45.162  27.810  32.786  1.00  0.00     0.049 A 
ATOM     65  H   UNL A   1      43.354  28.250  31.788  1.00  0.00     0.167 HD
ATOM     66  C   UNL A   1      45.006  26.061  31.029  1.00  0.00     0.074 A 
ATOM     67  C   UNL A   1      45.499  24.895  30.324  1.00  0.00     0.031 C 
ATOM     68  C   UNL A   1      45.650  26.656  32.065  1.00  0.00     0.034 A 
BRANCH  55  69
ATOM     69  C   UNL A   1      42.742  31.660  34.313  1.00  0.00     0.023 A 
ATOM     70  C   UNL A   1      42.277  31.572  35.637  1.00  0.00     0.031 A 
ATOM     71  C   UNL A   1      43.203  32.909  33.862  1.00  0.00     0.131 A 
ATOM     72  C   UNL A   1      42.194  32.727  36.429  1.00  0.00     0.055 A 
ATOM     73  C   UNL A   1      43.202  34.037  34.686  1.00  0.00     0.041 A 
ATOM     74  F   UNL A   1      43.644  33.063  32.603  1.00  0.00    -0.206 F 
ATOM     75  C   UNL A   1      42.677  33.955  35.972  1.00  0.00     0.022 A 
BRANCH  72  76
ATOM     76  S   UNL A   1      41.291  32.634  38.001  1.00  0.00     0.124 S 
ATOM     77  O   UNL A   1      42.079  31.648  38.736  1.00  0.00    -0.237 OA
ATOM     78  O   UNL A   1      41.368  34.006  38.489  1.00  0.00    -0.237 OA
ATOM     79  O   UNL A   1      39.958  32.186  37.604  1.00  0.00    -0.744 OA
ENDBRANCH  72  76
ENDBRANCH  55  69
BRANCH  56  80
ATOM     80  C   UNL A   1      42.446  24.379  27.437  1.00  0.00     0.023 A 
ATOM     81  C   UNL A   1      41.756  23.163  27.566  1.00  0.00     0.031 A 
ATOM     82  C   UNL A   1      43.160  24.611  26.248  1.00  0.00     0.131 A 
ATOM     83  C   UNL A   1      41.820  22.212  26.534  1.00  0.00     0.055 A 
ATOM     84  C   UNL A   1      43.183  23.682  25.207  1.00  0.00     0.041 A 
ATOM     85  F   UNL A   1      43.831  25.761  26.072  1.00  0.00    -0.206 F 
ATOM     86  C   UNL A   1      42.517  22.469  25.351  1.00  0.00     0.022 A 
BRANCH  83  87
ATOM     87  S   UNL A   1      41.021  20.603  26.783  1.00  0.00     0.124 S 
ATOM     88  O   UNL A   1      40.846  20.579  28.230  1.00  0.00    -0.237 OA
ATOM     89  O   UNL A   1      39.804  20.744  25.992  1.00  0.00    -0.237 OA
ATOM     90  O   UNL A   1      41.997  19.653  26.255  1.00  0.00    -0.744 OA
ENDBRANCH  83  87
ENDBRANCH  56  80
BRANCH  68  91
ATOM     91  C   UNL A   1      46.940  26.027  32.529  1.00  0.00     0.023 A 
ATOM     92  C   UNL A   1      48.177  26.353  31.945  1.00  0.00     0.031 A 
ATOM     93  C   UNL A   1      46.931  25.097  33.584  1.00  0.00     0.131 A 
ATOM     94  C   UNL A   1      49.349  25.721  32.393  1.00  0.00     0.055 A 
ATOM     95  C   UNL A   1      48.105  24.514  34.062  1.00  0.00     0.041 A 
ATOM     96  F   UNL A   1      45.777  24.747  34.175  1.00  0.00    -0.206 F 
ATOM     97  C   UNL A   1      49.322  24.819  33.459  1.00  0.00     0.022 A 
BRANCH  94  98
ATOM     98  S   UNL A   1      50.903  26.043  31.517  1.00  0.00     0.124 S 
ATOM     99  O   UNL A   1      51.432  24.695  31.332  1.00  0.00    -0.237 OA
ATOM    100  O   UNL A   1      50.449  26.722  30.307  1.00  0.00    -0.237 OA
ATOM    101  O   UNL A   1      51.656  26.882  32.449  1.00  0.00    -0.744 OA
ENDBRANCH  94  98
ENDBRANCH  68  91
ENDBRANCH  42  43
ENDBRANCH  34  37
ENDBRANCH  32  33
ENDBRANCH  31  32
ENDBRANCH   1  31
TORSDOF 18
ENDMDL
MODEL 3
REMARK VINA RESULT:     -13.1      5.518     11.169
REMARK SMILES CC1(C)[C@@]2(C(=O)NCCCCCCNC(=O)c3ccc(-c4c5nc(c(-c6cc(S(=O)(=O)[O-])ccc6F)c6ccc([nH]6)c(-c6cc(S(=O)(=O)[O-])ccc6F)c6nc(c(-c7cc(S(=O)(=O)[O-])ccc7F)c7ccc4[nH]7)C=C6)C=C5)cc3)CC[C@]1(C)/C(=N/NC(=O)c1ccc(Cl)cc1)C2
REMARK SMILES IDX 11 1 10 2 9 3 8 4 7 5 5 6 6 7 4 9 1 10 2 11 3 12 82 13 80 14
REMARK SMILES IDX 96 15 81 16 83 17 84 18 85 19 86 20 87 21 88 23 89 24 90 25
REMARK SMILES IDX 95 26 91 27 94 28 92 29 93 30 12 31 13 32 14 33 15 34 16 36
REMARK SMILES IDX 17 37 18 38 79 39 19 40 78 41 20 42 21 43 22 44 72 45 23 46
REMARK SMILES IDX 77 47 71 48 73 49 24 50 76 51 70 52 69 53 25 55 57 56 37 57
REMARK SMILES IDX 56 58 38 59 41 60 55 61 74 62 39 63 40 64 54 66 75 67 42 68
REMARK SMILES IDX 26 69 27 70 35 71 28 72 34 73 36 74 33 75 29 76 30 77 31 78
REMARK SMILES IDX 32 79 58 80 59 81 67 82 60 83 66 84 68 85 65 86 61 87 62 88
REMARK SMILES IDX 63 89 64 90 43 91 44 92 52 93 45 94 51 95 53 96 50 97 46 98
REMARK SMILES IDX 47 99 48 100 49 101
REMARK H PARENT 7 8 86 22 14 35 73 54 41 65
REMARK Flexibility Score: inf
ROOT
ATOM      1  C   UNL A   1      36.979  21.021  24.885  1.00  0.00     0.002 C 
ENDROOT
BRANCH   1   2
ATOM      2  C   UNL A   1      37.306  22.451  24.424  1.00  0.00     0.002 C 
BRANCH   2   3
ATOM      3  C   UNL A   1      36.441  22.939  23.259  1.00  0.00     0.021 C 
BRANCH   3   4
ATOM      4  C   UNL A   1      34.955  23.224  23.533  1.00  0.00     0.116 C 
BRANCH   4   5
ATOM      5  N   UNL A   1      34.225  24.064  22.592  1.00  0.00    -0.356 N 
ATOM      6  C   UNL A   1      33.855  25.385  22.677  1.00  0.00     0.227 C 
ATOM      7  O   UNL A   1      33.887  26.027  21.623  1.00  0.00    -0.274 OA
ATOM      8  H   UNL A   1      33.952  23.612  21.760  1.00  0.00     0.163 HD
BRANCH   6   9
ATOM      9  C   UNL A   1      33.247  26.004  23.946  1.00  0.00     0.060 C 
ATOM     10  C   UNL A   1      33.685  28.520  23.498  1.00  0.00     0.013 C 
ATOM     11  C   UNL A   1      32.636  27.447  23.868  1.00  0.00    -0.010 C 
ATOM     12  C   UNL A   1      31.425  27.675  22.934  1.00  0.00     0.013 C 
ATOM     13  C   UNL A   1      32.202  27.416  25.374  1.00  0.00     0.014 C 
ATOM     14  C   UNL A   1      34.191  26.114  25.188  1.00  0.00     0.019 C 
ATOM     15  C   UNL A   1      32.014  25.173  24.373  1.00  0.00     0.071 C 
ATOM     16  C   UNL A   1      33.527  27.155  26.105  1.00  0.00     0.014 C 
ATOM     17  C   UNL A   1      31.415  28.591  25.912  1.00  0.00     0.018 C 
ATOM     18  C   UNL A   1      31.491  26.031  25.476  1.00  0.00     0.046 C 
ATOM     19  N   UNL A   1      30.742  25.781  26.497  1.00  0.00    -0.181 NA
BRANCH  19  20
ATOM     20  N   UNL A   1      30.104  24.679  26.965  1.00  0.00    -0.243 N 
ATOM     21  C   UNL A   1      30.166  23.302  26.968  1.00  0.00     0.271 C 
ATOM     22  H   UNL A   1      29.319  24.964  27.487  1.00  0.00     0.194 HD
ATOM     23  O   UNL A   1      29.250  22.672  27.505  1.00  0.00    -0.267 OA
BRANCH  21  24
ATOM     24  C   UNL A   1      31.214  22.500  26.348  1.00  0.00     0.041 A 
ATOM     25  C   UNL A   1      32.447  22.386  27.003  1.00  0.00     0.015 A 
ATOM     26  C   UNL A   1      31.036  21.926  25.095  1.00  0.00     0.015 A 
ATOM     27  C   UNL A   1      33.409  21.495  26.527  1.00  0.00     0.021 A 
ATOM     28  C   UNL A   1      31.981  20.993  24.655  1.00  0.00     0.021 A 
ATOM     29  C   UNL A   1      33.132  20.739  25.395  1.00  0.00     0.041 A 
ATOM     30  Cl  UNL A   1      34.168  19.441  24.953  1.00  0.00    -0.084 Cl
ENDBRANCH  21  24
ENDBRANCH  19  20
ENDBRANCH   6   9
ENDBRANCH   4   5
ENDBRANCH   3   4
ENDBRANCH   2   3
ENDBRANCH   1   2
BRANCH   1  31
ATOM     31  C   UNL A   1      38.156  20.039  24.957  1.00  0.00     0.021 C 
BRANCH  31  32
ATOM     32  C   UNL A   1      39.299  20.471  25.870  1.00  0.00     0.116 C 
BRANCH  32  33
ATOM     33  N   UNL A   1      40.288  19.416  26.007  1.00  0.00    -0.352 N 
ATOM     34  C   UNL A   1      41.660  19.536  26.078  1.00  0.00     0.251 C 
ATOM     35  H   UNL A   1      39.935  18.499  26.057  1.00  0.00     0.163 HD
ATOM     36  O   UNL A   1      42.376  18.566  25.882  1.00  0.00    -0.269 OA
BRANCH  34  37
ATOM     37  C   UNL A   1      42.253  20.859  26.384  1.00  0.00     0.039 A 
ATOM     38  C   UNL A   1      42.654  21.694  25.339  1.00  0.00     0.014 A 
ATOM     39  C   UNL A   1      42.420  21.260  27.712  1.00  0.00     0.014 A 
ATOM     40  C   UNL A   1      43.176  22.960  25.627  1.00  0.00     0.010 A 
ATOM     41  C   UNL A   1      42.886  22.543  27.994  1.00  0.00     0.010 A 
ATOM     42  C   UNL A   1      43.274  23.404  26.955  1.00  0.00    -0.014 A 
BRANCH  42  43
ATOM     43  C   UNL A   1      43.799  24.755  27.288  1.00  0.00     0.031 A 
ATOM     44  C   UNL A   1      42.867  25.811  27.819  1.00  0.00     0.074 A 
ATOM     45  C   UNL A   1      45.087  25.059  27.032  1.00  0.00     0.049 A 
ATOM     46  N   UNL A   1      43.097  27.075  28.066  1.00  0.00    -0.248 NA
ATOM     47  C   UNL A   1      41.481  25.391  28.073  1.00  0.00     0.031 C 
ATOM     48  C   UNL A   1      46.076  24.136  26.474  1.00  0.00     0.029 A 
ATOM     49  N   UNL A   1      45.779  26.235  27.182  1.00  0.00    -0.354 N 
ATOM     50  C   UNL A   1      41.880  27.608  28.478  1.00  0.00     0.074 A 
ATOM     51  C   UNL A   1      40.907  26.540  28.394  1.00  0.00     0.031 C 
ATOM     52  C   UNL A   1      47.246  24.779  26.330  1.00  0.00     0.029 A 
ATOM     53  C   UNL A   1      47.083  26.170  26.745  1.00  0.00     0.049 A 
ATOM     54  H   UNL A   1      45.381  27.049  27.567  1.00  0.00     0.167 HD
ATOM     55  C   UNL A   1      41.604  28.868  28.903  1.00  0.00     0.034 A 
ATOM     56  C   UNL A   1      48.032  27.124  26.665  1.00  0.00     0.034 A 
ATOM     57  C   UNL A   1      42.594  29.914  28.996  1.00  0.00     0.049 A 
ATOM     58  C   UNL A   1      47.708  28.518  27.138  1.00  0.00     0.074 A 
ATOM     59  C   UNL A   1      42.448  31.198  29.492  1.00  0.00     0.029 A 
ATOM     60  N   UNL A   1      43.912  29.803  28.567  1.00  0.00    -0.354 N 
ATOM     61  N   UNL A   1      46.571  28.990  27.595  1.00  0.00    -0.248 NA
ATOM     62  C   UNL A   1      48.796  29.504  27.099  1.00  0.00     0.031 C 
ATOM     63  C   UNL A   1      43.652  31.883  29.297  1.00  0.00     0.029 A 
ATOM     64  C   UNL A   1      44.577  31.006  28.753  1.00  0.00     0.049 A 
ATOM     65  H   UNL A   1      44.315  28.989  28.188  1.00  0.00     0.167 HD
ATOM     66  C   UNL A   1      46.814  30.322  27.920  1.00  0.00     0.074 A 
ATOM     67  C   UNL A   1      48.209  30.574  27.617  1.00  0.00     0.031 C 
ATOM     68  C   UNL A   1      45.965  31.248  28.432  1.00  0.00     0.034 A 
BRANCH  55  69
ATOM     69  C   UNL A   1      40.170  29.182  29.262  1.00  0.00     0.023 A 
ATOM     70  C   UNL A   1      39.743  29.279  30.599  1.00  0.00     0.031 A 
ATOM     71  C   UNL A   1      39.204  29.348  28.254  1.00  0.00     0.131 A 
ATOM     72  C   UNL A   1      38.380  29.438  30.890  1.00  0.00     0.055 A 
ATOM     73  C   UNL A   1      37.862  29.596  28.550  1.00  0.00     0.041 A 
ATOM     74  F   UNL A   1      39.544  29.250  26.958  1.00  0.00    -0.206 F 
ATOM     75  C   UNL A   1      37.439  29.622  29.875  1.00  0.00     0.022 A 
BRANCH  72  76
ATOM     76  S   UNL A   1      37.834  29.231  32.609  1.00  0.00     0.124 S 
ATOM     77  O   UNL A   1      38.945  29.828  33.345  1.00  0.00    -0.237 OA
ATOM     78  O   UNL A   1      36.579  29.972  32.632  1.00  0.00    -0.237 OA
ATOM     79  O   UNL A   1      37.707  27.782  32.755  1.00  0.00    -0.744 OA
ENDBRANCH  72  76
ENDBRANCH  55  69
BRANCH  56  80
ATOM     80  C   UNL A   1      49.369  26.799  26.091  1.00  0.00     0.023 A 
ATOM     81  C   UNL A   1      49.727  27.213  24.798  1.00  0.00     0.031 A 
ATOM     82  C   UNL A   1      50.307  26.056  26.830  1.00  0.00     0.131 A 
ATOM     83  C   UNL A   1      50.978  26.853  24.271  1.00  0.00     0.055 A 
ATOM     84  C   UNL A   1      51.567  25.740  26.319  1.00  0.00     0.041 A 
ATOM     85  F   UNL A   1      50.017  25.643  28.075  1.00  0.00    -0.206 F 
ATOM     86  C   UNL A   1      51.905  26.132  25.027  1.00  0.00     0.022 A 
BRANCH  83  87
ATOM     87  S   UNL A   1      51.360  27.296  22.554  1.00  0.00     0.124 S 
ATOM     88  O   UNL A   1      51.973  28.609  22.715  1.00  0.00    -0.237 OA
ATOM     89  O   UNL A   1      52.255  26.215  22.155  1.00  0.00    -0.237 OA
ATOM     90  O   UNL A   1      50.053  27.291  21.903  1.00  0.00    -0.744 OA
ENDBRANCH  83  87
ENDBRANCH  56  80
BRANCH  68  91
ATOM     91  C   UNL A   1      46.533  32.612  28.737  1.00  0.00     0.023 A 
ATOM     92  C   UNL A   1      46.434  33.679  27.827  1.00  0.00     0.031 A 
ATOM     93  C   UNL A   1      47.172  32.849  29.968  1.00  0.00     0.131 A 
ATOM     94  C   UNL A   1      47.002  34.923  28.144  1.00  0.00     0.055 A 
ATOM     95  C   UNL A   1      47.685  34.103  30.301  1.00  0.00     0.041 A 
ATOM     96  F   UNL A   1      47.296  31.865  30.873  1.00  0.00    -0.206 F 
ATOM     97  C   UNL A   1      47.609  35.147  29.383  1.00  0.00     0.022 A 
BRANCH  94  98
ATOM     98  S   UNL A   1      46.998  36.231  26.888  1.00  0.00     0.124 S 
ATOM     99  O   UNL A   1      47.320  35.487  25.674  1.00  0.00    -0.237 OA
ATOM    100  O   UNL A   1      45.636  36.748  26.977  1.00  0.00    -0.237 OA
ATOM    101  O   UNL A   1      48.038  37.151  27.346  1.00  0.00    -0.744 OA
ENDBRANCH  94  98
ENDBRANCH  68  91
ENDBRANCH  42  43
ENDBRANCH  34  37
ENDBRANCH  32  33
ENDBRANCH  31  32
ENDBRANCH   1  31
TORSDOF 18
ENDMDL
