MODEL 1
REMARK VINA RESULT:     -12.7      0.000      0.000
REMARK SMILES Cc1ccc(Nc2c(F)cccc2Cl)c(CC(=O)NCCCCCCNC(=O)c2ccc(-c3c4nc(c(-c5cc(S(=O)(=O)[O-])ccc5F)c5ccc([nH]5)c(-c5cc(S(=O)(=O)[O-])ccc5F)c5nc(c(-c6cc(S(=O)(=O)[O-])ccc6F)c6ccc3[nH]6)C=C5)C=C4)cc2)c1
REMARK SMILES IDX 22 1 21 2 20 3 19 4 17 5 18 6 16 8 15 9 1 10 2 11 3 12 92 13
REMARK SMILES IDX 4 14 5 15 6 16 7 18 8 19 13 20 9 21 10 22 12 23 14 24 11 25
REMARK SMILES IDX 23 26 24 27 25 28 26 29 27 30 28 32 29 33 30 34 91 35 31 36
REMARK SMILES IDX 90 37 32 38 33 39 34 40 84 41 35 42 89 43 83 44 85 45 36 46
REMARK SMILES IDX 88 47 82 48 81 49 37 51 69 52 49 53 68 54 50 55 53 56 67 57
REMARK SMILES IDX 86 58 51 59 52 60 66 62 87 63 54 64 38 65 39 66 47 67 40 68
REMARK SMILES IDX 46 69 48 70 45 71 41 72 42 73 43 74 44 75 70 76 71 77 79 78
REMARK SMILES IDX 72 79 78 80 80 81 77 82 73 83 74 84 75 85 76 86 55 87 56 88
REMARK SMILES IDX 64 89 57 90 63 91 65 92 62 93 58 94 59 95 60 96 61 97
REMARK H PARENT 19 7 6 17 26 31 85 50 53 61
REMARK Flexibility Score: inf
ROOT
ATOM      1  C   UNL A   1      32.237  28.703  26.367  1.00  0.00     0.002 C 
ENDROOT
BRANCH   1   2
ATOM      2  C   UNL A   1      31.555  27.523  27.077  1.00  0.00     0.021 C 
BRANCH   2   3
ATOM      3  C   UNL A   1      31.165  26.353  26.171  1.00  0.00     0.116 C 
BRANCH   3   4
ATOM      4  N   UNL A   1      31.057  25.104  26.900  1.00  0.00    -0.356 N 
ATOM      5  C   UNL A   1      31.493  23.863  26.547  1.00  0.00     0.224 C 
ATOM      6  O   UNL A   1      31.216  22.907  27.278  1.00  0.00    -0.275 OA
ATOM      7  H   UNL A   1      30.604  25.162  27.771  1.00  0.00     0.163 HD
BRANCH   5   8
ATOM      8  C   UNL A   1      32.305  23.649  25.284  1.00  0.00     0.137 C 
BRANCH   8   9
ATOM      9  C   UNL A   1      33.640  22.971  25.504  1.00  0.00    -0.015 A 
ATOM     10  C   UNL A   1      37.250  24.158  26.002  1.00  0.00     0.044 C 
ATOM     11  C   UNL A   1      36.050  23.272  25.856  1.00  0.00    -0.051 A 
ATOM     12  C   UNL A   1      36.203  21.889  25.846  1.00  0.00     0.005 A 
ATOM     13  C   UNL A   1      34.766  23.802  25.711  1.00  0.00     0.009 A 
ATOM     14  C   UNL A   1      35.092  21.056  25.688  1.00  0.00     0.026 A 
ATOM     15  C   UNL A   1      33.797  21.568  25.502  1.00  0.00     0.042 A 
BRANCH  15  16
ATOM     16  N   UNL A   1      32.687  20.706  25.359  1.00  0.00    -0.352 N 
ATOM     17  H   UNL A   1      31.900  20.932  25.906  1.00  0.00     0.167 HD
BRANCH  16  18
ATOM     18  C   UNL A   1      32.551  19.561  24.537  1.00  0.00     0.094 A 
ATOM     19  C   UNL A   1      32.714  18.260  25.036  1.00  0.00     0.148 A 
ATOM     20  C   UNL A   1      32.349  19.699  23.151  1.00  0.00     0.067 A 
ATOM     21  F   UNL A   1      32.878  18.054  26.353  1.00  0.00    -0.205 F 
ATOM     22  C   UNL A   1      32.693  17.142  24.201  1.00  0.00     0.041 A 
ATOM     23  C   UNL A   1      32.336  18.583  22.306  1.00  0.00     0.023 A 
ATOM     24  Cl  UNL A   1      32.141  21.260  22.435  1.00  0.00    -0.082 Cl
ATOM     25  C   UNL A   1      32.514  17.304  22.831  1.00  0.00     0.005 A 
ENDBRANCH  16  18
ENDBRANCH  15  16
ENDBRANCH   8   9
ENDBRANCH   5   8
ENDBRANCH   3   4
ENDBRANCH   2   3
ENDBRANCH   1   2
BRANCH   1  26
ATOM     26  C   UNL A   1      31.989  30.101  26.955  1.00  0.00     0.002 C 
BRANCH  26  27
ATOM     27  C   UNL A   1      33.164  31.078  26.890  1.00  0.00     0.021 C 
BRANCH  27  28
ATOM     28  C   UNL A   1      34.464  30.530  27.471  1.00  0.00     0.116 C 
BRANCH  28  29
ATOM     29  N   UNL A   1      35.216  31.513  28.245  1.00  0.00    -0.352 N 
ATOM     30  C   UNL A   1      36.407  31.360  28.935  1.00  0.00     0.251 C 
ATOM     31  H   UNL A   1      34.821  32.414  28.279  1.00  0.00     0.163 HD
ATOM     32  O   UNL A   1      36.871  32.269  29.605  1.00  0.00    -0.269 OA
BRANCH  30  33
ATOM     33  C   UNL A   1      37.173  30.103  28.763  1.00  0.00     0.039 A 
ATOM     34  C   UNL A   1      37.259  29.242  29.863  1.00  0.00     0.014 A 
ATOM     35  C   UNL A   1      37.960  29.891  27.635  1.00  0.00     0.014 A 
ATOM     36  C   UNL A   1      38.298  28.319  29.928  1.00  0.00     0.010 A 
ATOM     37  C   UNL A   1      39.044  29.041  27.735  1.00  0.00     0.010 A 
ATOM     38  C   UNL A   1      39.254  28.313  28.913  1.00  0.00    -0.014 A 
BRANCH  38  39
ATOM     39  C   UNL A   1      40.586  27.736  29.071  1.00  0.00     0.031 A 
ATOM     40  C   UNL A   1      40.864  26.334  28.703  1.00  0.00     0.074 A 
ATOM     41  C   UNL A   1      41.603  28.540  29.453  1.00  0.00     0.049 A 
ATOM     42  N   UNL A   1      41.950  25.709  29.017  1.00  0.00    -0.248 NA
ATOM     43  C   UNL A   1      39.895  25.483  28.021  1.00  0.00     0.031 C 
ATOM     44  C   UNL A   1      43.036  28.282  29.348  1.00  0.00     0.029 A 
ATOM     45  N   UNL A   1      41.513  29.657  30.284  1.00  0.00    -0.354 N 
ATOM     46  C   UNL A   1      41.964  24.522  28.330  1.00  0.00     0.074 A 
ATOM     47  C   UNL A   1      40.612  24.367  27.856  1.00  0.00     0.031 C 
ATOM     48  C   UNL A   1      43.676  29.014  30.272  1.00  0.00     0.029 A 
ATOM     49  C   UNL A   1      42.665  29.646  31.098  1.00  0.00     0.049 A 
ATOM     50  H   UNL A   1      40.787  30.322  30.299  1.00  0.00     0.167 HD
ATOM     51  C   UNL A   1      43.159  23.895  28.139  1.00  0.00     0.034 A 
ATOM     52  C   UNL A   1      42.551  29.512  32.453  1.00  0.00     0.034 A 
ATOM     53  C   UNL A   1      44.186  24.418  29.052  1.00  0.00     0.049 A 
ATOM     54  C   UNL A   1      43.201  28.259  33.015  1.00  0.00     0.074 A 
ATOM     55  C   UNL A   1      45.333  25.181  28.924  1.00  0.00     0.029 A 
ATOM     56  N   UNL A   1      43.946  24.327  30.415  1.00  0.00    -0.354 N 
ATOM     57  N   UNL A   1      43.808  27.352  32.298  1.00  0.00    -0.248 NA
ATOM     58  C   UNL A   1      43.137  27.891  34.430  1.00  0.00     0.031 C 
ATOM     59  C   UNL A   1      45.736  25.597  30.234  1.00  0.00     0.029 A 
ATOM     60  C   UNL A   1      44.857  25.055  31.154  1.00  0.00     0.049 A 
ATOM     61  H   UNL A   1      43.213  23.803  30.810  1.00  0.00     0.167 HD
ATOM     62  C   UNL A   1      44.131  26.281  33.091  1.00  0.00     0.074 A 
ATOM     63  C   UNL A   1      43.700  26.671  34.423  1.00  0.00     0.031 C 
ATOM     64  C   UNL A   1      44.677  25.129  32.599  1.00  0.00     0.034 A 
BRANCH  51  65
ATOM     65  C   UNL A   1      43.469  22.913  27.019  1.00  0.00     0.023 A 
ATOM     66  C   UNL A   1      42.820  21.658  27.021  1.00  0.00     0.031 A 
ATOM     67  C   UNL A   1      44.452  23.066  26.014  1.00  0.00     0.131 A 
ATOM     68  C   UNL A   1      43.166  20.643  26.105  1.00  0.00     0.055 A 
ATOM     69  C   UNL A   1      44.761  22.074  25.073  1.00  0.00     0.041 A 
ATOM     70  F   UNL A   1      45.217  24.154  25.900  1.00  0.00    -0.206 F 
ATOM     71  C   UNL A   1      44.125  20.850  25.121  1.00  0.00     0.022 A 
BRANCH  68  72
ATOM     72  S   UNL A   1      42.402  19.005  26.262  1.00  0.00     0.124 S 
ATOM     73  O   UNL A   1      41.025  19.269  25.858  1.00  0.00    -0.237 OA
ATOM     74  O   UNL A   1      43.206  18.200  25.349  1.00  0.00    -0.237 OA
ATOM     75  O   UNL A   1      42.575  18.686  27.680  1.00  0.00    -0.744 OA
ENDBRANCH  68  72
ENDBRANCH  51  65
BRANCH  52  76
ATOM     76  C   UNL A   1      41.329  30.184  32.989  1.00  0.00     0.023 A 
ATOM     77  C   UNL A   1      41.360  31.594  33.070  1.00  0.00     0.031 A 
ATOM     78  C   UNL A   1      40.078  29.556  33.026  1.00  0.00     0.131 A 
ATOM     79  C   UNL A   1      40.172  32.334  33.002  1.00  0.00     0.055 A 
ATOM     80  C   UNL A   1      38.891  30.299  33.045  1.00  0.00     0.041 A 
ATOM     81  F   UNL A   1      39.975  28.224  32.912  1.00  0.00    -0.206 F 
ATOM     82  C   UNL A   1      38.933  31.694  32.986  1.00  0.00     0.022 A 
BRANCH  79  83
ATOM     83  S   UNL A   1      40.293  34.112  32.642  1.00  0.00     0.124 S 
ATOM     84  O   UNL A   1      41.080  34.120  31.413  1.00  0.00    -0.237 OA
ATOM     85  O   UNL A   1      38.890  34.501  32.507  1.00  0.00    -0.237 OA
ATOM     86  O   UNL A   1      40.962  34.658  33.820  1.00  0.00    -0.744 OA
ENDBRANCH  79  83
ENDBRANCH  52  76
BRANCH  64  87
ATOM     87  C   UNL A   1      45.034  23.955  33.476  1.00  0.00     0.023 A 
ATOM     88  C   UNL A   1      46.365  23.660  33.814  1.00  0.00     0.031 A 
ATOM     89  C   UNL A   1      44.054  23.052  33.948  1.00  0.00     0.131 A 
ATOM     90  C   UNL A   1      46.672  22.565  34.642  1.00  0.00     0.055 A 
ATOM     91  C   UNL A   1      44.372  21.914  34.695  1.00  0.00     0.041 A 
ATOM     92  F   UNL A   1      42.745  23.261  33.744  1.00  0.00    -0.206 F 
ATOM     93  C   UNL A   1      45.688  21.672  35.060  1.00  0.00     0.022 A 
BRANCH  90  94
ATOM     94  S   UNL A   1      48.373  22.376  35.236  1.00  0.00     0.124 S 
ATOM     95  O   UNL A   1      48.983  23.650  34.871  1.00  0.00    -0.237 OA
ATOM     96  O   UNL A   1      48.162  22.159  36.665  1.00  0.00    -0.237 OA
ATOM     97  O   UNL A   1      48.869  21.215  34.501  1.00  0.00    -0.744 OA
ENDBRANCH  90  94
ENDBRANCH  64  87
ENDBRANCH  38  39
ENDBRANCH  30  33
ENDBRANCH  28  29
ENDBRANCH  27  28
ENDBRANCH  26  27
ENDBRANCH   1  26
TORSDOF 19
ENDMDL
MODEL 2
REMARK VINA RESULT:     -12.4      1.570      2.609
REMARK SMILES Cc1ccc(Nc2c(F)cccc2Cl)c(CC(=O)NCCCCCCNC(=O)c2ccc(-c3c4nc(c(-c5cc(S(=O)(=O)[O-])ccc5F)c5ccc([nH]5)c(-c5cc(S(=O)(=O)[O-])ccc5F)c5nc(c(-c6cc(S(=O)(=O)[O-])ccc6F)c6ccc3[nH]6)C=C5)C=C4)cc2)c1
REMARK SMILES IDX 22 1 21 2 20 3 19 4 17 5 18 6 16 8 15 9 1 10 2 11 3 12 92 13
REMARK SMILES IDX 4 14 5 15 6 16 7 18 8 19 13 20 9 21 10 22 12 23 14 24 11 25
REMARK SMILES IDX 23 26 24 27 25 28 26 29 27 30 28 32 29 33 30 34 91 35 31 36
REMARK SMILES IDX 90 37 32 38 33 39 34 40 84 41 35 42 89 43 83 44 85 45 36 46
REMARK SMILES IDX 88 47 82 48 81 49 37 51 69 52 49 53 68 54 50 55 53 56 67 57
REMARK SMILES IDX 86 58 51 59 52 60 66 62 87 63 54 64 38 65 39 66 47 67 40 68
REMARK SMILES IDX 46 69 48 70 45 71 41 72 42 73 43 74 44 75 70 76 71 77 79 78
REMARK SMILES IDX 72 79 78 80 80 81 77 82 73 83 74 84 75 85 76 86 55 87 56 88
REMARK SMILES IDX 64 89 57 90 63 91 65 92 62 93 58 94 59 95 60 96 61 97
REMARK H PARENT 19 7 6 17 26 31 85 50 53 61
REMARK Flexibility Score: inf
ROOT
ATOM      1  C   UNL A   1      31.359  28.565  25.457  1.00  0.00     0.002 C 
ENDROOT
BRANCH   1   2
ATOM      2  C   UNL A   1      31.190  27.488  26.538  1.00  0.00     0.021 C 
BRANCH   2   3
ATOM      3  C   UNL A   1      30.821  26.096  26.021  1.00  0.00     0.116 C 
BRANCH   3   4
ATOM      4  N   UNL A   1      31.204  25.045  26.945  1.00  0.00    -0.356 N 
ATOM      5  C   UNL A   1      31.487  23.738  26.690  1.00  0.00     0.224 C 
ATOM      6  O   UNL A   1      31.705  22.981  27.640  1.00  0.00    -0.275 OA
ATOM      7  H   UNL A   1      31.268  25.316  27.888  1.00  0.00     0.163 HD
BRANCH   5   8
ATOM      8  C   UNL A   1      31.537  23.212  25.268  1.00  0.00     0.137 C 
BRANCH   8   9
ATOM      9  C   UNL A   1      32.559  22.119  25.039  1.00  0.00    -0.015 A 
ATOM     10  C   UNL A   1      32.564  18.296  25.298  1.00  0.00     0.044 C 
ATOM     11  C   UNL A   1      33.011  19.708  25.066  1.00  0.00    -0.051 A 
ATOM     12  C   UNL A   1      34.336  19.973  24.734  1.00  0.00     0.005 A 
ATOM     13  C   UNL A   1      32.127  20.782  25.190  1.00  0.00     0.009 A 
ATOM     14  C   UNL A   1      34.765  21.288  24.538  1.00  0.00     0.026 A 
ATOM     15  C   UNL A   1      33.902  22.386  24.695  1.00  0.00     0.042 A 
BRANCH  15  16
ATOM     16  N   UNL A   1      34.355  23.706  24.477  1.00  0.00    -0.352 N 
ATOM     17  H   UNL A   1      35.148  23.974  24.996  1.00  0.00     0.167 HD
BRANCH  16  18
ATOM     18  C   UNL A   1      33.826  24.698  23.616  1.00  0.00     0.094 A 
ATOM     19  C   UNL A   1      33.376  24.399  22.320  1.00  0.00     0.148 A 
ATOM     20  C   UNL A   1      33.834  26.052  23.998  1.00  0.00     0.067 A 
ATOM     21  F   UNL A   1      33.313  23.124  21.902  1.00  0.00    -0.205 F 
ATOM     22  C   UNL A   1      32.964  25.394  21.435  1.00  0.00     0.041 A 
ATOM     23  C   UNL A   1      33.429  27.058  23.113  1.00  0.00     0.023 A 
ATOM     24  Cl  UNL A   1      34.374  26.527  25.572  1.00  0.00    -0.082 Cl
ATOM     25  C   UNL A   1      33.000  26.729  21.828  1.00  0.00     0.005 A 
ENDBRANCH  16  18
ENDBRANCH  15  16
ENDBRANCH   8   9
ENDBRANCH   5   8
ENDBRANCH   3   4
ENDBRANCH   2   3
ENDBRANCH   1   2
BRANCH   1  26
ATOM     26  C   UNL A   1      31.857  29.942  25.923  1.00  0.00     0.002 C 
BRANCH  26  27
ATOM     27  C   UNL A   1      33.347  30.044  26.254  1.00  0.00     0.021 C 
BRANCH  27  28
ATOM     28  C   UNL A   1      33.660  29.986  27.747  1.00  0.00     0.116 C 
BRANCH  28  29
ATOM     29  N   UNL A   1      34.417  31.138  28.228  1.00  0.00    -0.352 N 
ATOM     30  C   UNL A   1      35.694  31.186  28.762  1.00  0.00     0.251 C 
ATOM     31  H   UNL A   1      33.955  32.004  28.161  1.00  0.00     0.163 HD
ATOM     32  O   UNL A   1      36.161  32.228  29.194  1.00  0.00    -0.269 OA
BRANCH  30  33
ATOM     33  C   UNL A   1      36.537  29.968  28.703  1.00  0.00     0.039 A 
ATOM     34  C   UNL A   1      36.747  29.270  29.898  1.00  0.00     0.014 A 
ATOM     35  C   UNL A   1      37.268  29.655  27.563  1.00  0.00     0.014 A 
ATOM     36  C   UNL A   1      37.852  28.430  30.013  1.00  0.00     0.010 A 
ATOM     37  C   UNL A   1      38.414  28.896  27.699  1.00  0.00     0.010 A 
ATOM     38  C   UNL A   1      38.744  28.347  28.945  1.00  0.00    -0.014 A 
BRANCH  38  39
ATOM     39  C   UNL A   1      40.121  27.881  29.087  1.00  0.00     0.031 A 
ATOM     40  C   UNL A   1      40.507  26.504  28.723  1.00  0.00     0.074 A 
ATOM     41  C   UNL A   1      41.075  28.768  29.449  1.00  0.00     0.049 A 
ATOM     42  N   UNL A   1      41.644  25.972  29.023  1.00  0.00    -0.248 NA
ATOM     43  C   UNL A   1      39.600  25.573  28.059  1.00  0.00     0.031 C 
ATOM     44  C   UNL A   1      42.522  28.626  29.324  1.00  0.00     0.029 A 
ATOM     45  N   UNL A   1      40.906  29.880  30.275  1.00  0.00    -0.354 N 
ATOM     46  C   UNL A   1      41.745  24.785  28.343  1.00  0.00     0.074 A 
ATOM     47  C   UNL A   1      40.403  24.517  27.890  1.00  0.00     0.031 C 
ATOM     48  C   UNL A   1      43.114  29.414  30.235  1.00  0.00     0.029 A 
ATOM     49  C   UNL A   1      42.067  29.967  31.072  1.00  0.00     0.049 A 
ATOM     50  H   UNL A   1      40.129  30.484  30.297  1.00  0.00     0.167 HD
ATOM     51  C   UNL A   1      42.984  24.255  28.138  1.00  0.00     0.034 A 
ATOM     52  C   UNL A   1      41.983  29.834  32.429  1.00  0.00     0.034 A 
ATOM     53  C   UNL A   1      43.978  24.866  29.033  1.00  0.00     0.049 A 
ATOM     54  C   UNL A   1      42.741  28.642  32.988  1.00  0.00     0.074 A 
ATOM     55  C   UNL A   1      45.057  25.719  28.883  1.00  0.00     0.029 A 
ATOM     56  N   UNL A   1      43.766  24.765  30.400  1.00  0.00    -0.354 N 
ATOM     57  N   UNL A   1      43.410  27.782  32.267  1.00  0.00    -0.248 NA
ATOM     58  C   UNL A   1      42.727  28.279  34.406  1.00  0.00     0.031 C 
ATOM     59  C   UNL A   1      45.443  26.175  30.185  1.00  0.00     0.029 A 
ATOM     60  C   UNL A   1      44.624  25.570  31.122  1.00  0.00     0.049 A 
ATOM     61  H   UNL A   1      43.083  24.186  30.808  1.00  0.00     0.167 HD
ATOM     62  C   UNL A   1      43.829  26.746  33.061  1.00  0.00     0.074 A 
ATOM     63  C   UNL A   1      43.387  27.109  34.397  1.00  0.00     0.031 C 
ATOM     64  C   UNL A   1      44.460  25.639  32.568  1.00  0.00     0.034 A 
BRANCH  51  65
ATOM     65  C   UNL A   1      43.356  23.295  27.019  1.00  0.00     0.023 A 
ATOM     66  C   UNL A   1      42.758  22.014  27.000  1.00  0.00     0.031 A 
ATOM     67  C   UNL A   1      44.354  23.493  26.036  1.00  0.00     0.131 A 
ATOM     68  C   UNL A   1      43.164  21.020  26.086  1.00  0.00     0.055 A 
ATOM     69  C   UNL A   1      44.721  22.521  25.096  1.00  0.00     0.041 A 
ATOM     70  F   UNL A   1      45.076  24.612  25.945  1.00  0.00    -0.206 F 
ATOM     71  C   UNL A   1      44.135  21.272  25.123  1.00  0.00     0.022 A 
BRANCH  68  72
ATOM     72  S   UNL A   1      42.464  19.352  26.217  1.00  0.00     0.124 S 
ATOM     73  O   UNL A   1      42.362  19.175  27.661  1.00  0.00    -0.237 OA
ATOM     74  O   UNL A   1      41.209  19.485  25.486  1.00  0.00    -0.237 OA
ATOM     75  O   UNL A   1      43.470  18.512  25.566  1.00  0.00    -0.744 OA
ENDBRANCH  68  72
ENDBRANCH  51  65
BRANCH  52  76
ATOM     76  C   UNL A   1      40.718  30.409  32.979  1.00  0.00     0.023 A 
ATOM     77  C   UNL A   1      40.624  31.817  33.023  1.00  0.00     0.031 A 
ATOM     78  C   UNL A   1      39.530  29.672  33.065  1.00  0.00     0.131 A 
ATOM     79  C   UNL A   1      39.373  32.445  32.967  1.00  0.00     0.055 A 
ATOM     80  C   UNL A   1      38.282  30.306  33.096  1.00  0.00     0.041 A 
ATOM     81  F   UNL A   1      39.546  28.333  32.988  1.00  0.00    -0.206 F 
ATOM     82  C   UNL A   1      38.197  31.696  33.000  1.00  0.00     0.022 A 
BRANCH  79  83
ATOM     83  S   UNL A   1      39.324  34.216  32.559  1.00  0.00     0.124 S 
ATOM     84  O   UNL A   1      40.730  34.507  32.299  1.00  0.00    -0.237 OA
ATOM     85  O   UNL A   1      38.438  34.246  31.396  1.00  0.00    -0.237 OA
ATOM     86  O   UNL A   1      38.766  34.832  33.760  1.00  0.00    -0.744 OA
ENDBRANCH  79  83
ENDBRANCH  52  76
BRANCH  64  87
ATOM     87  C   UNL A   1      44.924  24.504  33.447  1.00  0.00     0.023 A 
ATOM     88  C   UNL A   1      46.276  24.333  33.785  1.00  0.00     0.031 A 
ATOM     89  C   UNL A   1      44.032  23.515  33.919  1.00  0.00     0.131 A 
ATOM     90  C   UNL A   1      46.683  23.273  34.614  1.00  0.00     0.055 A 
ATOM     91  C   UNL A   1      44.453  22.412  34.667  1.00  0.00     0.041 A 
ATOM     92  F   UNL A   1      42.709  23.602  33.714  1.00  0.00    -0.206 F 
ATOM     93  C   UNL A   1      45.785  22.292  35.032  1.00  0.00     0.022 A 
BRANCH  90  94
ATOM     94  S   UNL A   1      48.393  23.242  35.209  1.00  0.00     0.124 S 
ATOM     95  O   UNL A   1      49.164  23.352  33.974  1.00  0.00    -0.237 OA
ATOM     96  O   UNL A   1      48.422  24.413  36.082  1.00  0.00    -0.237 OA
ATOM     97  O   UNL A   1      48.498  21.956  35.896  1.00  0.00    -0.744 OA
ENDBRANCH  90  94
ENDBRANCH  64  87
ENDBRANCH  38  39
ENDBRANCH  30  33
ENDBRANCH  28  29
ENDBRANCH  27  28
ENDBRANCH  26  27
ENDBRANCH   1  26
TORSDOF 19
ENDMDL
MODEL 3
REMARK VINA RESULT:     -12.4      1.907      2.786
REMARK SMILES Cc1ccc(Nc2c(F)cccc2Cl)c(CC(=O)NCCCCCCNC(=O)c2ccc(-c3c4nc(c(-c5cc(S(=O)(=O)[O-])ccc5F)c5ccc([nH]5)c(-c5cc(S(=O)(=O)[O-])ccc5F)c5nc(c(-c6cc(S(=O)(=O)[O-])ccc6F)c6ccc3[nH]6)C=C5)C=C4)cc2)c1
REMARK SMILES IDX 22 1 21 2 20 3 19 4 17 5 18 6 16 8 15 9 1 10 2 11 3 12 92 13
REMARK SMILES IDX 4 14 5 15 6 16 7 18 8 19 13 20 9 21 10 22 12 23 14 24 11 25
REMARK SMILES IDX 23 26 24 27 25 28 26 29 27 30 28 32 29 33 30 34 91 35 31 36
REMARK SMILES IDX 90 37 32 38 33 39 34 40 84 41 35 42 89 43 83 44 85 45 36 46
REMARK SMILES IDX 88 47 82 48 81 49 37 51 69 52 49 53 68 54 50 55 53 56 67 57
REMARK SMILES IDX 86 58 51 59 52 60 66 62 87 63 54 64 38 65 39 66 47 67 40 68
REMARK SMILES IDX 46 69 48 70 45 71 41 72 42 73 43 74 44 75 70 76 71 77 79 78
REMARK SMILES IDX 72 79 78 80 80 81 77 82 73 83 74 84 75 85 76 86 55 87 56 88
REMARK SMILES IDX 64 89 57 90 63 91 65 92 62 93 58 94 59 95 60 96 61 97
REMARK H PARENT 19 7 6 17 26 31 85 50 53 61
REMARK Flexibility Score: inf
ROOT
ATOM      1  C   UNL A   1      32.992  28.968  25.287  1.00  0.00     0.002 C 
ENDROOT
BRANCH   1   2
ATOM      2  C   UNL A   1      32.908  28.990  23.754  1.00  0.00     0.021 C 
BRANCH   2   3
ATOM      3  C   UNL A   1      33.780  27.957  23.037  1.00  0.00     0.116 C 
BRANCH   3   4
ATOM      4  N   UNL A   1      33.073  27.291  21.960  1.00  0.00    -0.356 N 
ATOM      5  C   UNL A   1      33.001  25.962  21.671  1.00  0.00     0.224 C 
ATOM      6  O   UNL A   1      32.414  25.609  20.645  1.00  0.00    -0.275 OA
ATOM      7  H   UNL A   1      32.576  27.884  21.351  1.00  0.00     0.163 HD
BRANCH   5   8
ATOM      8  C   UNL A   1      33.624  24.928  22.589  1.00  0.00     0.137 C 
BRANCH   8   9
ATOM      9  C   UNL A   1      32.764  24.538  23.771  1.00  0.00    -0.015 A 
ATOM     10  C   UNL A   1      29.656  25.993  25.477  1.00  0.00     0.044 C 
ATOM     11  C   UNL A   1      30.813  25.098  25.151  1.00  0.00    -0.051 A 
ATOM     12  C   UNL A   1      31.105  24.010  25.968  1.00  0.00     0.005 A 
ATOM     13  C   UNL A   1      31.630  25.339  24.044  1.00  0.00     0.009 A 
ATOM     14  C   UNL A   1      32.196  23.186  25.684  1.00  0.00     0.026 A 
ATOM     15  C   UNL A   1      33.053  23.431  24.597  1.00  0.00     0.042 A 
BRANCH  15  16
ATOM     16  N   UNL A   1      34.142  22.573  24.321  1.00  0.00    -0.352 N 
ATOM     17  H   UNL A   1      33.985  21.900  23.620  1.00  0.00     0.167 HD
BRANCH  16  18
ATOM     18  C   UNL A   1      35.427  22.549  24.915  1.00  0.00     0.094 A 
ATOM     19  C   UNL A   1      36.127  23.724  25.231  1.00  0.00     0.148 A 
ATOM     20  C   UNL A   1      36.098  21.328  25.112  1.00  0.00     0.067 A 
ATOM     21  F   UNL A   1      35.534  24.922  25.097  1.00  0.00    -0.205 F 
ATOM     22  C   UNL A   1      37.437  23.696  25.708  1.00  0.00     0.041 A 
ATOM     23  C   UNL A   1      37.416  21.292  25.582  1.00  0.00     0.023 A 
ATOM     24  Cl  UNL A   1      35.325  19.822  24.750  1.00  0.00    -0.082 Cl
ATOM     25  C   UNL A   1      38.088  22.477  25.875  1.00  0.00     0.005 A 
ENDBRANCH  16  18
ENDBRANCH  15  16
ENDBRANCH   8   9
ENDBRANCH   5   8
ENDBRANCH   3   4
ENDBRANCH   2   3
ENDBRANCH   1   2
BRANCH   1  26
ATOM     26  C   UNL A   1      32.115  29.978  26.044  1.00  0.00     0.002 C 
BRANCH  26  27
ATOM     27  C   UNL A   1      32.768  30.678  27.237  1.00  0.00     0.021 C 
BRANCH  27  28
ATOM     28  C   UNL A   1      34.245  30.344  27.424  1.00  0.00     0.116 C 
BRANCH  28  29
ATOM     29  N   UNL A   1      34.984  31.367  28.159  1.00  0.00    -0.352 N 
ATOM     30  C   UNL A   1      36.181  31.258  28.847  1.00  0.00     0.251 C 
ATOM     31  H   UNL A   1      34.573  32.261  28.165  1.00  0.00     0.163 HD
ATOM     32  O   UNL A   1      36.634  32.198  29.482  1.00  0.00    -0.269 OA
BRANCH  30  33
ATOM     33  C   UNL A   1      36.969  30.010  28.713  1.00  0.00     0.039 A 
ATOM     34  C   UNL A   1      37.105  29.206  29.851  1.00  0.00     0.014 A 
ATOM     35  C   UNL A   1      37.725  29.756  27.573  1.00  0.00     0.014 A 
ATOM     36  C   UNL A   1      38.166  28.308  29.929  1.00  0.00     0.010 A 
ATOM     37  C   UNL A   1      38.830  28.934  27.682  1.00  0.00     0.010 A 
ATOM     38  C   UNL A   1      39.090  28.270  28.887  1.00  0.00    -0.014 A 
BRANCH  38  39
ATOM     39  C   UNL A   1      40.438  27.728  29.032  1.00  0.00     0.031 A 
ATOM     40  C   UNL A   1      40.744  26.326  28.684  1.00  0.00     0.074 A 
ATOM     41  C   UNL A   1      41.442  28.563  29.382  1.00  0.00     0.049 A 
ATOM     42  N   UNL A   1      41.849  25.733  28.990  1.00  0.00    -0.248 NA
ATOM     43  C   UNL A   1      39.784  25.440  28.034  1.00  0.00     0.031 C 
ATOM     44  C   UNL A   1      42.879  28.337  29.257  1.00  0.00     0.029 A 
ATOM     45  N   UNL A   1      41.339  29.692  30.194  1.00  0.00    -0.354 N 
ATOM     46  C   UNL A   1      41.880  24.534  28.324  1.00  0.00     0.074 A 
ATOM     47  C   UNL A   1      40.525  24.338  27.877  1.00  0.00     0.031 C 
ATOM     48  C   UNL A   1      43.517  29.100  30.156  1.00  0.00     0.029 A 
ATOM     49  C   UNL A   1      42.505  29.723  30.988  1.00  0.00     0.049 A 
ATOM     50  H   UNL A   1      40.598  30.340  30.210  1.00  0.00     0.167 HD
ATOM     51  C   UNL A   1      43.086  23.932  28.123  1.00  0.00     0.034 A 
ATOM     52  C   UNL A   1      42.417  29.611  32.347  1.00  0.00     0.034 A 
ATOM     53  C   UNL A   1      44.116  24.496  29.009  1.00  0.00     0.049 A 
ATOM     54  C   UNL A   1      43.107  28.384  32.920  1.00  0.00     0.074 A 
ATOM     55  C   UNL A   1      45.242  25.284  28.847  1.00  0.00     0.029 A 
ATOM     56  N   UNL A   1      43.902  24.424  30.378  1.00  0.00    -0.354 N 
ATOM     57  N   UNL A   1      43.723  27.479  32.208  1.00  0.00    -0.248 NA
ATOM     58  C   UNL A   1      43.075  28.040  34.342  1.00  0.00     0.031 C 
ATOM     59  C   UNL A   1      45.657  25.733  30.142  1.00  0.00     0.029 A 
ATOM     60  C   UNL A   1      44.807  25.187  31.088  1.00  0.00     0.049 A 
ATOM     61  H   UNL A   1      43.188  23.890  30.794  1.00  0.00     0.167 HD
ATOM     62  C   UNL A   1      44.084  26.430  33.014  1.00  0.00     0.074 A 
ATOM     63  C   UNL A   1      43.667  26.834  34.346  1.00  0.00     0.031 C 
ATOM     64  C   UNL A   1      44.650  25.283  32.534  1.00  0.00     0.034 A 
BRANCH  51  65
ATOM     65  C   UNL A   1      43.401  22.938  27.016  1.00  0.00     0.023 A 
ATOM     66  C   UNL A   1      42.743  21.687  27.023  1.00  0.00     0.031 A 
ATOM     67  C   UNL A   1      44.396  23.075  26.020  1.00  0.00     0.131 A 
ATOM     68  C   UNL A   1      43.092  20.661  26.120  1.00  0.00     0.055 A 
ATOM     69  C   UNL A   1      44.707  22.072  25.091  1.00  0.00     0.041 A 
ATOM     70  F   UNL A   1      45.169  24.157  25.903  1.00  0.00    -0.206 F 
ATOM     71  C   UNL A   1      44.062  20.853  25.144  1.00  0.00     0.022 A 
BRANCH  68  72
ATOM     72  S   UNL A   1      42.316  19.030  26.285  1.00  0.00     0.124 S 
ATOM     73  O   UNL A   1      42.407  18.791  27.721  1.00  0.00    -0.237 OA
ATOM     74  O   UNL A   1      40.981  19.267  25.747  1.00  0.00    -0.237 OA
ATOM     75  O   UNL A   1      43.167  18.167  25.465  1.00  0.00    -0.744 OA
ENDBRANCH  68  72
ENDBRANCH  51  65
BRANCH  52  76
ATOM     76  C   UNL A   1      41.188  30.264  32.892  1.00  0.00     0.023 A 
ATOM     77  C   UNL A   1      41.186  31.675  32.944  1.00  0.00     0.031 A 
ATOM     78  C   UNL A   1      39.954  29.605  32.966  1.00  0.00     0.131 A 
ATOM     79  C   UNL A   1      39.978  32.383  32.883  1.00  0.00     0.055 A 
ATOM     80  C   UNL A   1      38.749  30.319  32.992  1.00  0.00     0.041 A 
ATOM     81  F   UNL A   1      39.883  28.269  32.881  1.00  0.00    -0.206 F 
ATOM     82  C   UNL A   1      38.756  31.713  32.904  1.00  0.00     0.022 A 
BRANCH  79  83
ATOM     83  S   UNL A   1      40.047  34.156  32.485  1.00  0.00     0.124 S 
ATOM     84  O   UNL A   1      39.320  34.212  31.221  1.00  0.00    -0.237 OA
ATOM     85  O   UNL A   1      39.379  34.763  33.635  1.00  0.00    -0.237 OA
ATOM     86  O   UNL A   1      41.478  34.435  32.399  1.00  0.00    -0.744 OA
ENDBRANCH  79  83
ENDBRANCH  52  76
BRANCH  64  87
ATOM     87  C   UNL A   1      45.050  24.134  33.426  1.00  0.00     0.023 A 
ATOM     88  C   UNL A   1      46.379  23.944  33.839  1.00  0.00     0.031 A 
ATOM     89  C   UNL A   1      44.121  23.151  33.836  1.00  0.00     0.131 A 
ATOM     90  C   UNL A   1      46.725  22.871  34.679  1.00  0.00     0.055 A 
ATOM     91  C   UNL A   1      44.487  22.036  34.595  1.00  0.00     0.041 A 
ATOM     92  F   UNL A   1      42.814  23.255  33.556  1.00  0.00    -0.206 F 
ATOM     93  C   UNL A   1      45.794  21.897  35.035  1.00  0.00     0.022 A 
BRANCH  90  94
ATOM     94  S   UNL A   1      48.399  22.815  35.371  1.00  0.00     0.124 S 
ATOM     95  O   UNL A   1      48.211  22.052  36.601  1.00  0.00    -0.237 OA
ATOM     96  O   UNL A   1      49.133  22.134  34.308  1.00  0.00    -0.237 OA
ATOM     97  O   UNL A   1      48.744  24.222  35.558  1.00  0.00    -0.744 OA
ENDBRANCH  90  94
ENDBRANCH  64  87
ENDBRANCH  38  39
ENDBRANCH  30  33
ENDBRANCH  28  29
ENDBRANCH  27  28
ENDBRANCH  26  27
ENDBRANCH   1  26
TORSDOF 19
ENDMDL
