MODEL 1
REMARK VINA RESULT:     -11.6      0.000      0.000
REMARK SMILES COc1ccc2cc([C@H](C)C(=O)NCCCCCCNC(=O)c3ccc(-c4c5nc(c(-c6cc(S(=O)(=O)[O-])ccc6F)c6ccc([nH]6)c(-c6cc(S(=O)(=O)[O-])ccc6F)c6nc(c(-c7cc(S(=O)(=O)[O-])ccc7F)c7ccc4[nH]7)C=C6)C=C5)cc3)ccc2c1
REMARK SMILES IDX 17 1 16 2 15 3 14 4 13 5 11 6 12 7 9 9 10 10 8 11 3 12 4 13
REMARK SMILES IDX 89 14 5 15 88 16 6 17 87 18 7 19 86 20 2 21 1 22 18 23 19 24
REMARK SMILES IDX 20 25 21 26 22 28 23 29 24 30 85 31 25 32 84 33 26 34 27 35
REMARK SMILES IDX 28 36 78 37 29 38 83 39 77 40 79 41 30 42 82 43 76 44 75 45
REMARK SMILES IDX 31 47 63 48 43 49 62 50 44 51 47 52 61 53 80 54 45 55 46 56
REMARK SMILES IDX 60 58 81 59 48 60 32 61 33 62 41 63 34 64 40 65 42 66 39 67
REMARK SMILES IDX 35 68 36 69 37 70 38 71 64 72 65 73 73 74 66 75 72 76 74 77
REMARK SMILES IDX 71 78 67 79 68 80 69 81 70 82 49 83 50 84 58 85 51 86 57 87
REMARK SMILES IDX 59 88 56 89 52 90 53 91 54 92 55 93
REMARK H PARENT 13 8 20 27 79 46 47 57
REMARK Flexibility Score: inf
ROOT
ATOM      1  C   UNL A   1      31.047  30.639  25.341  1.00  0.00     0.002 C 
ENDROOT
BRANCH   1   2
ATOM      2  C   UNL A   1      32.038  29.567  25.808  1.00  0.00     0.002 C 
BRANCH   2   3
ATOM      3  C   UNL A   1      31.403  28.383  26.540  1.00  0.00     0.021 C 
BRANCH   3   4
ATOM      4  C   UNL A   1      32.256  27.122  26.512  1.00  0.00     0.116 C 
BRANCH   4   5
ATOM      5  N   UNL A   1      31.473  25.954  26.880  1.00  0.00    -0.356 N 
ATOM      6  C   UNL A   1      30.965  24.964  26.087  1.00  0.00     0.227 C 
ATOM      7  O   UNL A   1      30.349  24.044  26.631  1.00  0.00    -0.274 OA
ATOM      8  H   UNL A   1      31.282  25.862  27.840  1.00  0.00     0.163 HD
BRANCH   6   9
ATOM      9  C   UNL A   1      31.183  24.980  24.559  1.00  0.00     0.105 C 
ATOM     10  C   UNL A   1      31.293  23.533  24.062  1.00  0.00     0.023 C 
BRANCH   9  11
ATOM     11  C   UNL A   1      30.162  25.898  23.888  1.00  0.00    -0.035 A 
ATOM     12  C   UNL A   1      28.449  30.406  22.375  1.00  0.00     0.119 A 
ATOM     13  C   UNL A   1      29.765  30.321  21.925  1.00  0.00     0.047 A 
ATOM     14  C   UNL A   1      27.852  29.308  23.002  1.00  0.00     0.055 A 
ATOM     15  C   UNL A   1      30.480  29.136  22.093  1.00  0.00     0.012 A 
ATOM     16  C   UNL A   1      28.565  28.115  23.195  1.00  0.00    -0.015 A 
ATOM     17  C   UNL A   1      29.898  28.040  22.744  1.00  0.00    -0.018 A 
ATOM     18  C   UNL A   1      28.010  27.013  23.868  1.00  0.00     0.009 A 
ATOM     19  C   UNL A   1      30.660  26.907  23.042  1.00  0.00     0.013 A 
ATOM     20  C   UNL A   1      28.802  25.911  24.213  1.00  0.00     0.005 A 
BRANCH  12  21
ATOM     21  O   UNL A   1      27.688  31.541  22.318  1.00  0.00    -0.497 OA
ATOM     22  C   UNL A   1      28.416  32.731  22.030  1.00  0.00     0.278 C 
ENDBRANCH  12  21
ENDBRANCH   9  11
ENDBRANCH   6   9
ENDBRANCH   4   5
ENDBRANCH   3   4
ENDBRANCH   2   3
ENDBRANCH   1   2
BRANCH   1  23
ATOM     23  C   UNL A   1      31.046  31.927  26.169  1.00  0.00     0.021 C 
BRANCH  23  24
ATOM     24  C   UNL A   1      32.331  32.181  26.951  1.00  0.00     0.116 C 
BRANCH  24  25
ATOM     25  N   UNL A   1      32.499  33.587  27.282  1.00  0.00    -0.352 N 
ATOM     26  C   UNL A   1      33.416  34.176  28.112  1.00  0.00     0.251 C 
ATOM     27  H   UNL A   1      31.864  34.201  26.848  1.00  0.00     0.163 HD
ATOM     28  O   UNL A   1      33.276  35.354  28.439  1.00  0.00    -0.269 OA
BRANCH  26  29
ATOM     29  C   UNL A   1      34.554  33.386  28.628  1.00  0.00     0.039 A 
ATOM     30  C   UNL A   1      35.854  33.820  28.364  1.00  0.00     0.014 A 
ATOM     31  C   UNL A   1      34.338  32.222  29.373  1.00  0.00     0.014 A 
ATOM     32  C   UNL A   1      36.937  33.120  28.899  1.00  0.00     0.010 A 
ATOM     33  C   UNL A   1      35.416  31.570  29.966  1.00  0.00     0.010 A 
ATOM     34  C   UNL A   1      36.728  32.011  29.734  1.00  0.00    -0.014 A 
BRANCH  34  35
ATOM     35  C   UNL A   1      37.870  31.300  30.370  1.00  0.00     0.031 A 
ATOM     36  C   UNL A   1      38.220  31.572  31.808  1.00  0.00     0.074 A 
ATOM     37  C   UNL A   1      38.613  30.444  29.640  1.00  0.00     0.049 A 
ATOM     38  N   UNL A   1      39.221  31.114  32.515  1.00  0.00    -0.248 NA
ATOM     39  C   UNL A   1      37.344  32.501  32.540  1.00  0.00     0.031 C 
ATOM     40  C   UNL A   1      38.389  30.121  28.228  1.00  0.00     0.029 A 
ATOM     41  N   UNL A   1      39.712  29.693  29.978  1.00  0.00    -0.354 N 
ATOM     42  C   UNL A   1      39.093  31.693  33.774  1.00  0.00     0.074 A 
ATOM     43  C   UNL A   1      37.960  32.590  33.709  1.00  0.00     0.031 C 
ATOM     44  C   UNL A   1      39.305  29.225  27.830  1.00  0.00     0.029 A 
ATOM     45  C   UNL A   1      40.217  28.949  28.935  1.00  0.00     0.049 A 
ATOM     46  H   UNL A   1      40.103  29.687  30.881  1.00  0.00     0.167 HD
ATOM     47  C   UNL A   1      39.834  31.473  34.888  1.00  0.00     0.034 A 
ATOM     48  C   UNL A   1      41.302  28.151  28.871  1.00  0.00     0.034 A 
ATOM     49  C   UNL A   1      40.960  30.574  34.940  1.00  0.00     0.049 A 
ATOM     50  C   UNL A   1      42.143  27.967  30.113  1.00  0.00     0.074 A 
ATOM     51  C   UNL A   1      41.764  30.262  36.022  1.00  0.00     0.029 A 
ATOM     52  N   UNL A   1      41.444  29.841  33.864  1.00  0.00    -0.354 N 
ATOM     53  N   UNL A   1      41.983  28.496  31.304  1.00  0.00    -0.248 NA
ATOM     54  C   UNL A   1      43.301  27.071  30.005  1.00  0.00     0.031 C 
ATOM     55  C   UNL A   1      42.774  29.399  35.586  1.00  0.00     0.029 A 
ATOM     56  C   UNL A   1      42.551  29.102  34.252  1.00  0.00     0.049 A 
ATOM     57  H   UNL A   1      41.059  29.847  32.958  1.00  0.00     0.167 HD
ATOM     58  C   UNL A   1      42.999  27.964  32.094  1.00  0.00     0.074 A 
ATOM     59  C   UNL A   1      43.750  27.059  31.250  1.00  0.00     0.031 C 
ATOM     60  C   UNL A   1      43.289  28.201  33.399  1.00  0.00     0.034 A 
BRANCH  47  61
ATOM     61  C   UNL A   1      39.453  32.227  36.140  1.00  0.00     0.023 A 
ATOM     62  C   UNL A   1      38.593  31.666  37.100  1.00  0.00     0.031 A 
ATOM     63  C   UNL A   1      39.959  33.515  36.382  1.00  0.00     0.131 A 
ATOM     64  C   UNL A   1      38.219  32.412  38.227  1.00  0.00     0.055 A 
ATOM     65  C   UNL A   1      39.646  34.222  37.545  1.00  0.00     0.041 A 
ATOM     66  F   UNL A   1      40.767  34.112  35.491  1.00  0.00    -0.206 F 
ATOM     67  C   UNL A   1      38.763  33.676  38.471  1.00  0.00     0.022 A 
BRANCH  64  68
ATOM     68  S   UNL A   1      36.920  31.756  39.308  1.00  0.00     0.124 S 
ATOM     69  O   UNL A   1      36.742  30.409  38.771  1.00  0.00    -0.237 OA
ATOM     70  O   UNL A   1      37.533  31.842  40.628  1.00  0.00    -0.237 OA
ATOM     71  O   UNL A   1      35.796  32.662  39.081  1.00  0.00    -0.744 OA
ENDBRANCH  64  68
ENDBRANCH  47  61
BRANCH  48  72
ATOM     72  C   UNL A   1      41.690  27.486  27.590  1.00  0.00     0.023 A 
ATOM     73  C   UNL A   1      41.613  26.091  27.444  1.00  0.00     0.031 A 
ATOM     74  C   UNL A   1      42.228  28.227  26.522  1.00  0.00     0.131 A 
ATOM     75  C   UNL A   1      42.136  25.477  26.296  1.00  0.00     0.055 A 
ATOM     76  C   UNL A   1      42.678  27.617  25.350  1.00  0.00     0.041 A 
ATOM     77  F   UNL A   1      42.328  29.563  26.605  1.00  0.00    -0.206 F 
ATOM     78  C   UNL A   1      42.654  26.231  25.242  1.00  0.00     0.022 A 
BRANCH  75  79
ATOM     79  S   UNL A   1      42.263  23.666  26.265  1.00  0.00     0.124 S 
ATOM     80  O   UNL A   1      43.212  23.418  27.344  1.00  0.00    -0.237 OA
ATOM     81  O   UNL A   1      40.883  23.263  26.516  1.00  0.00    -0.237 OA
ATOM     82  O   UNL A   1      42.759  23.384  24.919  1.00  0.00    -0.744 OA
ENDBRANCH  75  79
ENDBRANCH  48  72
BRANCH  60  83
ATOM     83  C   UNL A   1      44.434  27.423  34.003  1.00  0.00     0.023 A 
ATOM     84  C   UNL A   1      44.219  26.282  34.795  1.00  0.00     0.031 A 
ATOM     85  C   UNL A   1      45.760  27.839  33.789  1.00  0.00     0.131 A 
ATOM     86  C   UNL A   1      45.309  25.633  35.396  1.00  0.00     0.055 A 
ATOM     87  C   UNL A   1      46.845  27.149  34.332  1.00  0.00     0.041 A 
ATOM     88  F   UNL A   1      46.026  28.923  33.043  1.00  0.00    -0.206 F 
ATOM     89  C   UNL A   1      46.622  26.047  35.153  1.00  0.00     0.022 A 
BRANCH  86  90
ATOM     90  S   UNL A   1      44.983  24.300  36.582  1.00  0.00     0.124 S 
ATOM     91  O   UNL A   1      44.623  23.193  35.702  1.00  0.00    -0.237 OA
ATOM     92  O   UNL A   1      46.263  24.176  37.270  1.00  0.00    -0.237 OA
ATOM     93  O   UNL A   1      43.889  24.825  37.397  1.00  0.00    -0.744 OA
ENDBRANCH  86  90
ENDBRANCH  60  83
ENDBRANCH  34  35
ENDBRANCH  26  29
ENDBRANCH  24  25
ENDBRANCH  23  24
ENDBRANCH   1  23
TORSDOF 18
ENDMDL
MODEL 2
REMARK VINA RESULT:     -11.2      4.550      7.877
REMARK SMILES COc1ccc2cc([C@H](C)C(=O)NCCCCCCNC(=O)c3ccc(-c4c5nc(c(-c6cc(S(=O)(=O)[O-])ccc6F)c6ccc([nH]6)c(-c6cc(S(=O)(=O)[O-])ccc6F)c6nc(c(-c7cc(S(=O)(=O)[O-])ccc7F)c7ccc4[nH]7)C=C6)C=C5)cc3)ccc2c1
REMARK SMILES IDX 17 1 16 2 15 3 14 4 13 5 11 6 12 7 9 9 10 10 8 11 3 12 4 13
REMARK SMILES IDX 89 14 5 15 88 16 6 17 87 18 7 19 86 20 2 21 1 22 18 23 19 24
REMARK SMILES IDX 20 25 21 26 22 28 23 29 24 30 85 31 25 32 84 33 26 34 27 35
REMARK SMILES IDX 28 36 78 37 29 38 83 39 77 40 79 41 30 42 82 43 76 44 75 45
REMARK SMILES IDX 31 47 63 48 43 49 62 50 44 51 47 52 61 53 80 54 45 55 46 56
REMARK SMILES IDX 60 58 81 59 48 60 32 61 33 62 41 63 34 64 40 65 42 66 39 67
REMARK SMILES IDX 35 68 36 69 37 70 38 71 64 72 65 73 73 74 66 75 72 76 74 77
REMARK SMILES IDX 71 78 67 79 68 80 69 81 70 82 49 83 50 84 58 85 51 86 57 87
REMARK SMILES IDX 59 88 56 89 52 90 53 91 54 92 55 93
REMARK H PARENT 13 8 20 27 79 46 47 57
REMARK Flexibility Score: inf
ROOT
ATOM      1  C   UNL A   1      34.985  32.787  31.260  1.00  0.00     0.002 C 
ENDROOT
BRANCH   1   2
ATOM      2  C   UNL A   1      34.385  33.076  32.641  1.00  0.00     0.002 C 
BRANCH   2   3
ATOM      3  C   UNL A   1      34.593  34.506  33.143  1.00  0.00     0.021 C 
BRANCH   3   4
ATOM      4  C   UNL A   1      35.268  34.581  34.506  1.00  0.00     0.116 C 
BRANCH   4   5
ATOM      5  N   UNL A   1      36.158  33.451  34.710  1.00  0.00    -0.356 N 
ATOM      6  C   UNL A   1      37.509  33.364  34.526  1.00  0.00     0.227 C 
ATOM      7  O   UNL A   1      38.064  32.296  34.796  1.00  0.00    -0.274 OA
ATOM      8  H   UNL A   1      35.725  32.627  35.028  1.00  0.00     0.163 HD
BRANCH   6   9
ATOM      9  C   UNL A   1      38.322  34.578  34.025  1.00  0.00     0.105 C 
ATOM     10  C   UNL A   1      39.330  34.976  35.109  1.00  0.00     0.023 C 
BRANCH   9  11
ATOM     11  C   UNL A   1      38.844  34.318  32.613  1.00  0.00    -0.035 A 
ATOM     12  C   UNL A   1      42.010  35.102  28.751  1.00  0.00     0.119 A 
ATOM     13  C   UNL A   1      42.810  34.911  29.875  1.00  0.00     0.047 A 
ATOM     14  C   UNL A   1      40.623  34.950  28.846  1.00  0.00     0.055 A 
ATOM     15  C   UNL A   1      42.225  34.559  31.092  1.00  0.00     0.012 A 
ATOM     16  C   UNL A   1      40.018  34.614  30.067  1.00  0.00    -0.015 A 
ATOM     17  C   UNL A   1      40.834  34.431  31.201  1.00  0.00    -0.018 A 
ATOM     18  C   UNL A   1      38.624  34.507  30.206  1.00  0.00     0.009 A 
ATOM     19  C   UNL A   1      40.239  34.223  32.448  1.00  0.00     0.013 A 
ATOM     20  C   UNL A   1      38.039  34.359  31.470  1.00  0.00     0.005 A 
BRANCH  12  21
ATOM     21  O   UNL A   1      42.478  35.514  27.534  1.00  0.00    -0.497 OA
ATOM     22  C   UNL A   1      42.278  36.896  27.256  1.00  0.00     0.278 C 
ENDBRANCH  12  21
ENDBRANCH   9  11
ENDBRANCH   6   9
ENDBRANCH   4   5
ENDBRANCH   3   4
ENDBRANCH   2   3
ENDBRANCH   1   2
BRANCH   1  23
ATOM     23  C   UNL A   1      34.550  33.746  30.149  1.00  0.00     0.021 C 
BRANCH  23  24
ATOM     24  C   UNL A   1      35.096  33.405  28.766  1.00  0.00     0.116 C 
BRANCH  24  25
ATOM     25  N   UNL A   1      34.231  32.481  28.051  1.00  0.00    -0.352 N 
ATOM     26  C   UNL A   1      34.484  31.196  27.648  1.00  0.00     0.251 C 
ATOM     27  H   UNL A   1      33.338  32.827  27.825  1.00  0.00     0.163 HD
ATOM     28  O   UNL A   1      33.713  30.637  26.868  1.00  0.00    -0.269 OA
BRANCH  26  29
ATOM     29  C   UNL A   1      35.693  30.498  28.132  1.00  0.00     0.039 A 
ATOM     30  C   UNL A   1      36.888  30.645  27.425  1.00  0.00     0.014 A 
ATOM     31  C   UNL A   1      35.650  29.703  29.282  1.00  0.00     0.014 A 
ATOM     32  C   UNL A   1      38.053  30.043  27.906  1.00  0.00     0.010 A 
ATOM     33  C   UNL A   1      36.826  29.168  29.799  1.00  0.00     0.010 A 
ATOM     34  C   UNL A   1      38.041  29.330  29.115  1.00  0.00    -0.014 A 
BRANCH  34  35
ATOM     35  C   UNL A   1      39.289  28.747  29.677  1.00  0.00     0.031 A 
ATOM     36  C   UNL A   1      39.922  29.356  30.900  1.00  0.00     0.074 A 
ATOM     37  C   UNL A   1      39.872  27.699  29.062  1.00  0.00     0.049 A 
ATOM     38  N   UNL A   1      41.046  29.042  31.491  1.00  0.00    -0.248 NA
ATOM     39  C   UNL A   1      39.208  30.482  31.524  1.00  0.00     0.031 C 
ATOM     40  C   UNL A   1      39.368  27.042  27.852  1.00  0.00     0.029 A 
ATOM     41  N   UNL A   1      41.018  27.003  29.359  1.00  0.00    -0.354 N 
ATOM     42  C   UNL A   1      41.172  29.926  32.558  1.00  0.00     0.074 A 
ATOM     43  C   UNL A   1      40.047  30.832  32.487  1.00  0.00     0.031 C 
ATOM     44  C   UNL A   1      40.188  26.030  27.526  1.00  0.00     0.029 A 
ATOM     45  C   UNL A   1      41.304  25.996  28.466  1.00  0.00     0.049 A 
ATOM     46  H   UNL A   1      41.583  27.206  30.139  1.00  0.00     0.167 HD
ATOM     47  C   UNL A   1      42.123  29.957  33.525  1.00  0.00     0.034 A 
ATOM     48  C   UNL A   1      42.356  25.154  28.398  1.00  0.00     0.034 A 
ATOM     49  C   UNL A   1      43.239  29.045  33.585  1.00  0.00     0.049 A 
ATOM     50  C   UNL A   1      43.430  25.249  29.457  1.00  0.00     0.074 A 
ATOM     51  C   UNL A   1      44.245  28.977  34.533  1.00  0.00     0.029 A 
ATOM     52  N   UNL A   1      43.497  28.041  32.661  1.00  0.00    -0.354 N 
ATOM     53  N   UNL A   1      43.512  26.069  30.479  1.00  0.00    -0.248 NA
ATOM     54  C   UNL A   1      44.545  24.298  29.359  1.00  0.00     0.031 C 
ATOM     55  C   UNL A   1      45.148  27.983  34.145  1.00  0.00     0.029 A 
ATOM     56  C   UNL A   1      44.661  27.370  33.003  1.00  0.00     0.049 A 
ATOM     57  H   UNL A   1      42.937  27.838  31.877  1.00  0.00     0.167 HD
ATOM     58  C   UNL A   1      44.668  25.703  31.165  1.00  0.00     0.074 A 
ATOM     59  C   UNL A   1      45.235  24.578  30.453  1.00  0.00     0.031 C 
ATOM     60  C   UNL A   1      45.214  26.247  32.283  1.00  0.00     0.034 A 
BRANCH  47  61
ATOM     61  C   UNL A   1      42.000  31.021  34.590  1.00  0.00     0.023 A 
ATOM     62  C   UNL A   1      42.691  32.241  34.489  1.00  0.00     0.031 A 
ATOM     63  C   UNL A   1      41.180  30.820  35.713  1.00  0.00     0.131 A 
ATOM     64  C   UNL A   1      42.595  33.188  35.519  1.00  0.00     0.055 A 
ATOM     65  C   UNL A   1      41.026  31.799  36.697  1.00  0.00     0.041 A 
ATOM     66  F   UNL A   1      40.513  29.666  35.875  1.00  0.00    -0.206 F 
ATOM     67  C   UNL A   1      41.745  32.987  36.609  1.00  0.00     0.022 A 
BRANCH  64  68
ATOM     68  S   UNL A   1      43.690  34.632  35.473  1.00  0.00     0.124 S 
ATOM     69  O   UNL A   1      43.303  35.255  34.209  1.00  0.00    -0.237 OA
ATOM     70  O   UNL A   1      43.314  35.354  36.683  1.00  0.00    -0.237 OA
ATOM     71  O   UNL A   1      45.030  34.047  35.485  1.00  0.00    -0.744 OA
ENDBRANCH  64  68
ENDBRANCH  47  61
BRANCH  48  72
ATOM     72  C   UNL A   1      42.479  24.169  27.282  1.00  0.00     0.023 A 
ATOM     73  C   UNL A   1      41.856  22.912  27.351  1.00  0.00     0.031 A 
ATOM     74  C   UNL A   1      43.295  24.436  26.167  1.00  0.00     0.131 A 
ATOM     75  C   UNL A   1      42.121  21.944  26.369  1.00  0.00     0.055 A 
ATOM     76  C   UNL A   1      43.494  23.496  25.154  1.00  0.00     0.041 A 
ATOM     77  F   UNL A   1      43.916  25.620  26.046  1.00  0.00    -0.206 F 
ATOM     78  C   UNL A   1      42.922  22.233  25.263  1.00  0.00     0.022 A 
BRANCH  75  79
ATOM     79  S   UNL A   1      41.517  20.254  26.636  1.00  0.00     0.124 S 
ATOM     80  O   UNL A   1      40.096  20.482  26.871  1.00  0.00    -0.237 OA
ATOM     81  O   UNL A   1      41.865  19.606  25.376  1.00  0.00    -0.237 OA
ATOM     82  O   UNL A   1      42.278  19.802  27.799  1.00  0.00    -0.744 OA
ENDBRANCH  75  79
ENDBRANCH  48  72
BRANCH  60  83
ATOM     83  C   UNL A   1      46.459  25.591  32.831  1.00  0.00     0.023 A 
ATOM     84  C   UNL A   1      47.737  25.889  32.329  1.00  0.00     0.031 A 
ATOM     85  C   UNL A   1      46.360  24.644  33.866  1.00  0.00     0.131 A 
ATOM     86  C   UNL A   1      48.858  25.202  32.819  1.00  0.00     0.055 A 
ATOM     87  C   UNL A   1      47.485  24.014  34.397  1.00  0.00     0.041 A 
ATOM     88  F   UNL A   1      45.164  24.317  34.383  1.00  0.00    -0.206 F 
ATOM     89  C   UNL A   1      48.743  24.280  33.864  1.00  0.00     0.022 A 
BRANCH  86  90
ATOM     90  S   UNL A   1      50.459  25.453  32.004  1.00  0.00     0.124 S 
ATOM     91  O   UNL A   1      50.673  24.164  31.353  1.00  0.00    -0.237 OA
ATOM     92  O   UNL A   1      50.182  26.577  31.115  1.00  0.00    -0.237 OA
ATOM     93  O   UNL A   1      51.366  25.748  33.111  1.00  0.00    -0.744 OA
ENDBRANCH  86  90
ENDBRANCH  60  83
ENDBRANCH  34  35
ENDBRANCH  26  29
ENDBRANCH  24  25
ENDBRANCH  23  24
ENDBRANCH   1  23
TORSDOF 18
ENDMDL
MODEL 3
REMARK VINA RESULT:     -11.2      2.745      8.583
REMARK SMILES COc1ccc2cc([C@H](C)C(=O)NCCCCCCNC(=O)c3ccc(-c4c5nc(c(-c6cc(S(=O)(=O)[O-])ccc6F)c6ccc([nH]6)c(-c6cc(S(=O)(=O)[O-])ccc6F)c6nc(c(-c7cc(S(=O)(=O)[O-])ccc7F)c7ccc4[nH]7)C=C6)C=C5)cc3)ccc2c1
REMARK SMILES IDX 17 1 16 2 15 3 14 4 13 5 11 6 12 7 9 9 10 10 8 11 3 12 4 13
REMARK SMILES IDX 89 14 5 15 88 16 6 17 87 18 7 19 86 20 2 21 1 22 18 23 19 24
REMARK SMILES IDX 20 25 21 26 22 28 23 29 24 30 85 31 25 32 84 33 26 34 27 35
REMARK SMILES IDX 28 36 78 37 29 38 83 39 77 40 79 41 30 42 82 43 76 44 75 45
REMARK SMILES IDX 31 47 63 48 43 49 62 50 44 51 47 52 61 53 80 54 45 55 46 56
REMARK SMILES IDX 60 58 81 59 48 60 32 61 33 62 41 63 34 64 40 65 42 66 39 67
REMARK SMILES IDX 35 68 36 69 37 70 38 71 64 72 65 73 73 74 66 75 72 76 74 77
REMARK SMILES IDX 71 78 67 79 68 80 69 81 70 82 49 83 50 84 58 85 51 86 57 87
REMARK SMILES IDX 59 88 56 89 52 90 53 91 54 92 55 93
REMARK H PARENT 13 8 20 27 79 46 47 57
REMARK Flexibility Score: inf
ROOT
ATOM      1  C   UNL A   1      31.788  30.509  26.197  1.00  0.00     0.002 C 
ENDROOT
BRANCH   1   2
ATOM      2  C   UNL A   1      30.945  30.146  24.970  1.00  0.00     0.002 C 
BRANCH   2   3
ATOM      3  C   UNL A   1      31.157  28.724  24.445  1.00  0.00     0.021 C 
BRANCH   3   4
ATOM      4  C   UNL A   1      31.287  28.648  22.930  1.00  0.00     0.116 C 
BRANCH   4   5
ATOM      5  N   UNL A   1      32.640  28.286  22.540  1.00  0.00    -0.356 N 
ATOM      6  C   UNL A   1      33.101  27.132  21.973  1.00  0.00     0.227 C 
ATOM      7  O   UNL A   1      34.301  27.060  21.698  1.00  0.00    -0.274 OA
ATOM      8  H   UNL A   1      33.324  28.973  22.709  1.00  0.00     0.163 HD
BRANCH   6   9
ATOM      9  C   UNL A   1      32.141  25.965  21.655  1.00  0.00     0.105 C 
ATOM     10  C   UNL A   1      32.519  25.374  20.292  1.00  0.00     0.023 C 
BRANCH   9  11
ATOM     11  C   UNL A   1      32.046  25.019  22.850  1.00  0.00    -0.035 A 
ATOM     12  C   UNL A   1      32.650  20.550  25.134  1.00  0.00     0.119 A 
ATOM     13  C   UNL A   1      33.869  20.842  24.527  1.00  0.00     0.047 A 
ATOM     14  C   UNL A   1      31.614  21.488  25.110  1.00  0.00     0.055 A 
ATOM     15  C   UNL A   1      34.055  22.075  23.902  1.00  0.00     0.012 A 
ATOM     16  C   UNL A   1      31.779  22.726  24.470  1.00  0.00    -0.015 A 
ATOM     17  C   UNL A   1      33.012  23.010  23.850  1.00  0.00    -0.018 A 
ATOM     18  C   UNL A   1      30.740  23.668  24.382  1.00  0.00     0.009 A 
ATOM     19  C   UNL A   1      33.150  24.181  23.101  1.00  0.00     0.013 A 
ATOM     20  C   UNL A   1      30.870  24.807  23.579  1.00  0.00     0.005 A 
BRANCH  12  21
ATOM     21  O   UNL A   1      32.346  19.347  25.712  1.00  0.00    -0.497 OA
ATOM     22  C   UNL A   1      32.805  18.209  24.990  1.00  0.00     0.278 C 
ENDBRANCH  12  21
ENDBRANCH   9  11
ENDBRANCH   6   9
ENDBRANCH   4   5
ENDBRANCH   3   4
ENDBRANCH   2   3
ENDBRANCH   1   2
BRANCH   1  23
ATOM     23  C   UNL A   1      31.561  31.920  26.748  1.00  0.00     0.021 C 
BRANCH  23  24
ATOM     24  C   UNL A   1      32.801  32.573  27.350  1.00  0.00     0.116 C 
BRANCH  24  25
ATOM     25  N   UNL A   1      32.586  33.981  27.644  1.00  0.00    -0.352 N 
ATOM     26  C   UNL A   1      33.162  34.760  28.614  1.00  0.00     0.251 C 
ATOM     27  H   UNL A   1      31.936  34.439  27.064  1.00  0.00     0.163 HD
ATOM     28  O   UNL A   1      32.704  35.876  28.852  1.00  0.00    -0.269 OA
BRANCH  26  29
ATOM     29  C   UNL A   1      34.313  34.243  29.384  1.00  0.00     0.039 A 
ATOM     30  C   UNL A   1      34.074  33.511  30.548  1.00  0.00     0.014 A 
ATOM     31  C   UNL A   1      35.624  34.478  28.957  1.00  0.00     0.014 A 
ATOM     32  C   UNL A   1      35.148  32.963  31.251  1.00  0.00     0.010 A 
ATOM     33  C   UNL A   1      36.687  33.868  29.617  1.00  0.00     0.010 A 
ATOM     34  C   UNL A   1      36.461  33.104  30.773  1.00  0.00    -0.014 A 
BRANCH  34  35
ATOM     35  C   UNL A   1      37.608  32.464  31.471  1.00  0.00     0.031 A 
ATOM     36  C   UNL A   1      38.329  31.308  30.832  1.00  0.00     0.074 A 
ATOM     37  C   UNL A   1      37.970  32.896  32.696  1.00  0.00     0.049 A 
ATOM     38  N   UNL A   1      39.297  30.570  31.312  1.00  0.00    -0.248 NA
ATOM     39  C   UNL A   1      37.887  30.915  29.484  1.00  0.00     0.031 C 
ATOM     40  C   UNL A   1      37.327  33.989  33.431  1.00  0.00     0.029 A 
ATOM     41  N   UNL A   1      38.960  32.467  33.546  1.00  0.00    -0.354 N 
ATOM     42  C   UNL A   1      39.583  29.630  30.327  1.00  0.00     0.074 A 
ATOM     43  C   UNL A   1      38.637  29.848  29.254  1.00  0.00     0.031 C 
ATOM     44  C   UNL A   1      37.951  34.157  34.607  1.00  0.00     0.029 A 
ATOM     45  C   UNL A   1      39.002  33.153  34.739  1.00  0.00     0.049 A 
ATOM     46  H   UNL A   1      39.582  31.738  33.323  1.00  0.00     0.167 HD
ATOM     47  C   UNL A   1      40.563  28.694  30.308  1.00  0.00     0.034 A 
ATOM     48  C   UNL A   1      39.784  32.979  35.824  1.00  0.00     0.034 A 
ATOM     49  C   UNL A   1      41.501  28.489  31.384  1.00  0.00     0.049 A 
ATOM     50  C   UNL A   1      40.831  31.890  35.798  1.00  0.00     0.074 A 
ATOM     51  C   UNL A   1      42.545  27.584  31.456  1.00  0.00     0.029 A 
ATOM     52  N   UNL A   1      41.510  29.199  32.578  1.00  0.00    -0.354 N 
ATOM     53  N   UNL A   1      41.110  31.036  34.840  1.00  0.00    -0.248 NA
ATOM     54  C   UNL A   1      41.676  31.752  36.990  1.00  0.00     0.031 C 
ATOM     55  C   UNL A   1      43.139  27.696  32.716  1.00  0.00     0.029 A 
ATOM     56  C   UNL A   1      42.524  28.731  33.400  1.00  0.00     0.049 A 
ATOM     57  H   UNL A   1      40.887  29.927  32.807  1.00  0.00     0.167 HD
ATOM     58  C   UNL A   1      42.188  30.285  35.305  1.00  0.00     0.074 A 
ATOM     59  C   UNL A   1      42.520  30.803  36.614  1.00  0.00     0.031 C 
ATOM     60  C   UNL A   1      42.845  29.260  34.705  1.00  0.00     0.034 A 
BRANCH  47  61
ATOM     61  C   UNL A   1      40.662  27.813  29.085  1.00  0.00     0.023 A 
ATOM     62  C   UNL A   1      41.613  28.060  28.079  1.00  0.00     0.031 A 
ATOM     63  C   UNL A   1      39.807  26.710  28.926  1.00  0.00     0.131 A 
ATOM     64  C   UNL A   1      41.646  27.253  26.933  1.00  0.00     0.055 A 
ATOM     65  C   UNL A   1      39.897  25.862  27.819  1.00  0.00     0.041 A 
ATOM     66  F   UNL A   1      38.864  26.436  29.843  1.00  0.00    -0.206 F 
ATOM     67  C   UNL A   1      40.813  26.137  26.809  1.00  0.00     0.022 A 
BRANCH  64  68
ATOM     68  S   UNL A   1      42.709  27.752  25.552  1.00  0.00     0.124 S 
ATOM     69  O   UNL A   1      41.992  28.914  25.033  1.00  0.00    -0.237 OA
ATOM     70  O   UNL A   1      43.979  28.027  26.213  1.00  0.00    -0.237 OA
ATOM     71  O   UNL A   1      42.703  26.583  24.675  1.00  0.00    -0.744 OA
ENDBRANCH  64  68
ENDBRANCH  47  61
BRANCH  48  72
ATOM     72  C   UNL A   1      39.599  33.821  37.045  1.00  0.00     0.023 A 
ATOM     73  C   UNL A   1      40.423  34.931  37.292  1.00  0.00     0.031 A 
ATOM     74  C   UNL A   1      38.654  33.475  38.028  1.00  0.00     0.131 A 
ATOM     75  C   UNL A   1      40.340  35.606  38.520  1.00  0.00     0.055 A 
ATOM     76  C   UNL A   1      38.524  34.196  39.216  1.00  0.00     0.041 A 
ATOM     77  F   UNL A   1      37.840  32.423  37.848  1.00  0.00    -0.206 F 
ATOM     78  C   UNL A   1      39.386  35.256  39.477  1.00  0.00     0.022 A 
BRANCH  75  79
ATOM     79  S   UNL A   1      41.597  36.856  38.907  1.00  0.00     0.124 S 
ATOM     80  O   UNL A   1      42.322  36.218  40.000  1.00  0.00    -0.237 OA
ATOM     81  O   UNL A   1      42.312  36.967  37.640  1.00  0.00    -0.237 OA
ATOM     82  O   UNL A   1      40.807  38.027  39.281  1.00  0.00    -0.744 OA
ENDBRANCH  75  79
ENDBRANCH  48  72
BRANCH  60  83
ATOM     83  C   UNL A   1      44.025  28.673  35.442  1.00  0.00     0.023 A 
ATOM     84  C   UNL A   1      43.884  27.589  36.325  1.00  0.00     0.031 A 
ATOM     85  C   UNL A   1      45.310  29.216  35.263  1.00  0.00     0.131 A 
ATOM     86  C   UNL A   1      44.996  27.123  37.044  1.00  0.00     0.055 A 
ATOM     87  C   UNL A   1      46.425  28.704  35.927  1.00  0.00     0.041 A 
ATOM     88  F   UNL A   1      45.505  30.254  34.433  1.00  0.00    -0.206 F 
ATOM     89  C   UNL A   1      46.269  27.661  36.836  1.00  0.00     0.022 A 
BRANCH  86  90
ATOM     90  S   UNL A   1      44.739  25.871  38.331  1.00  0.00     0.124 S 
ATOM     91  O   UNL A   1      43.774  24.979  37.697  1.00  0.00    -0.237 OA
ATOM     92  O   UNL A   1      46.082  25.331  38.512  1.00  0.00    -0.237 OA
ATOM     93  O   UNL A   1      44.224  26.641  39.461  1.00  0.00    -0.744 OA
ENDBRANCH  86  90
ENDBRANCH  60  83
ENDBRANCH  34  35
ENDBRANCH  26  29
ENDBRANCH  24  25
ENDBRANCH  23  24
ENDBRANCH   1  23
TORSDOF 18
ENDMDL
