MODEL 1
REMARK VINA RESULT:     -11.4      0.000      0.000
REMARK SMILES Cc1ccccc1[C@@H](C)NS(=O)(=O)CC(=O)NCCCCCCNC(=O)c1ccc(-c2c3nc(c(-c4cc(S(=O)(=O)[O-])ccc4F)c4ccc([nH]4)c(-c4cc(S(=O)(=O)[O-])ccc4F)c4nc(c(-c5cc(S(=O)(=O)[O-])ccc5F)c5ccc2[nH]5)C=C4)C=C3)cc1
REMARK SMILES IDX 20 1 19 2 18 3 17 4 15 5 16 6 14 8 11 9 12 10 13 11 10 12
REMARK SMILES IDX 8 14 9 15 7 16 1 17 2 18 3 19 4 20 6 21 5 22 21 23 22 24
REMARK SMILES IDX 23 25 24 26 25 27 26 29 27 30 28 31 89 32 29 33 88 34 30 35
REMARK SMILES IDX 31 36 32 37 82 38 33 39 87 40 81 41 83 42 34 43 86 44 80 45
REMARK SMILES IDX 79 46 35 48 67 49 47 50 66 51 48 52 51 53 65 54 84 55 49 56
REMARK SMILES IDX 50 57 64 59 85 60 52 61 36 62 37 63 45 64 38 65 44 66 46 67
REMARK SMILES IDX 43 68 39 69 40 70 41 71 42 72 68 73 69 74 77 75 70 76 76 77
REMARK SMILES IDX 78 78 75 79 71 80 72 81 73 82 74 83 53 84 54 85 62 86 55 87
REMARK SMILES IDX 61 88 63 89 60 90 56 91 57 92 58 93 59 94
REMARK H PARENT 17 7 10 13 24 28 83 47 51 58
REMARK Flexibility Score: inf
ROOT
ATOM      1  C   UNL A   1      32.094  29.072  27.335  1.00  0.00     0.002 C 
ENDROOT
BRANCH   1   2
ATOM      2  C   UNL A   1      31.778  28.163  26.143  1.00  0.00     0.021 C 
BRANCH   2   3
ATOM      3  C   UNL A   1      32.361  28.653  24.819  1.00  0.00     0.116 C 
BRANCH   3   4
ATOM      4  N   UNL A   1      31.358  28.613  23.772  1.00  0.00    -0.355 N 
ATOM      5  C   UNL A   1      31.186  27.675  22.800  1.00  0.00     0.236 C 
ATOM      6  O   UNL A   1      30.370  27.895  21.902  1.00  0.00    -0.274 OA
ATOM      7  H   UNL A   1      30.720  29.363  23.761  1.00  0.00     0.163 HD
BRANCH   5   8
ATOM      8  C   UNL A   1      31.865  26.350  22.901  1.00  0.00     0.253 C 
BRANCH   8   9
ATOM      9  S   UNL A   1      33.347  26.214  21.935  1.00  0.00     0.221 S 
ATOM     10  O   UNL A   1      33.996  27.494  21.987  1.00  0.00    -0.212 OA
ATOM     11  O   UNL A   1      33.014  25.639  20.638  1.00  0.00    -0.212 OA
BRANCH   9  12
ATOM     12  N   UNL A   1      34.315  25.097  22.678  1.00  0.00    -0.208 NA
ATOM     13  H   UNL A   1      34.474  24.359  21.991  1.00  0.00     0.141 HD
BRANCH  12  14
ATOM     14  C   UNL A   1      33.934  24.417  23.922  1.00  0.00     0.096 C 
ATOM     15  C   UNL A   1      34.116  25.347  25.126  1.00  0.00     0.031 C 
BRANCH  14  16
ATOM     16  C   UNL A   1      34.773  23.156  24.136  1.00  0.00    -0.027 A 
ATOM     17  C   UNL A   1      32.838  21.764  25.135  1.00  0.00     0.044 C 
ATOM     18  C   UNL A   1      34.272  21.976  24.730  1.00  0.00    -0.046 A 
ATOM     19  C   UNL A   1      35.162  20.921  25.012  1.00  0.00     0.004 A 
ATOM     20  C   UNL A   1      36.513  20.999  24.677  1.00  0.00     0.000 A 
ATOM     21  C   UNL A   1      36.138  23.196  23.770  1.00  0.00     0.005 A 
ATOM     22  C   UNL A   1      36.997  22.132  24.038  1.00  0.00     0.000 A 
ENDBRANCH  14  16
ENDBRANCH  12  14
ENDBRANCH   9  12
ENDBRANCH   8   9
ENDBRANCH   5   8
ENDBRANCH   3   4
ENDBRANCH   2   3
ENDBRANCH   1   2
BRANCH   1  23
ATOM     23  C   UNL A   1      33.096  30.204  27.058  1.00  0.00     0.002 C 
BRANCH  23  24
ATOM     24  C   UNL A   1      34.491  30.017  27.649  1.00  0.00     0.021 C 
BRANCH  24  25
ATOM     25  C   UNL A   1      35.248  31.316  27.868  1.00  0.00     0.116 C 
BRANCH  25  26
ATOM     26  N   UNL A   1      34.430  32.402  28.381  1.00  0.00    -0.352 N 
ATOM     27  C   UNL A   1      34.590  33.153  29.532  1.00  0.00     0.251 C 
ATOM     28  H   UNL A   1      33.649  32.638  27.830  1.00  0.00     0.163 HD
ATOM     29  O   UNL A   1      33.684  33.866  29.957  1.00  0.00    -0.269 OA
BRANCH  27  30
ATOM     30  C   UNL A   1      35.945  33.276  30.134  1.00  0.00     0.039 A 
ATOM     31  C   UNL A   1      36.915  33.894  29.329  1.00  0.00     0.014 A 
ATOM     32  C   UNL A   1      36.328  32.504  31.223  1.00  0.00     0.014 A 
ATOM     33  C   UNL A   1      38.236  33.477  29.417  1.00  0.00     0.010 A 
ATOM     34  C   UNL A   1      37.598  31.988  31.229  1.00  0.00     0.010 A 
ATOM     35  C   UNL A   1      38.520  32.428  30.282  1.00  0.00    -0.014 A 
BRANCH  35  36
ATOM     36  C   UNL A   1      39.768  31.700  30.293  1.00  0.00     0.031 A 
ATOM     37  C   UNL A   1      39.780  30.376  29.665  1.00  0.00     0.074 A 
ATOM     38  C   UNL A   1      40.872  32.340  30.729  1.00  0.00     0.049 A 
ATOM     39  N   UNL A   1      40.622  29.449  29.930  1.00  0.00    -0.248 NA
ATOM     40  C   UNL A   1      38.771  29.975  28.687  1.00  0.00     0.031 C 
ATOM     41  C   UNL A   1      42.268  31.938  30.615  1.00  0.00     0.029 A 
ATOM     42  N   UNL A   1      40.899  33.436  31.590  1.00  0.00    -0.354 N 
ATOM     43  C   UNL A   1      40.481  28.480  28.962  1.00  0.00     0.074 A 
ATOM     44  C   UNL A   1      39.258  28.804  28.273  1.00  0.00     0.031 C 
ATOM     45  C   UNL A   1      42.974  32.565  31.576  1.00  0.00     0.029 A 
ATOM     46  C   UNL A   1      42.024  33.274  32.419  1.00  0.00     0.049 A 
ATOM     47  H   UNL A   1      40.253  34.179  31.615  1.00  0.00     0.167 HD
ATOM     48  C   UNL A   1      41.513  27.615  28.758  1.00  0.00     0.034 A 
ATOM     49  C   UNL A   1      41.826  33.039  33.751  1.00  0.00     0.034 A 
ATOM     50  C   UNL A   1      42.569  27.861  29.740  1.00  0.00     0.049 A 
ATOM     51  C   UNL A   1      42.236  31.631  34.140  1.00  0.00     0.074 A 
ATOM     52  C   UNL A   1      43.734  28.610  29.692  1.00  0.00     0.029 A 
ATOM     53  N   UNL A   1      42.294  27.649  31.086  1.00  0.00    -0.354 N 
ATOM     54  N   UNL A   1      42.366  30.637  33.299  1.00  0.00    -0.248 NA
ATOM     55  C   UNL A   1      42.587  31.254  35.505  1.00  0.00     0.031 C 
ATOM     56  C   UNL A   1      44.086  28.947  31.028  1.00  0.00     0.029 A 
ATOM     57  C   UNL A   1      43.165  28.365  31.885  1.00  0.00     0.049 A 
ATOM     58  H   UNL A   1      41.576  27.066  31.425  1.00  0.00     0.167 HD
ATOM     59  C   UNL A   1      42.814  29.522  33.962  1.00  0.00     0.074 A 
ATOM     60  C   UNL A   1      42.955  29.973  35.338  1.00  0.00     0.031 C 
ATOM     61  C   UNL A   1      43.036  28.323  33.336  1.00  0.00     0.034 A 
BRANCH  48  62
ATOM     62  C   UNL A   1      41.705  26.801  27.502  1.00  0.00     0.023 A 
ATOM     63  C   UNL A   1      41.737  25.395  27.615  1.00  0.00     0.031 A 
ATOM     64  C   UNL A   1      41.902  27.306  26.203  1.00  0.00     0.131 A 
ATOM     65  C   UNL A   1      42.031  24.573  26.515  1.00  0.00     0.055 A 
ATOM     66  C   UNL A   1      42.240  26.492  25.112  1.00  0.00     0.041 A 
ATOM     67  F   UNL A   1      41.727  28.602  25.914  1.00  0.00    -0.206 F 
ATOM     68  C   UNL A   1      42.313  25.115  25.265  1.00  0.00     0.022 A 
BRANCH  65  69
ATOM     69  S   UNL A   1      42.028  22.776  26.746  1.00  0.00     0.124 S 
ATOM     70  O   UNL A   1      40.789  22.563  27.487  1.00  0.00    -0.237 OA
ATOM     71  O   UNL A   1      42.048  22.287  25.371  1.00  0.00    -0.237 OA
ATOM     72  O   UNL A   1      43.253  22.529  27.504  1.00  0.00    -0.744 OA
ENDBRANCH  65  69
ENDBRANCH  48  62
BRANCH  49  73
ATOM     73  C   UNL A   1      40.665  33.825  34.289  1.00  0.00     0.023 A 
ATOM     74  C   UNL A   1      39.626  33.077  34.897  1.00  0.00     0.031 A 
ATOM     75  C   UNL A   1      40.774  35.177  34.634  1.00  0.00     0.131 A 
ATOM     76  C   UNL A   1      38.888  33.619  35.963  1.00  0.00     0.055 A 
ATOM     77  C   UNL A   1      39.974  35.737  35.642  1.00  0.00     0.041 A 
ATOM     78  F   UNL A   1      41.742  35.943  34.110  1.00  0.00    -0.206 F 
ATOM     79  C   UNL A   1      39.071  34.944  36.353  1.00  0.00     0.022 A 
BRANCH  76  80
ATOM     80  S   UNL A   1      37.926  32.493  37.022  1.00  0.00     0.124 S 
ATOM     81  O   UNL A   1      38.808  32.318  38.169  1.00  0.00    -0.237 OA
ATOM     82  O   UNL A   1      36.703  33.253  37.272  1.00  0.00    -0.237 OA
ATOM     83  O   UNL A   1      37.736  31.308  36.186  1.00  0.00    -0.744 OA
ENDBRANCH  76  80
ENDBRANCH  49  73
BRANCH  61  84
ATOM     84  C   UNL A   1      43.240  26.996  34.043  1.00  0.00     0.023 A 
ATOM     85  C   UNL A   1      44.488  26.369  34.127  1.00  0.00     0.031 A 
ATOM     86  C   UNL A   1      42.186  26.343  34.732  1.00  0.00     0.131 A 
ATOM     87  C   UNL A   1      44.634  25.112  34.732  1.00  0.00     0.055 A 
ATOM     88  C   UNL A   1      42.361  25.153  35.444  1.00  0.00     0.041 A 
ATOM     89  F   UNL A   1      40.938  26.831  34.753  1.00  0.00    -0.206 F 
ATOM     90  C   UNL A   1      43.587  24.510  35.422  1.00  0.00     0.022 A 
BRANCH  87  91
ATOM     91  S   UNL A   1      46.195  24.236  34.471  1.00  0.00     0.124 S 
ATOM     92  O   UNL A   1      45.737  22.858  34.315  1.00  0.00    -0.237 OA
ATOM     93  O   UNL A   1      46.714  24.870  33.265  1.00  0.00    -0.237 OA
ATOM     94  O   UNL A   1      46.948  24.505  35.693  1.00  0.00    -0.744 OA
ENDBRANCH  87  91
ENDBRANCH  61  84
ENDBRANCH  35  36
ENDBRANCH  27  30
ENDBRANCH  25  26
ENDBRANCH  24  25
ENDBRANCH  23  24
ENDBRANCH   1  23
TORSDOF 20
ENDMDL
MODEL 2
REMARK VINA RESULT:     -11.3      3.977      9.842
REMARK SMILES Cc1ccccc1[C@@H](C)NS(=O)(=O)CC(=O)NCCCCCCNC(=O)c1ccc(-c2c3nc(c(-c4cc(S(=O)(=O)[O-])ccc4F)c4ccc([nH]4)c(-c4cc(S(=O)(=O)[O-])ccc4F)c4nc(c(-c5cc(S(=O)(=O)[O-])ccc5F)c5ccc2[nH]5)C=C4)C=C3)cc1
REMARK SMILES IDX 20 1 19 2 18 3 17 4 15 5 16 6 14 8 11 9 12 10 13 11 10 12
REMARK SMILES IDX 8 14 9 15 7 16 1 17 2 18 3 19 4 20 6 21 5 22 21 23 22 24
REMARK SMILES IDX 23 25 24 26 25 27 26 29 27 30 28 31 89 32 29 33 88 34 30 35
REMARK SMILES IDX 31 36 32 37 82 38 33 39 87 40 81 41 83 42 34 43 86 44 80 45
REMARK SMILES IDX 79 46 35 48 67 49 47 50 66 51 48 52 51 53 65 54 84 55 49 56
REMARK SMILES IDX 50 57 64 59 85 60 52 61 36 62 37 63 45 64 38 65 44 66 46 67
REMARK SMILES IDX 43 68 39 69 40 70 41 71 42 72 68 73 69 74 77 75 70 76 76 77
REMARK SMILES IDX 78 78 75 79 71 80 72 81 73 82 74 83 53 84 54 85 62 86 55 87
REMARK SMILES IDX 61 88 63 89 60 90 56 91 57 92 58 93 59 94
REMARK H PARENT 17 7 10 13 24 28 83 47 51 58
REMARK Flexibility Score: inf
ROOT
ATOM      1  C   UNL A   1      36.346  20.709  24.810  1.00  0.00     0.002 C 
ENDROOT
BRANCH   1   2
ATOM      2  C   UNL A   1      35.039  21.152  25.475  1.00  0.00     0.021 C 
BRANCH   2   3
ATOM      3  C   UNL A   1      33.839  21.173  24.529  1.00  0.00     0.116 C 
BRANCH   3   4
ATOM      4  N   UNL A   1      33.720  22.467  23.883  1.00  0.00    -0.355 N 
ATOM      5  C   UNL A   1      32.686  23.351  23.945  1.00  0.00     0.236 C 
ATOM      6  O   UNL A   1      32.701  24.334  23.200  1.00  0.00    -0.274 OA
ATOM      7  H   UNL A   1      34.484  22.740  23.326  1.00  0.00     0.163 HD
BRANCH   5   8
ATOM      8  C   UNL A   1      31.633  23.209  24.992  1.00  0.00     0.253 C 
BRANCH   8   9
ATOM      9  S   UNL A   1      32.006  24.030  26.520  1.00  0.00     0.221 S 
ATOM     10  O   UNL A   1      33.416  24.303  26.511  1.00  0.00    -0.212 OA
ATOM     11  O   UNL A   1      31.439  23.261  27.620  1.00  0.00    -0.212 OA
BRANCH   9  12
ATOM     12  N   UNL A   1      31.187  25.468  26.516  1.00  0.00    -0.208 NA
ATOM     13  H   UNL A   1      30.375  25.328  25.915  1.00  0.00     0.141 HD
BRANCH  12  14
ATOM     14  C   UNL A   1      31.799  26.730  26.083  1.00  0.00     0.096 C 
ATOM     15  C   UNL A   1      31.764  27.764  27.213  1.00  0.00     0.031 C 
BRANCH  14  16
ATOM     16  C   UNL A   1      31.075  27.300  24.864  1.00  0.00    -0.027 A 
ATOM     17  C   UNL A   1      32.912  29.028  24.297  1.00  0.00     0.044 C 
ATOM     18  C   UNL A   1      31.572  28.374  24.091  1.00  0.00    -0.046 A 
ATOM     19  C   UNL A   1      30.762  28.918  23.074  1.00  0.00     0.004 A 
ATOM     20  C   UNL A   1      29.504  28.391  22.786  1.00  0.00     0.000 A 
ATOM     21  C   UNL A   1      29.813  26.759  24.526  1.00  0.00     0.005 A 
ATOM     22  C   UNL A   1      29.037  27.298  23.501  1.00  0.00     0.000 A 
ENDBRANCH  14  16
ENDBRANCH  12  14
ENDBRANCH   9  12
ENDBRANCH   8   9
ENDBRANCH   5   8
ENDBRANCH   3   4
ENDBRANCH   2   3
ENDBRANCH   1   2
BRANCH   1  23
ATOM     23  C   UNL A   1      37.629  21.314  25.403  1.00  0.00     0.002 C 
BRANCH  23  24
ATOM     24  C   UNL A   1      37.833  22.808  25.164  1.00  0.00     0.021 C 
BRANCH  24  25
ATOM     25  C   UNL A   1      37.962  23.625  26.437  1.00  0.00     0.116 C 
BRANCH  25  26
ATOM     26  N   UNL A   1      39.274  23.556  27.059  1.00  0.00    -0.352 N 
ATOM     27  C   UNL A   1      40.090  24.582  27.501  1.00  0.00     0.251 C 
ATOM     28  H   UNL A   1      39.634  22.649  27.184  1.00  0.00     0.163 HD
ATOM     29  O   UNL A   1      41.272  24.382  27.776  1.00  0.00    -0.269 OA
BRANCH  27  30
ATOM     30  C   UNL A   1      39.479  25.889  27.863  1.00  0.00     0.039 A 
ATOM     31  C   UNL A   1      39.803  26.966  27.024  1.00  0.00     0.014 A 
ATOM     32  C   UNL A   1      38.961  26.122  29.130  1.00  0.00     0.014 A 
ATOM     33  C   UNL A   1      39.916  28.239  27.565  1.00  0.00     0.010 A 
ATOM     34  C   UNL A   1      39.197  27.343  29.707  1.00  0.00     0.010 A 
ATOM     35  C   UNL A   1      39.737  28.371  28.936  1.00  0.00    -0.014 A 
BRANCH  35  36
ATOM     36  C   UNL A   1      40.083  29.552  29.691  1.00  0.00     0.031 A 
ATOM     37  C   UNL A   1      39.044  30.571  29.860  1.00  0.00     0.074 A 
ATOM     38  C   UNL A   1      41.273  29.573  30.327  1.00  0.00     0.049 A 
ATOM     39  N   UNL A   1      39.265  31.806  30.115  1.00  0.00    -0.248 NA
ATOM     40  C   UNL A   1      37.625  30.263  29.698  1.00  0.00     0.031 C 
ATOM     41  C   UNL A   1      41.755  30.508  31.336  1.00  0.00     0.029 A 
ATOM     42  N   UNL A   1      42.397  28.822  29.988  1.00  0.00    -0.354 N 
ATOM     43  C   UNL A   1      38.060  32.374  30.466  1.00  0.00     0.074 A 
ATOM     44  C   UNL A   1      37.061  31.404  30.098  1.00  0.00     0.031 C 
ATOM     45  C   UNL A   1      43.102  30.484  31.333  1.00  0.00     0.029 A 
ATOM     46  C   UNL A   1      43.517  29.638  30.224  1.00  0.00     0.049 A 
ATOM     47  H   UNL A   1      42.404  27.897  29.648  1.00  0.00     0.167 HD
ATOM     48  C   UNL A   1      38.076  33.533  31.181  1.00  0.00     0.034 A 
ATOM     49  C   UNL A   1      44.259  30.054  29.154  1.00  0.00     0.034 A 
ATOM     50  C   UNL A   1      39.453  33.999  31.343  1.00  0.00     0.049 A 
ATOM     51  C   UNL A   1      44.123  31.547  28.920  1.00  0.00     0.074 A 
ATOM     52  C   UNL A   1      40.377  33.843  32.364  1.00  0.00     0.029 A 
ATOM     53  N   UNL A   1      40.175  34.363  30.212  1.00  0.00    -0.354 N 
ATOM     54  N   UNL A   1      43.143  32.282  29.379  1.00  0.00    -0.248 NA
ATOM     55  C   UNL A   1      45.118  32.332  28.198  1.00  0.00     0.031 C 
ATOM     56  C   UNL A   1      41.674  34.001  31.800  1.00  0.00     0.029 A 
ATOM     57  C   UNL A   1      41.534  34.296  30.453  1.00  0.00     0.049 A 
ATOM     58  H   UNL A   1      39.773  34.633  29.355  1.00  0.00     0.167 HD
ATOM     59  C   UNL A   1      43.354  33.598  29.049  1.00  0.00     0.074 A 
ATOM     60  C   UNL A   1      44.618  33.573  28.327  1.00  0.00     0.031 C 
ATOM     61  C   UNL A   1      42.485  34.601  29.392  1.00  0.00     0.034 A 
BRANCH  48  62
ATOM     62  C   UNL A   1      36.913  34.047  31.993  1.00  0.00     0.023 A 
ATOM     63  C   UNL A   1      35.751  34.460  31.309  1.00  0.00     0.031 A 
ATOM     64  C   UNL A   1      36.876  34.201  33.392  1.00  0.00     0.131 A 
ATOM     65  C   UNL A   1      34.673  35.062  31.982  1.00  0.00     0.055 A 
ATOM     66  C   UNL A   1      35.823  34.841  34.061  1.00  0.00     0.041 A 
ATOM     67  F   UNL A   1      37.831  33.695  34.184  1.00  0.00    -0.206 F 
ATOM     68  C   UNL A   1      34.714  35.283  33.354  1.00  0.00     0.022 A 
BRANCH  65  69
ATOM     69  S   UNL A   1      33.210  35.541  31.026  1.00  0.00     0.124 S 
ATOM     70  O   UNL A   1      33.491  36.938  30.713  1.00  0.00    -0.237 OA
ATOM     71  O   UNL A   1      33.253  34.607  29.906  1.00  0.00    -0.237 OA
ATOM     72  O   UNL A   1      32.108  35.326  31.963  1.00  0.00    -0.744 OA
ENDBRANCH  65  69
ENDBRANCH  48  62
BRANCH  49  73
ATOM     73  C   UNL A   1      44.379  28.982  28.108  1.00  0.00     0.023 A 
ATOM     74  C   UNL A   1      45.161  27.851  28.451  1.00  0.00     0.031 A 
ATOM     75  C   UNL A   1      43.435  28.829  27.085  1.00  0.00     0.131 A 
ATOM     76  C   UNL A   1      44.842  26.582  27.940  1.00  0.00     0.055 A 
ATOM     77  C   UNL A   1      43.179  27.572  26.515  1.00  0.00     0.041 A 
ATOM     78  F   UNL A   1      42.650  29.851  26.717  1.00  0.00    -0.206 F 
ATOM     79  C   UNL A   1      43.838  26.434  26.984  1.00  0.00     0.022 A 
BRANCH  76  80
ATOM     80  S   UNL A   1      45.531  25.111  28.760  1.00  0.00     0.124 S 
ATOM     81  O   UNL A   1      46.397  25.699  29.775  1.00  0.00    -0.237 OA
ATOM     82  O   UNL A   1      44.337  24.433  29.260  1.00  0.00    -0.237 OA
ATOM     83  O   UNL A   1      46.217  24.401  27.681  1.00  0.00    -0.744 OA
ENDBRANCH  76  80
ENDBRANCH  49  73
BRANCH  61  84
ATOM     84  C   UNL A   1      42.503  36.003  28.815  1.00  0.00     0.023 A 
ATOM     85  C   UNL A   1      43.201  37.057  29.414  1.00  0.00     0.031 A 
ATOM     86  C   UNL A   1      41.872  36.317  27.584  1.00  0.00     0.131 A 
ATOM     87  C   UNL A   1      43.147  38.359  28.892  1.00  0.00     0.055 A 
ATOM     88  C   UNL A   1      41.925  37.586  26.999  1.00  0.00     0.041 A 
ATOM     89  F   UNL A   1      41.177  35.407  26.886  1.00  0.00    -0.206 F 
ATOM     90  C   UNL A   1      42.541  38.629  27.670  1.00  0.00     0.022 A 
BRANCH  87  91
ATOM     91  S   UNL A   1      43.777  39.701  29.929  1.00  0.00     0.124 S 
ATOM     92  O   UNL A   1      44.511  38.963  30.953  1.00  0.00    -0.237 OA
ATOM     93  O   UNL A   1      44.594  40.464  28.992  1.00  0.00    -0.237 OA
ATOM     94  O   UNL A   1      42.566  40.373  30.394  1.00  0.00    -0.744 OA
ENDBRANCH  87  91
ENDBRANCH  61  84
ENDBRANCH  35  36
ENDBRANCH  27  30
ENDBRANCH  25  26
ENDBRANCH  24  25
ENDBRANCH  23  24
ENDBRANCH   1  23
TORSDOF 20
ENDMDL
MODEL 3
REMARK VINA RESULT:     -10.9      4.727     10.495
REMARK SMILES Cc1ccccc1[C@@H](C)NS(=O)(=O)CC(=O)NCCCCCCNC(=O)c1ccc(-c2c3nc(c(-c4cc(S(=O)(=O)[O-])ccc4F)c4ccc([nH]4)c(-c4cc(S(=O)(=O)[O-])ccc4F)c4nc(c(-c5cc(S(=O)(=O)[O-])ccc5F)c5ccc2[nH]5)C=C4)C=C3)cc1
REMARK SMILES IDX 20 1 19 2 18 3 17 4 15 5 16 6 14 8 11 9 12 10 13 11 10 12
REMARK SMILES IDX 8 14 9 15 7 16 1 17 2 18 3 19 4 20 6 21 5 22 21 23 22 24
REMARK SMILES IDX 23 25 24 26 25 27 26 29 27 30 28 31 89 32 29 33 88 34 30 35
REMARK SMILES IDX 31 36 32 37 82 38 33 39 87 40 81 41 83 42 34 43 86 44 80 45
REMARK SMILES IDX 79 46 35 48 67 49 47 50 66 51 48 52 51 53 65 54 84 55 49 56
REMARK SMILES IDX 50 57 64 59 85 60 52 61 36 62 37 63 45 64 38 65 44 66 46 67
REMARK SMILES IDX 43 68 39 69 40 70 41 71 42 72 68 73 69 74 77 75 70 76 76 77
REMARK SMILES IDX 78 78 75 79 71 80 72 81 73 82 74 83 53 84 54 85 62 86 55 87
REMARK SMILES IDX 61 88 63 89 60 90 56 91 57 92 58 93 59 94
REMARK H PARENT 17 7 10 13 24 28 83 47 51 58
REMARK Flexibility Score: inf
ROOT
ATOM      1  C   UNL A   1      40.435  20.151  25.884  1.00  0.00     0.002 C 
ENDROOT
BRANCH   1   2
ATOM      2  C   UNL A   1      39.603  21.421  26.091  1.00  0.00     0.021 C 
BRANCH   2   3
ATOM      3  C   UNL A   1      38.221  21.369  25.442  1.00  0.00     0.116 C 
BRANCH   3   4
ATOM      4  N   UNL A   1      37.253  22.097  26.241  1.00  0.00    -0.355 N 
ATOM      5  C   UNL A   1      36.119  22.727  25.829  1.00  0.00     0.236 C 
ATOM      6  O   UNL A   1      35.502  23.427  26.636  1.00  0.00    -0.274 OA
ATOM      7  H   UNL A   1      37.442  22.144  27.206  1.00  0.00     0.163 HD
BRANCH   5   8
ATOM      8  C   UNL A   1      35.557  22.458  24.472  1.00  0.00     0.253 C 
BRANCH   8   9
ATOM      9  S   UNL A   1      33.789  22.579  24.377  1.00  0.00     0.221 S 
ATOM     10  O   UNL A   1      33.258  21.420  25.040  1.00  0.00    -0.212 OA
ATOM     11  O   UNL A   1      33.407  22.844  22.996  1.00  0.00    -0.212 OA
BRANCH   9  12
ATOM     12  N   UNL A   1      33.343  23.927  25.226  1.00  0.00    -0.208 NA
ATOM     13  H   UNL A   1      32.543  23.650  25.796  1.00  0.00     0.141 HD
BRANCH  12  14
ATOM     14  C   UNL A   1      32.960  25.185  24.575  1.00  0.00     0.096 C 
ATOM     15  C   UNL A   1      34.040  25.635  23.586  1.00  0.00     0.031 C 
BRANCH  14  16
ATOM     16  C   UNL A   1      32.739  26.291  25.607  1.00  0.00    -0.027 A 
ATOM     17  C   UNL A   1      30.238  25.756  25.981  1.00  0.00     0.044 C 
ATOM     18  C   UNL A   1      31.487  26.567  26.202  1.00  0.00    -0.046 A 
ATOM     19  C   UNL A   1      31.358  27.697  27.033  1.00  0.00     0.004 A 
ATOM     20  C   UNL A   1      32.447  28.519  27.317  1.00  0.00     0.000 A 
ATOM     21  C   UNL A   1      33.837  27.117  25.942  1.00  0.00     0.005 A 
ATOM     22  C   UNL A   1      33.693  28.217  26.785  1.00  0.00     0.000 A 
ENDBRANCH  14  16
ENDBRANCH  12  14
ENDBRANCH   9  12
ENDBRANCH   8   9
ENDBRANCH   5   8
ENDBRANCH   3   4
ENDBRANCH   2   3
ENDBRANCH   1   2
BRANCH   1  23
ATOM     23  C   UNL A   1      41.263  19.697  27.096  1.00  0.00     0.002 C 
BRANCH  23  24
ATOM     24  C   UNL A   1      42.619  19.071  26.779  1.00  0.00     0.021 C 
BRANCH  24  25
ATOM     25  C   UNL A   1      43.248  19.577  25.492  1.00  0.00     0.116 C 
BRANCH  25  26
ATOM     26  N   UNL A   1      44.601  20.082  25.650  1.00  0.00    -0.352 N 
ATOM     27  C   UNL A   1      45.073  21.377  25.538  1.00  0.00     0.251 C 
ATOM     28  H   UNL A   1      45.281  19.404  25.869  1.00  0.00     0.163 HD
ATOM     29  O   UNL A   1      46.277  21.611  25.454  1.00  0.00    -0.269 OA
BRANCH  27  30
ATOM     30  C   UNL A   1      44.134  22.511  25.748  1.00  0.00     0.039 A 
ATOM     31  C   UNL A   1      44.452  23.700  25.073  1.00  0.00     0.014 A 
ATOM     32  C   UNL A   1      43.247  22.531  26.817  1.00  0.00     0.014 A 
ATOM     33  C   UNL A   1      44.149  24.919  25.663  1.00  0.00     0.010 A 
ATOM     34  C   UNL A   1      43.061  23.719  27.475  1.00  0.00     0.010 A 
ATOM     35  C   UNL A   1      43.573  24.893  26.927  1.00  0.00    -0.014 A 
BRANCH  35  36
ATOM     36  C   UNL A   1      43.448  26.047  27.786  1.00  0.00     0.031 A 
ATOM     37  C   UNL A   1      42.191  26.798  27.726  1.00  0.00     0.074 A 
ATOM     38  C   UNL A   1      44.417  26.266  28.699  1.00  0.00     0.049 A 
ATOM     39  N   UNL A   1      42.054  28.022  28.073  1.00  0.00    -0.248 NA
ATOM     40  C   UNL A   1      40.961  26.206  27.205  1.00  0.00     0.031 C 
ATOM     41  C   UNL A   1      44.419  27.187  29.829  1.00  0.00     0.029 A 
ATOM     42  N   UNL A   1      45.732  25.810  28.624  1.00  0.00    -0.354 N 
ATOM     43  C   UNL A   1      40.702  28.282  28.132  1.00  0.00     0.074 A 
ATOM     44  C   UNL A   1      40.070  27.156  27.493  1.00  0.00     0.031 C 
ATOM     45  C   UNL A   1      45.697  27.455  30.161  1.00  0.00     0.029 A 
ATOM     46  C   UNL A   1      46.545  26.824  29.161  1.00  0.00     0.049 A 
ATOM     47  H   UNL A   1      46.034  24.944  28.264  1.00  0.00     0.167 HD
ATOM     48  C   UNL A   1      40.280  29.346  28.870  1.00  0.00     0.034 A 
ATOM     49  C   UNL A   1      47.400  27.487  28.326  1.00  0.00     0.034 A 
ATOM     50  C   UNL A   1      41.434  30.081  29.387  1.00  0.00     0.049 A 
ATOM     51  C   UNL A   1      46.980  28.930  28.119  1.00  0.00     0.074 A 
ATOM     52  C   UNL A   1      42.103  30.037  30.600  1.00  0.00     0.029 A 
ATOM     53  N   UNL A   1      42.296  30.695  28.485  1.00  0.00    -0.354 N 
ATOM     54  N   UNL A   1      45.776  29.391  28.345  1.00  0.00    -0.248 NA
ATOM     55  C   UNL A   1      47.906  29.975  27.697  1.00  0.00     0.031 C 
ATOM     56  C   UNL A   1      43.423  30.522  30.383  1.00  0.00     0.029 A 
ATOM     57  C   UNL A   1      43.538  30.902  29.056  1.00  0.00     0.049 A 
ATOM     58  H   UNL A   1      42.055  30.949  27.566  1.00  0.00     0.167 HD
ATOM     59  C   UNL A   1      45.748  30.746  28.125  1.00  0.00     0.074 A 
ATOM     60  C   UNL A   1      47.116  31.061  27.741  1.00  0.00     0.031 C 
ATOM     61  C   UNL A   1      44.614  31.501  28.277  1.00  0.00     0.034 A 
BRANCH  48  62
ATOM     62  C   UNL A   1      38.872  29.519  29.384  1.00  0.00     0.023 A 
ATOM     63  C   UNL A   1      38.101  30.584  28.874  1.00  0.00     0.031 A 
ATOM     64  C   UNL A   1      38.244  28.739  30.373  1.00  0.00     0.131 A 
ATOM     65  C   UNL A   1      36.828  30.885  29.387  1.00  0.00     0.055 A 
ATOM     66  C   UNL A   1      36.994  29.064  30.919  1.00  0.00     0.041 A 
ATOM     67  F   UNL A   1      38.784  27.598  30.822  1.00  0.00    -0.206 F 
ATOM     68  C   UNL A   1      36.279  30.148  30.431  1.00  0.00     0.022 A 
BRANCH  65  69
ATOM     69  S   UNL A   1      35.897  32.257  28.656  1.00  0.00     0.124 S 
ATOM     70  O   UNL A   1      36.960  33.177  28.264  1.00  0.00    -0.237 OA
ATOM     71  O   UNL A   1      35.181  31.599  27.569  1.00  0.00    -0.237 OA
ATOM     72  O   UNL A   1      35.053  32.719  29.757  1.00  0.00    -0.744 OA
ENDBRANCH  65  69
ENDBRANCH  48  62
BRANCH  49  73
ATOM     73  C   UNL A   1      48.007  26.567  27.305  1.00  0.00     0.023 A 
ATOM     74  C   UNL A   1      47.722  26.855  25.947  1.00  0.00     0.031 A 
ATOM     75  C   UNL A   1      49.146  25.798  27.577  1.00  0.00     0.131 A 
ATOM     76  C   UNL A   1      48.664  26.571  24.945  1.00  0.00     0.055 A 
ATOM     77  C   UNL A   1      50.042  25.442  26.557  1.00  0.00     0.041 A 
ATOM     78  F   UNL A   1      49.486  25.499  28.839  1.00  0.00    -0.206 F 
ATOM     79  C   UNL A   1      49.836  25.880  25.248  1.00  0.00     0.022 A 
BRANCH  76  80
ATOM     80  S   UNL A   1      48.487  27.380  23.324  1.00  0.00     0.124 S 
ATOM     81  O   UNL A   1      48.391  26.241  22.419  1.00  0.00    -0.237 OA
ATOM     82  O   UNL A   1      47.265  28.164  23.489  1.00  0.00    -0.237 OA
ATOM     83  O   UNL A   1      49.703  28.183  23.202  1.00  0.00    -0.744 OA
ENDBRANCH  76  80
ENDBRANCH  49  73
BRANCH  61  84
ATOM     84  C   UNL A   1      44.441  32.921  27.773  1.00  0.00     0.023 A 
ATOM     85  C   UNL A   1      44.198  34.002  28.629  1.00  0.00     0.031 A 
ATOM     86  C   UNL A   1      44.591  33.256  26.403  1.00  0.00     0.131 A 
ATOM     87  C   UNL A   1      43.978  35.294  28.128  1.00  0.00     0.055 A 
ATOM     88  C   UNL A   1      44.498  34.565  25.921  1.00  0.00     0.041 A 
ATOM     89  F   UNL A   1      44.840  32.330  25.466  1.00  0.00    -0.206 F 
ATOM     90  C   UNL A   1      44.158  35.594  26.782  1.00  0.00     0.022 A 
BRANCH  87  91
ATOM     91  S   UNL A   1      43.322  36.532  29.272  1.00  0.00     0.124 S 
ATOM     92  O   UNL A   1      42.066  36.898  28.622  1.00  0.00    -0.237 OA
ATOM     93  O   UNL A   1      43.194  35.777  30.514  1.00  0.00    -0.237 OA
ATOM     94  O   UNL A   1      44.346  37.573  29.276  1.00  0.00    -0.744 OA
ENDBRANCH  87  91
ENDBRANCH  61  84
ENDBRANCH  35  36
ENDBRANCH  27  30
ENDBRANCH  25  26
ENDBRANCH  24  25
ENDBRANCH  23  24
ENDBRANCH   1  23
TORSDOF 20
ENDMDL
