MODEL 1
REMARK VINA RESULT:     -11.6      0.000      0.000
REMARK SMILES C=C(C)[C@@H]1CC=C(CN2C[C@]34C=C[C@H](O3)[C@H](C(=O)NCCCCCCNC(=O)c3ccc(-c5c6nc(c(-c7cc(S(=O)(=O)[O-])ccc7F)c7ccc([nH]7)c(-c7cc(S(=O)(=O)[O-])ccc7F)c7nc(c(-c8cc(S(=O)(=O)[O-])ccc8F)c8ccc5[nH]8)C=C7)C=C6)cc3)[C@@H]4C2=O)CC1
REMARK SMILES IDX 22 1 21 2 20 3 19 4 17 5 18 6 16 8 9 9 10 10 93 11 11 12
REMARK SMILES IDX 92 13 94 14 12 15 15 16 13 17 14 18 8 19 7 20 4 21 5 22
REMARK SMILES IDX 96 23 6 24 95 25 2 26 1 27 3 28 23 29 24 30 25 31 26 32
REMARK SMILES IDX 27 33 28 35 29 36 30 37 91 38 31 39 90 40 32 41 33 42 34 43
REMARK SMILES IDX 84 44 35 45 89 46 83 47 85 48 36 49 88 50 82 51 81 52 37 54
REMARK SMILES IDX 69 55 49 56 68 57 50 58 53 59 67 60 86 61 51 62 52 63 66 65
REMARK SMILES IDX 87 66 54 67 38 68 39 69 47 70 40 71 46 72 48 73 45 74 41 75
REMARK SMILES IDX 42 76 43 77 44 78 70 79 71 80 79 81 72 82 78 83 80 84 77 85
REMARK SMILES IDX 73 86 74 87 75 88 76 89 55 90 56 91 64 92 57 93 63 94 65 95
REMARK SMILES IDX 62 96 58 97 59 98 60 99 61 100
REMARK H PARENT 19 7 26 34 85 53 53 64
REMARK Flexibility Score: inf
ROOT
ATOM      1  C   UNL A   1      31.911  29.854  27.363  1.00  0.00     0.002 C 
ENDROOT
BRANCH   1   2
ATOM      2  C   UNL A   1      33.342  29.292  27.343  1.00  0.00     0.021 C 
BRANCH   2   3
ATOM      3  C   UNL A   1      34.129  29.632  26.088  1.00  0.00     0.116 C 
BRANCH   3   4
ATOM      4  N   UNL A   1      34.232  28.576  25.108  1.00  0.00    -0.356 N 
ATOM      5  C   UNL A   1      33.427  28.135  24.124  1.00  0.00     0.227 C 
ATOM      6  O   UNL A   1      34.030  27.570  23.195  1.00  0.00    -0.275 OA
ATOM      7  H   UNL A   1      35.072  28.067  25.175  1.00  0.00     0.163 HD
BRANCH   5   8
ATOM      8  C   UNL A   1      31.915  28.058  24.112  1.00  0.00     0.127 C 
ATOM      9  N   UNL A   1      30.479  25.138  25.688  1.00  0.00    -0.335 N 
ATOM     10  C   UNL A   1      29.355  25.565  24.876  1.00  0.00     0.160 C 
ATOM     11  C   UNL A   1      31.300  26.221  26.002  1.00  0.00     0.230 C 
ATOM     12  C   UNL A   1      29.995  26.682  24.109  1.00  0.00     0.117 C 
ATOM     13  C   UNL A   1      30.944  27.385  25.097  1.00  0.00     0.132 C 
ATOM     14  O   UNL A   1      32.111  26.266  26.919  1.00  0.00    -0.274 OA
ATOM     15  C   UNL A   1      29.220  27.612  23.236  1.00  0.00     0.009 C 
ATOM     16  O   UNL A   1      30.968  26.201  23.131  1.00  0.00    -0.360 OA
ATOM     17  C   UNL A   1      30.119  28.115  22.376  1.00  0.00     0.004 C 
ATOM     18  C   UNL A   1      31.449  27.507  22.745  1.00  0.00     0.155 C 
BRANCH   9  19
ATOM     19  C   UNL A   1      30.651  23.784  26.194  1.00  0.00     0.150 C 
BRANCH  19  20
ATOM     20  C   UNL A   1      31.947  23.190  25.687  1.00  0.00    -0.055 C 
ATOM     21  C   UNL A   1      34.546  22.181  24.794  1.00  0.00     0.018 C 
ATOM     22  C   UNL A   1      33.463  22.579  23.768  1.00  0.00     0.035 C 
ATOM     23  C   UNL A   1      34.457  23.049  26.056  1.00  0.00     0.013 C 
ATOM     24  C   UNL A   1      32.147  22.987  24.372  1.00  0.00    -0.025 C 
ATOM     25  C   UNL A   1      33.064  22.948  26.684  1.00  0.00     0.033 C 
BRANCH  21  26
ATOM     26  C   UNL A   1      35.948  22.193  24.193  1.00  0.00    -0.077 C 
ATOM     27  C   UNL A   1      36.235  22.974  23.138  1.00  0.00     0.008 C 
ATOM     28  C   UNL A   1      37.006  21.310  24.800  1.00  0.00     0.039 C 
ENDBRANCH  21  26
ENDBRANCH  19  20
ENDBRANCH   9  19
ENDBRANCH   5   8
ENDBRANCH   3   4
ENDBRANCH   2   3
ENDBRANCH   1   2
BRANCH   1  29
ATOM     29  C   UNL A   1      31.501  30.799  26.223  1.00  0.00     0.002 C 
BRANCH  29  30
ATOM     30  C   UNL A   1      31.415  32.288  26.565  1.00  0.00     0.021 C 
BRANCH  30  31
ATOM     31  C   UNL A   1      32.751  32.955  26.877  1.00  0.00     0.116 C 
BRANCH  31  32
ATOM     32  N   UNL A   1      32.587  34.172  27.650  1.00  0.00    -0.352 N 
ATOM     33  C   UNL A   1      33.210  34.582  28.798  1.00  0.00     0.251 C 
ATOM     34  H   UNL A   1      31.922  34.803  27.292  1.00  0.00     0.163 HD
ATOM     35  O   UNL A   1      32.753  35.542  29.414  1.00  0.00    -0.269 OA
BRANCH  33  36
ATOM     36  C   UNL A   1      34.414  33.885  29.301  1.00  0.00     0.039 A 
ATOM     37  C   UNL A   1      34.238  32.777  30.135  1.00  0.00     0.014 A 
ATOM     38  C   UNL A   1      35.703  34.355  29.026  1.00  0.00     0.014 A 
ATOM     39  C   UNL A   1      35.350  32.125  30.670  1.00  0.00     0.010 A 
ATOM     40  C   UNL A   1      36.816  33.668  29.517  1.00  0.00     0.010 A 
ATOM     41  C   UNL A   1      36.650  32.555  30.356  1.00  0.00    -0.014 A 
BRANCH  41  42
ATOM     42  C   UNL A   1      37.828  31.844  30.918  1.00  0.00     0.031 A 
ATOM     43  C   UNL A   1      38.287  32.116  32.325  1.00  0.00     0.074 A 
ATOM     44  C   UNL A   1      38.488  30.951  30.155  1.00  0.00     0.049 A 
ATOM     45  N   UNL A   1      39.269  31.570  32.997  1.00  0.00    -0.248 NA
ATOM     46  C   UNL A   1      37.558  33.156  33.064  1.00  0.00     0.031 C 
ATOM     47  C   UNL A   1      38.155  30.620  28.769  1.00  0.00     0.029 A 
ATOM     48  N   UNL A   1      39.566  30.150  30.438  1.00  0.00    -0.354 N 
ATOM     49  C   UNL A   1      39.278  32.198  34.238  1.00  0.00     0.074 A 
ATOM     50  C   UNL A   1      38.246  33.215  34.194  1.00  0.00     0.031 C 
ATOM     51  C   UNL A   1      38.980  29.653  28.338  1.00  0.00     0.029 A 
ATOM     52  C   UNL A   1      39.927  29.325  29.399  1.00  0.00     0.049 A 
ATOM     53  H   UNL A   1      40.036  30.163  31.304  1.00  0.00     0.167 HD
ATOM     54  C   UNL A   1      40.056  31.938  35.321  1.00  0.00     0.034 A 
ATOM     55  C   UNL A   1      40.908  28.404  29.312  1.00  0.00     0.034 A 
ATOM     56  C   UNL A   1      41.086  30.924  35.343  1.00  0.00     0.049 A 
ATOM     57  C   UNL A   1      41.791  28.165  30.509  1.00  0.00     0.074 A 
ATOM     58  C   UNL A   1      41.904  30.545  36.395  1.00  0.00     0.029 A 
ATOM     59  N   UNL A   1      41.454  30.136  34.259  1.00  0.00    -0.354 N 
ATOM     60  N   UNL A   1      41.752  28.728  31.696  1.00  0.00    -0.248 NA
ATOM     61  C   UNL A   1      42.842  27.152  30.357  1.00  0.00     0.031 C 
ATOM     62  C   UNL A   1      42.814  29.591  35.926  1.00  0.00     0.029 A 
ATOM     63  C   UNL A   1      42.510  29.304  34.605  1.00  0.00     0.049 A 
ATOM     64  H   UNL A   1      41.026  30.164  33.372  1.00  0.00     0.167 HD
ATOM     65  C   UNL A   1      42.751  28.109  32.441  1.00  0.00     0.074 A 
ATOM     66  C   UNL A   1      43.359  27.120  31.575  1.00  0.00     0.031 C 
ATOM     67  C   UNL A   1      43.128  28.335  33.728  1.00  0.00     0.034 A 
BRANCH  54  68
ATOM     68  C   UNL A   1      39.842  32.796  36.549  1.00  0.00     0.023 A 
ATOM     69  C   UNL A   1      39.037  32.368  37.621  1.00  0.00     0.031 A 
ATOM     70  C   UNL A   1      40.407  34.082  36.630  1.00  0.00     0.131 A 
ATOM     71  C   UNL A   1      38.741  33.249  38.674  1.00  0.00     0.055 A 
ATOM     72  C   UNL A   1      40.185  34.918  37.727  1.00  0.00     0.041 A 
ATOM     73  F   UNL A   1      41.167  34.560  35.633  1.00  0.00    -0.206 F 
ATOM     74  C   UNL A   1      39.331  34.512  38.747  1.00  0.00     0.022 A 
BRANCH  71  75
ATOM     75  S   UNL A   1      37.430  32.790  39.842  1.00  0.00     0.124 S 
ATOM     76  O   UNL A   1      36.269  32.695  38.960  1.00  0.00    -0.237 OA
ATOM     77  O   UNL A   1      37.923  31.531  40.389  1.00  0.00    -0.237 OA
ATOM     78  O   UNL A   1      37.400  33.910  40.780  1.00  0.00    -0.744 OA
ENDBRANCH  71  75
ENDBRANCH  54  68
BRANCH  55  79
ATOM     79  C   UNL A   1      41.104  27.626  28.055  1.00  0.00     0.023 A 
ATOM     80  C   UNL A   1      40.778  26.262  27.995  1.00  0.00     0.031 A 
ATOM     81  C   UNL A   1      41.659  28.223  26.910  1.00  0.00     0.131 A 
ATOM     82  C   UNL A   1      41.053  25.527  26.831  1.00  0.00     0.055 A 
ATOM     83  C   UNL A   1      41.880  27.501  25.736  1.00  0.00     0.041 A 
ATOM     84  F   UNL A   1      41.987  29.525  26.913  1.00  0.00    -0.206 F 
ATOM     85  C   UNL A   1      41.587  26.141  25.697  1.00  0.00     0.022 A 
BRANCH  82  86
ATOM     86  S   UNL A   1      40.775  23.735  26.852  1.00  0.00     0.124 S 
ATOM     87  O   UNL A   1      39.363  23.648  26.499  1.00  0.00    -0.237 OA
ATOM     88  O   UNL A   1      41.719  23.271  25.841  1.00  0.00    -0.237 OA
ATOM     89  O   UNL A   1      41.101  23.357  28.225  1.00  0.00    -0.744 OA
ENDBRANCH  82  86
ENDBRANCH  55  79
BRANCH  67  90
ATOM     90  C   UNL A   1      44.229  27.456  34.278  1.00  0.00     0.023 A 
ATOM     91  C   UNL A   1      43.974  26.156  34.753  1.00  0.00     0.031 A 
ATOM     92  C   UNL A   1      45.546  27.944  34.373  1.00  0.00     0.131 A 
ATOM     93  C   UNL A   1      44.998  25.424  35.374  1.00  0.00     0.055 A 
ATOM     94  C   UNL A   1      46.576  27.181  34.924  1.00  0.00     0.041 A 
ATOM     95  F   UNL A   1      45.851  29.177  33.941  1.00  0.00    -0.206 F 
ATOM     96  C   UNL A   1      46.301  25.920  35.446  1.00  0.00     0.022 A 
BRANCH  93  97
ATOM     97  S   UNL A   1      44.573  23.868  36.206  1.00  0.00     0.124 S 
ATOM     98  O   UNL A   1      44.859  24.183  37.601  1.00  0.00    -0.237 OA
ATOM     99  O   UNL A   1      43.163  23.708  35.865  1.00  0.00    -0.237 OA
ATOM    100  O   UNL A   1      45.473  22.893  35.593  1.00  0.00    -0.744 OA
ENDBRANCH  93  97
ENDBRANCH  67  90
ENDBRANCH  41  42
ENDBRANCH  33  36
ENDBRANCH  31  32
ENDBRANCH  30  31
ENDBRANCH  29  30
ENDBRANCH   1  29
TORSDOF 19
ENDMDL
MODEL 2
REMARK VINA RESULT:     -11.5      1.792      2.394
REMARK SMILES C=C(C)[C@@H]1CC=C(CN2C[C@]34C=C[C@H](O3)[C@H](C(=O)NCCCCCCNC(=O)c3ccc(-c5c6nc(c(-c7cc(S(=O)(=O)[O-])ccc7F)c7ccc([nH]7)c(-c7cc(S(=O)(=O)[O-])ccc7F)c7nc(c(-c8cc(S(=O)(=O)[O-])ccc8F)c8ccc5[nH]8)C=C7)C=C6)cc3)[C@@H]4C2=O)CC1
REMARK SMILES IDX 22 1 21 2 20 3 19 4 17 5 18 6 16 8 9 9 10 10 93 11 11 12
REMARK SMILES IDX 92 13 94 14 12 15 15 16 13 17 14 18 8 19 7 20 4 21 5 22
REMARK SMILES IDX 96 23 6 24 95 25 2 26 1 27 3 28 23 29 24 30 25 31 26 32
REMARK SMILES IDX 27 33 28 35 29 36 30 37 91 38 31 39 90 40 32 41 33 42 34 43
REMARK SMILES IDX 84 44 35 45 89 46 83 47 85 48 36 49 88 50 82 51 81 52 37 54
REMARK SMILES IDX 69 55 49 56 68 57 50 58 53 59 67 60 86 61 51 62 52 63 66 65
REMARK SMILES IDX 87 66 54 67 38 68 39 69 47 70 40 71 46 72 48 73 45 74 41 75
REMARK SMILES IDX 42 76 43 77 44 78 70 79 71 80 79 81 72 82 78 83 80 84 77 85
REMARK SMILES IDX 73 86 74 87 75 88 76 89 55 90 56 91 64 92 57 93 63 94 65 95
REMARK SMILES IDX 62 96 58 97 59 98 60 99 61 100
REMARK H PARENT 19 7 26 34 85 53 53 64
REMARK Flexibility Score: inf
ROOT
ATOM      1  C   UNL A   1      33.749  28.992  24.686  1.00  0.00     0.002 C 
ENDROOT
BRANCH   1   2
ATOM      2  C   UNL A   1      34.399  28.827  23.302  1.00  0.00     0.021 C 
BRANCH   2   3
ATOM      3  C   UNL A   1      33.407  28.645  22.165  1.00  0.00     0.116 C 
BRANCH   3   4
ATOM      4  N   UNL A   1      33.044  27.280  21.862  1.00  0.00    -0.356 N 
ATOM      5  C   UNL A   1      32.051  26.467  22.267  1.00  0.00     0.227 C 
ATOM      6  O   UNL A   1      31.766  25.575  21.450  1.00  0.00    -0.275 OA
ATOM      7  H   UNL A   1      33.655  26.852  21.221  1.00  0.00     0.163 HD
BRANCH   5   8
ATOM      8  C   UNL A   1      31.411  26.379  23.637  1.00  0.00     0.127 C 
ATOM      9  N   UNL A   1      32.984  24.103  25.964  1.00  0.00    -0.335 N 
ATOM     10  C   UNL A   1      31.681  24.242  26.587  1.00  0.00     0.160 C 
ATOM     11  C   UNL A   1      33.292  25.236  25.211  1.00  0.00     0.230 C 
ATOM     12  C   UNL A   1      30.978  25.061  25.548  1.00  0.00     0.117 C 
ATOM     13  C   UNL A   1      32.028  26.048  25.007  1.00  0.00     0.132 C 
ATOM     14  O   UNL A   1      34.412  25.576  24.850  1.00  0.00    -0.274 OA
ATOM     15  C   UNL A   1      29.628  25.659  25.765  1.00  0.00     0.009 C 
ATOM     16  O   UNL A   1      30.702  24.300  24.331  1.00  0.00    -0.360 OA
ATOM     17  C   UNL A   1      29.136  25.868  24.534  1.00  0.00     0.004 C 
ATOM     18  C   UNL A   1      30.202  25.419  23.566  1.00  0.00     0.155 C 
BRANCH   9  19
ATOM     19  C   UNL A   1      33.882  22.983  26.196  1.00  0.00     0.150 C 
BRANCH  19  20
ATOM     20  C   UNL A   1      33.403  21.757  25.449  1.00  0.00    -0.055 C 
ATOM     21  C   UNL A   1      32.648  19.315  24.022  1.00  0.00     0.018 C 
ATOM     22  C   UNL A   1      32.518  20.694  23.342  1.00  0.00     0.035 C 
ATOM     23  C   UNL A   1      33.827  19.292  25.004  1.00  0.00     0.013 C 
ATOM     24  C   UNL A   1      32.849  21.864  24.227  1.00  0.00    -0.025 C 
ATOM     25  C   UNL A   1      33.676  20.394  26.056  1.00  0.00     0.033 C 
BRANCH  21  26
ATOM     26  C   UNL A   1      32.726  18.174  23.013  1.00  0.00    -0.077 C 
ATOM     27  C   UNL A   1      32.147  18.285  21.806  1.00  0.00     0.008 C 
ATOM     28  C   UNL A   1      33.460  16.915  23.395  1.00  0.00     0.039 C 
ENDBRANCH  21  26
ENDBRANCH  19  20
ENDBRANCH   9  19
ENDBRANCH   5   8
ENDBRANCH   3   4
ENDBRANCH   2   3
ENDBRANCH   1   2
BRANCH   1  29
ATOM     29  C   UNL A   1      32.354  29.633  24.746  1.00  0.00     0.002 C 
BRANCH  29  30
ATOM     30  C   UNL A   1      31.734  29.795  26.136  1.00  0.00     0.021 C 
BRANCH  30  31
ATOM     31  C   UNL A   1      32.674  30.353  27.200  1.00  0.00     0.116 C 
BRANCH  31  32
ATOM     32  N   UNL A   1      32.841  31.789  27.083  1.00  0.00    -0.352 N 
ATOM     33  C   UNL A   1      33.802  32.614  27.604  1.00  0.00     0.251 C 
ATOM     34  H   UNL A   1      32.155  32.242  26.542  1.00  0.00     0.163 HD
ATOM     35  O   UNL A   1      33.623  33.829  27.575  1.00  0.00    -0.269 OA
BRANCH  33  36
ATOM     36  C   UNL A   1      35.038  32.061  28.198  1.00  0.00     0.039 A 
ATOM     37  C   UNL A   1      34.973  30.811  28.819  1.00  0.00     0.014 A 
ATOM     38  C   UNL A   1      36.233  32.790  28.219  1.00  0.00     0.014 A 
ATOM     39  C   UNL A   1      36.107  30.280  29.436  1.00  0.00     0.010 A 
ATOM     40  C   UNL A   1      37.380  32.233  28.788  1.00  0.00     0.010 A 
ATOM     41  C   UNL A   1      37.325  30.979  29.414  1.00  0.00    -0.014 A 
BRANCH  41  42
ATOM     42  C   UNL A   1      38.532  30.397  30.061  1.00  0.00     0.031 A 
ATOM     43  C   UNL A   1      38.927  30.807  31.453  1.00  0.00     0.074 A 
ATOM     44  C   UNL A   1      39.275  29.498  29.386  1.00  0.00     0.049 A 
ATOM     45  N   UNL A   1      39.922  30.384  32.191  1.00  0.00    -0.248 NA
ATOM     46  C   UNL A   1      38.105  31.845  32.091  1.00  0.00     0.031 C 
ATOM     47  C   UNL A   1      39.008  29.041  28.022  1.00  0.00     0.029 A 
ATOM     48  N   UNL A   1      40.396  28.799  29.759  1.00  0.00    -0.354 N 
ATOM     49  C   UNL A   1      39.849  31.103  33.380  1.00  0.00     0.074 A 
ATOM     50  C   UNL A   1      38.752  32.037  33.230  1.00  0.00     0.031 C 
ATOM     51  C   UNL A   1      39.912  28.106  27.688  1.00  0.00     0.029 A 
ATOM     52  C   UNL A   1      40.845  27.926  28.796  1.00  0.00     0.049 A 
ATOM     53  H   UNL A   1      40.836  28.912  30.632  1.00  0.00     0.167 HD
ATOM     54  C   UNL A   1      40.609  30.981  34.499  1.00  0.00     0.034 A 
ATOM     55  C   UNL A   1      41.889  27.073  28.805  1.00  0.00     0.034 A 
ATOM     56  C   UNL A   1      41.706  30.047  34.627  1.00  0.00     0.049 A 
ATOM     57  C   UNL A   1      42.748  26.988  30.040  1.00  0.00     0.074 A 
ATOM     58  C   UNL A   1      42.514  29.808  35.725  1.00  0.00     0.029 A 
ATOM     59  N   UNL A   1      42.160  29.208  33.616  1.00  0.00    -0.354 N 
ATOM     60  N   UNL A   1      42.634  27.635  31.178  1.00  0.00    -0.248 NA
ATOM     61  C   UNL A   1      43.871  26.044  29.994  1.00  0.00     0.031 C 
ATOM     62  C   UNL A   1      43.502  28.888  35.355  1.00  0.00     0.029 A 
ATOM     63  C   UNL A   1      43.260  28.481  34.053  1.00  0.00     0.049 A 
ATOM     64  H   UNL A   1      41.759  29.138  32.719  1.00  0.00     0.167 HD
ATOM     65  C   UNL A   1      43.650  27.147  31.995  1.00  0.00     0.074 A 
ATOM     66  C   UNL A   1      44.351  26.141  31.224  1.00  0.00     0.031 C 
ATOM     67  C   UNL A   1      43.970  27.495  33.269  1.00  0.00     0.034 A 
BRANCH  54  68
ATOM     68  C   UNL A   1      40.298  31.912  35.651  1.00  0.00     0.023 A 
ATOM     69  C   UNL A   1      39.280  31.627  36.580  1.00  0.00     0.031 A 
ATOM     70  C   UNL A   1      40.993  33.127  35.796  1.00  0.00     0.131 A 
ATOM     71  C   UNL A   1      38.921  32.582  37.545  1.00  0.00     0.055 A 
ATOM     72  C   UNL A   1      40.694  34.031  36.819  1.00  0.00     0.041 A 
ATOM     73  F   UNL A   1      41.961  33.470  34.932  1.00  0.00    -0.206 F 
ATOM     74  C   UNL A   1      39.639  33.771  37.687  1.00  0.00     0.022 A 
BRANCH  71  75
ATOM     75  S   UNL A   1      37.389  32.329  38.483  1.00  0.00     0.124 S 
ATOM     76  O   UNL A   1      37.229  30.879  38.401  1.00  0.00    -0.237 OA
ATOM     77  O   UNL A   1      37.732  32.863  39.796  1.00  0.00    -0.237 OA
ATOM     78  O   UNL A   1      36.399  33.099  37.734  1.00  0.00    -0.744 OA
ENDBRANCH  71  75
ENDBRANCH  54  68
BRANCH  55  79
ATOM     79  C   UNL A   1      42.178  26.219  27.618  1.00  0.00     0.023 A 
ATOM     80  C   UNL A   1      41.773  24.875  27.584  1.00  0.00     0.031 A 
ATOM     81  C   UNL A   1      42.897  26.720  26.520  1.00  0.00     0.131 A 
ATOM     82  C   UNL A   1      42.131  24.064  26.496  1.00  0.00     0.055 A 
ATOM     83  C   UNL A   1      43.204  25.924  25.415  1.00  0.00     0.041 A 
ATOM     84  F   UNL A   1      43.306  27.999  26.501  1.00  0.00    -0.206 F 
ATOM     85  C   UNL A   1      42.831  24.583  25.405  1.00  0.00     0.022 A 
BRANCH  82  86
ATOM     86  S   UNL A   1      41.739  22.295  26.567  1.00  0.00     0.124 S 
ATOM     87  O   UNL A   1      40.284  22.317  26.675  1.00  0.00    -0.237 OA
ATOM     88  O   UNL A   1      42.281  21.812  25.302  1.00  0.00    -0.237 OA
ATOM     89  O   UNL A   1      42.447  21.837  27.761  1.00  0.00    -0.744 OA
ENDBRANCH  82  86
ENDBRANCH  55  79
BRANCH  67  90
ATOM     90  C   UNL A   1      45.111  26.740  33.914  1.00  0.00     0.023 A 
ATOM     91  C   UNL A   1      44.895  25.581  34.682  1.00  0.00     0.031 A 
ATOM     92  C   UNL A   1      46.431  27.216  33.799  1.00  0.00     0.131 A 
ATOM     93  C   UNL A   1      45.964  24.986  35.369  1.00  0.00     0.055 A 
ATOM     94  C   UNL A   1      47.502  26.576  34.425  1.00  0.00     0.041 A 
ATOM     95  F   UNL A   1      46.700  28.319  33.084  1.00  0.00    -0.206 F 
ATOM     96  C   UNL A   1      47.269  25.464  35.230  1.00  0.00     0.022 A 
BRANCH  93  97
ATOM     97  S   UNL A   1      45.607  23.657  36.553  1.00  0.00     0.124 S 
ATOM     98  O   UNL A   1      44.875  22.704  35.726  1.00  0.00    -0.237 OA
ATOM     99  O   UNL A   1      46.943  23.244  36.969  1.00  0.00    -0.237 OA
ATOM    100  O   UNL A   1      44.813  24.321  37.584  1.00  0.00    -0.744 OA
ENDBRANCH  93  97
ENDBRANCH  67  90
ENDBRANCH  41  42
ENDBRANCH  33  36
ENDBRANCH  31  32
ENDBRANCH  30  31
ENDBRANCH  29  30
ENDBRANCH   1  29
TORSDOF 19
ENDMDL
MODEL 3
REMARK VINA RESULT:     -11.4      6.450     11.635
REMARK SMILES C=C(C)[C@@H]1CC=C(CN2C[C@]34C=C[C@H](O3)[C@H](C(=O)NCCCCCCNC(=O)c3ccc(-c5c6nc(c(-c7cc(S(=O)(=O)[O-])ccc7F)c7ccc([nH]7)c(-c7cc(S(=O)(=O)[O-])ccc7F)c7nc(c(-c8cc(S(=O)(=O)[O-])ccc8F)c8ccc5[nH]8)C=C7)C=C6)cc3)[C@@H]4C2=O)CC1
REMARK SMILES IDX 22 1 21 2 20 3 19 4 17 5 18 6 16 8 9 9 10 10 93 11 11 12
REMARK SMILES IDX 92 13 94 14 12 15 15 16 13 17 14 18 8 19 7 20 4 21 5 22
REMARK SMILES IDX 96 23 6 24 95 25 2 26 1 27 3 28 23 29 24 30 25 31 26 32
REMARK SMILES IDX 27 33 28 35 29 36 30 37 91 38 31 39 90 40 32 41 33 42 34 43
REMARK SMILES IDX 84 44 35 45 89 46 83 47 85 48 36 49 88 50 82 51 81 52 37 54
REMARK SMILES IDX 69 55 49 56 68 57 50 58 53 59 67 60 86 61 51 62 52 63 66 65
REMARK SMILES IDX 87 66 54 67 38 68 39 69 47 70 40 71 46 72 48 73 45 74 41 75
REMARK SMILES IDX 42 76 43 77 44 78 70 79 71 80 79 81 72 82 78 83 80 84 77 85
REMARK SMILES IDX 73 86 74 87 75 88 76 89 55 90 56 91 64 92 57 93 63 94 65 95
REMARK SMILES IDX 62 96 58 97 59 98 60 99 61 100
REMARK H PARENT 19 7 26 34 85 53 53 64
REMARK Flexibility Score: inf
ROOT
ATOM      1  C   UNL A   1      40.817  21.819  27.826  1.00  0.00     0.002 C 
ENDROOT
BRANCH   1   2
ATOM      2  C   UNL A   1      40.338  22.512  26.540  1.00  0.00     0.021 C 
BRANCH   2   3
ATOM      3  C   UNL A   1      38.944  22.101  26.092  1.00  0.00     0.116 C 
BRANCH   3   4
ATOM      4  N   UNL A   1      38.094  23.173  25.629  1.00  0.00    -0.356 N 
ATOM      5  C   UNL A   1      36.772  23.413  25.704  1.00  0.00     0.227 C 
ATOM      6  O   UNL A   1      36.475  24.619  25.652  1.00  0.00    -0.275 OA
ATOM      7  H   UNL A   1      38.588  23.881  25.156  1.00  0.00     0.163 HD
BRANCH   5   8
ATOM      8  C   UNL A   1      35.633  22.418  25.630  1.00  0.00     0.127 C 
ATOM      9  N   UNL A   1      32.954  23.264  23.354  1.00  0.00    -0.335 N 
ATOM     10  C   UNL A   1      32.276  22.293  24.193  1.00  0.00     0.160 C 
ATOM     11  C   UNL A   1      34.328  23.026  23.338  1.00  0.00     0.230 C 
ATOM     12  C   UNL A   1      33.333  22.055  25.227  1.00  0.00     0.117 C 
ATOM     13  C   UNL A   1      34.676  22.082  24.473  1.00  0.00     0.132 C 
ATOM     14  O   UNL A   1      35.118  23.432  22.494  1.00  0.00    -0.274 OA
ATOM     15  C   UNL A   1      33.231  20.980  26.258  1.00  0.00     0.009 C 
ATOM     16  O   UNL A   1      33.521  23.205  26.108  1.00  0.00    -0.360 OA
ATOM     17  C   UNL A   1      34.047  21.369  27.251  1.00  0.00     0.004 C 
ATOM     18  C   UNL A   1      34.666  22.672  26.809  1.00  0.00     0.155 C 
BRANCH   9  19
ATOM     19  C   UNL A   1      32.269  24.268  22.554  1.00  0.00     0.150 C 
BRANCH  19  20
ATOM     20  C   UNL A   1      32.092  25.545  23.347  1.00  0.00    -0.055 C 
ATOM     21  C   UNL A   1      31.904  27.967  24.980  1.00  0.00     0.018 C 
ATOM     22  C   UNL A   1      30.741  26.953  24.943  1.00  0.00     0.035 C 
ATOM     23  C   UNL A   1      33.257  27.263  24.813  1.00  0.00     0.013 C 
ATOM     24  C   UNL A   1      30.938  25.808  23.987  1.00  0.00    -0.025 C 
ATOM     25  C   UNL A   1      33.291  26.461  23.509  1.00  0.00     0.033 C 
BRANCH  21  26
ATOM     26  C   UNL A   1      31.870  28.844  26.228  1.00  0.00    -0.077 C 
ATOM     27  C   UNL A   1      32.127  30.161  26.148  1.00  0.00     0.008 C 
ATOM     28  C   UNL A   1      31.549  28.208  27.555  1.00  0.00     0.039 C 
ENDBRANCH  21  26
ENDBRANCH  19  20
ENDBRANCH   9  19
ENDBRANCH   5   8
ENDBRANCH   3   4
ENDBRANCH   2   3
ENDBRANCH   1   2
BRANCH   1  29
ATOM     29  C   UNL A   1      42.202  21.155  27.804  1.00  0.00     0.002 C 
BRANCH  29  30
ATOM     30  C   UNL A   1      42.269  19.725  27.264  1.00  0.00     0.021 C 
BRANCH  30  31
ATOM     31  C   UNL A   1      42.042  19.594  25.760  1.00  0.00     0.116 C 
BRANCH  31  32
ATOM     32  N   UNL A   1      43.240  19.165  25.063  1.00  0.00    -0.352 N 
ATOM     33  C   UNL A   1      44.311  19.891  24.616  1.00  0.00     0.251 C 
ATOM     34  H   UNL A   1      43.290  18.199  24.882  1.00  0.00     0.163 HD
ATOM     35  O   UNL A   1      45.108  19.364  23.843  1.00  0.00    -0.269 OA
BRANCH  33  36
ATOM     36  C   UNL A   1      44.515  21.291  25.048  1.00  0.00     0.039 A 
ATOM     37  C   UNL A   1      45.286  21.526  26.189  1.00  0.00     0.014 A 
ATOM     38  C   UNL A   1      43.895  22.360  24.391  1.00  0.00     0.014 A 
ATOM     39  C   UNL A   1      45.458  22.831  26.657  1.00  0.00     0.010 A 
ATOM     40  C   UNL A   1      44.113  23.668  24.827  1.00  0.00     0.010 A 
ATOM     41  C   UNL A   1      44.885  23.915  25.973  1.00  0.00    -0.014 A 
BRANCH  41  42
ATOM     42  C   UNL A   1      45.087  25.302  26.470  1.00  0.00     0.031 A 
ATOM     43  C   UNL A   1      46.446  25.945  26.416  1.00  0.00     0.074 A 
ATOM     44  C   UNL A   1      44.040  25.983  26.975  1.00  0.00     0.049 A 
ATOM     45  N   UNL A   1      46.807  27.153  26.769  1.00  0.00    -0.248 NA
ATOM     46  C   UNL A   1      47.548  25.109  25.918  1.00  0.00     0.031 C 
ATOM     47  C   UNL A   1      42.680  25.459  27.104  1.00  0.00     0.029 A 
ATOM     48  N   UNL A   1      43.950  27.263  27.461  1.00  0.00    -0.354 N 
ATOM     49  C   UNL A   1      48.177  27.224  26.538  1.00  0.00     0.074 A 
ATOM     50  C   UNL A   1      48.588  25.912  26.081  1.00  0.00     0.031 C 
ATOM     51  C   UNL A   1      41.882  26.423  27.591  1.00  0.00     0.029 A 
ATOM     52  C   UNL A   1      42.679  27.618  27.849  1.00  0.00     0.049 A 
ATOM     53  H   UNL A   1      44.723  27.871  27.526  1.00  0.00     0.167 HD
ATOM     54  C   UNL A   1      49.010  28.289  26.673  1.00  0.00     0.034 A 
ATOM     55  C   UNL A   1      42.208  28.777  28.351  1.00  0.00     0.034 A 
ATOM     56  C   UNL A   1      48.583  29.589  27.138  1.00  0.00     0.049 A 
ATOM     57  C   UNL A   1      43.160  29.930  28.536  1.00  0.00     0.074 A 
ATOM     58  C   UNL A   1      49.328  30.748  27.271  1.00  0.00     0.029 A 
ATOM     59  N   UNL A   1      47.296  29.901  27.562  1.00  0.00    -0.354 N 
ATOM     60  N   UNL A   1      44.442  30.001  28.262  1.00  0.00    -0.248 NA
ATOM     61  C   UNL A   1      42.592  31.167  29.087  1.00  0.00     0.031 C 
ATOM     62  C   UNL A   1      48.517  31.732  27.849  1.00  0.00     0.029 A 
ATOM     63  C   UNL A   1      47.239  31.219  27.994  1.00  0.00     0.049 A 
ATOM     64  H   UNL A   1      46.534  29.276  27.557  1.00  0.00     0.167 HD
ATOM     65  C   UNL A   1      44.825  31.303  28.573  1.00  0.00     0.074 A 
ATOM     66  C   UNL A   1      43.633  31.983  29.037  1.00  0.00     0.031 C 
ATOM     67  C   UNL A   1      46.050  31.885  28.479  1.00  0.00     0.034 A 
BRANCH  54  68
ATOM     68  C   UNL A   1      50.472  28.069  26.348  1.00  0.00     0.023 A 
ATOM     69  C   UNL A   1      50.946  28.072  25.023  1.00  0.00     0.031 A 
ATOM     70  C   UNL A   1      51.400  27.800  27.372  1.00  0.00     0.131 A 
ATOM     71  C   UNL A   1      52.277  27.717  24.751  1.00  0.00     0.055 A 
ATOM     72  C   UNL A   1      52.745  27.541  27.100  1.00  0.00     0.041 A 
ATOM     73  F   UNL A   1      51.009  27.760  28.655  1.00  0.00    -0.206 F 
ATOM     74  C   UNL A   1      53.186  27.477  25.782  1.00  0.00     0.022 A 
BRANCH  71  75
ATOM     75  S   UNL A   1      52.749  27.390  23.030  1.00  0.00     0.124 S 
ATOM     76  O   UNL A   1      53.597  26.210  23.175  1.00  0.00    -0.237 OA
ATOM     77  O   UNL A   1      51.459  27.176  22.385  1.00  0.00    -0.237 OA
ATOM     78  O   UNL A   1      53.453  28.607  22.632  1.00  0.00    -0.744 OA
ENDBRANCH  71  75
ENDBRANCH  54  68
BRANCH  55  79
ATOM     79  C   UNL A   1      40.766  28.917  28.702  1.00  0.00     0.023 A 
ATOM     80  C   UNL A   1      40.338  28.822  30.036  1.00  0.00     0.031 A 
ATOM     81  C   UNL A   1      39.791  29.105  27.708  1.00  0.00     0.131 A 
ATOM     82  C   UNL A   1      38.968  28.869  30.337  1.00  0.00     0.055 A 
ATOM     83  C   UNL A   1      38.433  29.206  28.017  1.00  0.00     0.041 A 
ATOM     84  F   UNL A   1      40.146  29.205  26.417  1.00  0.00    -0.206 F 
ATOM     85  C   UNL A   1      38.014  29.074  29.338  1.00  0.00     0.022 A 
BRANCH  82  86
ATOM     86  S   UNL A   1      38.445  28.572  32.048  1.00  0.00     0.124 S 
ATOM     87  O   UNL A   1      39.414  29.366  32.797  1.00  0.00    -0.237 OA
ATOM     88  O   UNL A   1      37.075  29.073  32.037  1.00  0.00    -0.237 OA
ATOM     89  O   UNL A   1      38.575  27.124  32.197  1.00  0.00    -0.744 OA
ENDBRANCH  82  86
ENDBRANCH  55  79
BRANCH  67  90
ATOM     90  C   UNL A   1      46.138  33.348  28.851  1.00  0.00     0.023 A 
ATOM     91  C   UNL A   1      46.117  34.364  27.879  1.00  0.00     0.031 A 
ATOM     92  C   UNL A   1      46.295  33.729  30.197  1.00  0.00     0.131 A 
ATOM     93  C   UNL A   1      46.331  35.699  28.256  1.00  0.00     0.055 A 
ATOM     94  C   UNL A   1      46.433  35.066  30.573  1.00  0.00     0.041 A 
ATOM     95  F   UNL A   1      46.326  32.805  31.170  1.00  0.00    -0.206 F 
ATOM     96  C   UNL A   1      46.470  36.059  29.598  1.00  0.00     0.022 A 
BRANCH  93  97
ATOM     97  S   UNL A   1      46.560  36.945  26.956  1.00  0.00     0.124 S 
ATOM     98  O   UNL A   1      45.434  37.842  27.195  1.00  0.00    -0.237 OA
ATOM     99  O   UNL A   1      47.880  37.483  27.269  1.00  0.00    -0.237 OA
ATOM    100  O   UNL A   1      46.483  36.169  25.720  1.00  0.00    -0.744 OA
ENDBRANCH  93  97
ENDBRANCH  67  90
ENDBRANCH  41  42
ENDBRANCH  33  36
ENDBRANCH  31  32
ENDBRANCH  30  31
ENDBRANCH  29  30
ENDBRANCH   1  29
TORSDOF 19
ENDMDL
