MODEL 1
REMARK VINA RESULT:     -11.1      0.000      0.000
REMARK SMILES CC(C)[C@H](CO)NS(=O)(=O)c1ccc(Cl)c(C(=O)NCCCCCCNC(=O)c2ccc(-c3c4nc(c(-c5cc(S(=O)(=O)[O-])ccc5F)c5ccc([nH]5)c(-c5cc(S(=O)(=O)[O-])ccc5F)c5nc(c(-c6cc(S(=O)(=O)[O-])ccc6F)c6ccc3[nH]6)C=C5)C=C4)cc2)c1
REMARK SMILES IDX 21 1 20 2 19 3 17 4 18 5 16 7 11 8 12 9 92 10 13 11 14 12
REMARK SMILES IDX 15 13 8 14 9 15 10 16 7 17 4 19 2 20 1 21 3 22 5 23 6 24
REMARK SMILES IDX 22 26 23 27 24 28 25 29 26 30 27 31 28 33 29 34 30 35 91 36
REMARK SMILES IDX 31 37 90 38 32 39 33 40 34 41 84 42 35 43 89 44 83 45 85 46
REMARK SMILES IDX 36 47 88 48 82 49 81 50 37 52 69 53 49 54 68 55 50 56 53 57
REMARK SMILES IDX 67 58 86 59 51 60 52 61 66 63 87 64 54 65 38 66 39 67 47 68
REMARK SMILES IDX 40 69 46 70 48 71 45 72 41 73 42 74 43 75 44 76 70 77 71 78
REMARK SMILES IDX 79 79 72 80 78 81 80 82 77 83 73 84 74 85 75 86 76 87 55 88
REMARK SMILES IDX 56 89 64 90 57 91 63 92 65 93 62 94 58 95 59 96 60 97 61 98
REMARK H PARENT 19 6 7 18 6 25 26 32 85 51 53 62
REMARK Flexibility Score: inf
ROOT
ATOM      1  C   UNL A   1      32.893  26.918  26.051  1.00  0.00     0.021 C 
ENDROOT
BRANCH   1   2
ATOM      2  C   UNL A   1      31.733  25.989  26.402  1.00  0.00     0.116 C 
BRANCH   2   3
ATOM      3  N   UNL A   1      30.565  26.182  25.565  1.00  0.00    -0.352 N 
ATOM      4  C   UNL A   1      30.259  25.652  24.339  1.00  0.00     0.252 C 
ATOM      5  O   UNL A   1      29.224  26.009  23.771  1.00  0.00    -0.269 OA
ATOM      6  H   UNL A   1      29.884  26.788  25.936  1.00  0.00     0.163 HD
BRANCH   4   7
ATOM      7  C   UNL A   1      31.156  24.720  23.610  1.00  0.00     0.059 A 
ATOM      8  C   UNL A   1      32.173  22.515  23.707  1.00  0.00     0.083 A 
ATOM      9  C   UNL A   1      33.010  22.855  22.640  1.00  0.00     0.023 A 
ATOM     10  C   UNL A   1      31.191  23.407  24.125  1.00  0.00     0.037 A 
ATOM     11  C   UNL A   1      32.947  24.133  22.087  1.00  0.00     0.023 A 
ATOM     12  C   UNL A   1      32.079  25.092  22.624  1.00  0.00     0.053 A 
ATOM     13  Cl  UNL A   1      32.348  26.720  22.117  1.00  0.00    -0.083 Cl
BRANCH   8  14
ATOM     14  S   UNL A   1      32.552  21.014  24.583  1.00  0.00     0.240 S 
ATOM     15  O   UNL A   1      31.466  20.797  25.508  1.00  0.00    -0.207 OA
ATOM     16  O   UNL A   1      33.913  21.158  25.057  1.00  0.00    -0.207 OA
BRANCH  14  17
ATOM     17  N   UNL A   1      32.592  19.730  23.515  1.00  0.00    -0.206 NA
ATOM     18  H   UNL A   1      31.823  19.909  22.869  1.00  0.00     0.141 HD
BRANCH  17  19
ATOM     19  C   UNL A   1      32.496  18.281  23.818  1.00  0.00     0.098 C 
BRANCH  19  20
ATOM     20  C   UNL A   1      33.455  17.741  24.901  1.00  0.00     0.003 C 
ATOM     21  C   UNL A   1      32.974  16.486  25.627  1.00  0.00     0.009 C 
ATOM     22  C   UNL A   1      34.894  17.568  24.422  1.00  0.00     0.009 C 
ENDBRANCH  19  20
BRANCH  19  23
ATOM     23  C   UNL A   1      32.761  17.547  22.472  1.00  0.00     0.176 C 
BRANCH  23  24
ATOM     24  O   UNL A   1      31.675  17.756  21.569  1.00  0.00    -0.395 OA
ATOM     25  H   UNL A   1      31.164  16.936  21.483  1.00  0.00     0.210 HD
ENDBRANCH  23  24
ENDBRANCH  19  23
ENDBRANCH  17  19
ENDBRANCH  14  17
ENDBRANCH   8  14
ENDBRANCH   4   7
ENDBRANCH   2   3
ENDBRANCH   1   2
BRANCH   1  26
ATOM     26  C   UNL A   1      34.176  26.255  25.536  1.00  0.00     0.002 C 
BRANCH  26  27
ATOM     27  C   UNL A   1      34.246  24.724  25.562  1.00  0.00     0.002 C 
BRANCH  27  28
ATOM     28  C   UNL A   1      35.540  24.086  26.072  1.00  0.00     0.021 C 
BRANCH  28  29
ATOM     29  C   UNL A   1      36.521  23.585  25.018  1.00  0.00     0.116 C 
BRANCH  29  30
ATOM     30  N   UNL A   1      37.361  22.498  25.482  1.00  0.00    -0.352 N 
ATOM     31  C   UNL A   1      38.544  22.538  26.183  1.00  0.00     0.251 C 
ATOM     32  H   UNL A   1      37.034  21.594  25.262  1.00  0.00     0.163 HD
ATOM     33  O   UNL A   1      39.150  21.490  26.392  1.00  0.00    -0.269 OA
BRANCH  31  34
ATOM     34  C   UNL A   1      39.110  23.827  26.651  1.00  0.00     0.039 A 
ATOM     35  C   UNL A   1      39.823  24.612  25.737  1.00  0.00     0.014 A 
ATOM     36  C   UNL A   1      38.969  24.262  27.972  1.00  0.00     0.014 A 
ATOM     37  C   UNL A   1      40.331  25.855  26.128  1.00  0.00     0.010 A 
ATOM     38  C   UNL A   1      39.424  25.529  28.344  1.00  0.00     0.010 A 
ATOM     39  C   UNL A   1      40.107  26.340  27.424  1.00  0.00    -0.014 A 
BRANCH  39  40
ATOM     40  C   UNL A   1      40.582  27.690  27.836  1.00  0.00     0.031 A 
ATOM     41  C   UNL A   1      42.037  28.052  27.706  1.00  0.00     0.074 A 
ATOM     42  C   UNL A   1      39.718  28.566  28.384  1.00  0.00     0.049 A 
ATOM     43  N   UNL A   1      42.659  29.137  28.090  1.00  0.00    -0.248 NA
ATOM     44  C   UNL A   1      42.911  27.047  27.082  1.00  0.00     0.031 C 
ATOM     45  C   UNL A   1      38.289  28.324  28.597  1.00  0.00     0.029 A 
ATOM     46  N   UNL A   1      39.914  29.833  28.876  1.00  0.00    -0.354 N 
ATOM     47  C   UNL A   1      44.000  28.942  27.772  1.00  0.00     0.074 A 
ATOM     48  C   UNL A   1      44.102  27.612  27.206  1.00  0.00     0.031 C 
ATOM     49  C   UNL A   1      37.738  29.409  29.164  1.00  0.00     0.029 A 
ATOM     50  C   UNL A   1      38.777  30.410  29.391  1.00  0.00     0.049 A 
ATOM     51  H   UNL A   1      40.788  30.287  28.861  1.00  0.00     0.167 HD
ATOM     52  C   UNL A   1      45.043  29.796  27.920  1.00  0.00     0.034 A 
ATOM     53  C   UNL A   1      38.592  31.602  29.992  1.00  0.00     0.034 A 
ATOM     54  C   UNL A   1      44.926  31.126  28.469  1.00  0.00     0.049 A 
ATOM     55  C   UNL A   1      39.767  32.532  30.153  1.00  0.00     0.074 A 
ATOM     56  C   UNL A   1      45.910  32.090  28.617  1.00  0.00     0.029 A 
ATOM     57  N   UNL A   1      43.753  31.680  28.966  1.00  0.00    -0.354 N 
ATOM     58  N   UNL A   1      41.021  32.344  29.813  1.00  0.00    -0.248 NA
ATOM     59  C   UNL A   1      39.498  33.838  30.768  1.00  0.00     0.031 C 
ATOM     60  C   UNL A   1      45.344  33.203  29.249  1.00  0.00     0.029 A 
ATOM     61  C   UNL A   1      43.994  32.961  29.441  1.00  0.00     0.049 A 
ATOM     62  H   UNL A   1      42.878  31.230  28.979  1.00  0.00     0.167 HD
ATOM     63  C   UNL A   1      41.684  33.521  30.150  1.00  0.00     0.074 A 
ATOM     64  C   UNL A   1      40.690  34.414  30.709  1.00  0.00     0.031 C 
ATOM     65  C   UNL A   1      42.996  33.837  30.004  1.00  0.00     0.034 A 
BRANCH  52  66
ATOM     66  C   UNL A   1      46.407  29.300  27.505  1.00  0.00     0.023 A 
ATOM     67  C   UNL A   1      46.685  28.935  26.176  1.00  0.00     0.031 A 
ATOM     68  C   UNL A   1      47.434  29.162  28.455  1.00  0.00     0.131 A 
ATOM     69  C   UNL A   1      47.931  28.380  25.848  1.00  0.00     0.055 A 
ATOM     70  C   UNL A   1      48.698  28.681  28.107  1.00  0.00     0.041 A 
ATOM     71  F   UNL A   1      47.222  29.477  29.742  1.00  0.00    -0.206 F 
ATOM     72  C   UNL A   1      48.949  28.272  26.800  1.00  0.00     0.022 A 
BRANCH  69  73
ATOM     73  S   UNL A   1      48.157  27.673  24.193  1.00  0.00     0.124 S 
ATOM     74  O   UNL A   1      47.296  28.535  23.386  1.00  0.00    -0.237 OA
ATOM     75  O   UNL A   1      49.591  27.822  23.979  1.00  0.00    -0.237 OA
ATOM     76  O   UNL A   1      47.686  26.298  24.340  1.00  0.00    -0.744 OA
ENDBRANCH  69  73
ENDBRANCH  52  66
BRANCH  53  77
ATOM     77  C   UNL A   1      37.247  31.988  30.504  1.00  0.00     0.023 A 
ATOM     78  C   UNL A   1      36.344  32.698  29.697  1.00  0.00     0.031 A 
ATOM     79  C   UNL A   1      36.863  31.688  31.823  1.00  0.00     0.131 A 
ATOM     80  C   UNL A   1      35.117  33.123  30.231  1.00  0.00     0.055 A 
ATOM     81  C   UNL A   1      35.624  32.075  32.334  1.00  0.00     0.041 A 
ATOM     82  F   UNL A   1      37.689  31.004  32.631  1.00  0.00    -0.206 F 
ATOM     83  C   UNL A   1      34.747  32.808  31.540  1.00  0.00     0.022 A 
BRANCH  80  84
ATOM     84  S   UNL A   1      34.041  34.164  29.207  1.00  0.00     0.124 S 
ATOM     85  O   UNL A   1      34.997  35.095  28.618  1.00  0.00    -0.237 OA
ATOM     86  O   UNL A   1      33.452  33.186  28.298  1.00  0.00    -0.237 OA
ATOM     87  O   UNL A   1      33.114  34.748  30.174  1.00  0.00    -0.744 OA
ENDBRANCH  80  84
ENDBRANCH  53  77
BRANCH  65  88
ATOM     88  C   UNL A   1      43.412  35.225  30.419  1.00  0.00     0.023 A 
ATOM     89  C   UNL A   1      43.395  36.302  29.517  1.00  0.00     0.031 A 
ATOM     90  C   UNL A   1      43.849  35.466  31.734  1.00  0.00     0.131 A 
ATOM     91  C   UNL A   1      43.856  37.563  29.926  1.00  0.00     0.055 A 
ATOM     92  C   UNL A   1      44.259  36.733  32.150  1.00  0.00     0.041 A 
ATOM     93  F   UNL A   1      43.885  34.472  32.634  1.00  0.00    -0.206 F 
ATOM     94  C   UNL A   1      44.275  37.788  31.240  1.00  0.00     0.022 A 
BRANCH  91  95
ATOM     95  S   UNL A   1      43.973  38.891  28.697  1.00  0.00     0.124 S 
ATOM     96  O   UNL A   1      45.354  39.335  28.859  1.00  0.00    -0.237 OA
ATOM     97  O   UNL A   1      43.672  38.191  27.452  1.00  0.00    -0.237 OA
ATOM     98  O   UNL A   1      42.958  39.850  29.128  1.00  0.00    -0.744 OA
ENDBRANCH  91  95
ENDBRANCH  65  88
ENDBRANCH  39  40
ENDBRANCH  31  34
ENDBRANCH  29  30
ENDBRANCH  28  29
ENDBRANCH  27  28
ENDBRANCH  26  27
ENDBRANCH   1  26
TORSDOF 22
ENDMDL
MODEL 2
REMARK VINA RESULT:     -11.0      5.144      9.666
REMARK SMILES CC(C)[C@H](CO)NS(=O)(=O)c1ccc(Cl)c(C(=O)NCCCCCCNC(=O)c2ccc(-c3c4nc(c(-c5cc(S(=O)(=O)[O-])ccc5F)c5ccc([nH]5)c(-c5cc(S(=O)(=O)[O-])ccc5F)c5nc(c(-c6cc(S(=O)(=O)[O-])ccc6F)c6ccc3[nH]6)C=C5)C=C4)cc2)c1
REMARK SMILES IDX 21 1 20 2 19 3 17 4 18 5 16 7 11 8 12 9 92 10 13 11 14 12
REMARK SMILES IDX 15 13 8 14 9 15 10 16 7 17 4 19 2 20 1 21 3 22 5 23 6 24
REMARK SMILES IDX 22 26 23 27 24 28 25 29 26 30 27 31 28 33 29 34 30 35 91 36
REMARK SMILES IDX 31 37 90 38 32 39 33 40 34 41 84 42 35 43 89 44 83 45 85 46
REMARK SMILES IDX 36 47 88 48 82 49 81 50 37 52 69 53 49 54 68 55 50 56 53 57
REMARK SMILES IDX 67 58 86 59 51 60 52 61 66 63 87 64 54 65 38 66 39 67 47 68
REMARK SMILES IDX 40 69 46 70 48 71 45 72 41 73 42 74 43 75 44 76 70 77 71 78
REMARK SMILES IDX 79 79 72 80 78 81 80 82 77 83 73 84 74 85 75 86 76 87 55 88
REMARK SMILES IDX 56 89 64 90 57 91 63 92 65 93 62 94 58 95 59 96 60 97 61 98
REMARK H PARENT 19 6 7 18 6 25 26 32 85 51 53 62
REMARK Flexibility Score: inf
ROOT
ATOM      1  C   UNL A   1      32.510  28.021  25.511  1.00  0.00     0.021 C 
ENDROOT
BRANCH   1   2
ATOM      2  C   UNL A   1      32.630  26.634  26.137  1.00  0.00     0.116 C 
BRANCH   2   3
ATOM      3  N   UNL A   1      31.372  26.111  26.631  1.00  0.00    -0.352 N 
ATOM      4  C   UNL A   1      30.706  24.957  26.309  1.00  0.00     0.252 C 
ATOM      5  O   UNL A   1      29.602  24.740  26.813  1.00  0.00    -0.269 OA
ATOM      6  H   UNL A   1      30.924  26.674  27.304  1.00  0.00     0.163 HD
BRANCH   4   7
ATOM      7  C   UNL A   1      31.213  23.978  25.316  1.00  0.00     0.059 A 
ATOM      8  C   UNL A   1      32.736  22.106  25.021  1.00  0.00     0.083 A 
ATOM      9  C   UNL A   1      32.569  22.190  23.636  1.00  0.00     0.023 A 
ATOM     10  C   UNL A   1      31.991  22.933  25.857  1.00  0.00     0.037 A 
ATOM     11  C   UNL A   1      31.760  23.186  23.091  1.00  0.00     0.023 A 
ATOM     12  C   UNL A   1      31.147  24.131  23.924  1.00  0.00     0.053 A 
ATOM     13  Cl  UNL A   1      30.488  25.517  23.135  1.00  0.00    -0.083 Cl
BRANCH   8  14
ATOM     14  S   UNL A   1      34.044  21.057  25.614  1.00  0.00     0.240 S 
ATOM     15  O   UNL A   1      33.624  20.576  26.909  1.00  0.00    -0.207 OA
ATOM     16  O   UNL A   1      35.267  21.816  25.466  1.00  0.00    -0.207 OA
BRANCH  14  17
ATOM     17  N   UNL A   1      34.218  19.741  24.601  1.00  0.00    -0.206 NA
ATOM     18  H   UNL A   1      33.734  20.011  23.744  1.00  0.00     0.141 HD
BRANCH  17  19
ATOM     19  C   UNL A   1      33.800  18.338  24.839  1.00  0.00     0.098 C 
BRANCH  19  20
ATOM     20  C   UNL A   1      34.714  17.241  24.252  1.00  0.00     0.003 C 
ATOM     21  C   UNL A   1      35.011  16.072  25.190  1.00  0.00     0.009 C 
ATOM     22  C   UNL A   1      34.270  16.733  22.883  1.00  0.00     0.009 C 
ENDBRANCH  19  20
BRANCH  19  23
ATOM     23  C   UNL A   1      32.374  18.210  24.230  1.00  0.00     0.176 C 
BRANCH  23  24
ATOM     24  O   UNL A   1      31.624  17.212  24.923  1.00  0.00    -0.395 OA
ATOM     25  H   UNL A   1      32.228  16.651  25.434  1.00  0.00     0.210 HD
ENDBRANCH  23  24
ENDBRANCH  19  23
ENDBRANCH  17  19
ENDBRANCH  14  17
ENDBRANCH   8  14
ENDBRANCH   4   7
ENDBRANCH   2   3
ENDBRANCH   1   2
BRANCH   1  26
ATOM     26  C   UNL A   1      31.758  29.081  26.325  1.00  0.00     0.002 C 
BRANCH  26  27
ATOM     27  C   UNL A   1      31.453  30.419  25.642  1.00  0.00     0.002 C 
BRANCH  27  28
ATOM     28  C   UNL A   1      31.362  31.660  26.532  1.00  0.00     0.021 C 
BRANCH  28  29
ATOM     29  C   UNL A   1      32.680  32.308  26.945  1.00  0.00     0.116 C 
BRANCH  29  30
ATOM     30  N   UNL A   1      32.527  33.664  27.433  1.00  0.00    -0.352 N 
ATOM     31  C   UNL A   1      33.233  34.334  28.406  1.00  0.00     0.251 C 
ATOM     32  H   UNL A   1      31.810  34.185  27.004  1.00  0.00     0.163 HD
ATOM     33  O   UNL A   1      32.871  35.459  28.739  1.00  0.00    -0.269 OA
BRANCH  31  34
ATOM     34  C   UNL A   1      34.394  33.700  29.079  1.00  0.00     0.039 A 
ATOM     35  C   UNL A   1      34.148  32.710  30.038  1.00  0.00     0.014 A 
ATOM     36  C   UNL A   1      35.710  34.076  28.798  1.00  0.00     0.014 A 
ATOM     37  C   UNL A   1      35.217  32.055  30.660  1.00  0.00     0.010 A 
ATOM     38  C   UNL A   1      36.775  33.381  29.374  1.00  0.00     0.010 A 
ATOM     39  C   UNL A   1      36.540  32.360  30.309  1.00  0.00    -0.014 A 
BRANCH  39  40
ATOM     40  C   UNL A   1      37.687  31.626  30.911  1.00  0.00     0.031 A 
ATOM     41  C   UNL A   1      38.139  31.946  32.310  1.00  0.00     0.074 A 
ATOM     42  C   UNL A   1      38.360  30.718  30.178  1.00  0.00     0.049 A 
ATOM     43  N   UNL A   1      39.167  31.484  32.975  1.00  0.00    -0.248 NA
ATOM     44  C   UNL A   1      37.341  32.936  33.048  1.00  0.00     0.031 C 
ATOM     45  C   UNL A   1      38.043  30.342  28.798  1.00  0.00     0.029 A 
ATOM     46  N   UNL A   1      39.458  29.953  30.484  1.00  0.00    -0.354 N 
ATOM     47  C   UNL A   1      39.152  32.137  34.204  1.00  0.00     0.074 A 
ATOM     48  C   UNL A   1      38.037  33.063  34.168  1.00  0.00     0.031 C 
ATOM     49  C   UNL A   1      38.919  29.413  28.382  1.00  0.00     0.029 A 
ATOM     50  C   UNL A   1      39.882  29.153  29.449  1.00  0.00     0.049 A 
ATOM     51  H   UNL A   1      39.903  29.976  31.363  1.00  0.00     0.167 HD
ATOM     52  C   UNL A   1      39.977  31.970  35.268  1.00  0.00     0.034 A 
ATOM     53  C   UNL A   1      40.934  28.315  29.360  1.00  0.00     0.034 A 
ATOM     54  C   UNL A   1      41.074  31.033  35.298  1.00  0.00     0.049 A 
ATOM     55  C   UNL A   1      41.842  28.151  30.552  1.00  0.00     0.074 A 
ATOM     56  C   UNL A   1      41.939  30.749  36.342  1.00  0.00     0.029 A 
ATOM     57  N   UNL A   1      41.461  30.228  34.234  1.00  0.00    -0.354 N 
ATOM     58  N   UNL A   1      41.790  28.751  31.718  1.00  0.00    -0.248 NA
ATOM     59  C   UNL A   1      42.942  27.187  30.417  1.00  0.00     0.031 C 
ATOM     60  C   UNL A   1      42.879  29.814  35.893  1.00  0.00     0.029 A 
ATOM     61  C   UNL A   1      42.565  29.466  34.590  1.00  0.00     0.049 A 
ATOM     62  H   UNL A   1      41.018  30.202  33.357  1.00  0.00     0.167 HD
ATOM     63  C   UNL A   1      42.836  28.216  32.465  1.00  0.00     0.074 A 
ATOM     64  C   UNL A   1      43.494  27.238  31.622  1.00  0.00     0.031 C 
ATOM     65  C   UNL A   1      43.216  28.503  33.736  1.00  0.00     0.034 A 
BRANCH  52  66
ATOM     66  C   UNL A   1      39.736  32.844  36.474  1.00  0.00     0.023 A 
ATOM     67  C   UNL A   1      38.944  32.410  37.552  1.00  0.00     0.031 A 
ATOM     68  C   UNL A   1      40.278  34.140  36.536  1.00  0.00     0.131 A 
ATOM     69  C   UNL A   1      38.656  33.287  38.608  1.00  0.00     0.055 A 
ATOM     70  C   UNL A   1      40.051  34.982  37.626  1.00  0.00     0.041 A 
ATOM     71  F   UNL A   1      41.025  34.616  35.528  1.00  0.00    -0.206 F 
ATOM     72  C   UNL A   1      39.223  34.563  38.664  1.00  0.00     0.022 A 
BRANCH  69  73
ATOM     73  S   UNL A   1      37.419  32.787  39.837  1.00  0.00     0.124 S 
ATOM     74  O   UNL A   1      37.491  33.891  40.792  1.00  0.00    -0.237 OA
ATOM     75  O   UNL A   1      36.199  32.709  39.043  1.00  0.00    -0.237 OA
ATOM     76  O   UNL A   1      37.926  31.510  40.334  1.00  0.00    -0.744 OA
ENDBRANCH  69  73
ENDBRANCH  52  66
BRANCH  53  77
ATOM     77  C   UNL A   1      41.204  27.574  28.096  1.00  0.00     0.023 A 
ATOM     78  C   UNL A   1      40.964  26.194  28.002  1.00  0.00     0.031 A 
ATOM     79  C   UNL A   1      41.746  28.230  26.977  1.00  0.00     0.131 A 
ATOM     80  C   UNL A   1      41.306  25.505  26.829  1.00  0.00     0.055 A 
ATOM     81  C   UNL A   1      42.043  27.547  25.797  1.00  0.00     0.041 A 
ATOM     82  F   UNL A   1      41.987  29.550  27.014  1.00  0.00    -0.206 F 
ATOM     83  C   UNL A   1      41.835  26.173  25.722  1.00  0.00     0.022 A 
BRANCH  80  84
ATOM     84  S   UNL A   1      41.119  23.701  26.798  1.00  0.00     0.124 S 
ATOM     85  O   UNL A   1      42.082  23.318  25.771  1.00  0.00    -0.237 OA
ATOM     86  O   UNL A   1      41.463  23.338  28.169  1.00  0.00    -0.237 OA
ATOM     87  O   UNL A   1      39.715  23.511  26.439  1.00  0.00    -0.744 OA
ENDBRANCH  80  84
ENDBRANCH  53  77
BRANCH  65  88
ATOM     88  C   UNL A   1      44.370  27.711  34.297  1.00  0.00     0.023 A 
ATOM     89  C   UNL A   1      44.168  26.534  35.038  1.00  0.00     0.031 A 
ATOM     90  C   UNL A   1      45.689  28.155  34.100  1.00  0.00     0.131 A 
ATOM     91  C   UNL A   1      45.267  25.867  35.601  1.00  0.00     0.055 A 
ATOM     92  C   UNL A   1      46.782  27.460  34.619  1.00  0.00     0.041 A 
ATOM     93  F   UNL A   1      45.937  29.273  33.401  1.00  0.00    -0.206 F 
ATOM     94  C   UNL A   1      46.573  26.315  35.385  1.00  0.00     0.022 A 
BRANCH  91  95
ATOM     95  S   UNL A   1      44.963  24.446  36.685  1.00  0.00     0.124 S 
ATOM     96  O   UNL A   1      46.318  24.026  37.025  1.00  0.00    -0.237 OA
ATOM     97  O   UNL A   1      44.189  25.041  37.770  1.00  0.00    -0.237 OA
ATOM     98  O   UNL A   1      44.222  23.516  35.833  1.00  0.00    -0.744 OA
ENDBRANCH  91  95
ENDBRANCH  65  88
ENDBRANCH  39  40
ENDBRANCH  31  34
ENDBRANCH  29  30
ENDBRANCH  28  29
ENDBRANCH  27  28
ENDBRANCH  26  27
ENDBRANCH   1  26
TORSDOF 22
ENDMDL
MODEL 3
REMARK VINA RESULT:     -10.9      4.260      8.968
REMARK SMILES CC(C)[C@H](CO)NS(=O)(=O)c1ccc(Cl)c(C(=O)NCCCCCCNC(=O)c2ccc(-c3c4nc(c(-c5cc(S(=O)(=O)[O-])ccc5F)c5ccc([nH]5)c(-c5cc(S(=O)(=O)[O-])ccc5F)c5nc(c(-c6cc(S(=O)(=O)[O-])ccc6F)c6ccc3[nH]6)C=C5)C=C4)cc2)c1
REMARK SMILES IDX 21 1 20 2 19 3 17 4 18 5 16 7 11 8 12 9 92 10 13 11 14 12
REMARK SMILES IDX 15 13 8 14 9 15 10 16 7 17 4 19 2 20 1 21 3 22 5 23 6 24
REMARK SMILES IDX 22 26 23 27 24 28 25 29 26 30 27 31 28 33 29 34 30 35 91 36
REMARK SMILES IDX 31 37 90 38 32 39 33 40 34 41 84 42 35 43 89 44 83 45 85 46
REMARK SMILES IDX 36 47 88 48 82 49 81 50 37 52 69 53 49 54 68 55 50 56 53 57
REMARK SMILES IDX 67 58 86 59 51 60 52 61 66 63 87 64 54 65 38 66 39 67 47 68
REMARK SMILES IDX 40 69 46 70 48 71 45 72 41 73 42 74 43 75 44 76 70 77 71 78
REMARK SMILES IDX 79 79 72 80 78 81 80 82 77 83 73 84 74 85 75 86 76 87 55 88
REMARK SMILES IDX 56 89 64 90 57 91 63 92 65 93 62 94 58 95 59 96 60 97 61 98
REMARK H PARENT 19 6 7 18 6 25 26 32 85 51 53 62
REMARK Flexibility Score: inf
ROOT
ATOM      1  C   UNL A   1      33.680  27.548  22.614  1.00  0.00     0.021 C 
ENDROOT
BRANCH   1   2
ATOM      2  C   UNL A   1      32.488  26.804  22.016  1.00  0.00     0.116 C 
BRANCH   2   3
ATOM      3  N   UNL A   1      32.843  25.536  21.411  1.00  0.00    -0.352 N 
ATOM      4  C   UNL A   1      33.052  24.310  21.987  1.00  0.00     0.252 C 
ATOM      5  O   UNL A   1      33.414  23.367  21.279  1.00  0.00    -0.269 OA
ATOM      6  H   UNL A   1      32.951  25.557  20.433  1.00  0.00     0.163 HD
BRANCH   4   7
ATOM      7  C   UNL A   1      32.942  24.069  23.448  1.00  0.00     0.059 A 
ATOM      8  C   UNL A   1      33.914  22.831  25.300  1.00  0.00     0.083 A 
ATOM      9  C   UNL A   1      32.828  23.186  26.106  1.00  0.00     0.023 A 
ATOM     10  C   UNL A   1      34.015  23.347  24.012  1.00  0.00     0.037 A 
ATOM     11  C   UNL A   1      31.786  23.945  25.574  1.00  0.00     0.023 A 
ATOM     12  C   UNL A   1      31.802  24.318  24.224  1.00  0.00     0.053 A 
ATOM     13  Cl  UNL A   1      30.315  24.920  23.591  1.00  0.00    -0.083 Cl
BRANCH   8  14
ATOM     14  S   UNL A   1      35.011  21.581  25.931  1.00  0.00     0.240 S 
ATOM     15  O   UNL A   1      34.485  21.189  27.217  1.00  0.00    -0.207 OA
ATOM     16  O   UNL A   1      36.348  22.123  25.811  1.00  0.00    -0.207 OA
BRANCH  14  17
ATOM     17  N   UNL A   1      34.985  20.246  24.928  1.00  0.00    -0.206 NA
ATOM     18  H   UNL A   1      34.891  20.633  23.988  1.00  0.00     0.141 HD
BRANCH  17  19
ATOM     19  C   UNL A   1      34.049  19.097  24.955  1.00  0.00     0.098 C 
BRANCH  19  20
ATOM     20  C   UNL A   1      34.477  17.845  24.160  1.00  0.00     0.003 C 
ATOM     21  C   UNL A   1      34.880  16.640  25.010  1.00  0.00     0.009 C 
ATOM     22  C   UNL A   1      33.484  17.430  23.077  1.00  0.00     0.009 C 
ENDBRANCH  19  20
BRANCH  19  23
ATOM     23  C   UNL A   1      32.700  19.635  24.396  1.00  0.00     0.176 C 
BRANCH  23  24
ATOM     24  O   UNL A   1      31.809  19.951  25.466  1.00  0.00    -0.395 OA
ATOM     25  H   UNL A   1      31.657  19.160  26.006  1.00  0.00     0.210 HD
ENDBRANCH  23  24
ENDBRANCH  19  23
ENDBRANCH  17  19
ENDBRANCH  14  17
ENDBRANCH   8  14
ENDBRANCH   4   7
ENDBRANCH   2   3
ENDBRANCH   1   2
BRANCH   1  26
ATOM     26  C   UNL A   1      33.787  27.561  24.143  1.00  0.00     0.002 C 
BRANCH  26  27
ATOM     27  C   UNL A   1      32.796  28.435  24.919  1.00  0.00     0.002 C 
BRANCH  27  28
ATOM     28  C   UNL A   1      32.476  28.029  26.360  1.00  0.00     0.021 C 
BRANCH  28  29
ATOM     29  C   UNL A   1      33.427  28.526  27.443  1.00  0.00     0.116 C 
BRANCH  29  30
ATOM     30  N   UNL A   1      33.502  29.972  27.524  1.00  0.00    -0.352 N 
ATOM     31  C   UNL A   1      34.534  30.776  27.949  1.00  0.00     0.251 C 
ATOM     32  H   UNL A   1      32.692  30.450  27.231  1.00  0.00     0.163 HD
ATOM     33  O   UNL A   1      34.351  31.988  28.032  1.00  0.00    -0.269 OA
BRANCH  31  34
ATOM     34  C   UNL A   1      35.842  30.196  28.341  1.00  0.00     0.039 A 
ATOM     35  C   UNL A   1      36.917  30.317  27.452  1.00  0.00     0.014 A 
ATOM     36  C   UNL A   1      36.021  29.522  29.553  1.00  0.00     0.014 A 
ATOM     37  C   UNL A   1      38.179  29.825  27.806  1.00  0.00     0.010 A 
ATOM     38  C   UNL A   1      37.293  29.086  29.930  1.00  0.00     0.010 A 
ATOM     39  C   UNL A   1      38.386  29.236  29.062  1.00  0.00    -0.014 A 
BRANCH  39  40
ATOM     40  C   UNL A   1      39.736  28.769  29.481  1.00  0.00     0.031 A 
ATOM     41  C   UNL A   1      40.483  29.492  30.569  1.00  0.00     0.074 A 
ATOM     42  C   UNL A   1      40.315  27.734  28.841  1.00  0.00     0.049 A 
ATOM     43  N   UNL A   1      41.699  29.296  31.012  1.00  0.00    -0.248 NA
ATOM     44  C   UNL A   1      39.775  30.600  31.228  1.00  0.00     0.031 C 
ATOM     45  C   UNL A   1      39.710  26.971  27.748  1.00  0.00     0.029 A 
ATOM     46  N   UNL A   1      41.548  27.152  29.008  1.00  0.00    -0.354 N 
ATOM     47  C   UNL A   1      41.910  30.264  31.989  1.00  0.00     0.074 A 
ATOM     48  C   UNL A   1      40.710  31.075  32.036  1.00  0.00     0.031 C 
ATOM     49  C   UNL A   1      40.567  26.016  27.350  1.00  0.00     0.029 A 
ATOM     50  C   UNL A   1      41.796  26.122  28.132  1.00  0.00     0.049 A 
ATOM     51  H   UNL A   1      42.194  27.445  29.691  1.00  0.00     0.167 HD
ATOM     52  C   UNL A   1      42.994  30.449  32.784  1.00  0.00     0.034 A 
ATOM     53  C   UNL A   1      42.893  25.357  27.964  1.00  0.00     0.034 A 
ATOM     54  C   UNL A   1      44.178  29.625  32.739  1.00  0.00     0.049 A 
ATOM     55  C   UNL A   1      44.088  25.585  28.853  1.00  0.00     0.074 A 
ATOM     56  C   UNL A   1      45.310  29.695  33.534  1.00  0.00     0.029 A 
ATOM     57  N   UNL A   1      44.385  28.580  31.847  1.00  0.00    -0.354 N 
ATOM     58  N   UNL A   1      44.256  26.482  29.797  1.00  0.00    -0.248 NA
ATOM     59  C   UNL A   1      45.237  24.689  28.661  1.00  0.00     0.031 C 
ATOM     60  C   UNL A   1      46.221  28.730  33.088  1.00  0.00     0.029 A 
ATOM     61  C   UNL A   1      45.634  28.014  32.057  1.00  0.00     0.049 A 
ATOM     62  H   UNL A   1      43.740  28.283  31.166  1.00  0.00     0.167 HD
ATOM     63  C   UNL A   1      45.520  26.240  30.328  1.00  0.00     0.074 A 
ATOM     64  C   UNL A   1      46.065  25.107  29.608  1.00  0.00     0.031 C 
ATOM     65  C   UNL A   1      46.169  26.892  31.326  1.00  0.00     0.034 A 
BRANCH  52  66
ATOM     66  C   UNL A   1      42.954  31.609  33.749  1.00  0.00     0.023 A 
ATOM     67  C   UNL A   1      42.551  31.441  35.085  1.00  0.00     0.031 A 
ATOM     68  C   UNL A   1      43.293  32.904  33.321  1.00  0.00     0.131 A 
ATOM     69  C   UNL A   1      42.425  32.558  35.925  1.00  0.00     0.055 A 
ATOM     70  C   UNL A   1      43.240  34.002  34.183  1.00  0.00     0.041 A 
ATOM     71  F   UNL A   1      43.667  33.129  32.052  1.00  0.00    -0.206 F 
ATOM     72  C   UNL A   1      42.790  33.835  35.490  1.00  0.00     0.022 A 
BRANCH  69  73
ATOM     73  S   UNL A   1      41.648  32.339  37.548  1.00  0.00     0.124 S 
ATOM     74  O   UNL A   1      42.427  31.233  38.100  1.00  0.00    -0.237 OA
ATOM     75  O   UNL A   1      41.852  33.639  38.175  1.00  0.00    -0.237 OA
ATOM     76  O   UNL A   1      40.261  32.013  37.223  1.00  0.00    -0.744 OA
ENDBRANCH  69  73
ENDBRANCH  52  66
BRANCH  53  77
ATOM     77  C   UNL A   1      42.929  24.310  26.904  1.00  0.00     0.023 A 
ATOM     78  C   UNL A   1      42.253  23.091  27.070  1.00  0.00     0.031 A 
ATOM     79  C   UNL A   1      43.675  24.499  25.728  1.00  0.00     0.131 A 
ATOM     80  C   UNL A   1      42.371  22.089  26.094  1.00  0.00     0.055 A 
ATOM     81  C   UNL A   1      43.753  23.517  24.741  1.00  0.00     0.041 A 
ATOM     82  F   UNL A   1      44.332  25.651  25.519  1.00  0.00    -0.206 F 
ATOM     83  C   UNL A   1      43.109  22.297  24.926  1.00  0.00     0.022 A 
BRANCH  80  84
ATOM     84  S   UNL A   1      41.606  20.475  26.411  1.00  0.00     0.124 S 
ATOM     85  O   UNL A   1      42.170  19.662  25.339  1.00  0.00    -0.237 OA
ATOM     86  O   UNL A   1      42.078  20.178  27.760  1.00  0.00    -0.237 OA
ATOM     87  O   UNL A   1      40.175  20.750  26.300  1.00  0.00    -0.744 OA
ENDBRANCH  80  84
ENDBRANCH  53  77
BRANCH  65  88
ATOM     88  C   UNL A   1      47.523  26.358  31.719  1.00  0.00     0.023 A 
ATOM     89  C   UNL A   1      48.691  26.723  31.028  1.00  0.00     0.031 A 
ATOM     90  C   UNL A   1      47.639  25.456  32.792  1.00  0.00     0.131 A 
ATOM     91  C   UNL A   1      49.921  26.149  31.385  1.00  0.00     0.055 A 
ATOM     92  C   UNL A   1      48.872  24.927  33.175  1.00  0.00     0.041 A 
ATOM     93  F   UNL A   1      46.555  25.075  33.484  1.00  0.00    -0.206 F 
ATOM     94  C   UNL A   1      50.020  25.264  32.462  1.00  0.00     0.022 A 
BRANCH  91  95
ATOM     95  S   UNL A   1      51.380  26.515  30.373  1.00  0.00     0.124 S 
ATOM     96  O   UNL A   1      51.502  27.961  30.526  1.00  0.00    -0.237 OA
ATOM     97  O   UNL A   1      52.417  25.717  31.020  1.00  0.00    -0.237 OA
ATOM     98  O   UNL A   1      50.994  26.064  29.037  1.00  0.00    -0.744 OA
ENDBRANCH  91  95
ENDBRANCH  65  88
ENDBRANCH  39  40
ENDBRANCH  31  34
ENDBRANCH  29  30
ENDBRANCH  28  29
ENDBRANCH  27  28
ENDBRANCH  26  27
ENDBRANCH   1  26
TORSDOF 22
ENDMDL
