MODEL 1
REMARK VINA RESULT:     -12.2      0.000      0.000
REMARK SMILES O=C(NCCCCCCNC(=O)c1cccn2c(=O)c3ccc(Cl)cc3nc12)c1ccc(-c2c3nc(c(-c4cc(S(=O)(=O)[O-])ccc4F)c4ccc([nH]4)c(-c4cc(S(=O)(=O)[O-])ccc4F)c4nc(c(-c5cc(S(=O)(=O)[O-])ccc5F)c5ccc2[nH]5)C=C4)C=C3)cc1
REMARK SMILES IDX 5 1 4 2 3 3 1 4 2 5 29 7 30 8 91 9 31 10 90 11 32 12 33 13
REMARK SMILES IDX 34 14 84 15 35 16 89 17 83 18 85 19 36 20 88 21 82 22 81 23
REMARK SMILES IDX 37 25 69 26 49 27 68 28 50 29 53 30 67 31 86 32 51 33 52 34
REMARK SMILES IDX 66 36 87 37 54 38 38 39 39 40 47 41 40 42 46 43 48 44 45 45
REMARK SMILES IDX 41 46 42 47 43 48 44 49 70 50 71 51 79 52 72 53 78 54 80 55
REMARK SMILES IDX 77 56 73 57 74 58 75 59 76 60 55 61 56 62 64 63 57 64 63 65
REMARK SMILES IDX 65 66 62 67 58 68 59 69 60 70 61 71 6 72 7 73 8 74 9 75
REMARK SMILES IDX 10 76 11 77 12 79 13 80 14 81 28 82 15 83 17 84 27 85 16 86
REMARK SMILES IDX 18 87 26 88 19 89 20 90 25 91 21 92 23 93 22 94 24 95
REMARK H PARENT 3 6 85 24 53 35 10 78
REMARK Flexibility Score: inf
ROOT
ATOM      1  C   UNL A   1      32.066  27.890  25.663  1.00  0.00     0.021 C 
ENDROOT
BRANCH   1   2
ATOM      2  C   UNL A   1      33.020  29.040  25.344  1.00  0.00     0.116 C 
BRANCH   2   3
ATOM      3  N   UNL A   1      32.469  30.331  25.714  1.00  0.00    -0.352 N 
ATOM      4  O   UNL A   1      32.115  32.147  26.988  1.00  0.00    -0.269 OA
ATOM      5  C   UNL A   1      32.823  31.173  26.738  1.00  0.00     0.251 C 
ATOM      6  H   UNL A   1      31.732  30.651  25.146  1.00  0.00     0.163 HD
BRANCH   5   7
ATOM      7  C   UNL A   1      34.041  30.923  27.544  1.00  0.00     0.039 A 
ATOM      8  C   UNL A   1      34.968  31.960  27.695  1.00  0.00     0.014 A 
ATOM      9  C   UNL A   1      34.311  29.662  28.084  1.00  0.00     0.014 A 
ATOM     10  C   UNL A   1      36.153  31.741  28.403  1.00  0.00     0.010 A 
ATOM     11  C   UNL A   1      35.469  29.460  28.834  1.00  0.00     0.010 A 
ATOM     12  C   UNL A   1      36.410  30.491  28.983  1.00  0.00    -0.014 A 
BRANCH  12  13
ATOM     13  C   UNL A   1      37.676  30.221  29.711  1.00  0.00     0.031 A 
ATOM     14  C   UNL A   1      38.681  29.263  29.138  1.00  0.00     0.074 A 
ATOM     15  C   UNL A   1      37.891  30.783  30.916  1.00  0.00     0.049 A 
ATOM     16  N   UNL A   1      39.801  28.834  29.659  1.00  0.00    -0.248 NA
ATOM     17  C   UNL A   1      38.377  28.697  27.814  1.00  0.00     0.031 C 
ATOM     18  C   UNL A   1      36.976  31.709  31.580  1.00  0.00     0.029 A 
ATOM     19  N   UNL A   1      38.932  30.645  31.800  1.00  0.00    -0.354 N 
ATOM     20  C   UNL A   1      40.324  27.933  28.739  1.00  0.00     0.074 A 
ATOM     21  C   UNL A   1      39.378  27.843  27.650  1.00  0.00     0.031 C 
ATOM     22  C   UNL A   1      37.497  32.060  32.766  1.00  0.00     0.029 A 
ATOM     23  C   UNL A   1      38.760  31.350  32.968  1.00  0.00     0.049 A 
ATOM     24  H   UNL A   1      39.726  30.093  31.615  1.00  0.00     0.167 HD
ATOM     25  C   UNL A   1      41.496  27.258  28.793  1.00  0.00     0.034 A 
ATOM     26  C   UNL A   1      39.519  31.406  34.083  1.00  0.00     0.034 A 
ATOM     27  C   UNL A   1      42.446  27.388  29.866  1.00  0.00     0.049 A 
ATOM     28  C   UNL A   1      40.811  30.633  34.133  1.00  0.00     0.074 A 
ATOM     29  C   UNL A   1      43.710  26.835  29.957  1.00  0.00     0.029 A 
ATOM     30  N   UNL A   1      42.239  28.108  31.034  1.00  0.00    -0.354 N 
ATOM     31  N   UNL A   1      41.346  29.867  33.212  1.00  0.00    -0.248 NA
ATOM     32  C   UNL A   1      41.607  30.727  35.366  1.00  0.00     0.031 C 
ATOM     33  C   UNL A   1      44.239  27.163  31.206  1.00  0.00     0.029 A 
ATOM     34  C   UNL A   1      43.334  27.976  31.872  1.00  0.00     0.049 A 
ATOM     35  H   UNL A   1      41.432  28.636  31.238  1.00  0.00     0.167 HD
ATOM     36  C   UNL A   1      42.544  29.398  33.745  1.00  0.00     0.074 A 
ATOM     37  C   UNL A   1      42.666  29.983  35.064  1.00  0.00     0.031 C 
ATOM     38  C   UNL A   1      43.453  28.558  33.188  1.00  0.00     0.034 A 
BRANCH  25  39
ATOM     39  C   UNL A   1      41.844  26.327  27.660  1.00  0.00     0.023 A 
ATOM     40  C   UNL A   1      41.567  24.951  27.772  1.00  0.00     0.031 A 
ATOM     41  C   UNL A   1      42.540  26.775  26.523  1.00  0.00     0.131 A 
ATOM     42  C   UNL A   1      41.998  24.071  26.771  1.00  0.00     0.055 A 
ATOM     43  C   UNL A   1      42.934  25.899  25.511  1.00  0.00     0.041 A 
ATOM     44  F   UNL A   1      42.831  28.077  26.372  1.00  0.00    -0.206 F 
ATOM     45  C   UNL A   1      42.673  24.538  25.639  1.00  0.00     0.022 A 
BRANCH  42  46
ATOM     46  S   UNL A   1      41.750  22.281  26.927  1.00  0.00     0.124 S 
ATOM     47  O   UNL A   1      40.354  22.211  27.359  1.00  0.00    -0.237 OA
ATOM     48  O   UNL A   1      42.004  21.818  25.564  1.00  0.00    -0.237 OA
ATOM     49  O   UNL A   1      42.731  21.874  27.924  1.00  0.00    -0.744 OA
ENDBRANCH  42  46
ENDBRANCH  25  39
BRANCH  26  50
ATOM     50  C   UNL A   1      39.068  32.278  35.206  1.00  0.00     0.023 A 
ATOM     51  C   UNL A   1      39.503  33.613  35.303  1.00  0.00     0.031 A 
ATOM     52  C   UNL A   1      38.330  31.743  36.274  1.00  0.00     0.131 A 
ATOM     53  C   UNL A   1      39.272  34.336  36.481  1.00  0.00     0.055 A 
ATOM     54  C   UNL A   1      38.041  32.491  37.417  1.00  0.00     0.041 A 
ATOM     55  F   UNL A   1      37.903  30.471  36.230  1.00  0.00    -0.206 F 
ATOM     56  C   UNL A   1      38.531  33.789  37.533  1.00  0.00     0.022 A 
BRANCH  53  57
ATOM     57  S   UNL A   1      40.050  35.955  36.743  1.00  0.00     0.124 S 
ATOM     58  O   UNL A   1      41.462  35.603  36.863  1.00  0.00    -0.237 OA
ATOM     59  O   UNL A   1      39.678  36.663  35.520  1.00  0.00    -0.237 OA
ATOM     60  O   UNL A   1      39.420  36.449  37.962  1.00  0.00    -0.744 OA
ENDBRANCH  53  57
ENDBRANCH  26  50
BRANCH  38  61
ATOM     61  C   UNL A   1      44.675  28.173  33.988  1.00  0.00     0.023 A 
ATOM     62  C   UNL A   1      44.623  27.081  34.875  1.00  0.00     0.031 A 
ATOM     63  C   UNL A   1      45.813  28.998  34.010  1.00  0.00     0.131 A 
ATOM     64  C   UNL A   1      45.664  26.878  35.791  1.00  0.00     0.055 A 
ATOM     65  C   UNL A   1      46.869  28.762  34.893  1.00  0.00     0.041 A 
ATOM     66  F   UNL A   1      45.905  30.055  33.188  1.00  0.00    -0.206 F 
ATOM     67  C   UNL A   1      46.789  27.710  35.801  1.00  0.00     0.022 A 
BRANCH  64  68
ATOM     68  S   UNL A   1      45.551  25.592  37.065  1.00  0.00     0.124 S 
ATOM     69  O   UNL A   1      44.376  24.839  36.631  1.00  0.00    -0.237 OA
ATOM     70  O   UNL A   1      46.826  24.896  36.914  1.00  0.00    -0.237 OA
ATOM     71  O   UNL A   1      45.386  26.338  38.307  1.00  0.00    -0.744 OA
ENDBRANCH  64  68
ENDBRANCH  38  61
ENDBRANCH  12  13
ENDBRANCH   5   7
ENDBRANCH   2   3
ENDBRANCH   1   2
BRANCH   1  72
ATOM     72  C   UNL A   1      31.118  27.482  24.532  1.00  0.00     0.002 C 
BRANCH  72  73
ATOM     73  C   UNL A   1      31.565  26.291  23.680  1.00  0.00     0.002 C 
BRANCH  73  74
ATOM     74  C   UNL A   1      30.482  25.256  23.357  1.00  0.00     0.021 C 
BRANCH  74  75
ATOM     75  C   UNL A   1      30.751  23.839  23.858  1.00  0.00     0.116 C 
BRANCH  75  76
ATOM     76  N   UNL A   1      30.538  23.697  25.289  1.00  0.00    -0.352 N 
ATOM     77  C   UNL A   1      31.453  23.498  26.287  1.00  0.00     0.255 C 
ATOM     78  H   UNL A   1      29.600  23.752  25.583  1.00  0.00     0.163 HD
ATOM     79  O   UNL A   1      31.075  23.417  27.453  1.00  0.00    -0.269 OA
BRANCH  77  80
ATOM     80  C   UNL A   1      32.890  23.429  25.935  1.00  0.00     0.083 A 
ATOM     81  C   UNL A   1      33.624  24.550  26.046  1.00  0.00     0.019 A 
ATOM     82  C   UNL A   1      33.559  22.140  25.563  1.00  0.00     0.153 A 
ATOM     83  C   UNL A   1      35.022  24.550  25.715  1.00  0.00     0.019 A 
ATOM     84  N   UNL A   1      34.927  22.205  25.272  1.00  0.00    -0.267 N 
ATOM     85  N   UNL A   1      32.875  21.037  25.511  1.00  0.00    -0.229 NA
ATOM     86  C   UNL A   1      35.617  23.412  25.343  1.00  0.00     0.096 A 
ATOM     87  C   UNL A   1      35.639  21.062  24.901  1.00  0.00     0.265 A 
ATOM     88  C   UNL A   1      33.529  19.844  25.195  1.00  0.00     0.080 A 
ATOM     89  O   UNL A   1      36.836  21.038  24.611  1.00  0.00    -0.268 OA
ATOM     90  C   UNL A   1      34.884  19.798  24.880  1.00  0.00     0.066 A 
ATOM     91  C   UNL A   1      32.799  18.652  25.217  1.00  0.00     0.049 A 
ATOM     92  C   UNL A   1      35.515  18.584  24.576  1.00  0.00     0.017 A 
ATOM     93  C   UNL A   1      33.423  17.439  24.924  1.00  0.00     0.043 A 
ATOM     94  C   UNL A   1      34.779  17.399  24.600  1.00  0.00     0.021 A 
ATOM     95  Cl  UNL A   1      32.518  15.976  24.972  1.00  0.00    -0.084 Cl
ENDBRANCH  77  80
ENDBRANCH  75  76
ENDBRANCH  74  75
ENDBRANCH  73  74
ENDBRANCH  72  73
ENDBRANCH   1  72
TORSDOF 16
ENDMDL
MODEL 2
REMARK VINA RESULT:     -12.0      5.145      8.233
REMARK SMILES O=C(NCCCCCCNC(=O)c1cccn2c(=O)c3ccc(Cl)cc3nc12)c1ccc(-c2c3nc(c(-c4cc(S(=O)(=O)[O-])ccc4F)c4ccc([nH]4)c(-c4cc(S(=O)(=O)[O-])ccc4F)c4nc(c(-c5cc(S(=O)(=O)[O-])ccc5F)c5ccc2[nH]5)C=C4)C=C3)cc1
REMARK SMILES IDX 5 1 4 2 3 3 1 4 2 5 29 7 30 8 91 9 31 10 90 11 32 12 33 13
REMARK SMILES IDX 34 14 84 15 35 16 89 17 83 18 85 19 36 20 88 21 82 22 81 23
REMARK SMILES IDX 37 25 69 26 49 27 68 28 50 29 53 30 67 31 86 32 51 33 52 34
REMARK SMILES IDX 66 36 87 37 54 38 38 39 39 40 47 41 40 42 46 43 48 44 45 45
REMARK SMILES IDX 41 46 42 47 43 48 44 49 70 50 71 51 79 52 72 53 78 54 80 55
REMARK SMILES IDX 77 56 73 57 74 58 75 59 76 60 55 61 56 62 64 63 57 64 63 65
REMARK SMILES IDX 65 66 62 67 58 68 59 69 60 70 61 71 6 72 7 73 8 74 9 75
REMARK SMILES IDX 10 76 11 77 12 79 13 80 14 81 28 82 15 83 17 84 27 85 16 86
REMARK SMILES IDX 18 87 26 88 19 89 20 90 25 91 21 92 23 93 22 94 24 95
REMARK H PARENT 3 6 85 24 53 35 10 78
REMARK Flexibility Score: inf
ROOT
ATOM      1  C   UNL A   1      35.537  21.474  24.678  1.00  0.00     0.021 C 
ENDROOT
BRANCH   1   2
ATOM      2  C   UNL A   1      37.035  21.629  24.422  1.00  0.00     0.116 C 
BRANCH   2   3
ATOM      3  N   UNL A   1      37.821  20.627  25.119  1.00  0.00    -0.352 N 
ATOM      4  O   UNL A   1      39.603  19.748  26.166  1.00  0.00    -0.269 OA
ATOM      5  C   UNL A   1      39.010  20.758  25.791  1.00  0.00     0.251 C 
ATOM      6  H   UNL A   1      37.446  19.716  25.106  1.00  0.00     0.163 HD
BRANCH   5   7
ATOM      7  C   UNL A   1      39.586  22.095  26.068  1.00  0.00     0.039 A 
ATOM      8  C   UNL A   1      40.957  22.192  26.329  1.00  0.00     0.014 A 
ATOM      9  C   UNL A   1      38.779  23.234  26.146  1.00  0.00     0.014 A 
ATOM     10  C   UNL A   1      41.522  23.429  26.648  1.00  0.00     0.010 A 
ATOM     11  C   UNL A   1      39.353  24.476  26.412  1.00  0.00     0.010 A 
ATOM     12  C   UNL A   1      40.725  24.582  26.686  1.00  0.00    -0.014 A 
BRANCH  12  13
ATOM     13  C   UNL A   1      41.294  25.904  27.054  1.00  0.00     0.031 A 
ATOM     14  C   UNL A   1      42.679  26.275  26.605  1.00  0.00     0.074 A 
ATOM     15  C   UNL A   1      40.595  26.740  27.845  1.00  0.00     0.049 A 
ATOM     16  N   UNL A   1      43.380  27.340  26.891  1.00  0.00    -0.248 NA
ATOM     17  C   UNL A   1      43.374  25.312  25.737  1.00  0.00     0.031 C 
ATOM     18  C   UNL A   1      39.253  26.476  28.360  1.00  0.00     0.029 A 
ATOM     19  N   UNL A   1      40.922  27.967  28.368  1.00  0.00    -0.354 N 
ATOM     20  C   UNL A   1      44.606  27.167  26.259  1.00  0.00     0.074 A 
ATOM     21  C   UNL A   1      44.568  25.875  25.611  1.00  0.00     0.031 C 
ATOM     22  C   UNL A   1      38.868  27.511  29.122  1.00  0.00     0.029 A 
ATOM     23  C   UNL A   1      39.951  28.492  29.189  1.00  0.00     0.049 A 
ATOM     24  H   UNL A   1      41.771  28.427  28.174  1.00  0.00     0.167 HD
ATOM     25  C   UNL A   1      45.657  28.018  26.209  1.00  0.00     0.034 A 
ATOM     26  C   UNL A   1      39.938  29.622  29.927  1.00  0.00     0.034 A 
ATOM     27  C   UNL A   1      45.664  29.318  26.826  1.00  0.00     0.049 A 
ATOM     28  C   UNL A   1      41.124  30.548  29.874  1.00  0.00     0.074 A 
ATOM     29  C   UNL A   1      46.635  30.298  26.737  1.00  0.00     0.029 A 
ATOM     30  N   UNL A   1      44.666  29.817  27.652  1.00  0.00    -0.354 N 
ATOM     31  N   UNL A   1      42.235  30.422  29.186  1.00  0.00    -0.248 NA
ATOM     32  C   UNL A   1      41.065  31.769  30.692  1.00  0.00     0.031 C 
ATOM     33  C   UNL A   1      46.258  31.360  27.560  1.00  0.00     0.029 A 
ATOM     34  C   UNL A   1      45.020  31.073  28.115  1.00  0.00     0.049 A 
ATOM     35  H   UNL A   1      43.829  29.347  27.875  1.00  0.00     0.167 HD
ATOM     36  C   UNL A   1      43.000  31.549  29.475  1.00  0.00     0.074 A 
ATOM     37  C   UNL A   1      42.217  32.358  30.387  1.00  0.00     0.031 C 
ATOM     38  C   UNL A   1      44.238  31.877  29.027  1.00  0.00     0.034 A 
BRANCH  25  39
ATOM     39  C   UNL A   1      46.889  27.597  25.450  1.00  0.00     0.023 A 
ATOM     40  C   UNL A   1      47.034  27.952  24.095  1.00  0.00     0.031 A 
ATOM     41  C   UNL A   1      47.862  26.761  26.027  1.00  0.00     0.131 A 
ATOM     42  C   UNL A   1      48.120  27.461  23.360  1.00  0.00     0.055 A 
ATOM     43  C   UNL A   1      48.961  26.304  25.299  1.00  0.00     0.041 A 
ATOM     44  F   UNL A   1      47.765  26.390  27.313  1.00  0.00    -0.206 F 
ATOM     45  C   UNL A   1      49.087  26.645  23.956  1.00  0.00     0.022 A 
BRANCH  42  46
ATOM     46  S   UNL A   1      48.289  27.813  21.589  1.00  0.00     0.124 S 
ATOM     47  O   UNL A   1      46.955  28.314  21.258  1.00  0.00    -0.237 OA
ATOM     48  O   UNL A   1      49.351  28.817  21.577  1.00  0.00    -0.237 OA
ATOM     49  O   UNL A   1      48.633  26.525  21.003  1.00  0.00    -0.744 OA
ENDBRANCH  42  46
ENDBRANCH  25  39
BRANCH  26  50
ATOM     50  C   UNL A   1      38.719  29.933  30.729  1.00  0.00     0.023 A 
ATOM     51  C   UNL A   1      37.677  30.709  30.187  1.00  0.00     0.031 A 
ATOM     52  C   UNL A   1      38.654  29.594  32.090  1.00  0.00     0.131 A 
ATOM     53  C   UNL A   1      36.664  31.194  31.024  1.00  0.00     0.055 A 
ATOM     54  C   UNL A   1      37.604  30.020  32.905  1.00  0.00     0.041 A 
ATOM     55  F   UNL A   1      39.630  28.864  32.652  1.00  0.00    -0.206 F 
ATOM     56  C   UNL A   1      36.612  30.842  32.377  1.00  0.00     0.022 A 
BRANCH  53  57
ATOM     57  S   UNL A   1      35.463  32.413  30.417  1.00  0.00     0.124 S 
ATOM     58  O   UNL A   1      36.280  33.617  30.298  1.00  0.00    -0.237 OA
ATOM     59  O   UNL A   1      35.042  31.809  29.155  1.00  0.00    -0.237 OA
ATOM     60  O   UNL A   1      34.444  32.444  31.460  1.00  0.00    -0.744 OA
ENDBRANCH  53  57
ENDBRANCH  26  50
BRANCH  38  61
ATOM     61  C   UNL A   1      44.875  33.158  29.512  1.00  0.00     0.023 A 
ATOM     62  C   UNL A   1      44.684  34.355  28.797  1.00  0.00     0.031 A 
ATOM     63  C   UNL A   1      45.813  33.148  30.558  1.00  0.00     0.131 A 
ATOM     64  C   UNL A   1      45.465  35.479  29.099  1.00  0.00     0.055 A 
ATOM     65  C   UNL A   1      46.555  34.284  30.885  1.00  0.00     0.041 A 
ATOM     66  F   UNL A   1      46.035  32.027  31.263  1.00  0.00    -0.206 F 
ATOM     67  C   UNL A   1      46.396  35.451  30.143  1.00  0.00     0.022 A 
BRANCH  64  68
ATOM     68  S   UNL A   1      45.372  36.981  28.086  1.00  0.00     0.124 S 
ATOM     69  O   UNL A   1      46.780  37.356  27.972  1.00  0.00    -0.237 OA
ATOM     70  O   UNL A   1      44.758  36.486  26.857  1.00  0.00    -0.237 OA
ATOM     71  O   UNL A   1      44.550  37.890  28.877  1.00  0.00    -0.744 OA
ENDBRANCH  64  68
ENDBRANCH  38  61
ENDBRANCH  12  13
ENDBRANCH   5   7
ENDBRANCH   2   3
ENDBRANCH   1   2
BRANCH   1  72
ATOM     72  C   UNL A   1      34.638  22.512  24.002  1.00  0.00     0.002 C 
BRANCH  72  73
ATOM     73  C   UNL A   1      33.233  22.036  23.623  1.00  0.00     0.002 C 
BRANCH  73  74
ATOM     74  C   UNL A   1      32.072  22.777  24.296  1.00  0.00     0.021 C 
BRANCH  74  75
ATOM     75  C   UNL A   1      31.325  23.775  23.415  1.00  0.00     0.116 C 
BRANCH  75  76
ATOM     76  N   UNL A   1      32.156  24.326  22.356  1.00  0.00    -0.352 N 
ATOM     77  C   UNL A   1      32.912  25.466  22.350  1.00  0.00     0.255 C 
ATOM     78  H   UNL A   1      32.179  23.802  21.523  1.00  0.00     0.163 HD
ATOM     79  O   UNL A   1      33.567  25.760  21.353  1.00  0.00    -0.269 OA
BRANCH  77  80
ATOM     80  C   UNL A   1      32.956  26.300  23.574  1.00  0.00     0.083 A 
ATOM     81  C   UNL A   1      33.866  25.997  24.516  1.00  0.00     0.019 A 
ATOM     82  C   UNL A   1      32.095  27.516  23.741  1.00  0.00     0.153 A 
ATOM     83  C   UNL A   1      33.956  26.764  25.727  1.00  0.00     0.019 A 
ATOM     84  N   UNL A   1      32.245  28.231  24.936  1.00  0.00    -0.267 N 
ATOM     85  N   UNL A   1      31.253  27.857  22.813  1.00  0.00    -0.229 NA
ATOM     86  C   UNL A   1      33.163  27.826  25.902  1.00  0.00     0.096 A 
ATOM     87  C   UNL A   1      31.479  29.371  25.194  1.00  0.00     0.265 A 
ATOM     88  C   UNL A   1      30.487  29.013  22.978  1.00  0.00     0.080 A 
ATOM     89  O   UNL A   1      31.537  30.041  26.225  1.00  0.00    -0.268 OA
ATOM     90  C   UNL A   1      30.552  29.791  24.131  1.00  0.00     0.066 A 
ATOM     91  C   UNL A   1      29.641  29.412  21.940  1.00  0.00     0.049 A 
ATOM     92  C   UNL A   1      29.777  30.951  24.264  1.00  0.00     0.017 A 
ATOM     93  C   UNL A   1      28.873  30.571  22.063  1.00  0.00     0.043 A 
ATOM     94  C   UNL A   1      28.935  31.342  23.223  1.00  0.00     0.021 A 
ATOM     95  Cl  UNL A   1      27.848  31.062  20.770  1.00  0.00    -0.084 Cl
ENDBRANCH  77  80
ENDBRANCH  75  76
ENDBRANCH  74  75
ENDBRANCH  73  74
ENDBRANCH  72  73
ENDBRANCH   1  72
TORSDOF 16
ENDMDL
MODEL 3
REMARK VINA RESULT:     -11.9      2.990      4.510
REMARK SMILES O=C(NCCCCCCNC(=O)c1cccn2c(=O)c3ccc(Cl)cc3nc12)c1ccc(-c2c3nc(c(-c4cc(S(=O)(=O)[O-])ccc4F)c4ccc([nH]4)c(-c4cc(S(=O)(=O)[O-])ccc4F)c4nc(c(-c5cc(S(=O)(=O)[O-])ccc5F)c5ccc2[nH]5)C=C4)C=C3)cc1
REMARK SMILES IDX 5 1 4 2 3 3 1 4 2 5 29 7 30 8 91 9 31 10 90 11 32 12 33 13
REMARK SMILES IDX 34 14 84 15 35 16 89 17 83 18 85 19 36 20 88 21 82 22 81 23
REMARK SMILES IDX 37 25 69 26 49 27 68 28 50 29 53 30 67 31 86 32 51 33 52 34
REMARK SMILES IDX 66 36 87 37 54 38 38 39 39 40 47 41 40 42 46 43 48 44 45 45
REMARK SMILES IDX 41 46 42 47 43 48 44 49 70 50 71 51 79 52 72 53 78 54 80 55
REMARK SMILES IDX 77 56 73 57 74 58 75 59 76 60 55 61 56 62 64 63 57 64 63 65
REMARK SMILES IDX 65 66 62 67 58 68 59 69 60 70 61 71 6 72 7 73 8 74 9 75
REMARK SMILES IDX 10 76 11 77 12 79 13 80 14 81 28 82 15 83 17 84 27 85 16 86
REMARK SMILES IDX 18 87 26 88 19 89 20 90 25 91 21 92 23 93 22 94 24 95
REMARK H PARENT 3 6 85 24 53 35 10 78
REMARK Flexibility Score: inf
ROOT
ATOM      1  C   UNL A   1      33.616  33.289  27.998  1.00  0.00     0.021 C 
ENDROOT
BRANCH   1   2
ATOM      2  C   UNL A   1      33.706  34.800  28.204  1.00  0.00     0.116 C 
BRANCH   2   3
ATOM      3  N   UNL A   1      33.034  35.233  29.415  1.00  0.00    -0.352 N 
ATOM      4  O   UNL A   1      32.516  35.270  31.601  1.00  0.00    -0.269 OA
ATOM      5  C   UNL A   1      33.316  34.942  30.726  1.00  0.00     0.251 C 
ATOM      6  H   UNL A   1      32.259  35.825  29.276  1.00  0.00     0.163 HD
BRANCH   5   7
ATOM      7  C   UNL A   1      34.565  34.237  31.098  1.00  0.00     0.039 A 
ATOM      8  C   UNL A   1      34.468  33.021  31.784  1.00  0.00     0.014 A 
ATOM      9  C   UNL A   1      35.820  34.797  30.846  1.00  0.00     0.014 A 
ATOM     10  C   UNL A   1      35.626  32.358  32.198  1.00  0.00     0.010 A 
ATOM     11  C   UNL A   1      36.976  34.109  31.213  1.00  0.00     0.010 A 
ATOM     12  C   UNL A   1      36.890  32.894  31.911  1.00  0.00    -0.014 A 
BRANCH  12  13
ATOM     13  C   UNL A   1      38.135  32.228  32.368  1.00  0.00     0.031 A 
ATOM     14  C   UNL A   1      38.753  31.141  31.535  1.00  0.00     0.074 A 
ATOM     15  C   UNL A   1      38.672  32.550  33.560  1.00  0.00     0.049 A 
ATOM     16  N   UNL A   1      39.786  30.385  31.800  1.00  0.00    -0.248 NA
ATOM     17  C   UNL A   1      38.112  30.852  30.242  1.00  0.00     0.031 C 
ATOM     18  C   UNL A   1      38.146  33.571  34.464  1.00  0.00     0.029 A 
ATOM     19  N   UNL A   1      39.763  32.043  34.222  1.00  0.00    -0.354 N 
ATOM     20  C   UNL A   1      39.906  29.517  30.721  1.00  0.00     0.074 A 
ATOM     21  C   UNL A   1      38.815  29.811  29.819  1.00  0.00     0.031 C 
ATOM     22  C   UNL A   1      38.917  33.620  35.562  1.00  0.00     0.029 A 
ATOM     23  C   UNL A   1      39.963  32.603  35.463  1.00  0.00     0.049 A 
ATOM     24  H   UNL A   1      40.345  31.344  33.846  1.00  0.00     0.167 HD
ATOM     25  C   UNL A   1      40.852  28.576  30.497  1.00  0.00     0.034 A 
ATOM     26  C   UNL A   1      40.871  32.319  36.421  1.00  0.00     0.034 A 
ATOM     27  C   UNL A   1      41.956  28.323  31.386  1.00  0.00     0.049 A 
ATOM     28  C   UNL A   1      41.905  31.255  36.162  1.00  0.00     0.074 A 
ATOM     29  C   UNL A   1      43.028  27.472  31.192  1.00  0.00     0.029 A 
ATOM     30  N   UNL A   1      42.126  28.905  32.634  1.00  0.00    -0.354 N 
ATOM     31  N   UNL A   1      42.072  30.515  35.091  1.00  0.00    -0.248 NA
ATOM     32  C   UNL A   1      42.876  30.982  37.232  1.00  0.00     0.031 C 
ATOM     33  C   UNL A   1      43.809  27.487  32.349  1.00  0.00     0.029 A 
ATOM     34  C   UNL A   1      43.262  28.397  33.241  1.00  0.00     0.049 A 
ATOM     35  H   UNL A   1      41.529  29.581  33.029  1.00  0.00     0.167 HD
ATOM     36  C   UNL A   1      43.171  29.700  35.351  1.00  0.00     0.074 A 
ATOM     37  C   UNL A   1      43.643  30.051  36.674  1.00  0.00     0.031 C 
ATOM     38  C   UNL A   1      43.730  28.747  34.563  1.00  0.00     0.034 A 
BRANCH  25  39
ATOM     39  C   UNL A   1      40.765  27.752  29.237  1.00  0.00     0.023 A 
ATOM     40  C   UNL A   1      41.636  28.019  28.163  1.00  0.00     0.031 A 
ATOM     41  C   UNL A   1      39.762  26.784  29.056  1.00  0.00     0.131 A 
ATOM     42  C   UNL A   1      41.476  27.334  26.952  1.00  0.00     0.055 A 
ATOM     43  C   UNL A   1      39.630  26.079  27.859  1.00  0.00     0.041 A 
ATOM     44  F   UNL A   1      38.904  26.498  30.049  1.00  0.00    -0.206 F 
ATOM     45  C   UNL A   1      40.483  26.362  26.797  1.00  0.00     0.022 A 
BRANCH  42  46
ATOM     46  S   UNL A   1      42.511  27.720  25.514  1.00  0.00     0.124 S 
ATOM     47  O   UNL A   1      42.301  26.542  24.673  1.00  0.00    -0.237 OA
ATOM     48  O   UNL A   1      41.902  28.953  25.020  1.00  0.00    -0.237 OA
ATOM     49  O   UNL A   1      43.851  27.857  26.069  1.00  0.00    -0.744 OA
ENDBRANCH  42  46
ENDBRANCH  25  39
BRANCH  26  50
ATOM     50  C   UNL A   1      40.843  33.112  37.683  1.00  0.00     0.023 A 
ATOM     51  C   UNL A   1      39.919  32.813  38.703  1.00  0.00     0.031 A 
ATOM     52  C   UNL A   1      41.626  34.270  37.818  1.00  0.00     0.131 A 
ATOM     53  C   UNL A   1      39.741  33.710  39.765  1.00  0.00     0.055 A 
ATOM     54  C   UNL A   1      41.494  35.123  38.915  1.00  0.00     0.041 A 
ATOM     55  F   UNL A   1      42.512  34.601  36.866  1.00  0.00    -0.206 F 
ATOM     56  C   UNL A   1      40.533  34.856  39.885  1.00  0.00     0.022 A 
BRANCH  53  57
ATOM     57  S   UNL A   1      38.377  33.492  40.944  1.00  0.00     0.124 S 
ATOM     58  O   UNL A   1      37.348  32.874  40.113  1.00  0.00    -0.237 OA
ATOM     59  O   UNL A   1      38.989  32.620  41.944  1.00  0.00    -0.237 OA
ATOM     60  O   UNL A   1      38.090  34.849  41.395  1.00  0.00    -0.744 OA
ENDBRANCH  53  57
ENDBRANCH  26  50
BRANCH  38  61
ATOM     61  C   UNL A   1      44.915  27.971  35.086  1.00  0.00     0.023 A 
ATOM     62  C   UNL A   1      44.714  26.797  35.838  1.00  0.00     0.031 A 
ATOM     63  C   UNL A   1      46.216  28.494  35.003  1.00  0.00     0.131 A 
ATOM     64  C   UNL A   1      45.788  26.220  36.528  1.00  0.00     0.055 A 
ATOM     65  C   UNL A   1      47.292  27.887  35.654  1.00  0.00     0.041 A 
ATOM     66  F   UNL A   1      46.457  29.615  34.304  1.00  0.00    -0.206 F 
ATOM     67  C   UNL A   1      47.077  26.755  36.435  1.00  0.00     0.022 A 
BRANCH  64  68
ATOM     68  S   UNL A   1      45.533  24.814  37.647  1.00  0.00     0.124 S 
ATOM     69  O   UNL A   1      44.735  25.417  38.713  1.00  0.00    -0.237 OA
ATOM     70  O   UNL A   1      44.819  23.868  36.794  1.00  0.00    -0.237 OA
ATOM     71  O   UNL A   1      46.883  24.419  38.030  1.00  0.00    -0.744 OA
ENDBRANCH  64  68
ENDBRANCH  38  61
ENDBRANCH  12  13
ENDBRANCH   5   7
ENDBRANCH   2   3
ENDBRANCH   1   2
BRANCH   1  72
ATOM     72  C   UNL A   1      34.951  32.538  28.003  1.00  0.00     0.002 C 
BRANCH  72  73
ATOM     73  C   UNL A   1      34.921  31.122  28.583  1.00  0.00     0.002 C 
BRANCH  73  74
ATOM     74  C   UNL A   1      35.567  30.032  27.720  1.00  0.00     0.021 C 
BRANCH  74  75
ATOM     75  C   UNL A   1      34.604  29.188  26.889  1.00  0.00     0.116 C 
BRANCH  75  76
ATOM     76  N   UNL A   1      33.437  28.758  27.643  1.00  0.00    -0.352 N 
ATOM     77  C   UNL A   1      32.250  28.250  27.191  1.00  0.00     0.255 C 
ATOM     78  H   UNL A   1      33.512  28.845  28.621  1.00  0.00     0.163 HD
ATOM     79  O   UNL A   1      31.379  27.925  27.994  1.00  0.00    -0.269 OA
BRANCH  77  80
ATOM     80  C   UNL A   1      32.064  28.061  25.733  1.00  0.00     0.083 A 
ATOM     81  C   UNL A   1      31.393  29.007  25.052  1.00  0.00     0.019 A 
ATOM     82  C   UNL A   1      32.681  26.913  24.993  1.00  0.00     0.153 A 
ATOM     83  C   UNL A   1      31.174  28.880  23.638  1.00  0.00     0.019 A 
ATOM     84  N   UNL A   1      32.447  26.859  23.613  1.00  0.00    -0.267 N 
ATOM     85  N   UNL A   1      33.383  26.024  25.627  1.00  0.00    -0.229 NA
ATOM     86  C   UNL A   1      31.688  27.837  22.977  1.00  0.00     0.096 A 
ATOM     87  C   UNL A   1      32.967  25.821  22.835  1.00  0.00     0.265 A 
ATOM     88  C   UNL A   1      33.976  24.983  24.909  1.00  0.00     0.080 A 
ATOM     89  O   UNL A   1      32.790  25.690  21.624  1.00  0.00    -0.268 OA
ATOM     90  C   UNL A   1      33.800  24.830  23.537  1.00  0.00     0.066 A 
ATOM     91  C   UNL A   1      34.792  24.076  25.591  1.00  0.00     0.049 A 
ATOM     92  C   UNL A   1      34.415  23.781  22.841  1.00  0.00     0.017 A 
ATOM     93  C   UNL A   1      35.415  23.034  24.903  1.00  0.00     0.043 A 
ATOM     94  C   UNL A   1      35.228  22.880  23.530  1.00  0.00     0.021 A 
ATOM     95  Cl  UNL A   1      36.432  21.934  25.750  1.00  0.00    -0.084 Cl
ENDBRANCH  77  80
ENDBRANCH  75  76
ENDBRANCH  74  75
ENDBRANCH  73  74
ENDBRANCH  72  73
ENDBRANCH   1  72
TORSDOF 16
ENDMDL
