MODEL 1
REMARK VINA RESULT:     -11.1      0.000      0.000
REMARK SMILES O=C(/C=C/C(=O)Nc1ccc2[nH]ncc2c1)NCCCCCCNC(=O)c1ccc(-c2c3nc(c(-c4cc(S(=O)(=O)[O-])ccc4F)c4ccc([nH]4)c(-c4cc(S(=O)(=O)[O-])ccc4F)c4nc(c(-c5cc(S(=O)(=O)[O-])ccc5F)c5ccc2[nH]5)C=C4)C=C3)cc1
REMARK SMILES IDX 21 1 20 2 19 3 18 4 17 5 1 6 2 7 3 9 4 10 5 11 6 12 7 13
REMARK SMILES IDX 8 15 9 16 16 17 10 18 15 19 11 20 14 21 12 22 13 23 22 25
REMARK SMILES IDX 23 26 24 27 25 28 26 30 27 31 28 32 89 33 29 34 88 35 30 36
REMARK SMILES IDX 31 37 32 38 82 39 33 40 87 41 81 42 83 43 34 44 86 45 80 46
REMARK SMILES IDX 79 47 35 49 67 50 47 51 66 52 48 53 51 54 65 55 84 56 49 57
REMARK SMILES IDX 50 58 64 60 85 61 52 62 36 63 37 64 45 65 38 66 44 67 46 68
REMARK SMILES IDX 43 69 39 70 40 71 41 72 42 73 68 74 69 75 77 76 70 77 76 78
REMARK SMILES IDX 78 79 75 80 71 81 72 82 73 83 74 84 53 85 54 86 62 87 55 88
REMARK SMILES IDX 61 89 63 90 60 91 56 92 57 93 58 94 59 95
REMARK H PARENT 17 8 7 14 12 24 24 29 83 48 51 59
REMARK Flexibility Score: inf
ROOT
ATOM      1  C   UNL A   1      34.184  24.487  25.903  1.00  0.00     0.002 C 
ENDROOT
BRANCH   1   2
ATOM      2  C   UNL A   1      32.796  24.187  26.476  1.00  0.00     0.002 C 
BRANCH   2   3
ATOM      3  C   UNL A   1      32.504  22.698  26.708  1.00  0.00     0.021 C 
BRANCH   3   4
ATOM      4  C   UNL A   1      31.495  22.110  25.722  1.00  0.00     0.116 C 
BRANCH   4   5
ATOM      5  N   UNL A   1      31.416  22.939  24.536  1.00  0.00    -0.353 N 
ATOM      6  O   UNL A   1      32.782  21.611  23.257  1.00  0.00    -0.270 OA
ATOM      7  C   UNL A   1      32.154  22.651  23.427  1.00  0.00     0.244 C 
ATOM      8  H   UNL A   1      30.820  23.722  24.533  1.00  0.00     0.163 HD
BRANCH   7   9
ATOM      9  C   UNL A   1      32.234  23.716  22.409  1.00  0.00     0.077 C 
ATOM     10  C   UNL A   1      33.126  24.719  22.383  1.00  0.00     0.077 C 
BRANCH  10  11
ATOM     11  C   UNL A   1      32.987  25.823  21.399  1.00  0.00     0.248 C 
ATOM     12  O   UNL A   1      33.068  25.566  20.201  1.00  0.00    -0.270 OA
ATOM     13  N   UNL A   1      32.716  27.098  21.830  1.00  0.00    -0.322 N 
ATOM     14  H   UNL A   1      32.470  27.741  21.125  1.00  0.00     0.170 HD
BRANCH  13  15
ATOM     15  C   UNL A   1      32.743  27.614  23.140  1.00  0.00     0.042 A 
ATOM     16  C   UNL A   1      33.867  28.268  23.659  1.00  0.00     0.028 A 
ATOM     17  C   UNL A   1      31.634  27.352  23.955  1.00  0.00     0.038 A 
ATOM     18  C   UNL A   1      33.995  28.523  25.027  1.00  0.00     0.030 A 
ATOM     19  C   UNL A   1      31.761  27.571  25.338  1.00  0.00     0.022 A 
ATOM     20  C   UNL A   1      32.936  28.119  25.840  1.00  0.00     0.065 A 
ATOM     21  C   UNL A   1      30.972  27.329  26.484  1.00  0.00     0.143 A 
ATOM     22  N   UNL A   1      32.786  28.116  27.201  1.00  0.00    -0.278 N 
ATOM     23  N   UNL A   1      31.585  27.675  27.618  1.00  0.00    -0.183 NA
ATOM     24  H   UNL A   1      33.494  28.410  27.819  1.00  0.00     0.190 HD
ENDBRANCH  13  15
ENDBRANCH  10  11
ENDBRANCH   7   9
ENDBRANCH   4   5
ENDBRANCH   3   4
ENDBRANCH   2   3
ENDBRANCH   1   2
BRANCH   1  25
ATOM     25  C   UNL A   1      35.216  23.381  26.123  1.00  0.00     0.021 C 
BRANCH  25  26
ATOM     26  C   UNL A   1      36.641  23.765  25.739  1.00  0.00     0.116 C 
BRANCH  26  27
ATOM     27  N   UNL A   1      37.569  22.657  25.905  1.00  0.00    -0.352 N 
ATOM     28  C   UNL A   1      38.889  22.682  26.278  1.00  0.00     0.251 C 
ATOM     29  H   UNL A   1      37.196  21.764  25.725  1.00  0.00     0.163 HD
ATOM     30  O   UNL A   1      39.575  21.669  26.163  1.00  0.00    -0.269 OA
BRANCH  28  31
ATOM     31  C   UNL A   1      39.483  23.936  26.786  1.00  0.00     0.039 A 
ATOM     32  C   UNL A   1      40.057  24.830  25.879  1.00  0.00     0.014 A 
ATOM     33  C   UNL A   1      39.459  24.237  28.151  1.00  0.00     0.014 A 
ATOM     34  C   UNL A   1      40.547  26.056  26.335  1.00  0.00     0.010 A 
ATOM     35  C   UNL A   1      39.873  25.492  28.591  1.00  0.00     0.010 A 
ATOM     36  C   UNL A   1      40.421  26.415  27.688  1.00  0.00    -0.014 A 
BRANCH  36  37
ATOM     37  C   UNL A   1      40.849  27.755  28.169  1.00  0.00     0.031 A 
ATOM     38  C   UNL A   1      42.310  28.102  28.251  1.00  0.00     0.074 A 
ATOM     39  C   UNL A   1      39.921  28.637  28.588  1.00  0.00     0.049 A 
ATOM     40  N   UNL A   1      42.878  29.194  28.698  1.00  0.00    -0.248 NA
ATOM     41  C   UNL A   1      43.255  27.071  27.800  1.00  0.00     0.031 C 
ATOM     42  C   UNL A   1      38.475  28.397  28.601  1.00  0.00     0.029 A 
ATOM     43  N   UNL A   1      40.049  29.907  29.092  1.00  0.00    -0.354 N 
ATOM     44  C   UNL A   1      44.247  28.979  28.588  1.00  0.00     0.074 A 
ATOM     45  C   UNL A   1      44.418  27.625  28.105  1.00  0.00     0.031 C 
ATOM     46  C   UNL A   1      37.853  29.492  29.064  1.00  0.00     0.029 A 
ATOM     47  C   UNL A   1      38.851  30.491  29.430  1.00  0.00     0.049 A 
ATOM     48  H   UNL A   1      40.918  30.357  29.202  1.00  0.00     0.167 HD
ATOM     49  C   UNL A   1      45.265  29.841  28.840  1.00  0.00     0.034 A 
ATOM     50  C   UNL A   1      38.584  31.689  29.989  1.00  0.00     0.034 A 
ATOM     51  C   UNL A   1      45.072  31.185  29.331  1.00  0.00     0.049 A 
ATOM     52  C   UNL A   1      39.729  32.615  30.305  1.00  0.00     0.074 A 
ATOM     53  C   UNL A   1      46.024  32.160  29.574  1.00  0.00     0.029 A 
ATOM     54  N   UNL A   1      43.844  31.740  29.674  1.00  0.00    -0.354 N 
ATOM     55  N   UNL A   1      41.017  32.423  30.137  1.00  0.00    -0.248 NA
ATOM     56  C   UNL A   1      39.382  33.923  30.873  1.00  0.00     0.031 C 
ATOM     57  C   UNL A   1      45.384  33.268  30.140  1.00  0.00     0.029 A 
ATOM     58  C   UNL A   1      44.020  33.025  30.166  1.00  0.00     0.049 A 
ATOM     59  H   UNL A   1      42.975  31.286  29.581  1.00  0.00     0.167 HD
ATOM     60  C   UNL A   1      41.635  33.597  30.560  1.00  0.00     0.074 A 
ATOM     61  C   UNL A   1      40.574  34.496  30.971  1.00  0.00     0.031 C 
ATOM     62  C   UNL A   1      42.957  33.906  30.600  1.00  0.00     0.034 A 
BRANCH  49  63
ATOM     63  C   UNL A   1      46.673  29.330  28.618  1.00  0.00     0.023 A 
ATOM     64  C   UNL A   1      47.184  29.114  27.325  1.00  0.00     0.031 A 
ATOM     65  C   UNL A   1      47.496  29.000  29.709  1.00  0.00     0.131 A 
ATOM     66  C   UNL A   1      48.429  28.490  27.157  1.00  0.00     0.055 A 
ATOM     67  C   UNL A   1      48.777  28.471  29.533  1.00  0.00     0.041 A 
ATOM     68  F   UNL A   1      47.062  29.162  30.968  1.00  0.00    -0.206 F 
ATOM     69  C   UNL A   1      49.242  28.192  28.251  1.00  0.00     0.022 A 
BRANCH  66  70
ATOM     70  S   UNL A   1      48.879  27.898  25.502  1.00  0.00     0.124 S 
ATOM     71  O   UNL A   1      47.723  28.321  24.714  1.00  0.00    -0.237 OA
ATOM     72  O   UNL A   1      50.126  28.608  25.241  1.00  0.00    -0.237 OA
ATOM     73  O   UNL A   1      49.007  26.452  25.677  1.00  0.00    -0.744 OA
ENDBRANCH  66  70
ENDBRANCH  49  63
BRANCH  50  74
ATOM     74  C   UNL A   1      37.176  32.066  30.303  1.00  0.00     0.023 A 
ATOM     75  C   UNL A   1      36.301  32.514  29.301  1.00  0.00     0.031 A 
ATOM     76  C   UNL A   1      36.688  31.988  31.620  1.00  0.00     0.131 A 
ATOM     77  C   UNL A   1      34.992  32.896  29.638  1.00  0.00     0.055 A 
ATOM     78  C   UNL A   1      35.371  32.318  31.940  1.00  0.00     0.041 A 
ATOM     79  F   UNL A   1      37.483  31.561  32.614  1.00  0.00    -0.206 F 
ATOM     80  C   UNL A   1      34.517  32.785  30.948  1.00  0.00     0.022 A 
BRANCH  77  81
ATOM     81  S   UNL A   1      33.931  33.604  28.348  1.00  0.00     0.124 S 
ATOM     82  O   UNL A   1      33.415  32.405  27.697  1.00  0.00    -0.237 OA
ATOM     83  O   UNL A   1      32.971  34.372  29.133  1.00  0.00    -0.237 OA
ATOM     84  O   UNL A   1      34.857  34.401  27.547  1.00  0.00    -0.744 OA
ENDBRANCH  77  81
ENDBRANCH  50  74
BRANCH  62  85
ATOM     85  C   UNL A   1      43.326  35.292  31.077  1.00  0.00     0.023 A 
ATOM     86  C   UNL A   1      43.490  36.366  30.184  1.00  0.00     0.031 A 
ATOM     87  C   UNL A   1      43.526  35.539  32.447  1.00  0.00     0.131 A 
ATOM     88  C   UNL A   1      43.900  37.619  30.664  1.00  0.00     0.055 A 
ATOM     89  C   UNL A   1      43.866  36.804  32.926  1.00  0.00     0.041 A 
ATOM     90  F   UNL A   1      43.391  34.551  33.347  1.00  0.00    -0.206 F 
ATOM     91  C   UNL A   1      44.069  37.851  32.031  1.00  0.00     0.022 A 
BRANCH  88  92
ATOM     92  S   UNL A   1      44.314  38.917  29.466  1.00  0.00     0.124 S 
ATOM     93  O   UNL A   1      43.119  38.950  28.630  1.00  0.00    -0.237 OA
ATOM     94  O   UNL A   1      44.526  40.079  30.324  1.00  0.00    -0.237 OA
ATOM     95  O   UNL A   1      45.517  38.406  28.809  1.00  0.00    -0.744 OA
ENDBRANCH  88  92
ENDBRANCH  62  85
ENDBRANCH  36  37
ENDBRANCH  28  31
ENDBRANCH  26  27
ENDBRANCH  25  26
ENDBRANCH   1  25
TORSDOF 18
ENDMDL
MODEL 2
REMARK VINA RESULT:     -10.9      1.191      2.283
REMARK SMILES O=C(/C=C/C(=O)Nc1ccc2[nH]ncc2c1)NCCCCCCNC(=O)c1ccc(-c2c3nc(c(-c4cc(S(=O)(=O)[O-])ccc4F)c4ccc([nH]4)c(-c4cc(S(=O)(=O)[O-])ccc4F)c4nc(c(-c5cc(S(=O)(=O)[O-])ccc5F)c5ccc2[nH]5)C=C4)C=C3)cc1
REMARK SMILES IDX 21 1 20 2 19 3 18 4 17 5 1 6 2 7 3 9 4 10 5 11 6 12 7 13
REMARK SMILES IDX 8 15 9 16 16 17 10 18 15 19 11 20 14 21 12 22 13 23 22 25
REMARK SMILES IDX 23 26 24 27 25 28 26 30 27 31 28 32 89 33 29 34 88 35 30 36
REMARK SMILES IDX 31 37 32 38 82 39 33 40 87 41 81 42 83 43 34 44 86 45 80 46
REMARK SMILES IDX 79 47 35 49 67 50 47 51 66 52 48 53 51 54 65 55 84 56 49 57
REMARK SMILES IDX 50 58 64 60 85 61 52 62 36 63 37 64 45 65 38 66 44 67 46 68
REMARK SMILES IDX 43 69 39 70 40 71 41 72 42 73 68 74 69 75 77 76 70 77 76 78
REMARK SMILES IDX 78 79 75 80 71 81 72 82 73 83 74 84 53 85 54 86 62 87 55 88
REMARK SMILES IDX 61 89 63 90 60 91 56 92 57 93 58 94 59 95
REMARK H PARENT 17 8 7 14 12 24 24 29 83 48 51 59
REMARK Flexibility Score: inf
ROOT
ATOM      1  C   UNL A   1      35.476  22.303  24.086  1.00  0.00     0.002 C 
ENDROOT
BRANCH   1   2
ATOM      2  C   UNL A   1      34.549  21.335  24.826  1.00  0.00     0.002 C 
BRANCH   2   3
ATOM      3  C   UNL A   1      33.152  21.184  24.208  1.00  0.00     0.021 C 
BRANCH   3   4
ATOM      4  C   UNL A   1      32.017  21.559  25.160  1.00  0.00     0.116 C 
BRANCH   4   5
ATOM      5  N   UNL A   1      32.303  22.826  25.801  1.00  0.00    -0.353 N 
ATOM      6  O   UNL A   1      30.165  23.171  26.558  1.00  0.00    -0.270 OA
ATOM      7  C   UNL A   1      31.311  23.567  26.371  1.00  0.00     0.244 C 
ATOM      8  H   UNL A   1      33.230  23.157  25.826  1.00  0.00     0.163 HD
BRANCH   7   9
ATOM      9  C   UNL A   1      31.656  24.960  26.712  1.00  0.00     0.077 C 
ATOM     10  C   UNL A   1      30.845  26.024  26.605  1.00  0.00     0.077 C 
BRANCH  10  11
ATOM     11  C   UNL A   1      31.374  27.396  26.816  1.00  0.00     0.248 C 
ATOM     12  O   UNL A   1      31.347  27.877  27.947  1.00  0.00    -0.270 OA
ATOM     13  N   UNL A   1      31.934  28.087  25.770  1.00  0.00    -0.322 N 
ATOM     14  H   UNL A   1      32.414  28.911  26.014  1.00  0.00     0.170 HD
BRANCH  13  15
ATOM     15  C   UNL A   1      31.916  27.779  24.396  1.00  0.00     0.042 A 
ATOM     16  C   UNL A   1      30.826  28.096  23.577  1.00  0.00     0.028 A 
ATOM     17  C   UNL A   1      32.992  27.036  23.892  1.00  0.00     0.038 A 
ATOM     18  C   UNL A   1      30.690  27.547  22.299  1.00  0.00     0.030 A 
ATOM     19  C   UNL A   1      32.854  26.449  22.622  1.00  0.00     0.022 A 
ATOM     20  C   UNL A   1      31.707  26.691  21.875  1.00  0.00     0.065 A 
ATOM     21  C   UNL A   1      33.607  25.557  21.825  1.00  0.00     0.143 A 
ATOM     22  N   UNL A   1      31.832  25.915  20.753  1.00  0.00    -0.278 N 
ATOM     23  N   UNL A   1      32.996  25.243  20.680  1.00  0.00    -0.183 NA
ATOM     24  H   UNL A   1      31.133  25.855  20.063  1.00  0.00     0.190 HD
ENDBRANCH  13  15
ENDBRANCH  10  11
ENDBRANCH   7   9
ENDBRANCH   4   5
ENDBRANCH   3   4
ENDBRANCH   2   3
ENDBRANCH   1   2
BRANCH   1  25
ATOM     25  C   UNL A   1      35.610  23.680  24.737  1.00  0.00     0.021 C 
BRANCH  25  26
ATOM     26  C   UNL A   1      36.446  23.694  26.012  1.00  0.00     0.116 C 
BRANCH  26  27
ATOM     27  N   UNL A   1      37.416  22.611  26.040  1.00  0.00    -0.352 N 
ATOM     28  C   UNL A   1      38.767  22.664  26.274  1.00  0.00     0.251 C 
ATOM     29  H   UNL A   1      37.052  21.713  25.866  1.00  0.00     0.163 HD
ATOM     30  O   UNL A   1      39.465  21.677  26.051  1.00  0.00    -0.269 OA
BRANCH  28  31
ATOM     31  C   UNL A   1      39.377  23.918  26.763  1.00  0.00     0.039 A 
ATOM     32  C   UNL A   1      39.921  24.813  25.839  1.00  0.00     0.014 A 
ATOM     33  C   UNL A   1      39.396  24.218  28.129  1.00  0.00     0.014 A 
ATOM     34  C   UNL A   1      40.424  26.039  26.280  1.00  0.00     0.010 A 
ATOM     35  C   UNL A   1      39.824  25.472  28.556  1.00  0.00     0.010 A 
ATOM     36  C   UNL A   1      40.342  26.397  27.637  1.00  0.00    -0.014 A 
BRANCH  36  37
ATOM     37  C   UNL A   1      40.784  27.737  28.104  1.00  0.00     0.031 A 
ATOM     38  C   UNL A   1      42.247  28.084  28.143  1.00  0.00     0.074 A 
ATOM     39  C   UNL A   1      39.869  28.619  28.552  1.00  0.00     0.049 A 
ATOM     40  N   UNL A   1      42.828  29.175  28.573  1.00  0.00    -0.248 NA
ATOM     41  C   UNL A   1      43.178  27.052  27.664  1.00  0.00     0.031 C 
ATOM     42  C   UNL A   1      38.425  28.379  28.608  1.00  0.00     0.029 A 
ATOM     43  N   UNL A   1      40.013  29.888  29.052  1.00  0.00    -0.354 N 
ATOM     44  C   UNL A   1      44.194  28.960  28.421  1.00  0.00     0.074 A 
ATOM     45  C   UNL A   1      44.350  27.606  27.933  1.00  0.00     0.031 C 
ATOM     46  C   UNL A   1      37.816  29.474  29.090  1.00  0.00     0.029 A 
ATOM     47  C   UNL A   1      38.826  30.473  29.426  1.00  0.00     0.049 A 
ATOM     48  H   UNL A   1      40.885  30.338  29.135  1.00  0.00     0.167 HD
ATOM     49  C   UNL A   1      45.219  29.821  28.642  1.00  0.00     0.034 A 
ATOM     50  C   UNL A   1      38.576  31.671  29.993  1.00  0.00     0.034 A 
ATOM     51  C   UNL A   1      45.041  31.166  29.139  1.00  0.00     0.049 A 
ATOM     52  C   UNL A   1      39.730  32.597  30.274  1.00  0.00     0.074 A 
ATOM     53  C   UNL A   1      46.000  32.141  29.353  1.00  0.00     0.029 A 
ATOM     54  N   UNL A   1      43.824  31.721  29.519  1.00  0.00    -0.354 N 
ATOM     55  N   UNL A   1      41.013  32.405  30.067  1.00  0.00    -0.248 NA
ATOM     56  C   UNL A   1      39.401  33.905  30.852  1.00  0.00     0.031 C 
ATOM     57  C   UNL A   1      45.378  33.249  29.939  1.00  0.00     0.029 A 
ATOM     58  C   UNL A   1      44.015  33.006  30.006  1.00  0.00     0.049 A 
ATOM     59  H   UNL A   1      42.952  31.267  29.452  1.00  0.00     0.167 HD
ATOM     60  C   UNL A   1      41.643  33.579  30.472  1.00  0.00     0.074 A 
ATOM     61  C   UNL A   1      40.595  34.477  30.915  1.00  0.00     0.031 C 
ATOM     62  C   UNL A   1      42.966  33.887  30.471  1.00  0.00     0.034 A 
BRANCH  49  63
ATOM     63  C   UNL A   1      46.619  29.310  28.378  1.00  0.00     0.023 A 
ATOM     64  C   UNL A   1      47.072  29.040  27.074  1.00  0.00     0.031 A 
ATOM     65  C   UNL A   1      47.495  29.035  29.443  1.00  0.00     0.131 A 
ATOM     66  C   UNL A   1      48.313  28.417  26.876  1.00  0.00     0.055 A 
ATOM     67  C   UNL A   1      48.771  28.508  29.232  1.00  0.00     0.041 A 
ATOM     68  F   UNL A   1      47.118  29.251  30.713  1.00  0.00    -0.206 F 
ATOM     69  C   UNL A   1      49.179  28.174  27.943  1.00  0.00     0.022 A 
BRANCH  66  70
ATOM     70  S   UNL A   1      48.691  27.755  25.229  1.00  0.00     0.124 S 
ATOM     71  O   UNL A   1      47.586  28.289  24.436  1.00  0.00    -0.237 OA
ATOM     72  O   UNL A   1      50.007  28.320  24.956  1.00  0.00    -0.237 OA
ATOM     73  O   UNL A   1      48.661  26.306  25.427  1.00  0.00    -0.744 OA
ENDBRANCH  66  70
ENDBRANCH  49  63
BRANCH  50  74
ATOM     74  C   UNL A   1      37.178  32.048  30.349  1.00  0.00     0.023 A 
ATOM     75  C   UNL A   1      36.305  32.595  29.396  1.00  0.00     0.031 A 
ATOM     76  C   UNL A   1      36.697  31.870  31.659  1.00  0.00     0.131 A 
ATOM     77  C   UNL A   1      35.007  32.973  29.774  1.00  0.00     0.055 A 
ATOM     78  C   UNL A   1      35.390  32.199  32.016  1.00  0.00     0.041 A 
ATOM     79  F   UNL A   1      37.490  31.346  32.608  1.00  0.00    -0.206 F 
ATOM     80  C   UNL A   1      34.539  32.763  31.074  1.00  0.00     0.022 A 
BRANCH  77  81
ATOM     81  S   UNL A   1      33.952  33.807  28.556  1.00  0.00     0.124 S 
ATOM     82  O   UNL A   1      34.911  34.665  27.870  1.00  0.00    -0.237 OA
ATOM     83  O   UNL A   1      33.431  32.683  27.786  1.00  0.00    -0.237 OA
ATOM     84  O   UNL A   1      32.967  34.504  29.380  1.00  0.00    -0.744 OA
ENDBRANCH  77  81
ENDBRANCH  50  74
BRANCH  62  85
ATOM     85  C   UNL A   1      43.349  35.273  30.938  1.00  0.00     0.023 A 
ATOM     86  C   UNL A   1      43.494  36.345  30.039  1.00  0.00     0.031 A 
ATOM     87  C   UNL A   1      43.581  35.522  32.302  1.00  0.00     0.131 A 
ATOM     88  C   UNL A   1      43.918  37.598  30.507  1.00  0.00     0.055 A 
ATOM     89  C   UNL A   1      43.936  36.787  32.771  1.00  0.00     0.041 A 
ATOM     90  F   UNL A   1      43.465  34.536  33.206  1.00  0.00    -0.206 F 
ATOM     91  C   UNL A   1      44.121  37.831  31.869  1.00  0.00     0.022 A 
BRANCH  88  92
ATOM     92  S   UNL A   1      44.308  38.893  29.298  1.00  0.00     0.124 S 
ATOM     93  O   UNL A   1      44.922  38.125  28.219  1.00  0.00    -0.237 OA
ATOM     94  O   UNL A   1      42.994  39.459  29.011  1.00  0.00    -0.237 OA
ATOM     95  O   UNL A   1      45.218  39.778  30.024  1.00  0.00    -0.744 OA
ENDBRANCH  88  92
ENDBRANCH  62  85
ENDBRANCH  36  37
ENDBRANCH  28  31
ENDBRANCH  26  27
ENDBRANCH  25  26
ENDBRANCH   1  25
TORSDOF 18
ENDMDL
MODEL 3
REMARK VINA RESULT:     -10.8      5.546      8.393
REMARK SMILES O=C(/C=C/C(=O)Nc1ccc2[nH]ncc2c1)NCCCCCCNC(=O)c1ccc(-c2c3nc(c(-c4cc(S(=O)(=O)[O-])ccc4F)c4ccc([nH]4)c(-c4cc(S(=O)(=O)[O-])ccc4F)c4nc(c(-c5cc(S(=O)(=O)[O-])ccc5F)c5ccc2[nH]5)C=C4)C=C3)cc1
REMARK SMILES IDX 21 1 20 2 19 3 18 4 17 5 1 6 2 7 3 9 4 10 5 11 6 12 7 13
REMARK SMILES IDX 8 15 9 16 16 17 10 18 15 19 11 20 14 21 12 22 13 23 22 25
REMARK SMILES IDX 23 26 24 27 25 28 26 30 27 31 28 32 89 33 29 34 88 35 30 36
REMARK SMILES IDX 31 37 32 38 82 39 33 40 87 41 81 42 83 43 34 44 86 45 80 46
REMARK SMILES IDX 79 47 35 49 67 50 47 51 66 52 48 53 51 54 65 55 84 56 49 57
REMARK SMILES IDX 50 58 64 60 85 61 52 62 36 63 37 64 45 65 38 66 44 67 46 68
REMARK SMILES IDX 43 69 39 70 40 71 41 72 42 73 68 74 69 75 77 76 70 77 76 78
REMARK SMILES IDX 78 79 75 80 71 81 72 82 73 83 74 84 53 85 54 86 62 87 55 88
REMARK SMILES IDX 61 89 63 90 60 91 56 92 57 93 58 94 59 95
REMARK H PARENT 17 8 7 14 12 24 24 29 83 48 51 59
REMARK Flexibility Score: inf
ROOT
ATOM      1  C   UNL A   1      31.987  29.693  27.261  1.00  0.00     0.002 C 
ENDROOT
BRANCH   1   2
ATOM      2  C   UNL A   1      31.819  28.633  26.168  1.00  0.00     0.002 C 
BRANCH   2   3
ATOM      3  C   UNL A   1      31.897  29.172  24.732  1.00  0.00     0.021 C 
BRANCH   3   4
ATOM      4  C   UNL A   1      32.081  28.082  23.677  1.00  0.00     0.116 C 
BRANCH   4   5
ATOM      5  N   UNL A   1      31.788  26.783  24.248  1.00  0.00    -0.353 N 
ATOM      6  O   UNL A   1      29.697  26.609  23.319  1.00  0.00    -0.270 OA
ATOM      7  C   UNL A   1      30.565  26.202  24.084  1.00  0.00     0.244 C 
ATOM      8  H   UNL A   1      32.483  26.312  24.762  1.00  0.00     0.163 HD
BRANCH   7   9
ATOM      9  C   UNL A   1      30.276  25.045  24.952  1.00  0.00     0.077 C 
ATOM     10  C   UNL A   1      30.827  24.800  26.151  1.00  0.00     0.077 C 
BRANCH  10  11
ATOM     11  C   UNL A   1      30.578  23.509  26.843  1.00  0.00     0.248 C 
ATOM     12  O   UNL A   1      29.522  23.354  27.451  1.00  0.00    -0.270 OA
ATOM     13  N   UNL A   1      31.494  22.491  26.750  1.00  0.00    -0.322 N 
ATOM     14  H   UNL A   1      31.191  21.616  27.085  1.00  0.00     0.170 HD
BRANCH  13  15
ATOM     15  C   UNL A   1      32.807  22.526  26.244  1.00  0.00     0.042 A 
ATOM     16  C   UNL A   1      33.914  22.782  27.062  1.00  0.00     0.028 A 
ATOM     17  C   UNL A   1      32.963  22.404  24.856  1.00  0.00     0.038 A 
ATOM     18  C   UNL A   1      35.165  23.093  26.522  1.00  0.00     0.030 A 
ATOM     19  C   UNL A   1      34.205  22.748  24.296  1.00  0.00     0.022 A 
ATOM     20  C   UNL A   1      35.258  23.108  25.130  1.00  0.00     0.065 A 
ATOM     21  C   UNL A   1      34.730  22.887  22.992  1.00  0.00     0.143 A 
ATOM     22  N   UNL A   1      36.278  23.471  24.292  1.00  0.00    -0.278 N 
ATOM     23  N   UNL A   1      35.996  23.311  22.985  1.00  0.00    -0.183 NA
ATOM     24  H   UNL A   1      37.140  23.818  24.616  1.00  0.00     0.190 HD
ENDBRANCH  13  15
ENDBRANCH  10  11
ENDBRANCH   7   9
ENDBRANCH   4   5
ENDBRANCH   3   4
ENDBRANCH   2   3
ENDBRANCH   1   2
BRANCH   1  25
ATOM     25  C   UNL A   1      31.972  31.136  26.756  1.00  0.00     0.021 C 
BRANCH  25  26
ATOM     26  C   UNL A   1      33.191  31.957  27.164  1.00  0.00     0.116 C 
BRANCH  26  27
ATOM     27  N   UNL A   1      32.843  33.337  27.463  1.00  0.00    -0.352 N 
ATOM     28  C   UNL A   1      33.309  34.150  28.465  1.00  0.00     0.251 C 
ATOM     29  H   UNL A   1      32.180  33.746  26.860  1.00  0.00     0.163 HD
ATOM     30  O   UNL A   1      32.750  35.220  28.694  1.00  0.00    -0.269 OA
BRANCH  28  31
ATOM     31  C   UNL A   1      34.462  33.717  29.283  1.00  0.00     0.039 A 
ATOM     32  C   UNL A   1      34.242  32.870  30.371  1.00  0.00     0.014 A 
ATOM     33  C   UNL A   1      35.760  34.132  28.966  1.00  0.00     0.014 A 
ATOM     34  C   UNL A   1      35.330  32.386  31.100  1.00  0.00     0.010 A 
ATOM     35  C   UNL A   1      36.846  33.585  29.643  1.00  0.00     0.010 A 
ATOM     36  C   UNL A   1      36.643  32.706  30.717  1.00  0.00    -0.014 A 
BRANCH  36  37
ATOM     37  C   UNL A   1      37.813  32.119  31.424  1.00  0.00     0.031 A 
ATOM     38  C   UNL A   1      38.603  31.007  30.792  1.00  0.00     0.074 A 
ATOM     39  C   UNL A   1      38.123  32.549  32.663  1.00  0.00     0.049 A 
ATOM     40  N   UNL A   1      39.614  30.331  31.275  1.00  0.00    -0.248 NA
ATOM     41  C   UNL A   1      38.177  30.580  29.451  1.00  0.00     0.031 C 
ATOM     42  C   UNL A   1      37.401  33.589  33.400  1.00  0.00     0.029 A 
ATOM     43  N   UNL A   1      39.118  32.162  33.525  1.00  0.00    -0.354 N 
ATOM     44  C   UNL A   1      39.942  29.394  30.301  1.00  0.00     0.074 A 
ATOM     45  C   UNL A   1      38.972  29.543  29.237  1.00  0.00     0.031 C 
ATOM     46  C   UNL A   1      37.992  33.774  34.590  1.00  0.00     0.029 A 
ATOM     47  C   UNL A   1      39.100  32.833  34.725  1.00  0.00     0.049 A 
ATOM     48  H   UNL A   1      39.782  31.469  33.305  1.00  0.00     0.167 HD
ATOM     49  C   UNL A   1      40.973  28.512  30.284  1.00  0.00     0.034 A 
ATOM     50  C   UNL A   1      39.874  32.697  35.821  1.00  0.00     0.034 A 
ATOM     51  C   UNL A   1      41.925  28.373  31.362  1.00  0.00     0.049 A 
ATOM     52  C   UNL A   1      40.986  31.680  35.803  1.00  0.00     0.074 A 
ATOM     53  C   UNL A   1      43.035  27.550  31.432  1.00  0.00     0.029 A 
ATOM     54  N   UNL A   1      41.868  29.061  32.569  1.00  0.00    -0.354 N 
ATOM     55  N   UNL A   1      41.325  30.843  34.849  1.00  0.00    -0.248 NA
ATOM     56  C   UNL A   1      41.827  31.600  37.003  1.00  0.00     0.031 C 
ATOM     57  C   UNL A   1      43.598  27.677  32.706  1.00  0.00     0.029 A 
ATOM     58  C   UNL A   1      42.897  28.648  33.404  1.00  0.00     0.049 A 
ATOM     59  H   UNL A   1      41.195  29.743  32.798  1.00  0.00     0.167 HD
ATOM     60  C   UNL A   1      42.434  30.150  35.327  1.00  0.00     0.074 A 
ATOM     61  C   UNL A   1      42.715  30.683  36.646  1.00  0.00     0.031 C 
ATOM     62  C   UNL A   1      43.156  29.167  34.729  1.00  0.00     0.034 A 
BRANCH  49  63
ATOM     63  C   UNL A   1      41.092  27.611  29.073  1.00  0.00     0.023 A 
ATOM     64  C   UNL A   1      42.084  27.815  28.097  1.00  0.00     0.031 A 
ATOM     65  C   UNL A   1      40.169  26.572  28.859  1.00  0.00     0.131 A 
ATOM     66  C   UNL A   1      42.066  27.067  26.910  1.00  0.00     0.055 A 
ATOM     67  C   UNL A   1      40.219  25.764  27.721  1.00  0.00     0.041 A 
ATOM     68  F   UNL A   1      39.186  26.337  29.742  1.00  0.00    -0.206 F 
ATOM     69  C   UNL A   1      41.158  26.023  26.727  1.00  0.00     0.022 A 
BRANCH  66  70
ATOM     70  S   UNL A   1      43.120  27.608  25.535  1.00  0.00     0.124 S 
ATOM     71  O   UNL A   1      44.070  28.483  26.219  1.00  0.00    -0.237 OA
ATOM     72  O   UNL A   1      43.657  26.348  25.035  1.00  0.00    -0.237 OA
ATOM     73  O   UNL A   1      42.189  28.292  24.639  1.00  0.00    -0.744 OA
ENDBRANCH  66  70
ENDBRANCH  49  63
BRANCH  50  74
ATOM     74  C   UNL A   1      39.609  33.529  37.028  1.00  0.00     0.023 A 
ATOM     75  C   UNL A   1      38.869  33.028  38.111  1.00  0.00     0.031 A 
ATOM     76  C   UNL A   1      40.091  34.848  37.113  1.00  0.00     0.131 A 
ATOM     77  C   UNL A   1      38.606  33.852  39.218  1.00  0.00     0.055 A 
ATOM     78  C   UNL A   1      39.872  35.644  38.237  1.00  0.00     0.041 A 
ATOM     79  F   UNL A   1      40.808  35.374  36.106  1.00  0.00    -0.206 F 
ATOM     80  C   UNL A   1      39.117  35.151  39.294  1.00  0.00     0.022 A 
BRANCH  77  81
ATOM     81  S   UNL A   1      37.529  33.225  40.536  1.00  0.00     0.124 S 
ATOM     82  O   UNL A   1      36.351  32.808  39.783  1.00  0.00    -0.237 OA
ATOM     83  O   UNL A   1      38.339  32.153  41.105  1.00  0.00    -0.237 OA
ATOM     84  O   UNL A   1      37.340  34.386  41.401  1.00  0.00    -0.744 OA
ENDBRANCH  77  81
ENDBRANCH  50  74
BRANCH  62  85
ATOM     85  C   UNL A   1      44.345  28.628  35.490  1.00  0.00     0.023 A 
ATOM     86  C   UNL A   1      44.211  27.613  36.455  1.00  0.00     0.031 A 
ATOM     87  C   UNL A   1      45.631  29.145  35.252  1.00  0.00     0.131 A 
ATOM     88  C   UNL A   1      45.332  27.191  37.186  1.00  0.00     0.055 A 
ATOM     89  C   UNL A   1      46.753  28.672  35.933  1.00  0.00     0.041 A 
ATOM     90  F   UNL A   1      45.820  30.120  34.348  1.00  0.00    -0.206 F 
ATOM     91  C   UNL A   1      46.605  27.699  36.918  1.00  0.00     0.022 A 
BRANCH  88  92
ATOM     92  S   UNL A   1      45.087  26.044  38.570  1.00  0.00     0.124 S 
ATOM     93  O   UNL A   1      43.846  26.538  39.156  1.00  0.00    -0.237 OA
ATOM     94  O   UNL A   1      45.005  24.752  37.896  1.00  0.00    -0.237 OA
ATOM     95  O   UNL A   1      46.281  26.239  39.392  1.00  0.00    -0.744 OA
ENDBRANCH  88  92
ENDBRANCH  62  85
ENDBRANCH  36  37
ENDBRANCH  28  31
ENDBRANCH  26  27
ENDBRANCH  25  26
ENDBRANCH   1  25
TORSDOF 18
ENDMDL
