MODEL 1
REMARK VINA RESULT:     -12.3      0.000      0.000
REMARK SMILES O=C(NCCCCCCNC(=O)[C@H]1CC2(CCN(S(=O)(=O)N3CCOCC3)CC2)C[NH2+]1)c1ccc(-c2c3nc(c(-c4cc(S(=O)(=O)[O-])ccc4F)c4ccc([nH]4)c(-c4cc(S(=O)(=O)[O-])ccc4F)c4nc(c(-c5cc(S(=O)(=O)[O-])ccc5F)c5ccc2[nH]5)C=C4)C=C3)cc1
REMARK SMILES IDX 6 1 5 2 4 3 3 4 1 5 2 6 32 8 33 9 94 10 34 11 93 12 35 13
REMARK SMILES IDX 36 14 37 15 87 16 38 17 92 18 86 19 88 20 39 21 91 22 85 23
REMARK SMILES IDX 84 24 40 26 72 27 52 28 71 29 53 30 56 31 70 32 89 33 54 34
REMARK SMILES IDX 55 35 69 37 90 38 57 39 41 40 42 41 50 42 43 43 49 44 51 45
REMARK SMILES IDX 48 46 44 47 45 48 46 49 47 50 73 51 74 52 82 53 75 54 81 55
REMARK SMILES IDX 83 56 80 57 76 58 77 59 78 60 79 61 58 62 59 63 67 64 60 65
REMARK SMILES IDX 66 66 68 67 65 68 61 69 62 70 63 71 64 72 7 73 8 74 9 75
REMARK SMILES IDX 10 76 11 77 12 79 13 80 14 81 31 82 15 83 30 84 16 87 29 88
REMARK SMILES IDX 17 89 28 90 18 91 19 92 20 93 21 94 22 95 23 96 27 97 24 98
REMARK SMILES IDX 26 99 25 100
REMARK H PARENT 3 7 88 25 56 36 10 78 31 85 31 86
REMARK Flexibility Score: inf
ROOT
ATOM      1  C   UNL A   1      37.245  21.002  24.619  1.00  0.00     0.002 C 
ENDROOT
BRANCH   1   2
ATOM      2  C   UNL A   1      38.157  19.888  25.133  1.00  0.00     0.021 C 
BRANCH   2   3
ATOM      3  C   UNL A   1      39.346  20.393  25.933  1.00  0.00     0.116 C 
BRANCH   3   4
ATOM      4  N   UNL A   1      40.401  19.397  25.999  1.00  0.00    -0.352 N 
ATOM      5  O   UNL A   1      42.535  18.674  25.887  1.00  0.00    -0.269 OA
ATOM      6  C   UNL A   1      41.755  19.599  26.078  1.00  0.00     0.251 C 
ATOM      7  H   UNL A   1      40.108  18.458  25.984  1.00  0.00     0.163 HD
BRANCH   6   8
ATOM      8  C   UNL A   1      42.250  20.954  26.390  1.00  0.00     0.039 A 
ATOM      9  C   UNL A   1      42.500  21.319  27.717  1.00  0.00     0.014 A 
ATOM     10  C   UNL A   1      42.453  21.863  25.352  1.00  0.00     0.014 A 
ATOM     11  C   UNL A   1      42.838  22.630  28.018  1.00  0.00     0.010 A 
ATOM     12  C   UNL A   1      42.888  23.155  25.651  1.00  0.00     0.010 A 
ATOM     13  C   UNL A   1      43.071  23.551  26.986  1.00  0.00    -0.014 A 
BRANCH  13  14
ATOM     14  C   UNL A   1      43.589  24.901  27.317  1.00  0.00     0.031 A 
ATOM     15  C   UNL A   1      42.695  25.948  27.911  1.00  0.00     0.074 A 
ATOM     16  C   UNL A   1      44.879  25.176  27.047  1.00  0.00     0.049 A 
ATOM     17  N   UNL A   1      42.962  27.198  28.189  1.00  0.00    -0.248 NA
ATOM     18  C   UNL A   1      41.318  25.541  28.220  1.00  0.00     0.031 C 
ATOM     19  C   UNL A   1      45.835  24.228  26.464  1.00  0.00     0.029 A 
ATOM     20  N   UNL A   1      45.611  26.322  27.216  1.00  0.00    -0.354 N 
ATOM     21  C   UNL A   1      41.783  27.738  28.687  1.00  0.00     0.074 A 
ATOM     22  C   UNL A   1      40.790  26.683  28.636  1.00  0.00     0.031 C 
ATOM     23  C   UNL A   1      47.026  24.826  26.341  1.00  0.00     0.029 A 
ATOM     24  C   UNL A   1      46.901  26.219  26.751  1.00  0.00     0.049 A 
ATOM     25  H   UNL A   1      45.249  27.139  27.630  1.00  0.00     0.167 HD
ATOM     26  C   UNL A   1      41.558  28.995  29.147  1.00  0.00     0.034 A 
ATOM     27  C   UNL A   1      47.864  27.151  26.618  1.00  0.00     0.034 A 
ATOM     28  C   UNL A   1      42.568  30.029  29.168  1.00  0.00     0.049 A 
ATOM     29  C   UNL A   1      47.574  28.555  27.067  1.00  0.00     0.074 A 
ATOM     30  C   UNL A   1      42.467  31.323  29.649  1.00  0.00     0.029 A 
ATOM     31  N   UNL A   1      43.857  29.897  28.663  1.00  0.00    -0.354 N 
ATOM     32  N   UNL A   1      46.465  29.046  27.569  1.00  0.00    -0.248 NA
ATOM     33  C   UNL A   1      48.663  29.529  26.937  1.00  0.00     0.031 C 
ATOM     34  C   UNL A   1      43.655  31.997  29.349  1.00  0.00     0.029 A 
ATOM     35  C   UNL A   1      44.541  31.099  28.775  1.00  0.00     0.049 A 
ATOM     36  H   UNL A   1      44.230  29.071  28.279  1.00  0.00     0.167 HD
ATOM     37  C   UNL A   1      46.731  30.385  27.838  1.00  0.00     0.074 A 
ATOM     38  C   UNL A   1      48.107  30.619  27.451  1.00  0.00     0.031 C 
ATOM     39  C   UNL A   1      45.911  31.328  28.369  1.00  0.00     0.034 A 
BRANCH  26  40
ATOM     40  C   UNL A   1      40.154  29.330  29.600  1.00  0.00     0.023 A 
ATOM     41  C   UNL A   1      39.829  29.482  30.959  1.00  0.00     0.031 A 
ATOM     42  C   UNL A   1      39.113  29.450  28.661  1.00  0.00     0.131 A 
ATOM     43  C   UNL A   1      38.489  29.643  31.346  1.00  0.00     0.055 A 
ATOM     44  C   UNL A   1      37.796  29.709  29.046  1.00  0.00     0.041 A 
ATOM     45  F   UNL A   1      39.352  29.294  27.349  1.00  0.00    -0.206 F 
ATOM     46  C   UNL A   1      37.474  29.786  30.398  1.00  0.00     0.022 A 
BRANCH  43  47
ATOM     47  S   UNL A   1      38.073  29.468  33.104  1.00  0.00     0.124 S 
ATOM     48  O   UNL A   1      39.390  29.251  33.700  1.00  0.00    -0.237 OA
ATOM     49  O   UNL A   1      37.439  30.746  33.407  1.00  0.00    -0.237 OA
ATOM     50  O   UNL A   1      37.188  28.306  33.133  1.00  0.00    -0.744 OA
ENDBRANCH  43  47
ENDBRANCH  26  40
BRANCH  27  51
ATOM     51  C   UNL A   1      49.157  26.782  25.978  1.00  0.00     0.023 A 
ATOM     52  C   UNL A   1      49.522  27.285  24.722  1.00  0.00     0.031 A 
ATOM     53  C   UNL A   1      50.061  25.924  26.636  1.00  0.00     0.131 A 
ATOM     54  C   UNL A   1      50.746  26.905  24.148  1.00  0.00     0.055 A 
ATOM     55  C   UNL A   1      51.300  25.597  26.088  1.00  0.00     0.041 A 
ATOM     56  F   UNL A   1      49.762  25.421  27.844  1.00  0.00    -0.206 F 
ATOM     57  C   UNL A   1      51.645  26.081  24.831  1.00  0.00     0.022 A 
BRANCH  54  58
ATOM     58  S   UNL A   1      51.122  27.454  22.462  1.00  0.00     0.124 S 
ATOM     59  O   UNL A   1      50.310  28.661  22.356  1.00  0.00    -0.237 OA
ATOM     60  O   UNL A   1      52.565  27.653  22.522  1.00  0.00    -0.237 OA
ATOM     61  O   UNL A   1      50.684  26.331  21.635  1.00  0.00    -0.744 OA
ENDBRANCH  54  58
ENDBRANCH  27  51
BRANCH  39  62
ATOM     62  C   UNL A   1      46.500  32.696  28.611  1.00  0.00     0.023 A 
ATOM     63  C   UNL A   1      46.415  33.727  27.659  1.00  0.00     0.031 A 
ATOM     64  C   UNL A   1      47.145  32.975  29.830  1.00  0.00     0.131 A 
ATOM     65  C   UNL A   1      46.998  34.976  27.927  1.00  0.00     0.055 A 
ATOM     66  C   UNL A   1      47.666  34.236  30.117  1.00  0.00     0.041 A 
ATOM     67  F   UNL A   1      47.265  32.025  30.772  1.00  0.00    -0.206 F 
ATOM     68  C   UNL A   1      47.602  35.243  29.159  1.00  0.00     0.022 A 
BRANCH  65  69
ATOM     69  S   UNL A   1      47.028  36.227  26.616  1.00  0.00     0.124 S 
ATOM     70  O   UNL A   1      46.286  35.565  25.548  1.00  0.00    -0.237 OA
ATOM     71  O   UNL A   1      46.361  37.360  27.248  1.00  0.00    -0.237 OA
ATOM     72  O   UNL A   1      48.454  36.416  26.354  1.00  0.00    -0.744 OA
ENDBRANCH  65  69
ENDBRANCH  39  62
ENDBRANCH  13  14
ENDBRANCH   6   8
ENDBRANCH   3   4
ENDBRANCH   2   3
ENDBRANCH   1   2
BRANCH   1  73
ATOM     73  C   UNL A   1      35.980  21.221  25.457  1.00  0.00     0.002 C 
BRANCH  73  74
ATOM     74  C   UNL A   1      34.764  20.421  24.983  1.00  0.00     0.021 C 
BRANCH  74  75
ATOM     75  C   UNL A   1      33.742  21.270  24.246  1.00  0.00     0.116 C 
BRANCH  75  76
ATOM     76  N   UNL A   1      32.447  21.153  24.879  1.00  0.00    -0.351 N 
ATOM     77  C   UNL A   1      31.646  22.149  25.347  1.00  0.00     0.278 C 
ATOM     78  H   UNL A   1      32.100  20.238  24.984  1.00  0.00     0.163 HD
ATOM     79  O   UNL A   1      30.626  21.848  25.967  1.00  0.00    -0.268 OA
BRANCH  77  80
ATOM     80  C   UNL A   1      32.066  23.582  25.043  1.00  0.00     0.273 C 
ATOM     81  C   UNL A   1      30.930  24.379  24.465  1.00  0.00     0.088 C 
ATOM     82  N   UNL A   1      32.392  24.326  26.268  1.00  0.00    -0.336 N 
ATOM     83  C   UNL A   1      31.378  25.831  24.707  1.00  0.00     0.028 C 
ATOM     84  C   UNL A   1      32.390  25.732  25.870  1.00  0.00     0.268 C 
ATOM     85  H   UNL A   1      33.310  24.054  26.619  1.00  0.00     0.346 HD
ATOM     86  H   UNL A   1      31.727  24.139  27.018  1.00  0.00     0.346 HD
ATOM     87  C   UNL A   1      30.134  26.633  25.103  1.00  0.00     0.030 C 
ATOM     88  C   UNL A   1      32.081  26.416  23.445  1.00  0.00     0.030 C 
ATOM     89  C   UNL A   1      29.289  26.848  23.865  1.00  0.00     0.104 C 
ATOM     90  C   UNL A   1      31.131  26.855  22.323  1.00  0.00     0.104 C 
ATOM     91  N   UNL A   1      30.000  27.664  22.868  1.00  0.00    -0.189 NA
BRANCH  91  92
ATOM     92  S   UNL A   1      30.406  29.283  23.184  1.00  0.00     0.282 S 
ATOM     93  O   UNL A   1      30.807  29.408  24.568  1.00  0.00    -0.195 OA
ATOM     94  O   UNL A   1      31.299  29.692  22.127  1.00  0.00    -0.195 OA
BRANCH  92  95
ATOM     95  N   UNL A   1      28.979  30.098  22.989  1.00  0.00    -0.184 NA
ATOM     96  C   UNL A   1      28.698  31.328  23.737  1.00  0.00     0.132 C 
ATOM     97  C   UNL A   1      28.065  29.884  21.854  1.00  0.00     0.132 C 
ATOM     98  C   UNL A   1      28.766  32.512  22.780  1.00  0.00     0.177 C 
ATOM     99  C   UNL A   1      27.926  31.139  20.978  1.00  0.00     0.177 C 
ATOM    100  O   UNL A   1      27.817  32.371  21.707  1.00  0.00    -0.379 OA
ENDBRANCH  92  95
ENDBRANCH  91  92
ENDBRANCH  77  80
ENDBRANCH  75  76
ENDBRANCH  74  75
ENDBRANCH  73  74
ENDBRANCH   1  73
TORSDOF 18
ENDMDL
MODEL 2
REMARK VINA RESULT:     -12.3      1.418      7.431
REMARK SMILES O=C(NCCCCCCNC(=O)[C@H]1CC2(CCN(S(=O)(=O)N3CCOCC3)CC2)C[NH2+]1)c1ccc(-c2c3nc(c(-c4cc(S(=O)(=O)[O-])ccc4F)c4ccc([nH]4)c(-c4cc(S(=O)(=O)[O-])ccc4F)c4nc(c(-c5cc(S(=O)(=O)[O-])ccc5F)c5ccc2[nH]5)C=C4)C=C3)cc1
REMARK SMILES IDX 6 1 5 2 4 3 3 4 1 5 2 6 32 8 33 9 94 10 34 11 93 12 35 13
REMARK SMILES IDX 36 14 37 15 87 16 38 17 92 18 86 19 88 20 39 21 91 22 85 23
REMARK SMILES IDX 84 24 40 26 72 27 52 28 71 29 53 30 56 31 70 32 89 33 54 34
REMARK SMILES IDX 55 35 69 37 90 38 57 39 41 40 42 41 50 42 43 43 49 44 51 45
REMARK SMILES IDX 48 46 44 47 45 48 46 49 47 50 73 51 74 52 82 53 75 54 81 55
REMARK SMILES IDX 83 56 80 57 76 58 77 59 78 60 79 61 58 62 59 63 67 64 60 65
REMARK SMILES IDX 66 66 68 67 65 68 61 69 62 70 63 71 64 72 7 73 8 74 9 75
REMARK SMILES IDX 10 76 11 77 12 79 13 80 14 81 31 82 15 83 30 84 16 87 29 88
REMARK SMILES IDX 17 89 28 90 18 91 19 92 20 93 21 94 22 95 23 96 27 97 24 98
REMARK SMILES IDX 26 99 25 100
REMARK H PARENT 3 7 88 25 56 36 10 78 31 85 31 86
REMARK Flexibility Score: inf
ROOT
ATOM      1  C   UNL A   1      37.117  21.053  24.612  1.00  0.00     0.002 C 
ENDROOT
BRANCH   1   2
ATOM      2  C   UNL A   1      38.125  19.999  25.071  1.00  0.00     0.021 C 
BRANCH   2   3
ATOM      3  C   UNL A   1      39.216  20.549  25.974  1.00  0.00     0.116 C 
BRANCH   3   4
ATOM      4  N   UNL A   1      40.300  19.597  26.136  1.00  0.00    -0.352 N 
ATOM      5  O   UNL A   1      42.458  18.940  26.131  1.00  0.00    -0.269 OA
ATOM      6  C   UNL A   1      41.644  19.849  26.237  1.00  0.00     0.251 C 
ATOM      7  H   UNL A   1      40.038  18.649  26.178  1.00  0.00     0.163 HD
BRANCH   6   8
ATOM      8  C   UNL A   1      42.087  21.238  26.468  1.00  0.00     0.039 A 
ATOM      9  C   UNL A   1      42.255  22.107  25.385  1.00  0.00     0.014 A 
ATOM     10  C   UNL A   1      42.346  21.665  27.770  1.00  0.00     0.014 A 
ATOM     11  C   UNL A   1      42.796  23.368  25.592  1.00  0.00     0.010 A 
ATOM     12  C   UNL A   1      42.800  22.968  27.984  1.00  0.00     0.010 A 
ATOM     13  C   UNL A   1      43.039  23.823  26.896  1.00  0.00    -0.014 A 
BRANCH  13  14
ATOM     14  C   UNL A   1      43.464  25.227  27.110  1.00  0.00     0.031 A 
ATOM     15  C   UNL A   1      44.876  25.658  26.847  1.00  0.00     0.074 A 
ATOM     16  C   UNL A   1      42.556  26.108  27.573  1.00  0.00     0.049 A 
ATOM     17  N   UNL A   1      45.434  26.823  27.052  1.00  0.00    -0.248 NA
ATOM     18  C   UNL A   1      45.781  24.643  26.293  1.00  0.00     0.031 C 
ATOM     19  C   UNL A   1      41.155  25.791  27.868  1.00  0.00     0.029 A 
ATOM     20  N   UNL A   1      42.667  27.437  27.886  1.00  0.00    -0.354 N 
ATOM     21  C   UNL A   1      46.764  26.680  26.673  1.00  0.00     0.074 A 
ATOM     22  C   UNL A   1      46.931  25.301  26.261  1.00  0.00     0.031 C 
ATOM     23  C   UNL A   1      40.536  26.897  28.300  1.00  0.00     0.029 A 
ATOM     24  C   UNL A   1      41.511  27.976  28.398  1.00  0.00     0.049 A 
ATOM     25  H   UNL A   1      43.494  27.956  27.756  1.00  0.00     0.167 HD
ATOM     26  C   UNL A   1      47.745  27.617  26.668  1.00  0.00     0.034 A 
ATOM     27  C   UNL A   1      41.268  29.186  28.936  1.00  0.00     0.034 A 
ATOM     28  C   UNL A   1      47.547  28.982  27.103  1.00  0.00     0.049 A 
ATOM     29  C   UNL A   1      42.386  30.189  28.987  1.00  0.00     0.074 A 
ATOM     30  C   UNL A   1      48.455  30.027  27.103  1.00  0.00     0.029 A 
ATOM     31  N   UNL A   1      46.368  29.485  27.643  1.00  0.00    -0.354 N 
ATOM     32  N   UNL A   1      43.631  30.053  28.594  1.00  0.00    -0.248 NA
ATOM     33  C   UNL A   1      42.068  31.507  29.549  1.00  0.00     0.031 C 
ATOM     34  C   UNL A   1      47.858  31.127  27.726  1.00  0.00     0.029 A 
ATOM     35  C   UNL A   1      46.542  30.808  28.023  1.00  0.00     0.049 A 
ATOM     36  H   UNL A   1      45.532  28.976  27.742  1.00  0.00     0.167 HD
ATOM     37  C   UNL A   1      44.241  31.280  28.839  1.00  0.00     0.074 A 
ATOM     38  C   UNL A   1      43.224  32.142  29.405  1.00  0.00     0.031 C 
ATOM     39  C   UNL A   1      45.524  31.657  28.604  1.00  0.00     0.034 A 
BRANCH  26  40
ATOM     40  C   UNL A   1      49.127  27.176  26.239  1.00  0.00     0.023 A 
ATOM     41  C   UNL A   1      50.148  26.921  27.171  1.00  0.00     0.031 A 
ATOM     42  C   UNL A   1      49.443  27.055  24.874  1.00  0.00     0.131 A 
ATOM     43  C   UNL A   1      51.455  26.661  26.727  1.00  0.00     0.055 A 
ATOM     44  C   UNL A   1      50.721  26.698  24.440  1.00  0.00     0.041 A 
ATOM     45  F   UNL A   1      48.520  27.305  23.932  1.00  0.00    -0.206 F 
ATOM     46  C   UNL A   1      51.742  26.520  25.368  1.00  0.00     0.022 A 
BRANCH  43  47
ATOM     47  S   UNL A   1      52.802  26.703  27.942  1.00  0.00     0.124 S 
ATOM     48  O   UNL A   1      53.823  25.891  27.281  1.00  0.00    -0.237 OA
ATOM     49  O   UNL A   1      53.091  28.128  28.046  1.00  0.00    -0.237 OA
ATOM     50  O   UNL A   1      52.210  26.094  29.132  1.00  0.00    -0.744 OA
ENDBRANCH  43  47
ENDBRANCH  26  40
BRANCH  27  51
ATOM     51  C   UNL A   1      39.927  29.475  29.518  1.00  0.00     0.023 A 
ATOM     52  C   UNL A   1      39.713  29.466  30.903  1.00  0.00     0.031 A 
ATOM     53  C   UNL A   1      38.837  29.783  28.681  1.00  0.00     0.131 A 
ATOM     54  C   UNL A   1      38.431  29.734  31.410  1.00  0.00     0.055 A 
ATOM     55  C   UNL A   1      37.581  30.105  29.193  1.00  0.00     0.041 A 
ATOM     56  F   UNL A   1      38.991  29.811  27.348  1.00  0.00    -0.206 F 
ATOM     57  C   UNL A   1      37.370  30.072  30.567  1.00  0.00     0.022 A 
BRANCH  54  58
ATOM     58  S   UNL A   1      38.153  29.571  33.195  1.00  0.00     0.124 S 
ATOM     59  O   UNL A   1      37.089  28.574  33.237  1.00  0.00    -0.237 OA
ATOM     60  O   UNL A   1      39.462  29.134  33.667  1.00  0.00    -0.237 OA
ATOM     61  O   UNL A   1      37.764  30.919  33.602  1.00  0.00    -0.744 OA
ENDBRANCH  54  58
ENDBRANCH  27  51
BRANCH  39  62
ATOM     62  C   UNL A   1      45.890  33.088  28.914  1.00  0.00     0.023 A 
ATOM     63  C   UNL A   1      45.695  34.127  27.987  1.00  0.00     0.031 A 
ATOM     64  C   UNL A   1      46.427  33.417  30.172  1.00  0.00     0.131 A 
ATOM     65  C   UNL A   1      46.071  35.438  28.318  1.00  0.00     0.055 A 
ATOM     66  C   UNL A   1      46.740  34.732  30.518  1.00  0.00     0.041 A 
ATOM     67  F   UNL A   1      46.645  32.464  31.092  1.00  0.00    -0.206 F 
ATOM     68  C   UNL A   1      46.570  35.750  29.586  1.00  0.00     0.022 A 
BRANCH  65  69
ATOM     69  S   UNL A   1      45.975  36.725  27.044  1.00  0.00     0.124 S 
ATOM     70  O   UNL A   1      46.792  37.786  27.623  1.00  0.00    -0.237 OA
ATOM     71  O   UNL A   1      46.536  36.053  25.877  1.00  0.00    -0.237 OA
ATOM     72  O   UNL A   1      44.545  37.019  26.960  1.00  0.00    -0.744 OA
ENDBRANCH  65  69
ENDBRANCH  39  62
ENDBRANCH  13  14
ENDBRANCH   6   8
ENDBRANCH   3   4
ENDBRANCH   2   3
ENDBRANCH   1   2
BRANCH   1  73
ATOM     73  C   UNL A   1      35.852  21.136  25.473  1.00  0.00     0.002 C 
BRANCH  73  74
ATOM     74  C   UNL A   1      34.657  20.361  24.912  1.00  0.00     0.021 C 
BRANCH  74  75
ATOM     75  C   UNL A   1      33.652  21.249  24.198  1.00  0.00     0.116 C 
BRANCH  75  76
ATOM     76  N   UNL A   1      32.362  21.166  24.847  1.00  0.00    -0.351 N 
ATOM     77  C   UNL A   1      31.578  22.184  25.295  1.00  0.00     0.278 C 
ATOM     78  H   UNL A   1      32.006  20.258  24.981  1.00  0.00     0.163 HD
ATOM     79  O   UNL A   1      30.561  21.912  25.933  1.00  0.00    -0.268 OA
BRANCH  77  80
ATOM     80  C   UNL A   1      32.011  23.602  24.946  1.00  0.00     0.273 C 
ATOM     81  C   UNL A   1      30.866  24.412  24.403  1.00  0.00     0.088 C 
ATOM     82  N   UNL A   1      32.405  24.361  26.142  1.00  0.00    -0.336 N 
ATOM     83  C   UNL A   1      31.353  25.858  24.598  1.00  0.00     0.028 C 
ATOM     84  C   UNL A   1      32.412  25.760  25.717  1.00  0.00     0.268 C 
ATOM     85  H   UNL A   1      33.332  24.077  26.458  1.00  0.00     0.346 HD
ATOM     86  H   UNL A   1      31.769  24.201  26.923  1.00  0.00     0.346 HD
ATOM     87  C   UNL A   1      30.143  26.692  25.032  1.00  0.00     0.030 C 
ATOM     88  C   UNL A   1      32.010  26.406  23.296  1.00  0.00     0.030 C 
ATOM     89  C   UNL A   1      29.248  26.901  23.829  1.00  0.00     0.104 C 
ATOM     90  C   UNL A   1      31.021  26.844  22.208  1.00  0.00     0.104 C 
ATOM     91  N   UNL A   1      29.931  27.685  22.786  1.00  0.00    -0.189 NA
BRANCH  91  92
ATOM     92  S   UNL A   1      30.381  29.301  23.054  1.00  0.00     0.282 S 
ATOM     93  O   UNL A   1      30.815  29.449  24.426  1.00  0.00    -0.195 OA
ATOM     94  O   UNL A   1      31.260  29.664  21.969  1.00  0.00    -0.195 OA
BRANCH  92  95
ATOM     95  N   UNL A   1      28.968  30.145  22.870  1.00  0.00    -0.184 NA
ATOM     96  C   UNL A   1      28.624  31.254  23.766  1.00  0.00     0.132 C 
ATOM     97  C   UNL A   1      28.147  30.104  21.648  1.00  0.00     0.132 C 
ATOM     98  C   UNL A   1      28.760  32.564  23.001  1.00  0.00     0.177 C 
ATOM     99  C   UNL A   1      28.070  31.475  20.957  1.00  0.00     0.177 C 
ATOM    100  O   UNL A   1      27.898  32.588  21.849  1.00  0.00    -0.379 OA
ENDBRANCH  92  95
ENDBRANCH  91  92
ENDBRANCH  77  80
ENDBRANCH  75  76
ENDBRANCH  74  75
ENDBRANCH  73  74
ENDBRANCH   1  73
TORSDOF 18
ENDMDL
MODEL 3
REMARK VINA RESULT:     -12.0      1.748      3.041
REMARK SMILES O=C(NCCCCCCNC(=O)[C@H]1CC2(CCN(S(=O)(=O)N3CCOCC3)CC2)C[NH2+]1)c1ccc(-c2c3nc(c(-c4cc(S(=O)(=O)[O-])ccc4F)c4ccc([nH]4)c(-c4cc(S(=O)(=O)[O-])ccc4F)c4nc(c(-c5cc(S(=O)(=O)[O-])ccc5F)c5ccc2[nH]5)C=C4)C=C3)cc1
REMARK SMILES IDX 6 1 5 2 4 3 3 4 1 5 2 6 32 8 33 9 94 10 34 11 93 12 35 13
REMARK SMILES IDX 36 14 37 15 87 16 38 17 92 18 86 19 88 20 39 21 91 22 85 23
REMARK SMILES IDX 84 24 40 26 72 27 52 28 71 29 53 30 56 31 70 32 89 33 54 34
REMARK SMILES IDX 55 35 69 37 90 38 57 39 41 40 42 41 50 42 43 43 49 44 51 45
REMARK SMILES IDX 48 46 44 47 45 48 46 49 47 50 73 51 74 52 82 53 75 54 81 55
REMARK SMILES IDX 83 56 80 57 76 58 77 59 78 60 79 61 58 62 59 63 67 64 60 65
REMARK SMILES IDX 66 66 68 67 65 68 61 69 62 70 63 71 64 72 7 73 8 74 9 75
REMARK SMILES IDX 10 76 11 77 12 79 13 80 14 81 31 82 15 83 30 84 16 87 29 88
REMARK SMILES IDX 17 89 28 90 18 91 19 92 20 93 21 94 22 95 23 96 27 97 24 98
REMARK SMILES IDX 26 99 25 100
REMARK H PARENT 3 7 88 25 56 36 10 78 31 85 31 86
REMARK Flexibility Score: inf
ROOT
ATOM      1  C   UNL A   1      41.001  21.770  27.946  1.00  0.00     0.002 C 
ENDROOT
BRANCH   1   2
ATOM      2  C   UNL A   1      41.346  20.353  27.488  1.00  0.00     0.021 C 
BRANCH   2   3
ATOM      3  C   UNL A   1      41.211  20.145  25.989  1.00  0.00     0.116 C 
BRANCH   3   4
ATOM      4  N   UNL A   1      42.384  19.493  25.436  1.00  0.00    -0.352 N 
ATOM      5  O   UNL A   1      44.392  19.431  24.408  1.00  0.00    -0.269 OA
ATOM      6  C   UNL A   1      43.581  20.059  25.080  1.00  0.00     0.251 C 
ATOM      7  H   UNL A   1      42.312  18.521  25.297  1.00  0.00     0.163 HD
BRANCH   6   8
ATOM      8  C   UNL A   1      43.868  21.439  25.516  1.00  0.00     0.039 A 
ATOM      9  C   UNL A   1      44.450  21.670  26.767  1.00  0.00     0.014 A 
ATOM     10  C   UNL A   1      43.542  22.503  24.676  1.00  0.00     0.014 A 
ATOM     11  C   UNL A   1      44.597  22.970  27.228  1.00  0.00     0.010 A 
ATOM     12  C   UNL A   1      43.780  23.810  25.104  1.00  0.00     0.010 A 
ATOM     13  C   UNL A   1      44.298  24.052  26.388  1.00  0.00    -0.014 A 
BRANCH  13  14
ATOM     14  C   UNL A   1      44.612  25.431  26.835  1.00  0.00     0.031 A 
ATOM     15  C   UNL A   1      43.548  26.321  27.405  1.00  0.00     0.074 A 
ATOM     16  C   UNL A   1      45.874  25.879  26.693  1.00  0.00     0.049 A 
ATOM     17  N   UNL A   1      43.632  27.573  27.773  1.00  0.00    -0.248 NA
ATOM     18  C   UNL A   1      42.214  25.730  27.571  1.00  0.00     0.031 C 
ATOM     19  C   UNL A   1      46.985  25.094  26.144  1.00  0.00     0.029 A 
ATOM     20  N   UNL A   1      46.439  27.092  26.987  1.00  0.00    -0.354 N 
ATOM     21  C   UNL A   1      42.358  27.932  28.196  1.00  0.00     0.074 A 
ATOM     22  C   UNL A   1      41.514  26.769  28.002  1.00  0.00     0.031 C 
ATOM     23  C   UNL A   1      48.097  25.840  26.157  1.00  0.00     0.029 A 
ATOM     24  C   UNL A   1      47.764  27.178  26.630  1.00  0.00     0.049 A 
ATOM     25  H   UNL A   1      45.944  27.830  27.411  1.00  0.00     0.167 HD
ATOM     26  C   UNL A   1      41.939  29.120  28.702  1.00  0.00     0.034 A 
ATOM     27  C   UNL A   1      48.608  28.226  26.632  1.00  0.00     0.034 A 
ATOM     28  C   UNL A   1      42.805  30.266  28.867  1.00  0.00     0.049 A 
ATOM     29  C   UNL A   1      48.108  29.553  27.129  1.00  0.00     0.074 A 
ATOM     30  C   UNL A   1      42.502  31.504  29.406  1.00  0.00     0.029 A 
ATOM     31  N   UNL A   1      44.136  30.325  28.468  1.00  0.00    -0.354 N 
ATOM     32  N   UNL A   1      46.909  29.871  27.559  1.00  0.00    -0.248 NA
ATOM     33  C   UNL A   1      49.071  30.659  27.147  1.00  0.00     0.031 C 
ATOM     34  C   UNL A   1      43.615  32.336  29.247  1.00  0.00     0.029 A 
ATOM     35  C   UNL A   1      44.651  31.591  28.705  1.00  0.00     0.049 A 
ATOM     36  H   UNL A   1      44.640  29.577  28.074  1.00  0.00     0.167 HD
ATOM     37  C   UNL A   1      46.980  31.212  27.923  1.00  0.00     0.074 A 
ATOM     38  C   UNL A   1      48.343  31.637  27.669  1.00  0.00     0.031 C 
ATOM     39  C   UNL A   1      46.008  32.012  28.431  1.00  0.00     0.034 A 
BRANCH  26  40
ATOM     40  C   UNL A   1      40.473  29.250  29.049  1.00  0.00     0.023 A 
ATOM     41  C   UNL A   1      40.022  29.254  30.381  1.00  0.00     0.031 A 
ATOM     42  C   UNL A   1      39.504  29.323  28.032  1.00  0.00     0.131 A 
ATOM     43  C   UNL A   1      38.646  29.225  30.657  1.00  0.00     0.055 A 
ATOM     44  C   UNL A   1      38.139  29.394  28.314  1.00  0.00     0.041 A 
ATOM     45  F   UNL A   1      39.866  29.302  26.739  1.00  0.00    -0.206 F 
ATOM     46  C   UNL A   1      37.701  29.324  29.633  1.00  0.00     0.022 A 
BRANCH  43  47
ATOM     47  S   UNL A   1      38.114  28.862  32.353  1.00  0.00     0.124 S 
ATOM     48  O   UNL A   1      38.273  27.409  32.410  1.00  0.00    -0.237 OA
ATOM     49  O   UNL A   1      39.056  29.637  33.152  1.00  0.00    -0.237 OA
ATOM     50  O   UNL A   1      36.730  29.329  32.387  1.00  0.00    -0.744 OA
ENDBRANCH  43  47
ENDBRANCH  26  40
BRANCH  27  51
ATOM     51  C   UNL A   1      49.985  28.061  26.086  1.00  0.00     0.023 A 
ATOM     52  C   UNL A   1      50.232  28.071  24.707  1.00  0.00     0.031 A 
ATOM     53  C   UNL A   1      51.083  27.905  26.955  1.00  0.00     0.131 A 
ATOM     54  C   UNL A   1      51.543  27.903  24.234  1.00  0.00     0.055 A 
ATOM     55  C   UNL A   1      52.389  27.797  26.481  1.00  0.00     0.041 A 
ATOM     56  F   UNL A   1      50.900  27.895  28.285  1.00  0.00    -0.206 F 
ATOM     57  C   UNL A   1      52.624  27.784  25.111  1.00  0.00     0.022 A 
BRANCH  54  58
ATOM     58  S   UNL A   1      51.810  27.773  22.445  1.00  0.00     0.124 S 
ATOM     59  O   UNL A   1      53.043  26.996  22.386  1.00  0.00    -0.237 OA
ATOM     60  O   UNL A   1      50.598  27.091  22.006  1.00  0.00    -0.237 OA
ATOM     61  O   UNL A   1      51.928  29.167  22.018  1.00  0.00    -0.744 OA
ENDBRANCH  54  58
ENDBRANCH  27  51
BRANCH  39  62
ATOM     62  C   UNL A   1      46.398  33.423  28.798  1.00  0.00     0.023 A 
ATOM     63  C   UNL A   1      46.344  34.479  27.871  1.00  0.00     0.031 A 
ATOM     64  C   UNL A   1      46.814  33.717  30.109  1.00  0.00     0.131 A 
ATOM     65  C   UNL A   1      46.737  35.770  28.258  1.00  0.00     0.055 A 
ATOM     66  C   UNL A   1      47.143  35.013  30.506  1.00  0.00     0.041 A 
ATOM     67  F   UNL A   1      46.895  32.745  31.033  1.00  0.00    -0.206 F 
ATOM     68  C   UNL A   1      47.114  36.047  29.576  1.00  0.00     0.022 A 
BRANCH  65  69
ATOM     69  S   UNL A   1      46.828  37.072  27.000  1.00  0.00     0.124 S 
ATOM     70  O   UNL A   1      45.771  37.982  27.429  1.00  0.00    -0.237 OA
ATOM     71  O   UNL A   1      48.193  37.563  27.155  1.00  0.00    -0.237 OA
ATOM     72  O   UNL A   1      46.564  36.361  25.750  1.00  0.00    -0.744 OA
ENDBRANCH  65  69
ENDBRANCH  39  62
ENDBRANCH  13  14
ENDBRANCH   6   8
ENDBRANCH   3   4
ENDBRANCH   2   3
ENDBRANCH   1   2
BRANCH   1  73
ATOM     73  C   UNL A   1      40.588  22.718  26.815  1.00  0.00     0.002 C 
BRANCH  73  74
ATOM     74  C   UNL A   1      39.354  23.569  27.126  1.00  0.00     0.021 C 
BRANCH  74  75
ATOM     75  C   UNL A   1      38.238  23.394  26.111  1.00  0.00     0.116 C 
BRANCH  75  76
ATOM     76  N   UNL A   1      38.411  22.154  25.386  1.00  0.00    -0.351 N 
ATOM     77  C   UNL A   1      37.495  21.171  25.170  1.00  0.00     0.278 C 
ATOM     78  H   UNL A   1      39.304  22.003  25.001  1.00  0.00     0.163 HD
ATOM     79  O   UNL A   1      37.863  20.128  24.630  1.00  0.00    -0.268 OA
BRANCH  77  80
ATOM     80  C   UNL A   1      36.060  21.450  25.596  1.00  0.00     0.273 C 
ATOM     81  C   UNL A   1      35.460  22.583  24.809  1.00  0.00     0.088 C 
ATOM     82  N   UNL A   1      35.168  20.326  25.274  1.00  0.00    -0.336 N 
ATOM     83  C   UNL A   1      33.949  22.370  25.007  1.00  0.00     0.028 C 
ATOM     84  C   UNL A   1      33.817  20.875  25.372  1.00  0.00     0.268 C 
ATOM     85  H   UNL A   1      35.296  19.566  25.941  1.00  0.00     0.346 HD
ATOM     86  H   UNL A   1      35.359  19.939  24.350  1.00  0.00     0.346 HD
ATOM     87  C   UNL A   1      33.264  22.692  23.675  1.00  0.00     0.030 C 
ATOM     88  C   UNL A   1      33.410  23.248  26.176  1.00  0.00     0.030 C 
ATOM     89  C   UNL A   1      33.270  24.194  23.485  1.00  0.00     0.104 C 
ATOM     90  C   UNL A   1      33.195  24.726  25.826  1.00  0.00     0.104 C 
ATOM     91  N   UNL A   1      32.476  24.867  24.525  1.00  0.00    -0.189 NA
BRANCH  91  92
ATOM     92  S   UNL A   1      30.798  24.631  24.642  1.00  0.00     0.282 S 
ATOM     93  O   UNL A   1      30.314  24.064  23.402  1.00  0.00    -0.195 OA
ATOM     94  O   UNL A   1      30.568  23.950  25.892  1.00  0.00    -0.195 OA
BRANCH  92  95
ATOM     95  N   UNL A   1      30.187  26.164  24.776  1.00  0.00    -0.184 NA
ATOM     96  C   UNL A   1      30.871  27.188  25.573  1.00  0.00     0.132 C 
ATOM     97  C   UNL A   1      29.161  26.715  23.874  1.00  0.00     0.132 C 
ATOM     98  C   UNL A   1      31.496  28.208  24.630  1.00  0.00     0.177 C 
ATOM     99  C   UNL A   1      29.688  27.905  23.057  1.00  0.00     0.177 C 
ATOM    100  O   UNL A   1      30.501  28.829  23.797  1.00  0.00    -0.379 OA
ENDBRANCH  92  95
ENDBRANCH  91  92
ENDBRANCH  77  80
ENDBRANCH  75  76
ENDBRANCH  74  75
ENDBRANCH  73  74
ENDBRANCH   1  73
TORSDOF 18
ENDMDL
