MODEL 1
REMARK VINA RESULT:     -13.6      0.000      0.000
REMARK SMILES CC1(C)CC[C@@]2(C(=O)NCCCCCCNC(=O)c3ccc(-c4c5nc(c(-c6cc(S(=O)(=O)[O-])ccc6F)c6ccc([nH]6)c(-c6cc(S(=O)(=O)[O-])ccc6F)c6nc(c(-c7cc(S(=O)(=O)[O-])ccc7F)c7ccc4[nH]7)C=C6)C=C5)cc3)CC[C@@]3(C)C(=CC[C@H]4[C@@]5(C)CC[C@H](O)C(C)(C)[C@@H]5CC[C@]43C)[C@@H]2C1
REMARK SMILES IDX 13 1 12 2 11 3 10 4 9 5 7 6 8 7 6 9 1 10 2 11 3 12 4 13
REMARK SMILES IDX 105 14 5 15 104 16 86 17 82 18 84 19 87 20 83 21 85 22
REMARK SMILES IDX 102 23 88 24 89 25 101 26 103 27 90 28 100 29 91 30 92 31
REMARK SMILES IDX 99 32 93 33 96 34 94 35 97 36 98 37 95 38 14 40 15 41 16 42
REMARK SMILES IDX 17 43 18 45 19 46 20 47 81 48 21 49 80 50 22 51 23 52 24 53
REMARK SMILES IDX 74 54 25 55 79 56 73 57 75 58 26 59 78 60 72 61 71 62 27 64
REMARK SMILES IDX 59 65 39 66 58 67 40 68 43 69 57 70 76 71 41 72 42 73 56 75
REMARK SMILES IDX 77 76 44 77 28 78 29 79 37 80 30 81 36 82 38 83 35 84 31 85
REMARK SMILES IDX 32 86 33 87 34 88 60 89 61 90 69 91 62 92 68 93 70 94 67 95
REMARK SMILES IDX 63 96 64 97 65 98 66 99 45 100 46 101 54 102 47 103 53 104
REMARK SMILES IDX 55 105 52 106 48 107 49 108 50 109 51 110
REMARK H PARENT 9 8 95 39 16 44 75 63 43 74
REMARK Flexibility Score: inf
ROOT
ATOM      1  C   UNL A   1      36.561  23.437  23.307  1.00  0.00     0.002 C 
ENDROOT
BRANCH   1   2
ATOM      2  C   UNL A   1      35.142  23.986  23.458  1.00  0.00     0.002 C 
BRANCH   2   3
ATOM      3  C   UNL A   1      34.204  24.063  22.234  1.00  0.00     0.021 C 
BRANCH   3   4
ATOM      4  C   UNL A   1      32.694  24.288  22.377  1.00  0.00     0.116 C 
BRANCH   4   5
ATOM      5  N   UNL A   1      32.170  24.779  23.635  1.00  0.00    -0.356 N 
ATOM      6  C   UNL A   1      30.988  24.416  24.244  1.00  0.00     0.226 C 
ATOM      7  O   UNL A   1      30.013  24.052  23.586  1.00  0.00    -0.274 OA
ATOM      8  H   UNL A   1      32.720  25.446  24.108  1.00  0.00     0.163 HD
BRANCH   6   9
ATOM      9  C   UNL A   1      30.965  24.386  25.833  1.00  0.00     0.056 C 
ATOM     10  C   UNL A   1      33.243  21.069  26.892  1.00  0.00     0.011 C 
ATOM     11  C   UNL A   1      32.885  22.021  25.740  1.00  0.00    -0.035 C 
ATOM     12  C   UNL A   1      33.691  21.493  24.511  1.00  0.00     0.011 C 
ATOM     13  C   UNL A   1      31.380  21.883  25.425  1.00  0.00     0.007 C 
ATOM     14  C   UNL A   1      33.354  23.476  26.111  1.00  0.00     0.015 C 
ATOM     15  C   UNL A   1      30.498  22.922  26.128  1.00  0.00     0.018 C 
ATOM     16  C   UNL A   1      32.308  24.575  26.584  1.00  0.00     0.031 C 
ATOM     17  C   UNL A   1      32.721  26.078  26.456  1.00  0.00    -0.064 C 
ATOM     18  C   UNL A   1      29.926  25.373  26.466  1.00  0.00     0.018 C 
ATOM     19  C   UNL A   1      31.783  27.270  26.885  1.00  0.00    -0.006 C 
ATOM     20  C   UNL A   1      33.813  26.350  25.727  1.00  0.00    -0.027 C 
ATOM     21  C   UNL A   1      30.291  26.884  26.657  1.00  0.00     0.013 C 
ATOM     22  C   UNL A   1      31.899  27.431  28.432  1.00  0.00     0.017 C 
ATOM     23  C   UNL A   1      32.341  28.713  26.176  1.00  0.00    -0.020 C 
ATOM     24  C   UNL A   1      33.761  27.377  24.638  1.00  0.00     0.032 C 
ATOM     25  C   UNL A   1      32.652  28.424  24.681  1.00  0.00     0.006 C 
ATOM     26  C   UNL A   1      31.554  30.082  26.199  1.00  0.00     0.008 C 
ATOM     27  C   UNL A   1      33.709  29.107  26.903  1.00  0.00     0.012 C 
ATOM     28  C   UNL A   1      31.400  28.470  23.599  1.00  0.00    -0.025 C 
ATOM     29  C   UNL A   1      31.231  30.705  24.788  1.00  0.00     0.005 C 
ATOM     30  C   UNL A   1      32.072  28.666  22.223  1.00  0.00     0.012 C 
ATOM     31  C   UNL A   1      30.447  27.258  23.422  1.00  0.00     0.010 C 
ATOM     32  C   UNL A   1      30.470  29.641  24.012  1.00  0.00     0.003 C 
ATOM     33  C   UNL A   1      28.918  27.453  23.137  1.00  0.00     0.033 C 
ATOM     34  C   UNL A   1      29.279  29.987  23.046  1.00  0.00    -0.006 C 
ATOM     35  C   UNL A   1      28.276  28.841  23.361  1.00  0.00     0.120 C 
ATOM     36  C   UNL A   1      29.525  30.008  21.522  1.00  0.00     0.014 C 
ATOM     37  C   UNL A   1      28.675  31.365  23.371  1.00  0.00     0.014 C 
BRANCH  35  38
ATOM     38  O   UNL A   1      27.056  28.976  22.635  1.00  0.00    -0.393 OA
ATOM     39  H   UNL A   1      26.418  28.317  22.951  1.00  0.00     0.210 HD
ENDBRANCH  35  38
ENDBRANCH   6   9
ENDBRANCH   4   5
ENDBRANCH   3   4
ENDBRANCH   2   3
ENDBRANCH   1   2
BRANCH   1  40
ATOM     40  C   UNL A   1      36.797  22.035  23.825  1.00  0.00     0.021 C 
BRANCH  40  41
ATOM     41  C   UNL A   1      37.302  21.989  25.249  1.00  0.00     0.116 C 
BRANCH  41  42
ATOM     42  N   UNL A   1      38.274  20.932  25.492  1.00  0.00    -0.352 N 
ATOM     43  C   UNL A   1      39.465  21.034  26.192  1.00  0.00     0.251 C 
ATOM     44  H   UNL A   1      38.060  20.047  25.119  1.00  0.00     0.163 HD
ATOM     45  O   UNL A   1      40.222  20.107  26.292  1.00  0.00    -0.269 OA
BRANCH  43  46
ATOM     46  C   UNL A   1      39.778  22.370  26.749  1.00  0.00     0.039 A 
ATOM     47  C   UNL A   1      40.783  22.466  27.709  1.00  0.00     0.014 A 
ATOM     48  C   UNL A   1      39.211  23.510  26.175  1.00  0.00     0.014 A 
ATOM     49  C   UNL A   1      41.274  23.725  28.047  1.00  0.00     0.010 A 
ATOM     50  C   UNL A   1      39.781  24.748  26.428  1.00  0.00     0.010 A 
ATOM     51  C   UNL A   1      40.810  24.869  27.375  1.00  0.00    -0.014 A 
BRANCH  51  52
ATOM     52  C   UNL A   1      41.365  26.211  27.675  1.00  0.00     0.031 A 
ATOM     53  C   UNL A   1      42.739  26.564  27.176  1.00  0.00     0.074 A 
ATOM     54  C   UNL A   1      40.664  27.076  28.434  1.00  0.00     0.049 A 
ATOM     55  N   UNL A   1      43.438  27.649  27.376  1.00  0.00    -0.248 NA
ATOM     56  C   UNL A   1      43.435  25.540  26.380  1.00  0.00     0.031 C 
ATOM     57  C   UNL A   1      39.345  26.816  29.016  1.00  0.00     0.029 A 
ATOM     58  N   UNL A   1      40.965  28.348  28.851  1.00  0.00    -0.354 N 
ATOM     59  C   UNL A   1      44.658  27.431  26.746  1.00  0.00     0.074 A 
ATOM     60  C   UNL A   1      44.631  26.081  26.230  1.00  0.00     0.031 C 
ATOM     61  C   UNL A   1      38.937  27.907  29.686  1.00  0.00     0.029 A 
ATOM     62  C   UNL A   1      39.982  28.924  29.624  1.00  0.00     0.049 A 
ATOM     63  H   UNL A   1      41.804  28.806  28.620  1.00  0.00     0.167 HD
ATOM     64  C   UNL A   1      45.694  28.290  26.586  1.00  0.00     0.034 A 
ATOM     65  C   UNL A   1      39.936  30.131  30.222  1.00  0.00     0.034 A 
ATOM     66  C   UNL A   1      45.686  29.639  27.092  1.00  0.00     0.049 A 
ATOM     67  C   UNL A   1      41.105  31.067  30.045  1.00  0.00     0.074 A 
ATOM     68  C   UNL A   1      46.643  30.624  26.930  1.00  0.00     0.029 A 
ATOM     69  N   UNL A   1      44.674  30.190  27.870  1.00  0.00    -0.354 N 
ATOM     70  N   UNL A   1      42.225  30.873  29.387  1.00  0.00    -0.248 NA
ATOM     71  C   UNL A   1      41.003  32.385  30.684  1.00  0.00     0.031 C 
ATOM     72  C   UNL A   1      46.248  31.741  27.673  1.00  0.00     0.029 A 
ATOM     73  C   UNL A   1      45.004  31.486  28.230  1.00  0.00     0.049 A 
ATOM     74  H   UNL A   1      43.845  29.726  28.127  1.00  0.00     0.167 HD
ATOM     75  C   UNL A   1      42.951  32.054  29.513  1.00  0.00     0.074 A 
ATOM     76  C   UNL A   1      42.132  32.959  30.295  1.00  0.00     0.031 C 
ATOM     77  C   UNL A   1      44.179  32.367  29.026  1.00  0.00     0.034 A 
BRANCH  64  78
ATOM     78  C   UNL A   1      46.915  27.779  25.860  1.00  0.00     0.023 A 
ATOM     79  C   UNL A   1      47.162  28.091  24.511  1.00  0.00     0.031 A 
ATOM     80  C   UNL A   1      47.824  26.927  26.513  1.00  0.00     0.131 A 
ATOM     81  C   UNL A   1      48.233  27.490  23.836  1.00  0.00     0.055 A 
ATOM     82  C   UNL A   1      48.942  26.405  25.859  1.00  0.00     0.041 A 
ATOM     83  F   UNL A   1      47.630  26.572  27.792  1.00  0.00    -0.206 F 
ATOM     84  C   UNL A   1      49.143  26.670  24.508  1.00  0.00     0.022 A 
BRANCH  81  85
ATOM     85  S   UNL A   1      48.328  27.663  22.032  1.00  0.00     0.124 S 
ATOM     86  O   UNL A   1      48.535  26.279  21.614  1.00  0.00    -0.237 OA
ATOM     87  O   UNL A   1      47.030  28.242  21.704  1.00  0.00    -0.237 OA
ATOM     88  O   UNL A   1      49.475  28.544  21.832  1.00  0.00    -0.744 OA
ENDBRANCH  81  85
ENDBRANCH  64  78
BRANCH  65  89
ATOM     89  C   UNL A   1      38.757  30.520  31.049  1.00  0.00     0.023 A 
ATOM     90  C   UNL A   1      37.663  31.196  30.487  1.00  0.00     0.031 A 
ATOM     91  C   UNL A   1      38.722  30.245  32.428  1.00  0.00     0.131 A 
ATOM     92  C   UNL A   1      36.599  31.611  31.304  1.00  0.00     0.055 A 
ATOM     93  C   UNL A   1      37.637  30.612  33.228  1.00  0.00     0.041 A 
ATOM     94  F   UNL A   1      39.739  29.596  33.018  1.00  0.00    -0.206 F 
ATOM     95  C   UNL A   1      36.573  31.310  32.669  1.00  0.00     0.022 A 
BRANCH  92  96
ATOM     96  S   UNL A   1      35.281  32.620  30.575  1.00  0.00     0.124 S 
ATOM     97  O   UNL A   1      35.987  33.861  30.277  1.00  0.00    -0.237 OA
ATOM     98  O   UNL A   1      34.884  31.815  29.424  1.00  0.00    -0.237 OA
ATOM     99  O   UNL A   1      34.287  32.706  31.643  1.00  0.00    -0.744 OA
ENDBRANCH  92  96
ENDBRANCH  65  89
BRANCH  77 100
ATOM    100  C   UNL A   1      44.692  33.758  29.300  1.00  0.00     0.023 A 
ATOM    101  C   UNL A   1      44.344  34.849  28.485  1.00  0.00     0.031 A 
ATOM    102  C   UNL A   1      45.537  33.996  30.399  1.00  0.00     0.131 A 
ATOM    103  C   UNL A   1      44.878  36.118  28.752  1.00  0.00     0.055 A 
ATOM    104  C   UNL A   1      46.014  35.272  30.697  1.00  0.00     0.041 A 
ATOM    105  F   UNL A   1      45.904  32.989  31.209  1.00  0.00    -0.206 F 
ATOM    106  C   UNL A   1      45.694  36.340  29.863  1.00  0.00     0.022 A 
BRANCH 103 107
ATOM    107  S   UNL A   1      44.561  37.461  27.575  1.00  0.00     0.124 S 
ATOM    108  O   UNL A   1      45.792  37.471  26.791  1.00  0.00    -0.237 OA
ATOM    109  O   UNL A   1      43.367  36.993  26.880  1.00  0.00    -0.237 OA
ATOM    110  O   UNL A   1      44.363  38.627  28.432  1.00  0.00    -0.744 OA
ENDBRANCH 103 107
ENDBRANCH  77 100
ENDBRANCH  51  52
ENDBRANCH  43  46
ENDBRANCH  41  42
ENDBRANCH  40  41
ENDBRANCH   1  40
TORSDOF 17
ENDMDL
MODEL 2
REMARK VINA RESULT:     -13.5      2.108      2.604
REMARK SMILES CC1(C)CC[C@@]2(C(=O)NCCCCCCNC(=O)c3ccc(-c4c5nc(c(-c6cc(S(=O)(=O)[O-])ccc6F)c6ccc([nH]6)c(-c6cc(S(=O)(=O)[O-])ccc6F)c6nc(c(-c7cc(S(=O)(=O)[O-])ccc7F)c7ccc4[nH]7)C=C6)C=C5)cc3)CC[C@@]3(C)C(=CC[C@H]4[C@@]5(C)CC[C@H](O)C(C)(C)[C@@H]5CC[C@]43C)[C@@H]2C1
REMARK SMILES IDX 13 1 12 2 11 3 10 4 9 5 7 6 8 7 6 9 1 10 2 11 3 12 4 13
REMARK SMILES IDX 105 14 5 15 104 16 86 17 82 18 84 19 87 20 83 21 85 22
REMARK SMILES IDX 102 23 88 24 89 25 101 26 103 27 90 28 100 29 91 30 92 31
REMARK SMILES IDX 99 32 93 33 96 34 94 35 97 36 98 37 95 38 14 40 15 41 16 42
REMARK SMILES IDX 17 43 18 45 19 46 20 47 81 48 21 49 80 50 22 51 23 52 24 53
REMARK SMILES IDX 74 54 25 55 79 56 73 57 75 58 26 59 78 60 72 61 71 62 27 64
REMARK SMILES IDX 59 65 39 66 58 67 40 68 43 69 57 70 76 71 41 72 42 73 56 75
REMARK SMILES IDX 77 76 44 77 28 78 29 79 37 80 30 81 36 82 38 83 35 84 31 85
REMARK SMILES IDX 32 86 33 87 34 88 60 89 61 90 69 91 62 92 68 93 70 94 67 95
REMARK SMILES IDX 63 96 64 97 65 98 66 99 45 100 46 101 54 102 47 103 53 104
REMARK SMILES IDX 55 105 52 106 48 107 49 108 50 109 51 110
REMARK H PARENT 9 8 95 39 16 44 75 63 43 74
REMARK Flexibility Score: inf
ROOT
ATOM      1  C   UNL A   1      36.182  23.210  23.579  1.00  0.00     0.002 C 
ENDROOT
BRANCH   1   2
ATOM      2  C   UNL A   1      35.141  24.174  23.009  1.00  0.00     0.002 C 
BRANCH   2   3
ATOM      3  C   UNL A   1      33.972  23.639  22.155  1.00  0.00     0.021 C 
BRANCH   3   4
ATOM      4  C   UNL A   1      32.547  24.189  22.287  1.00  0.00     0.116 C 
BRANCH   4   5
ATOM      5  N   UNL A   1      32.110  24.716  23.564  1.00  0.00    -0.356 N 
ATOM      6  C   UNL A   1      30.928  24.441  24.219  1.00  0.00     0.226 C 
ATOM      7  O   UNL A   1      29.904  24.152  23.599  1.00  0.00    -0.274 OA
ATOM      8  H   UNL A   1      32.726  25.339  24.015  1.00  0.00     0.163 HD
BRANCH   6   9
ATOM      9  C   UNL A   1      30.965  24.410  25.807  1.00  0.00     0.056 C 
ATOM     10  C   UNL A   1      33.299  21.105  26.780  1.00  0.00     0.011 C 
ATOM     11  C   UNL A   1      32.893  22.056  25.641  1.00  0.00    -0.035 C 
ATOM     12  C   UNL A   1      33.656  21.533  24.383  1.00  0.00     0.011 C 
ATOM     13  C   UNL A   1      31.378  21.910  25.383  1.00  0.00     0.007 C 
ATOM     14  C   UNL A   1      33.367  23.513  25.996  1.00  0.00     0.015 C 
ATOM     15  C   UNL A   1      30.517  22.943  26.118  1.00  0.00     0.018 C 
ATOM     16  C   UNL A   1      32.334  24.606  26.508  1.00  0.00     0.031 C 
ATOM     17  C   UNL A   1      32.733  26.111  26.366  1.00  0.00    -0.064 C 
ATOM     18  C   UNL A   1      29.945  25.391  26.479  1.00  0.00     0.018 C 
ATOM     19  C   UNL A   1      31.805  27.298  26.830  1.00  0.00    -0.006 C 
ATOM     20  C   UNL A   1      33.796  26.390  25.596  1.00  0.00    -0.027 C 
ATOM     21  C   UNL A   1      30.308  26.904  26.657  1.00  0.00     0.013 C 
ATOM     22  C   UNL A   1      31.978  27.459  28.372  1.00  0.00     0.017 C 
ATOM     23  C   UNL A   1      32.329  28.744  26.102  1.00  0.00    -0.020 C 
ATOM     24  C   UNL A   1      33.698  27.417  24.512  1.00  0.00     0.032 C 
ATOM     25  C   UNL A   1      32.586  28.457  24.596  1.00  0.00     0.006 C 
ATOM     26  C   UNL A   1      31.536  30.109  26.155  1.00  0.00     0.008 C 
ATOM     27  C   UNL A   1      33.720  29.146  26.778  1.00  0.00     0.012 C 
ATOM     28  C   UNL A   1      31.294  28.497  23.561  1.00  0.00    -0.025 C 
ATOM     29  C   UNL A   1      31.157  30.731  24.758  1.00  0.00     0.005 C 
ATOM     30  C   UNL A   1      31.913  28.697  22.161  1.00  0.00     0.012 C 
ATOM     31  C   UNL A   1      30.342  27.280  23.420  1.00  0.00     0.010 C 
ATOM     32  C   UNL A   1      30.373  29.663  24.009  1.00  0.00     0.003 C 
ATOM     33  C   UNL A   1      28.802  27.466  23.191  1.00  0.00     0.033 C 
ATOM     34  C   UNL A   1      29.146  30.003  23.089  1.00  0.00    -0.006 C 
ATOM     35  C   UNL A   1      28.161  28.851  23.439  1.00  0.00     0.120 C 
ATOM     36  C   UNL A   1      29.334  30.026  21.556  1.00  0.00     0.014 C 
ATOM     37  C   UNL A   1      28.547  31.377  23.437  1.00  0.00     0.014 C 
BRANCH  35  38
ATOM     38  O   UNL A   1      26.914  28.979  22.760  1.00  0.00    -0.393 OA
ATOM     39  H   UNL A   1      26.997  28.619  21.863  1.00  0.00     0.210 HD
ENDBRANCH  35  38
ENDBRANCH   6   9
ENDBRANCH   4   5
ENDBRANCH   3   4
ENDBRANCH   2   3
ENDBRANCH   1   2
BRANCH   1  40
ATOM     40  C   UNL A   1      36.997  23.716  24.750  1.00  0.00     0.021 C 
BRANCH  40  41
ATOM     41  C   UNL A   1      36.979  22.796  25.948  1.00  0.00     0.116 C 
BRANCH  41  42
ATOM     42  N   UNL A   1      38.194  22.008  26.101  1.00  0.00    -0.352 N 
ATOM     43  C   UNL A   1      39.427  22.449  26.554  1.00  0.00     0.251 C 
ATOM     44  H   UNL A   1      38.133  21.057  25.855  1.00  0.00     0.163 HD
ATOM     45  O   UNL A   1      40.383  21.724  26.595  1.00  0.00    -0.269 OA
BRANCH  43  46
ATOM     46  C   UNL A   1      39.509  23.882  26.920  1.00  0.00     0.039 A 
ATOM     47  C   UNL A   1      39.299  24.236  28.251  1.00  0.00     0.014 A 
ATOM     48  C   UNL A   1      39.978  24.809  25.987  1.00  0.00     0.014 A 
ATOM     49  C   UNL A   1      39.632  25.524  28.666  1.00  0.00     0.010 A 
ATOM     50  C   UNL A   1      40.415  26.049  26.428  1.00  0.00     0.010 A 
ATOM     51  C   UNL A   1      40.235  26.423  27.769  1.00  0.00    -0.014 A 
BRANCH  51  52
ATOM     52  C   UNL A   1      40.654  27.776  28.207  1.00  0.00     0.031 A 
ATOM     53  C   UNL A   1      42.116  28.126  28.208  1.00  0.00     0.074 A 
ATOM     54  C   UNL A   1      39.734  28.655  28.651  1.00  0.00     0.049 A 
ATOM     55  N   UNL A   1      42.704  29.221  28.609  1.00  0.00    -0.248 NA
ATOM     56  C   UNL A   1      43.043  27.086  27.732  1.00  0.00     0.031 C 
ATOM     57  C   UNL A   1      38.294  28.401  28.745  1.00  0.00     0.029 A 
ATOM     58  N   UNL A   1      39.873  29.939  29.113  1.00  0.00    -0.354 N 
ATOM     59  C   UNL A   1      44.066  28.995  28.450  1.00  0.00     0.074 A 
ATOM     60  C   UNL A   1      44.218  27.633  27.993  1.00  0.00     0.031 C 
ATOM     61  C   UNL A   1      37.681  29.505  29.201  1.00  0.00     0.029 A 
ATOM     62  C   UNL A   1      38.685  30.529  29.479  1.00  0.00     0.049 A 
ATOM     63  H   UNL A   1      40.741  30.398  29.175  1.00  0.00     0.167 HD
ATOM     64  C   UNL A   1      45.095  29.858  28.637  1.00  0.00     0.034 A 
ATOM     65  C   UNL A   1      38.435  31.750  29.990  1.00  0.00     0.034 A 
ATOM     66  C   UNL A   1      44.914  31.220  29.072  1.00  0.00     0.049 A 
ATOM     67  C   UNL A   1      39.595  32.689  30.207  1.00  0.00     0.074 A 
ATOM     68  C   UNL A   1      45.870  32.208  29.226  1.00  0.00     0.029 A 
ATOM     69  N   UNL A   1      43.696  31.783  29.434  1.00  0.00    -0.354 N 
ATOM     70  N   UNL A   1      40.874  32.487  29.985  1.00  0.00    -0.248 NA
ATOM     71  C   UNL A   1      39.279  34.023  30.734  1.00  0.00     0.031 C 
ATOM     72  C   UNL A   1      45.244  33.341  29.755  1.00  0.00     0.029 A 
ATOM     73  C   UNL A   1      43.883  33.091  29.851  1.00  0.00     0.049 A 
ATOM     74  H   UNL A   1      42.829  31.320  29.399  1.00  0.00     0.167 HD
ATOM     75  C   UNL A   1      41.513  33.676  30.323  1.00  0.00     0.074 A 
ATOM     76  C   UNL A   1      40.474  34.595  30.747  1.00  0.00     0.031 C 
ATOM     77  C   UNL A   1      42.834  33.986  30.286  1.00  0.00     0.034 A 
BRANCH  64  78
ATOM     78  C   UNL A   1      46.491  29.337  28.396  1.00  0.00     0.023 A 
ATOM     79  C   UNL A   1      46.969  29.065  27.100  1.00  0.00     0.031 A 
ATOM     80  C   UNL A   1      47.344  29.063  29.480  1.00  0.00     0.131 A 
ATOM     81  C   UNL A   1      48.220  28.458  26.927  1.00  0.00     0.055 A 
ATOM     82  C   UNL A   1      48.627  28.543  29.293  1.00  0.00     0.041 A 
ATOM     83  F   UNL A   1      46.937  29.276  30.740  1.00  0.00    -0.206 F 
ATOM     84  C   UNL A   1      49.066  28.220  28.013  1.00  0.00     0.022 A 
BRANCH  81  85
ATOM     85  S   UNL A   1      48.659  27.834  25.280  1.00  0.00     0.124 S 
ATOM     86  O   UNL A   1      47.498  28.242  24.492  1.00  0.00    -0.237 OA
ATOM     87  O   UNL A   1      49.903  28.540  24.998  1.00  0.00    -0.237 OA
ATOM     88  O   UNL A   1      48.789  26.393  25.483  1.00  0.00    -0.744 OA
ENDBRANCH  81  85
ENDBRANCH  64  78
BRANCH  65  89
ATOM     89  C   UNL A   1      37.043  32.152  30.345  1.00  0.00     0.023 A 
ATOM     90  C   UNL A   1      36.178  32.706  29.389  1.00  0.00     0.031 A 
ATOM     91  C   UNL A   1      36.566  32.013  31.661  1.00  0.00     0.131 A 
ATOM     92  C   UNL A   1      34.897  33.138  29.768  1.00  0.00     0.055 A 
ATOM     93  C   UNL A   1      35.272  32.395  32.023  1.00  0.00     0.041 A 
ATOM     94  F   UNL A   1      37.349  31.485  32.616  1.00  0.00    -0.206 F 
ATOM     95  C   UNL A   1      34.434  32.973  31.076  1.00  0.00     0.022 A 
BRANCH  92  96
ATOM     96  S   UNL A   1      33.867  33.993  28.544  1.00  0.00     0.124 S 
ATOM     97  O   UNL A   1      32.824  34.571  29.385  1.00  0.00    -0.237 OA
ATOM     98  O   UNL A   1      34.814  34.936  27.958  1.00  0.00    -0.237 OA
ATOM     99  O   UNL A   1      33.431  32.918  27.656  1.00  0.00    -0.744 OA
ENDBRANCH  92  96
ENDBRANCH  65  89
BRANCH  77 100
ATOM    100  C   UNL A   1      43.223  35.388  30.683  1.00  0.00     0.023 A 
ATOM    101  C   UNL A   1      43.371  35.760  32.030  1.00  0.00     0.031 A 
ATOM    102  C   UNL A   1      43.456  36.363  29.697  1.00  0.00     0.131 A 
ATOM    103  C   UNL A   1      43.692  37.086  32.356  1.00  0.00     0.055 A 
ATOM    104  C   UNL A   1      43.837  37.664  30.025  1.00  0.00     0.041 A 
ATOM    105  F   UNL A   1      43.325  36.062  28.395  1.00  0.00    -0.206 F 
ATOM    106  C   UNL A   1      43.946  38.035  31.363  1.00  0.00     0.022 A 
BRANCH 103 107
ATOM    107  S   UNL A   1      43.690  37.578  34.102  1.00  0.00     0.124 S 
ATOM    108  O   UNL A   1      42.987  38.856  34.054  1.00  0.00    -0.237 OA
ATOM    109  O   UNL A   1      42.971  36.479  34.737  1.00  0.00    -0.237 OA
ATOM    110  O   UNL A   1      45.110  37.663  34.435  1.00  0.00    -0.744 OA
ENDBRANCH 103 107
ENDBRANCH  77 100
ENDBRANCH  51  52
ENDBRANCH  43  46
ENDBRANCH  41  42
ENDBRANCH  40  41
ENDBRANCH   1  40
TORSDOF 17
ENDMDL
MODEL 3
REMARK VINA RESULT:     -13.4      0.527      6.912
REMARK SMILES CC1(C)CC[C@@]2(C(=O)NCCCCCCNC(=O)c3ccc(-c4c5nc(c(-c6cc(S(=O)(=O)[O-])ccc6F)c6ccc([nH]6)c(-c6cc(S(=O)(=O)[O-])ccc6F)c6nc(c(-c7cc(S(=O)(=O)[O-])ccc7F)c7ccc4[nH]7)C=C6)C=C5)cc3)CC[C@@]3(C)C(=CC[C@H]4[C@@]5(C)CC[C@H](O)C(C)(C)[C@@H]5CC[C@]43C)[C@@H]2C1
REMARK SMILES IDX 13 1 12 2 11 3 10 4 9 5 7 6 8 7 6 9 1 10 2 11 3 12 4 13
REMARK SMILES IDX 105 14 5 15 104 16 86 17 82 18 84 19 87 20 83 21 85 22
REMARK SMILES IDX 102 23 88 24 89 25 101 26 103 27 90 28 100 29 91 30 92 31
REMARK SMILES IDX 99 32 93 33 96 34 94 35 97 36 98 37 95 38 14 40 15 41 16 42
REMARK SMILES IDX 17 43 18 45 19 46 20 47 81 48 21 49 80 50 22 51 23 52 24 53
REMARK SMILES IDX 74 54 25 55 79 56 73 57 75 58 26 59 78 60 72 61 71 62 27 64
REMARK SMILES IDX 59 65 39 66 58 67 40 68 43 69 57 70 76 71 41 72 42 73 56 75
REMARK SMILES IDX 77 76 44 77 28 78 29 79 37 80 30 81 36 82 38 83 35 84 31 85
REMARK SMILES IDX 32 86 33 87 34 88 60 89 61 90 69 91 62 92 68 93 70 94 67 95
REMARK SMILES IDX 63 96 64 97 65 98 66 99 45 100 46 101 54 102 47 103 53 104
REMARK SMILES IDX 55 105 52 106 48 107 49 108 50 109 51 110
REMARK H PARENT 9 8 95 39 16 44 75 63 43 74
REMARK Flexibility Score: inf
ROOT
ATOM      1  C   UNL A   1      36.542  23.570  23.307  1.00  0.00     0.002 C 
ENDROOT
BRANCH   1   2
ATOM      2  C   UNL A   1      35.114  24.105  23.409  1.00  0.00     0.002 C 
BRANCH   2   3
ATOM      3  C   UNL A   1      34.119  23.893  22.248  1.00  0.00     0.021 C 
BRANCH   3   4
ATOM      4  C   UNL A   1      32.655  24.339  22.337  1.00  0.00     0.116 C 
BRANCH   4   5
ATOM      5  N   UNL A   1      32.138  24.816  23.604  1.00  0.00    -0.356 N 
ATOM      6  C   UNL A   1      30.961  24.442  24.218  1.00  0.00     0.226 C 
ATOM      7  O   UNL A   1      29.983  24.081  23.563  1.00  0.00    -0.274 OA
ATOM      8  H   UNL A   1      32.689  25.480  24.079  1.00  0.00     0.163 HD
BRANCH   6   9
ATOM      9  C   UNL A   1      30.951  24.396  25.806  1.00  0.00     0.056 C 
ATOM     10  C   UNL A   1      33.235  21.067  26.815  1.00  0.00     0.011 C 
ATOM     11  C   UNL A   1      32.869  22.031  25.675  1.00  0.00    -0.035 C 
ATOM     12  C   UNL A   1      33.665  21.515  24.434  1.00  0.00     0.011 C 
ATOM     13  C   UNL A   1      31.361  21.897  25.370  1.00  0.00     0.007 C 
ATOM     14  C   UNL A   1      33.341  23.481  26.057  1.00  0.00     0.015 C 
ATOM     15  C   UNL A   1      30.485  22.929  26.090  1.00  0.00     0.018 C 
ATOM     16  C   UNL A   1      32.299  24.577  26.549  1.00  0.00     0.031 C 
ATOM     17  C   UNL A   1      32.712  26.080  26.434  1.00  0.00    -0.064 C 
ATOM     18  C   UNL A   1      29.917  25.377  26.457  1.00  0.00     0.018 C 
ATOM     19  C   UNL A   1      31.778  27.268  26.882  1.00  0.00    -0.006 C 
ATOM     20  C   UNL A   1      33.799  26.359  25.698  1.00  0.00    -0.027 C 
ATOM     21  C   UNL A   1      30.284  26.886  26.660  1.00  0.00     0.013 C 
ATOM     22  C   UNL A   1      31.906  27.414  28.429  1.00  0.00     0.017 C 
ATOM     23  C   UNL A   1      32.332  28.718  26.183  1.00  0.00    -0.020 C 
ATOM     24  C   UNL A   1      33.740  27.397  24.621  1.00  0.00     0.032 C 
ATOM     25  C   UNL A   1      32.632  28.444  24.682  1.00  0.00     0.006 C 
ATOM     26  C   UNL A   1      31.546  30.088  26.225  1.00  0.00     0.008 C 
ATOM     27  C   UNL A   1      33.705  29.105  26.903  1.00  0.00     0.012 C 
ATOM     28  C   UNL A   1      31.371  28.502  23.610  1.00  0.00    -0.025 C 
ATOM     29  C   UNL A   1      31.213  30.725  24.823  1.00  0.00     0.005 C 
ATOM     30  C   UNL A   1      32.033  28.711  22.231  1.00  0.00     0.012 C 
ATOM     31  C   UNL A   1      30.417  27.293  23.429  1.00  0.00     0.010 C 
ATOM     32  C   UNL A   1      30.445  29.669  24.042  1.00  0.00     0.003 C 
ATOM     33  C   UNL A   1      28.886  27.491  23.157  1.00  0.00     0.033 C 
ATOM     34  C   UNL A   1      29.248  30.026  23.089  1.00  0.00    -0.006 C 
ATOM     35  C   UNL A   1      28.246  28.877  23.399  1.00  0.00     0.120 C 
ATOM     36  C   UNL A   1      29.482  30.062  21.563  1.00  0.00     0.014 C 
ATOM     37  C   UNL A   1      28.647  31.401  23.432  1.00  0.00     0.014 C 
BRANCH  35  38
ATOM     38  O   UNL A   1      27.020  29.020  22.684  1.00  0.00    -0.393 OA
ATOM     39  H   UNL A   1      26.584  28.156  22.617  1.00  0.00     0.210 HD
ENDBRANCH  35  38
ENDBRANCH   6   9
ENDBRANCH   4   5
ENDBRANCH   3   4
ENDBRANCH   2   3
ENDBRANCH   1   2
BRANCH   1  40
ATOM     40  C   UNL A   1      36.750  22.127  23.715  1.00  0.00     0.021 C 
BRANCH  40  41
ATOM     41  C   UNL A   1      37.181  21.958  25.153  1.00  0.00     0.116 C 
BRANCH  41  42
ATOM     42  N   UNL A   1      38.058  20.815  25.371  1.00  0.00    -0.352 N 
ATOM     43  C   UNL A   1      39.263  20.802  26.053  1.00  0.00     0.251 C 
ATOM     44  H   UNL A   1      37.761  19.957  24.992  1.00  0.00     0.163 HD
ATOM     45  O   UNL A   1      39.936  19.811  26.133  1.00  0.00    -0.269 OA
BRANCH  43  46
ATOM     46  C   UNL A   1      39.702  22.098  26.620  1.00  0.00     0.039 A 
ATOM     47  C   UNL A   1      40.792  22.104  27.487  1.00  0.00     0.014 A 
ATOM     48  C   UNL A   1      39.156  23.288  26.133  1.00  0.00     0.014 A 
ATOM     49  C   UNL A   1      41.385  23.321  27.817  1.00  0.00     0.010 A 
ATOM     50  C   UNL A   1      39.818  24.482  26.370  1.00  0.00     0.010 A 
ATOM     51  C   UNL A   1      40.932  24.512  27.224  1.00  0.00    -0.014 A 
BRANCH  51  52
ATOM     52  C   UNL A   1      41.589  25.809  27.513  1.00  0.00     0.031 A 
ATOM     53  C   UNL A   1      40.844  26.849  28.303  1.00  0.00     0.074 A 
ATOM     54  C   UNL A   1      42.817  26.067  27.021  1.00  0.00     0.049 A 
ATOM     55  N   UNL A   1      41.203  28.066  28.614  1.00  0.00    -0.248 NA
ATOM     56  C   UNL A   1      39.498  26.481  28.771  1.00  0.00     0.031 C 
ATOM     57  C   UNL A   1      43.609  25.151  26.195  1.00  0.00     0.029 A 
ATOM     58  N   UNL A   1      43.614  27.177  27.139  1.00  0.00    -0.354 N 
ATOM     59  C   UNL A   1      40.122  28.612  29.297  1.00  0.00     0.074 A 
ATOM     60  C   UNL A   1      39.069  27.622  29.282  1.00  0.00     0.031 C 
ATOM     61  C   UNL A   1      44.789  25.724  25.910  1.00  0.00     0.029 A 
ATOM     62  C   UNL A   1      44.822  27.064  26.490  1.00  0.00     0.049 A 
ATOM     63  H   UNL A   1      43.348  27.979  27.642  1.00  0.00     0.167 HD
ATOM     64  C   UNL A   1      40.029  29.818  29.908  1.00  0.00     0.034 A 
ATOM     65  C   UNL A   1      45.835  27.945  26.367  1.00  0.00     0.034 A 
ATOM     66  C   UNL A   1      41.102  30.779  29.926  1.00  0.00     0.049 A 
ATOM     67  C   UNL A   1      45.705  29.288  27.040  1.00  0.00     0.074 A 
ATOM     68  C   UNL A   1      41.152  32.001  30.572  1.00  0.00     0.029 A 
ATOM     69  N   UNL A   1      42.312  30.631  29.258  1.00  0.00    -0.354 N 
ATOM     70  N   UNL A   1      44.703  29.766  27.742  1.00  0.00    -0.248 NA
ATOM     71  C   UNL A   1      46.843  30.207  26.910  1.00  0.00     0.031 C 
ATOM     72  C   UNL A   1      42.357  32.624  30.232  1.00  0.00     0.029 A 
ATOM     73  C   UNL A   1      43.097  31.758  29.442  1.00  0.00     0.049 A 
ATOM     74  H   UNL A   1      42.572  29.842  28.731  1.00  0.00     0.167 HD
ATOM     75  C   UNL A   1      45.101  31.033  28.160  1.00  0.00     0.074 A 
ATOM     76  C   UNL A   1      46.440  31.235  27.644  1.00  0.00     0.031 C 
ATOM     77  C   UNL A   1      44.426  31.946  28.904  1.00  0.00     0.034 A 
BRANCH  64  78
ATOM     78  C   UNL A   1      38.717  30.161  30.573  1.00  0.00     0.023 A 
ATOM     79  C   UNL A   1      37.721  30.902  29.913  1.00  0.00     0.031 A 
ATOM     80  C   UNL A   1      38.477  29.780  31.905  1.00  0.00     0.131 A 
ATOM     81  C   UNL A   1      36.575  31.313  30.608  1.00  0.00     0.055 A 
ATOM     82  C   UNL A   1      37.291  30.115  32.563  1.00  0.00     0.041 A 
ATOM     83  F   UNL A   1      39.399  29.094  32.597  1.00  0.00    -0.206 F 
ATOM     84  C   UNL A   1      36.339  30.901  31.922  1.00  0.00     0.022 A 
BRANCH  81  85
ATOM     85  S   UNL A   1      35.477  32.528  29.826  1.00  0.00     0.124 S 
ATOM     86  O   UNL A   1      34.392  32.615  30.801  1.00  0.00    -0.237 OA
ATOM     87  O   UNL A   1      36.334  33.703  29.719  1.00  0.00    -0.237 OA
ATOM     88  O   UNL A   1      35.116  31.898  28.559  1.00  0.00    -0.744 OA
ENDBRANCH  81  85
ENDBRANCH  64  78
BRANCH  65  89
ATOM     89  C   UNL A   1      47.047  27.597  25.569  1.00  0.00     0.023 A 
ATOM     90  C   UNL A   1      47.139  27.919  24.206  1.00  0.00     0.031 A 
ATOM     91  C   UNL A   1      48.124  26.910  26.157  1.00  0.00     0.131 A 
ATOM     92  C   UNL A   1      48.262  27.518  23.465  1.00  0.00     0.055 A 
ATOM     93  C   UNL A   1      49.263  26.560  25.429  1.00  0.00     0.041 A 
ATOM     94  F   UNL A   1      48.092  26.582  27.459  1.00  0.00    -0.206 F 
ATOM     95  C   UNL A   1      49.332  26.853  24.072  1.00  0.00     0.022 A 
BRANCH  92  96
ATOM     96  S   UNL A   1      48.276  27.808  21.675  1.00  0.00     0.124 S 
ATOM     97  O   UNL A   1      49.331  28.807  21.544  1.00  0.00    -0.237 OA
ATOM     98  O   UNL A   1      48.582  26.479  21.155  1.00  0.00    -0.237 OA
ATOM     99  O   UNL A   1      46.923  28.286  21.397  1.00  0.00    -0.744 OA
ENDBRANCH  92  96
ENDBRANCH  65  89
BRANCH  77 100
ATOM    100  C   UNL A   1      45.143  33.232  29.229  1.00  0.00     0.023 A 
ATOM    101  C   UNL A   1      45.031  34.368  28.409  1.00  0.00     0.031 A 
ATOM    102  C   UNL A   1      45.944  33.322  30.381  1.00  0.00     0.131 A 
ATOM    103  C   UNL A   1      45.749  35.530  28.726  1.00  0.00     0.055 A 
ATOM    104  C   UNL A   1      46.605  34.501  30.726  1.00  0.00     0.041 A 
ATOM    105  F   UNL A   1      46.088  32.266  31.198  1.00  0.00    -0.206 F 
ATOM    106  C   UNL A   1      46.519  35.611  29.889  1.00  0.00     0.022 A 
BRANCH 103 107
ATOM    107  S   UNL A   1      45.733  36.912  27.552  1.00  0.00     0.124 S 
ATOM    108  O   UNL A   1      46.620  36.423  26.500  1.00  0.00    -0.237 OA
ATOM    109  O   UNL A   1      44.320  37.007  27.199  1.00  0.00    -0.237 OA
ATOM    110  O   UNL A   1      46.254  38.032  28.332  1.00  0.00    -0.744 OA
ENDBRANCH 103 107
ENDBRANCH  77 100
ENDBRANCH  51  52
ENDBRANCH  43  46
ENDBRANCH  41  42
ENDBRANCH  40  41
ENDBRANCH   1  40
TORSDOF 17
ENDMDL
