MODEL 1
REMARK VINA RESULT:     -11.2      0.000      0.000
REMARK SMILES CCc1nc(C)c(C(=O)NCCCCCCNC(=O)c2ccc(-c3c4nc(c(-c5cc(S(=O)(=O)[O-])ccc5F)c5ccc([nH]5)c(-c5cc(S(=O)(=O)[O-])ccc5F)c5nc(c(-c6cc(S(=O)(=O)[O-])ccc6F)c6ccc3[nH]6)C=C5)C=C4)cc2)c(SCc2cnc(Cl)s2)n1
REMARK SMILES IDX 13 1 12 2 11 3 10 4 8 5 9 6 7 8 3 9 4 10 92 11 5 12 83 13
REMARK SMILES IDX 6 14 2 15 1 16 84 17 85 18 86 19 87 20 91 21 88 22 89 23
REMARK SMILES IDX 90 24 14 25 15 26 16 27 17 28 18 29 19 31 20 32 21 33 82 34
REMARK SMILES IDX 22 35 81 36 23 37 24 38 25 39 75 40 26 41 80 42 74 43 76 44
REMARK SMILES IDX 27 45 79 46 73 47 72 48 28 50 60 51 40 52 59 53 41 54 44 55
REMARK SMILES IDX 58 56 77 57 42 58 43 59 57 61 78 62 45 63 29 64 30 65 38 66
REMARK SMILES IDX 31 67 37 68 39 69 36 70 32 71 33 72 34 73 35 74 61 75 62 76
REMARK SMILES IDX 70 77 63 78 69 79 71 80 68 81 64 82 65 83 66 84 67 85 46 86
REMARK SMILES IDX 47 87 55 88 48 89 54 90 56 91 53 92 49 93 50 94 51 95 52 96
REMARK H PARENT 10 7 17 30 76 49 44 60
REMARK Flexibility Score: inf
ROOT
ATOM      1  C   UNL A   1      33.440  27.074  26.383  1.00  0.00     0.002 C 
ENDROOT
BRANCH   1   2
ATOM      2  C   UNL A   1      33.177  25.650  25.888  1.00  0.00     0.021 C 
BRANCH   2   3
ATOM      3  C   UNL A   1      34.458  24.824  25.685  1.00  0.00     0.116 C 
BRANCH   3   4
ATOM      4  N   UNL A   1      34.541  24.478  24.278  1.00  0.00    -0.352 N 
ATOM      5  C   UNL A   1      34.779  23.252  23.709  1.00  0.00     0.255 C 
ATOM      6  O   UNL A   1      35.496  23.201  22.711  1.00  0.00    -0.269 OA
ATOM      7  H   UNL A   1      34.407  25.223  23.647  1.00  0.00     0.163 HD
BRANCH   5   8
ATOM      8  C   UNL A   1      34.090  22.025  24.130  1.00  0.00     0.093 A 
ATOM      9  C   UNL A   1      32.953  19.557  24.409  1.00  0.00     0.129 A 
ATOM     10  N   UNL A   1      34.135  19.773  24.988  1.00  0.00    -0.237 NA
ATOM     11  N   UNL A   1      32.270  20.496  23.753  1.00  0.00    -0.226 NA
ATOM     12  C   UNL A   1      34.715  20.986  24.820  1.00  0.00     0.055 A 
ATOM     13  C   UNL A   1      32.830  21.726  23.603  1.00  0.00     0.113 A 
ATOM     14  C   UNL A   1      36.084  21.026  25.417  1.00  0.00     0.068 C 
BRANCH   9  15
ATOM     15  C   UNL A   1      32.479  18.135  24.315  1.00  0.00     0.074 C 
ATOM     16  C   UNL A   1      33.105  17.303  25.428  1.00  0.00     0.012 C 
ENDBRANCH   9  15
BRANCH  13  17
ATOM     17  S   UNL A   1      31.711  22.698  22.599  1.00  0.00    -0.100 SA
BRANCH  17  18
ATOM     18  C   UNL A   1      30.827  23.866  23.661  1.00  0.00     0.125 C 
BRANCH  18  19
ATOM     19  C   UNL A   1      30.774  25.293  23.226  1.00  0.00     0.036 A 
ATOM     20  C   UNL A   1      31.336  25.978  22.164  1.00  0.00     0.129 A 
ATOM     21  S   UNL A   1      29.842  26.405  24.170  1.00  0.00    -0.107 S 
ATOM     22  N   UNL A   1      31.015  27.321  22.070  1.00  0.00    -0.233 NA
ATOM     23  C   UNL A   1      30.242  27.637  23.076  1.00  0.00     0.183 A 
ATOM     24  Cl  UNL A   1      29.633  29.222  23.316  1.00  0.00    -0.051 Cl
ENDBRANCH  18  19
ENDBRANCH  17  18
ENDBRANCH  13  17
ENDBRANCH   5   8
ENDBRANCH   3   4
ENDBRANCH   2   3
ENDBRANCH   1   2
BRANCH   1  25
ATOM     25  C   UNL A   1      33.675  28.086  25.259  1.00  0.00     0.002 C 
BRANCH  25  26
ATOM     26  C   UNL A   1      32.929  29.415  25.416  1.00  0.00     0.021 C 
BRANCH  26  27
ATOM     27  C   UNL A   1      32.801  29.912  26.855  1.00  0.00     0.116 C 
BRANCH  27  28
ATOM     28  N   UNL A   1      32.878  31.362  26.925  1.00  0.00    -0.352 N 
ATOM     29  C   UNL A   1      33.754  32.144  27.630  1.00  0.00     0.251 C 
ATOM     30  H   UNL A   1      32.209  31.850  26.393  1.00  0.00     0.163 HD
ATOM     31  O   UNL A   1      33.491  33.342  27.807  1.00  0.00    -0.269 OA
BRANCH  29  32
ATOM     32  C   UNL A   1      34.995  31.566  28.181  1.00  0.00     0.039 A 
ATOM     33  C   UNL A   1      36.158  32.338  28.196  1.00  0.00     0.014 A 
ATOM     34  C   UNL A   1      35.018  30.252  28.661  1.00  0.00     0.014 A 
ATOM     35  C   UNL A   1      37.332  31.811  28.739  1.00  0.00     0.010 A 
ATOM     36  C   UNL A   1      36.171  29.751  29.263  1.00  0.00     0.010 A 
ATOM     37  C   UNL A   1      37.341  30.524  29.304  1.00  0.00    -0.014 A 
BRANCH  37  38
ATOM     38  C   UNL A   1      38.567  29.981  29.944  1.00  0.00     0.031 A 
ATOM     39  C   UNL A   1      38.994  30.465  31.303  1.00  0.00     0.074 A 
ATOM     40  C   UNL A   1      39.318  29.084  29.275  1.00  0.00     0.049 A 
ATOM     41  N   UNL A   1      40.049  30.135  32.005  1.00  0.00    -0.248 NA
ATOM     42  C   UNL A   1      38.137  31.473  31.945  1.00  0.00     0.031 C 
ATOM     43  C   UNL A   1      39.027  28.577  27.933  1.00  0.00     0.029 A 
ATOM     44  N   UNL A   1      40.479  28.442  29.627  1.00  0.00    -0.354 N 
ATOM     45  C   UNL A   1      39.986  30.898  33.166  1.00  0.00     0.074 A 
ATOM     46  C   UNL A   1      38.824  31.753  33.042  1.00  0.00     0.031 C 
ATOM     47  C   UNL A   1      39.968  27.681  27.587  1.00  0.00     0.029 A 
ATOM     48  C   UNL A   1      40.950  27.583  28.662  1.00  0.00     0.049 A 
ATOM     49  H   UNL A   1      40.931  28.584  30.490  1.00  0.00     0.167 HD
ATOM     50  C   UNL A   1      40.810  30.872  34.245  1.00  0.00     0.034 A 
ATOM     51  C   UNL A   1      42.053  26.809  28.640  1.00  0.00     0.034 A 
ATOM     52  C   UNL A   1      41.961  30.007  34.352  1.00  0.00     0.049 A 
ATOM     53  C   UNL A   1      42.960  26.808  29.843  1.00  0.00     0.074 A 
ATOM     54  C   UNL A   1      42.832  29.858  35.419  1.00  0.00     0.029 A 
ATOM     55  N   UNL A   1      42.412  29.152  33.354  1.00  0.00    -0.354 N 
ATOM     56  N   UNL A   1      42.854  27.493  30.959  1.00  0.00    -0.248 NA
ATOM     57  C   UNL A   1      44.128  25.920  29.788  1.00  0.00     0.031 C 
ATOM     58  C   UNL A   1      43.844  28.969  35.040  1.00  0.00     0.029 A 
ATOM     59  C   UNL A   1      43.564  28.500  33.766  1.00  0.00     0.049 A 
ATOM     60  H   UNL A   1      41.976  29.028  32.480  1.00  0.00     0.167 HD
ATOM     61  C   UNL A   1      43.931  27.098  31.750  1.00  0.00     0.074 A 
ATOM     62  C   UNL A   1      44.654  26.097  30.991  1.00  0.00     0.031 C 
ATOM     63  C   UNL A   1      44.289  27.521  32.990  1.00  0.00     0.034 A 
BRANCH  50  64
ATOM     64  C   UNL A   1      40.503  31.824  35.379  1.00  0.00     0.023 A 
ATOM     65  C   UNL A   1      39.423  31.608  36.255  1.00  0.00     0.031 A 
ATOM     66  C   UNL A   1      41.285  32.976  35.575  1.00  0.00     0.131 A 
ATOM     67  C   UNL A   1      39.111  32.564  37.233  1.00  0.00     0.055 A 
ATOM     68  C   UNL A   1      41.019  33.882  36.604  1.00  0.00     0.041 A 
ATOM     69  F   UNL A   1      42.316  33.249  34.760  1.00  0.00    -0.206 F 
ATOM     70  C   UNL A   1      39.917  33.688  37.431  1.00  0.00     0.022 A 
BRANCH  67  71
ATOM     71  S   UNL A   1      37.554  32.391  38.147  1.00  0.00     0.124 S 
ATOM     72  O   UNL A   1      36.628  33.133  37.294  1.00  0.00    -0.237 OA
ATOM     73  O   UNL A   1      37.369  30.946  38.186  1.00  0.00    -0.237 OA
ATOM     74  O   UNL A   1      37.841  33.020  39.435  1.00  0.00    -0.744 OA
ENDBRANCH  67  71
ENDBRANCH  50  64
BRANCH  51  75
ATOM     75  C   UNL A   1      42.368  25.974  27.446  1.00  0.00     0.023 A 
ATOM     76  C   UNL A   1      41.959  24.633  27.372  1.00  0.00     0.031 A 
ATOM     77  C   UNL A   1      43.119  26.493  26.377  1.00  0.00     0.131 A 
ATOM     78  C   UNL A   1      42.344  23.843  26.278  1.00  0.00     0.055 A 
ATOM     79  C   UNL A   1      43.454  25.719  25.265  1.00  0.00     0.041 A 
ATOM     80  F   UNL A   1      43.530  27.771  26.394  1.00  0.00    -0.206 F 
ATOM     81  C   UNL A   1      43.077  24.381  25.217  1.00  0.00     0.022 A 
BRANCH  78  82
ATOM     82  S   UNL A   1      41.947  22.073  26.301  1.00  0.00     0.124 S 
ATOM     83  O   UNL A   1      40.518  22.085  26.009  1.00  0.00    -0.237 OA
ATOM     84  O   UNL A   1      42.812  21.555  25.247  1.00  0.00    -0.237 OA
ATOM     85  O   UNL A   1      42.305  21.662  27.657  1.00  0.00    -0.744 OA
ENDBRANCH  78  82
ENDBRANCH  51  75
BRANCH  63  86
ATOM     86  C   UNL A   1      45.505  26.870  33.604  1.00  0.00     0.023 A 
ATOM     87  C   UNL A   1      45.411  25.672  34.335  1.00  0.00     0.031 A 
ATOM     88  C   UNL A   1      46.770  27.474  33.487  1.00  0.00     0.131 A 
ATOM     89  C   UNL A   1      46.545  25.155  34.979  1.00  0.00     0.055 A 
ATOM     90  C   UNL A   1      47.908  26.918  34.074  1.00  0.00     0.041 A 
ATOM     91  F   UNL A   1      46.919  28.620  32.804  1.00  0.00    -0.206 F 
ATOM     92  C   UNL A   1      47.796  25.760  34.839  1.00  0.00     0.022 A 
BRANCH  89  93
ATOM     93  S   UNL A   1      46.338  23.744  36.101  1.00  0.00     0.124 S 
ATOM     94  O   UNL A   1      46.209  24.403  37.396  1.00  0.00    -0.237 OA
ATOM     95  O   UNL A   1      45.130  23.109  35.585  1.00  0.00    -0.237 OA
ATOM     96  O   UNL A   1      47.569  22.976  35.916  1.00  0.00    -0.744 OA
ENDBRANCH  89  93
ENDBRANCH  63  86
ENDBRANCH  37  38
ENDBRANCH  29  32
ENDBRANCH  27  28
ENDBRANCH  26  27
ENDBRANCH  25  26
ENDBRANCH   1  25
TORSDOF 20
ENDMDL
MODEL 2
REMARK VINA RESULT:     -10.9      2.067      2.360
REMARK SMILES CCc1nc(C)c(C(=O)NCCCCCCNC(=O)c2ccc(-c3c4nc(c(-c5cc(S(=O)(=O)[O-])ccc5F)c5ccc([nH]5)c(-c5cc(S(=O)(=O)[O-])ccc5F)c5nc(c(-c6cc(S(=O)(=O)[O-])ccc6F)c6ccc3[nH]6)C=C5)C=C4)cc2)c(SCc2cnc(Cl)s2)n1
REMARK SMILES IDX 13 1 12 2 11 3 10 4 8 5 9 6 7 8 3 9 4 10 92 11 5 12 83 13
REMARK SMILES IDX 6 14 2 15 1 16 84 17 85 18 86 19 87 20 91 21 88 22 89 23
REMARK SMILES IDX 90 24 14 25 15 26 16 27 17 28 18 29 19 31 20 32 21 33 82 34
REMARK SMILES IDX 22 35 81 36 23 37 24 38 25 39 75 40 26 41 80 42 74 43 76 44
REMARK SMILES IDX 27 45 79 46 73 47 72 48 28 50 60 51 40 52 59 53 41 54 44 55
REMARK SMILES IDX 58 56 77 57 42 58 43 59 57 61 78 62 45 63 29 64 30 65 38 66
REMARK SMILES IDX 31 67 37 68 39 69 36 70 32 71 33 72 34 73 35 74 61 75 62 76
REMARK SMILES IDX 70 77 63 78 69 79 71 80 68 81 64 82 65 83 66 84 67 85 46 86
REMARK SMILES IDX 47 87 55 88 48 89 54 90 56 91 53 92 49 93 50 94 51 95 52 96
REMARK H PARENT 10 7 17 30 76 49 44 60
REMARK Flexibility Score: inf
ROOT
ATOM      1  C   UNL A   1      33.089  27.183  26.292  1.00  0.00     0.002 C 
ENDROOT
BRANCH   1   2
ATOM      2  C   UNL A   1      34.015  26.609  25.217  1.00  0.00     0.021 C 
BRANCH   2   3
ATOM      3  C   UNL A   1      34.197  25.085  25.315  1.00  0.00     0.116 C 
BRANCH   3   4
ATOM      4  N   UNL A   1      34.464  24.587  23.978  1.00  0.00    -0.352 N 
ATOM      5  C   UNL A   1      34.836  23.323  23.592  1.00  0.00     0.255 C 
ATOM      6  O   UNL A   1      35.667  23.209  22.692  1.00  0.00    -0.269 OA
ATOM      7  H   UNL A   1      34.362  25.242  23.250  1.00  0.00     0.163 HD
BRANCH   5   8
ATOM      8  C   UNL A   1      34.175  22.107  24.083  1.00  0.00     0.093 A 
ATOM      9  C   UNL A   1      33.038  19.655  24.480  1.00  0.00     0.129 A 
ATOM     10  N   UNL A   1      34.272  19.857  24.942  1.00  0.00    -0.237 NA
ATOM     11  N   UNL A   1      32.307  20.601  23.888  1.00  0.00    -0.226 NA
ATOM     12  C   UNL A   1      34.849  21.062  24.715  1.00  0.00     0.055 A 
ATOM     13  C   UNL A   1      32.867  21.823  23.680  1.00  0.00     0.113 A 
ATOM     14  C   UNL A   1      36.270  21.085  25.178  1.00  0.00     0.068 C 
BRANCH   9  15
ATOM     15  C   UNL A   1      32.538  18.239  24.438  1.00  0.00     0.074 C 
ATOM     16  C   UNL A   1      33.708  17.280  24.257  1.00  0.00     0.012 C 
ENDBRANCH   9  15
BRANCH  13  17
ATOM     17  S   UNL A   1      31.670  22.807  22.782  1.00  0.00    -0.100 SA
BRANCH  17  18
ATOM     18  C   UNL A   1      30.944  24.024  23.907  1.00  0.00     0.125 C 
BRANCH  18  19
ATOM     19  C   UNL A   1      30.730  25.406  23.387  1.00  0.00     0.036 A 
ATOM     20  C   UNL A   1      31.388  26.171  22.439  1.00  0.00     0.129 A 
ATOM     21  S   UNL A   1      29.415  26.332  24.027  1.00  0.00    -0.107 S 
ATOM     22  N   UNL A   1      30.855  27.425  22.195  1.00  0.00    -0.233 NA
ATOM     23  C   UNL A   1      29.824  27.601  22.980  1.00  0.00     0.183 A 
ATOM     24  Cl  UNL A   1      28.894  29.041  22.981  1.00  0.00    -0.051 Cl
ENDBRANCH  18  19
ENDBRANCH  17  18
ENDBRANCH  13  17
ENDBRANCH   5   8
ENDBRANCH   3   4
ENDBRANCH   2   3
ENDBRANCH   1   2
BRANCH   1  25
ATOM     25  C   UNL A   1      32.180  28.307  25.790  1.00  0.00     0.002 C 
BRANCH  25  26
ATOM     26  C   UNL A   1      32.716  29.725  26.017  1.00  0.00     0.021 C 
BRANCH  26  27
ATOM     27  C   UNL A   1      33.598  29.887  27.254  1.00  0.00     0.116 C 
BRANCH  27  28
ATOM     28  N   UNL A   1      33.661  31.274  27.684  1.00  0.00    -0.352 N 
ATOM     29  C   UNL A   1      34.531  31.865  28.561  1.00  0.00     0.251 C 
ATOM     30  H   UNL A   1      32.984  31.872  27.290  1.00  0.00     0.163 HD
ATOM     31  O   UNL A   1      34.256  32.977  29.031  1.00  0.00    -0.269 OA
BRANCH  29  32
ATOM     32  C   UNL A   1      35.780  31.182  28.948  1.00  0.00     0.039 A 
ATOM     33  C   UNL A   1      36.994  31.634  28.427  1.00  0.00     0.014 A 
ATOM     34  C   UNL A   1      35.753  30.078  29.808  1.00  0.00     0.014 A 
ATOM     35  C   UNL A   1      38.185  31.012  28.808  1.00  0.00     0.010 A 
ATOM     36  C   UNL A   1      36.946  29.502  30.239  1.00  0.00     0.010 A 
ATOM     37  C   UNL A   1      38.174  29.960  29.740  1.00  0.00    -0.014 A 
BRANCH  37  38
ATOM     38  C   UNL A   1      39.442  29.337  30.202  1.00  0.00     0.031 A 
ATOM     39  C   UNL A   1      40.157  29.874  31.412  1.00  0.00     0.074 A 
ATOM     40  C   UNL A   1      39.969  28.315  29.499  1.00  0.00     0.049 A 
ATOM     41  N   UNL A   1      41.288  29.486  31.944  1.00  0.00    -0.248 NA
ATOM     42  C   UNL A   1      39.532  31.016  32.096  1.00  0.00     0.031 C 
ATOM     43  C   UNL A   1      39.388  27.741  28.283  1.00  0.00     0.029 A 
ATOM     44  N   UNL A   1      41.109  27.579  29.699  1.00  0.00    -0.354 N 
ATOM     45  C   UNL A   1      41.514  30.338  33.020  1.00  0.00     0.074 A 
ATOM     46  C   UNL A   1      40.433  31.302  33.022  1.00  0.00     0.031 C 
ATOM     47  C   UNL A   1      40.160  26.725  27.863  1.00  0.00     0.029 A 
ATOM     48  C   UNL A   1      41.311  26.602  28.752  1.00  0.00     0.049 A 
ATOM     49  H   UNL A   1      41.725  27.736  30.451  1.00  0.00     0.167 HD
ATOM     50  C   UNL A   1      42.517  30.305  33.933  1.00  0.00     0.034 A 
ATOM     51  C   UNL A   1      42.314  25.713  28.609  1.00  0.00     0.034 A 
ATOM     52  C   UNL A   1      43.583  29.330  33.917  1.00  0.00     0.049 A 
ATOM     53  C   UNL A   1      43.425  25.706  29.627  1.00  0.00     0.074 A 
ATOM     54  C   UNL A   1      44.618  29.169  34.822  1.00  0.00     0.029 A 
ATOM     55  N   UNL A   1      43.759  28.357  32.941  1.00  0.00    -0.354 N 
ATOM     56  N   UNL A   1      43.592  26.482  30.674  1.00  0.00    -0.248 NA
ATOM     57  C   UNL A   1      44.474  24.695  29.451  1.00  0.00     0.031 C 
ATOM     58  C   UNL A   1      45.455  28.148  34.356  1.00  0.00     0.029 A 
ATOM     59  C   UNL A   1      44.902  27.617  33.202  1.00  0.00     0.049 A 
ATOM     60  H   UNL A   1      43.158  28.215  32.174  1.00  0.00     0.167 HD
ATOM     61  C   UNL A   1      44.755  26.033  31.295  1.00  0.00     0.074 A 
ATOM     62  C   UNL A   1      45.228  24.904  30.519  1.00  0.00     0.031 C 
ATOM     63  C   UNL A   1      45.375  26.508  32.407  1.00  0.00     0.034 A 
BRANCH  50  64
ATOM     64  C   UNL A   1      42.516  31.368  35.008  1.00  0.00     0.023 A 
ATOM     65  C   UNL A   1      43.217  32.579  34.852  1.00  0.00     0.031 A 
ATOM     66  C   UNL A   1      41.827  31.162  36.216  1.00  0.00     0.131 A 
ATOM     67  C   UNL A   1      43.273  33.498  35.909  1.00  0.00     0.055 A 
ATOM     68  C   UNL A   1      41.819  32.120  37.233  1.00  0.00     0.041 A 
ATOM     69  F   UNL A   1      41.157  30.020  36.435  1.00  0.00    -0.206 F 
ATOM     70  C   UNL A   1      42.558  33.290  37.090  1.00  0.00     0.022 A 
BRANCH  67  71
ATOM     71  S   UNL A   1      44.413  34.904  35.775  1.00  0.00     0.124 S 
ATOM     72  O   UNL A   1      44.071  35.675  36.968  1.00  0.00    -0.237 OA
ATOM     73  O   UNL A   1      45.718  34.254  35.786  1.00  0.00    -0.237 OA
ATOM     74  O   UNL A   1      44.037  35.530  34.509  1.00  0.00    -0.744 OA
ENDBRANCH  67  71
ENDBRANCH  50  64
BRANCH  51  75
ATOM     75  C   UNL A   1      42.322  24.760  27.463  1.00  0.00     0.023 A 
ATOM     76  C   UNL A   1      41.605  23.554  27.518  1.00  0.00     0.031 A 
ATOM     77  C   UNL A   1      43.082  25.021  26.309  1.00  0.00     0.131 A 
ATOM     78  C   UNL A   1      41.701  22.634  26.463  1.00  0.00     0.055 A 
ATOM     79  C   UNL A   1      43.131  24.128  25.238  1.00  0.00     0.041 A 
ATOM     80  F   UNL A   1      43.782  26.163  26.201  1.00  0.00    -0.206 F 
ATOM     81  C   UNL A   1      42.448  22.918  25.318  1.00  0.00     0.022 A 
BRANCH  78  82
ATOM     82  S   UNL A   1      40.903  21.015  26.648  1.00  0.00     0.124 S 
ATOM     83  O   UNL A   1      40.787  20.904  28.097  1.00  0.00    -0.237 OA
ATOM     84  O   UNL A   1      39.655  21.210  25.917  1.00  0.00    -0.237 OA
ATOM     85  O   UNL A   1      41.851  20.095  26.024  1.00  0.00    -0.744 OA
ENDBRANCH  78  82
ENDBRANCH  51  75
BRANCH  63  86
ATOM     86  C   UNL A   1      46.618  25.778  32.855  1.00  0.00     0.023 A 
ATOM     87  C   UNL A   1      46.557  24.709  33.767  1.00  0.00     0.031 A 
ATOM     88  C   UNL A   1      47.884  26.178  32.392  1.00  0.00     0.131 A 
ATOM     89  C   UNL A   1      47.742  24.125  34.241  1.00  0.00     0.055 A 
ATOM     90  C   UNL A   1      49.056  25.549  32.815  1.00  0.00     0.041 A 
ATOM     91  F   UNL A   1      48.003  27.195  31.523  1.00  0.00    -0.206 F 
ATOM     92  C   UNL A   1      48.989  24.526  33.758  1.00  0.00     0.022 A 
BRANCH  89  93
ATOM     93  S   UNL A   1      47.635  22.914  35.587  1.00  0.00     0.124 S 
ATOM     94  O   UNL A   1      49.015  22.456  35.694  1.00  0.00    -0.237 OA
ATOM     95  O   UNL A   1      47.144  23.723  36.698  1.00  0.00    -0.237 OA
ATOM     96  O   UNL A   1      46.689  21.920  35.080  1.00  0.00    -0.744 OA
ENDBRANCH  89  93
ENDBRANCH  63  86
ENDBRANCH  37  38
ENDBRANCH  29  32
ENDBRANCH  27  28
ENDBRANCH  26  27
ENDBRANCH  25  26
ENDBRANCH   1  25
TORSDOF 20
ENDMDL
MODEL 3
REMARK VINA RESULT:     -10.9      5.522      8.173
REMARK SMILES CCc1nc(C)c(C(=O)NCCCCCCNC(=O)c2ccc(-c3c4nc(c(-c5cc(S(=O)(=O)[O-])ccc5F)c5ccc([nH]5)c(-c5cc(S(=O)(=O)[O-])ccc5F)c5nc(c(-c6cc(S(=O)(=O)[O-])ccc6F)c6ccc3[nH]6)C=C5)C=C4)cc2)c(SCc2cnc(Cl)s2)n1
REMARK SMILES IDX 13 1 12 2 11 3 10 4 8 5 9 6 7 8 3 9 4 10 92 11 5 12 83 13
REMARK SMILES IDX 6 14 2 15 1 16 84 17 85 18 86 19 87 20 91 21 88 22 89 23
REMARK SMILES IDX 90 24 14 25 15 26 16 27 17 28 18 29 19 31 20 32 21 33 82 34
REMARK SMILES IDX 22 35 81 36 23 37 24 38 25 39 75 40 26 41 80 42 74 43 76 44
REMARK SMILES IDX 27 45 79 46 73 47 72 48 28 50 60 51 40 52 59 53 41 54 44 55
REMARK SMILES IDX 58 56 77 57 42 58 43 59 57 61 78 62 45 63 29 64 30 65 38 66
REMARK SMILES IDX 31 67 37 68 39 69 36 70 32 71 33 72 34 73 35 74 61 75 62 76
REMARK SMILES IDX 70 77 63 78 69 79 71 80 68 81 64 82 65 83 66 84 67 85 46 86
REMARK SMILES IDX 47 87 55 88 48 89 54 90 56 91 53 92 49 93 50 94 51 95 52 96
REMARK H PARENT 10 7 17 30 76 49 44 60
REMARK Flexibility Score: inf
ROOT
ATOM      1  C   UNL A   1      36.927  22.060  23.983  1.00  0.00     0.002 C 
ENDROOT
BRANCH   1   2
ATOM      2  C   UNL A   1      36.267  23.333  24.519  1.00  0.00     0.021 C 
BRANCH   2   3
ATOM      3  C   UNL A   1      36.289  23.436  26.053  1.00  0.00     0.116 C 
BRANCH   3   4
ATOM      4  N   UNL A   1      35.041  24.045  26.472  1.00  0.00    -0.352 N 
ATOM      5  C   UNL A   1      33.805  23.963  25.879  1.00  0.00     0.255 C 
ATOM      6  O   UNL A   1      33.102  24.972  25.852  1.00  0.00    -0.269 OA
ATOM      7  H   UNL A   1      35.085  24.590  27.292  1.00  0.00     0.163 HD
BRANCH   5   8
ATOM      8  C   UNL A   1      33.216  22.696  25.426  1.00  0.00     0.093 A 
ATOM      9  C   UNL A   1      32.610  20.269  24.330  1.00  0.00     0.129 A 
ATOM     10  N   UNL A   1      32.955  20.308  25.618  1.00  0.00    -0.237 NA
ATOM     11  N   UNL A   1      32.488  21.355  23.565  1.00  0.00    -0.226 NA
ATOM     12  C   UNL A   1      33.289  21.507  26.152  1.00  0.00     0.055 A 
ATOM     13  C   UNL A   1      32.794  22.567  24.100  1.00  0.00     0.113 A 
ATOM     14  C   UNL A   1      33.772  21.364  27.559  1.00  0.00     0.068 C 
BRANCH   9  15
ATOM     15  C   UNL A   1      32.567  18.922  23.666  1.00  0.00     0.074 C 
ATOM     16  C   UNL A   1      33.224  17.879  24.563  1.00  0.00     0.012 C 
ENDBRANCH   9  15
BRANCH  13  17
ATOM     17  S   UNL A   1      32.626  23.779  22.793  1.00  0.00    -0.100 SA
BRANCH  17  18
ATOM     18  C   UNL A   1      31.085  24.697  23.033  1.00  0.00     0.125 C 
BRANCH  18  19
ATOM     19  C   UNL A   1      31.173  26.183  23.132  1.00  0.00     0.036 A 
ATOM     20  C   UNL A   1      32.213  27.081  22.964  1.00  0.00     0.129 A 
ATOM     21  S   UNL A   1      29.739  27.068  23.527  1.00  0.00    -0.107 S 
ATOM     22  N   UNL A   1      31.887  28.419  23.102  1.00  0.00    -0.233 NA
ATOM     23  C   UNL A   1      30.617  28.512  23.401  1.00  0.00     0.183 A 
ATOM     24  Cl  UNL A   1      29.832  30.013  23.659  1.00  0.00    -0.051 Cl
ENDBRANCH  18  19
ENDBRANCH  17  18
ENDBRANCH  13  17
ENDBRANCH   5   8
ENDBRANCH   3   4
ENDBRANCH   2   3
ENDBRANCH   1   2
BRANCH   1  25
ATOM     25  C   UNL A   1      36.761  20.845  24.897  1.00  0.00     0.002 C 
BRANCH  25  26
ATOM     26  C   UNL A   1      37.974  19.910  24.961  1.00  0.00     0.021 C 
BRANCH  26  27
ATOM     27  C   UNL A   1      39.128  20.415  25.827  1.00  0.00     0.116 C 
BRANCH  27  28
ATOM     28  N   UNL A   1      40.147  19.394  26.001  1.00  0.00    -0.352 N 
ATOM     29  C   UNL A   1      41.505  19.541  26.100  1.00  0.00     0.251 C 
ATOM     30  H   UNL A   1      39.817  18.468  26.054  1.00  0.00     0.163 HD
ATOM     31  O   UNL A   1      42.236  18.553  25.948  1.00  0.00    -0.269 OA
BRANCH  29  32
ATOM     32  C   UNL A   1      42.094  20.865  26.379  1.00  0.00     0.039 A 
ATOM     33  C   UNL A   1      42.512  21.664  25.313  1.00  0.00     0.014 A 
ATOM     34  C   UNL A   1      42.255  21.311  27.696  1.00  0.00     0.014 A 
ATOM     35  C   UNL A   1      43.047  22.929  25.564  1.00  0.00     0.010 A 
ATOM     36  C   UNL A   1      42.726  22.599  27.941  1.00  0.00     0.010 A 
ATOM     37  C   UNL A   1      43.130  23.421  26.878  1.00  0.00    -0.014 A 
BRANCH  37  38
ATOM     38  C   UNL A   1      43.634  24.792  27.150  1.00  0.00     0.031 A 
ATOM     39  C   UNL A   1      42.708  25.852  27.681  1.00  0.00     0.074 A 
ATOM     40  C   UNL A   1      44.919  25.090  26.871  1.00  0.00     0.049 A 
ATOM     41  N   UNL A   1      42.955  27.110  27.945  1.00  0.00    -0.248 NA
ATOM     42  C   UNL A   1      41.313  25.451  27.918  1.00  0.00     0.031 C 
ATOM     43  C   UNL A   1      45.897  24.155  26.310  1.00  0.00     0.029 A 
ATOM     44  N   UNL A   1      45.623  26.258  27.018  1.00  0.00    -0.354 N 
ATOM     45  C   UNL A   1      41.748  27.652  28.374  1.00  0.00     0.074 A 
ATOM     46  C   UNL A   1      40.758  26.601  28.271  1.00  0.00     0.031 C 
ATOM     47  C   UNL A   1      47.081  24.779  26.187  1.00  0.00     0.029 A 
ATOM     48  C   UNL A   1      46.937  26.165  26.619  1.00  0.00     0.049 A 
ATOM     49  H   UNL A   1      45.226  27.084  27.375  1.00  0.00     0.167 HD
ATOM     50  C   UNL A   1      41.495  28.905  28.831  1.00  0.00     0.034 A 
ATOM     51  C   UNL A   1      47.913  27.094  26.595  1.00  0.00     0.034 A 
ATOM     52  C   UNL A   1      42.498  29.939  28.931  1.00  0.00     0.049 A 
ATOM     53  C   UNL A   1      47.603  28.482  27.093  1.00  0.00     0.074 A 
ATOM     54  C   UNL A   1      42.366  31.223  29.430  1.00  0.00     0.029 A 
ATOM     55  N   UNL A   1      43.818  29.812  28.514  1.00  0.00    -0.354 N 
ATOM     56  N   UNL A   1      46.470  28.963  27.551  1.00  0.00    -0.248 NA
ATOM     57  C   UNL A   1      48.709  29.448  27.083  1.00  0.00     0.031 C 
ATOM     58  C   UNL A   1      43.583  31.892  29.251  1.00  0.00     0.029 A 
ATOM     59  C   UNL A   1      44.500  31.003  28.713  1.00  0.00     0.049 A 
ATOM     60  H   UNL A   1      44.211  28.994  28.133  1.00  0.00     0.167 HD
ATOM     61  C   UNL A   1      46.735  30.283  27.907  1.00  0.00     0.074 A 
ATOM     62  C   UNL A   1      48.140  30.509  27.634  1.00  0.00     0.031 C 
ATOM     63  C   UNL A   1      45.896  31.222  28.415  1.00  0.00     0.034 A 
BRANCH  50  64
ATOM     64  C   UNL A   1      40.073  29.226  29.232  1.00  0.00     0.023 A 
ATOM     65  C   UNL A   1      39.679  29.278  30.582  1.00  0.00     0.031 A 
ATOM     66  C   UNL A   1      39.091  29.460  28.254  1.00  0.00     0.131 A 
ATOM     67  C   UNL A   1      38.331  29.482  30.912  1.00  0.00     0.055 A 
ATOM     68  C   UNL A   1      37.766  29.745  28.592  1.00  0.00     0.041 A 
ATOM     69  F   UNL A   1      39.399  29.404  26.949  1.00  0.00    -0.206 F 
ATOM     70  C   UNL A   1      37.375  29.742  29.928  1.00  0.00     0.022 A 
BRANCH  67  71
ATOM     71  S   UNL A   1      37.818  29.258  32.638  1.00  0.00     0.124 S 
ATOM     72  O   UNL A   1      37.778  27.801  32.747  1.00  0.00    -0.237 OA
ATOM     73  O   UNL A   1      38.885  29.925  33.373  1.00  0.00    -0.237 OA
ATOM     74  O   UNL A   1      36.514  29.915  32.696  1.00  0.00    -0.744 OA
ENDBRANCH  67  71
ENDBRANCH  50  64
BRANCH  51  75
ATOM     75  C   UNL A   1      49.270  26.752  26.080  1.00  0.00     0.023 A 
ATOM     76  C   UNL A   1      49.693  27.182  24.813  1.00  0.00     0.031 A 
ATOM     77  C   UNL A   1      50.150  25.954  26.832  1.00  0.00     0.131 A 
ATOM     78  C   UNL A   1      50.940  26.772  24.315  1.00  0.00     0.055 A 
ATOM     79  C   UNL A   1      51.411  25.594  26.356  1.00  0.00     0.041 A 
ATOM     80  F   UNL A   1      49.797  25.521  28.054  1.00  0.00    -0.206 F 
ATOM     81  C   UNL A   1      51.807  25.993  25.083  1.00  0.00     0.022 A 
BRANCH  78  82
ATOM     82  S   UNL A   1      51.377  27.203  22.608  1.00  0.00     0.124 S 
ATOM     83  O   UNL A   1      51.509  28.653  22.691  1.00  0.00    -0.237 OA
ATOM     84  O   UNL A   1      52.615  26.455  22.415  1.00  0.00    -0.237 OA
ATOM     85  O   UNL A   1      50.235  26.722  21.833  1.00  0.00    -0.744 OA
ENDBRANCH  78  82
ENDBRANCH  51  75
BRANCH  63  86
ATOM     86  C   UNL A   1      46.498  32.570  28.732  1.00  0.00     0.023 A 
ATOM     87  C   UNL A   1      46.599  33.580  27.758  1.00  0.00     0.031 A 
ATOM     88  C   UNL A   1      47.009  32.836  30.015  1.00  0.00     0.131 A 
ATOM     89  C   UNL A   1      47.261  34.780  28.062  1.00  0.00     0.055 A 
ATOM     90  C   UNL A   1      47.605  34.058  30.331  1.00  0.00     0.041 A 
ATOM     91  F   UNL A   1      46.942  31.908  30.983  1.00  0.00    -0.206 F 
ATOM     92  C   UNL A   1      47.749  35.032  29.347  1.00  0.00     0.022 A 
BRANCH  89  93
ATOM     93  S   UNL A   1      47.579  35.959  26.721  1.00  0.00     0.124 S 
ATOM     94  O   UNL A   1      47.616  35.087  25.553  1.00  0.00    -0.237 OA
ATOM     95  O   UNL A   1      46.430  36.854  26.812  1.00  0.00    -0.237 OA
ATOM     96  O   UNL A   1      48.861  36.559  27.089  1.00  0.00    -0.744 OA
ENDBRANCH  89  93
ENDBRANCH  63  86
ENDBRANCH  37  38
ENDBRANCH  29  32
ENDBRANCH  27  28
ENDBRANCH  26  27
ENDBRANCH  25  26
ENDBRANCH   1  25
TORSDOF 20
ENDMDL
