MODEL 1
REMARK VINA RESULT:     -11.5      0.000      0.000
REMARK SMILES O=C(C[C@@H](c1c[nH]c2ccccc12)C(F)(F)F)NCCCCCCNC(=O)c1ccc(-c2c3nc(c(-c4cc(S(=O)(=O)[O-])ccc4F)c4ccc([nH]4)c(-c4cc(S(=O)(=O)[O-])ccc4F)c4nc(c(-c5cc(S(=O)(=O)[O-])ccc5F)c5ccc2[nH]5)C=C4)C=C3)cc1
REMARK SMILES IDX 22 1 21 2 20 3 19 4 18 5 1 6 2 7 3 9 4 10 5 11 6 12 13 13
REMARK SMILES IDX 7 14 8 15 12 16 9 18 11 19 10 20 14 21 15 22 16 23 17 24
REMARK SMILES IDX 23 25 24 26 25 27 26 28 27 30 28 31 29 32 90 33 30 34 89 35
REMARK SMILES IDX 31 36 32 37 33 38 83 39 34 40 88 41 82 42 84 43 35 44 87 45
REMARK SMILES IDX 81 46 80 47 36 49 68 50 48 51 67 52 49 53 52 54 66 55 85 56
REMARK SMILES IDX 50 57 51 58 65 60 86 61 53 62 37 63 38 64 46 65 39 66 45 67
REMARK SMILES IDX 47 68 44 69 40 70 41 71 42 72 43 73 69 74 70 75 78 76 71 77
REMARK SMILES IDX 77 78 79 79 76 80 72 81 73 82 74 83 75 84 54 85 55 86 63 87
REMARK SMILES IDX 56 88 62 89 64 90 61 91 57 92 58 93 59 94 60 95
REMARK H PARENT 18 8 7 17 25 29 84 48 52 59
REMARK Flexibility Score: inf
ROOT
ATOM      1  C   UNL A   1      31.716  28.179  24.215  1.00  0.00     0.002 C 
ENDROOT
BRANCH   1   2
ATOM      2  C   UNL A   1      30.472  27.306  24.028  1.00  0.00     0.002 C 
BRANCH   2   3
ATOM      3  C   UNL A   1      30.412  26.030  24.879  1.00  0.00     0.021 C 
BRANCH   3   4
ATOM      4  C   UNL A   1      31.329  26.009  26.108  1.00  0.00     0.116 C 
BRANCH   4   5
ATOM      5  N   UNL A   1      32.512  25.197  25.882  1.00  0.00    -0.356 N 
ATOM      6  O   UNL A   1      34.030  26.872  26.183  1.00  0.00    -0.275 OA
ATOM      7  C   UNL A   1      33.780  25.713  25.853  1.00  0.00     0.220 C 
ATOM      8  H   UNL A   1      32.397  24.229  25.744  1.00  0.00     0.163 HD
BRANCH   7   9
ATOM      9  C   UNL A   1      34.868  24.846  25.238  1.00  0.00     0.117 C 
BRANCH   9  10
ATOM     10  C   UNL A   1      35.469  23.697  26.074  1.00  0.00     0.136 C 
BRANCH  10  11
ATOM     11  C   UNL A   1      34.566  22.475  26.202  1.00  0.00    -0.010 A 
ATOM     12  C   UNL A   1      34.273  21.767  27.356  1.00  0.00     0.087 A 
ATOM     13  C   UNL A   1      33.832  21.821  25.147  1.00  0.00     0.003 A 
ATOM     14  N   UNL A   1      33.563  20.647  27.021  1.00  0.00    -0.361 N 
ATOM     15  C   UNL A   1      33.249  20.673  25.688  1.00  0.00     0.046 A 
ATOM     16  C   UNL A   1      33.601  22.092  23.780  1.00  0.00     0.010 A 
ATOM     17  H   UNL A   1      33.315  19.928  27.647  1.00  0.00     0.166 HD
ATOM     18  C   UNL A   1      32.490  19.770  24.934  1.00  0.00     0.026 A 
ATOM     19  C   UNL A   1      32.792  21.231  23.026  1.00  0.00     0.001 A 
ATOM     20  C   UNL A   1      32.257  20.079  23.594  1.00  0.00     0.002 A 
ENDBRANCH  10  11
BRANCH  10  21
ATOM     21  C   UNL A   1      36.827  23.343  25.451  1.00  0.00     0.396 C 
ATOM     22  F   UNL A   1      37.218  22.098  25.825  1.00  0.00    -0.170 F 
ATOM     23  F   UNL A   1      36.803  23.338  24.101  1.00  0.00    -0.170 F 
ATOM     24  F   UNL A   1      37.800  24.197  25.843  1.00  0.00    -0.170 F 
ENDBRANCH  10  21
ENDBRANCH   9  10
ENDBRANCH   7   9
ENDBRANCH   4   5
ENDBRANCH   3   4
ENDBRANCH   2   3
ENDBRANCH   1   2
BRANCH   1  25
ATOM     25  C   UNL A   1      31.444  29.579  24.768  1.00  0.00     0.021 C 
BRANCH  25  26
ATOM     26  C   UNL A   1      32.492  30.103  25.746  1.00  0.00     0.116 C 
BRANCH  26  27
ATOM     27  N   UNL A   1      32.170  31.425  26.264  1.00  0.00    -0.352 N 
ATOM     28  C   UNL A   1      32.841  32.182  27.196  1.00  0.00     0.251 C 
ATOM     29  H   UNL A   1      31.356  31.836  25.894  1.00  0.00     0.163 HD
ATOM     30  O   UNL A   1      32.333  33.217  27.619  1.00  0.00    -0.269 OA
BRANCH  28  31
ATOM     31  C   UNL A   1      34.151  31.725  27.712  1.00  0.00     0.039 A 
ATOM     32  C   UNL A   1      35.186  32.653  27.848  1.00  0.00     0.014 A 
ATOM     33  C   UNL A   1      34.349  30.393  28.090  1.00  0.00     0.014 A 
ATOM     34  C   UNL A   1      36.388  32.267  28.446  1.00  0.00     0.010 A 
ATOM     35  C   UNL A   1      35.521  30.028  28.748  1.00  0.00     0.010 A 
ATOM     36  C   UNL A   1      36.547  30.965  28.948  1.00  0.00    -0.014 A 
BRANCH  36  37
ATOM     37  C   UNL A   1      37.758  30.575  29.718  1.00  0.00     0.031 A 
ATOM     38  C   UNL A   1      38.749  29.603  29.141  1.00  0.00     0.074 A 
ATOM     39  C   UNL A   1      37.917  31.031  30.976  1.00  0.00     0.049 A 
ATOM     40  N   UNL A   1      39.807  29.071  29.696  1.00  0.00    -0.248 NA
ATOM     41  C   UNL A   1      38.492  29.146  27.768  1.00  0.00     0.031 C 
ATOM     42  C   UNL A   1      36.995  31.935  31.669  1.00  0.00     0.029 A 
ATOM     43  N   UNL A   1      38.895  30.782  31.906  1.00  0.00    -0.354 N 
ATOM     44  C   UNL A   1      40.345  28.213  28.742  1.00  0.00     0.074 A 
ATOM     45  C   UNL A   1      39.450  28.246  27.603  1.00  0.00     0.031 C 
ATOM     46  C   UNL A   1      37.455  32.169  32.907  1.00  0.00     0.029 A 
ATOM     47  C   UNL A   1      38.678  31.400  33.116  1.00  0.00     0.049 A 
ATOM     48  H   UNL A   1      39.679  30.214  31.724  1.00  0.00     0.167 HD
ATOM     49  C   UNL A   1      41.490  27.486  28.801  1.00  0.00     0.034 A 
ATOM     50  C   UNL A   1      39.368  31.338  34.271  1.00  0.00     0.034 A 
ATOM     51  C   UNL A   1      42.365  27.459  29.950  1.00  0.00     0.049 A 
ATOM     52  C   UNL A   1      40.615  30.496  34.333  1.00  0.00     0.074 A 
ATOM     53  C   UNL A   1      43.577  26.807  30.098  1.00  0.00     0.029 A 
ATOM     54  N   UNL A   1      42.114  28.100  31.158  1.00  0.00    -0.354 N 
ATOM     55  N   UNL A   1      41.146  29.740  33.400  1.00  0.00    -0.248 NA
ATOM     56  C   UNL A   1      41.359  30.508  35.598  1.00  0.00     0.031 C 
ATOM     57  C   UNL A   1      44.021  26.993  31.412  1.00  0.00     0.029 A 
ATOM     58  C   UNL A   1      43.127  27.824  32.066  1.00  0.00     0.049 A 
ATOM     59  H   UNL A   1      41.331  28.666  31.343  1.00  0.00     0.167 HD
ATOM     60  C   UNL A   1      42.296  29.194  33.964  1.00  0.00     0.074 A 
ATOM     61  C   UNL A   1      42.391  29.727  35.308  1.00  0.00     0.031 C 
ATOM     62  C   UNL A   1      43.194  28.335  33.417  1.00  0.00     0.034 A 
BRANCH  49  63
ATOM     63  C   UNL A   1      41.833  26.645  27.592  1.00  0.00     0.023 A 
ATOM     64  C   UNL A   1      41.504  25.278  27.531  1.00  0.00     0.031 A 
ATOM     65  C   UNL A   1      42.542  27.197  26.512  1.00  0.00     0.131 A 
ATOM     66  C   UNL A   1      41.969  24.491  26.467  1.00  0.00     0.055 A 
ATOM     67  C   UNL A   1      42.921  26.427  25.410  1.00  0.00     0.041 A 
ATOM     68  F   UNL A   1      42.901  28.490  26.517  1.00  0.00    -0.206 F 
ATOM     69  C   UNL A   1      42.654  25.060  25.393  1.00  0.00     0.022 A 
BRANCH  66  70
ATOM     70  S   UNL A   1      41.819  22.688  26.600  1.00  0.00     0.124 S 
ATOM     71  O   UNL A   1      42.207  22.261  25.256  1.00  0.00    -0.237 OA
ATOM     72  O   UNL A   1      42.760  22.371  27.667  1.00  0.00    -0.237 OA
ATOM     73  O   UNL A   1      40.409  22.484  26.926  1.00  0.00    -0.744 OA
ENDBRANCH  66  70
ENDBRANCH  49  63
BRANCH  50  74
ATOM     74  C   UNL A   1      38.877  32.070  35.471  1.00  0.00     0.023 A 
ATOM     75  C   UNL A   1      38.253  31.395  36.531  1.00  0.00     0.031 A 
ATOM     76  C   UNL A   1      39.023  33.466  35.570  1.00  0.00     0.131 A 
ATOM     77  C   UNL A   1      37.772  32.120  37.633  1.00  0.00     0.055 A 
ATOM     78  C   UNL A   1      38.583  34.177  36.688  1.00  0.00     0.041 A 
ATOM     79  F   UNL A   1      39.621  34.157  34.587  1.00  0.00    -0.206 F 
ATOM     80  C   UNL A   1      37.944  33.503  37.725  1.00  0.00     0.022 A 
BRANCH  77  81
ATOM     81  S   UNL A   1      36.866  31.232  38.930  1.00  0.00     0.124 S 
ATOM     82  O   UNL A   1      35.628  31.999  39.007  1.00  0.00    -0.237 OA
ATOM     83  O   UNL A   1      36.758  29.893  38.362  1.00  0.00    -0.237 OA
ATOM     84  O   UNL A   1      37.743  31.343  40.094  1.00  0.00    -0.744 OA
ENDBRANCH  77  81
ENDBRANCH  50  74
BRANCH  62  85
ATOM     85  C   UNL A   1      44.367  27.935  34.278  1.00  0.00     0.023 A 
ATOM     86  C   UNL A   1      44.325  26.794  35.099  1.00  0.00     0.031 A 
ATOM     87  C   UNL A   1      45.540  28.712  34.287  1.00  0.00     0.131 A 
ATOM     88  C   UNL A   1      45.412  26.490  35.932  1.00  0.00     0.055 A 
ATOM     89  C   UNL A   1      46.641  28.372  35.075  1.00  0.00     0.041 A 
ATOM     90  F   UNL A   1      45.634  29.815  33.528  1.00  0.00    -0.206 F 
ATOM     91  C   UNL A   1      46.576  27.263  35.913  1.00  0.00     0.022 A 
BRANCH  88  92
ATOM     92  S   UNL A   1      45.255  25.117  37.106  1.00  0.00     0.124 S 
ATOM     93  O   UNL A   1      45.777  23.995  36.332  1.00  0.00    -0.237 OA
ATOM     94  O   UNL A   1      46.081  25.561  38.223  1.00  0.00    -0.237 OA
ATOM     95  O   UNL A   1      43.819  25.063  37.382  1.00  0.00    -0.744 OA
ENDBRANCH  88  92
ENDBRANCH  62  85
ENDBRANCH  36  37
ENDBRANCH  28  31
ENDBRANCH  26  27
ENDBRANCH  25  26
ENDBRANCH   1  25
TORSDOF 19
ENDMDL
MODEL 2
REMARK VINA RESULT:     -11.3      2.406      7.883
REMARK SMILES O=C(C[C@@H](c1c[nH]c2ccccc12)C(F)(F)F)NCCCCCCNC(=O)c1ccc(-c2c3nc(c(-c4cc(S(=O)(=O)[O-])ccc4F)c4ccc([nH]4)c(-c4cc(S(=O)(=O)[O-])ccc4F)c4nc(c(-c5cc(S(=O)(=O)[O-])ccc5F)c5ccc2[nH]5)C=C4)C=C3)cc1
REMARK SMILES IDX 22 1 21 2 20 3 19 4 18 5 1 6 2 7 3 9 4 10 5 11 6 12 13 13
REMARK SMILES IDX 7 14 8 15 12 16 9 18 11 19 10 20 14 21 15 22 16 23 17 24
REMARK SMILES IDX 23 25 24 26 25 27 26 28 27 30 28 31 29 32 90 33 30 34 89 35
REMARK SMILES IDX 31 36 32 37 33 38 83 39 34 40 88 41 82 42 84 43 35 44 87 45
REMARK SMILES IDX 81 46 80 47 36 49 68 50 48 51 67 52 49 53 52 54 66 55 85 56
REMARK SMILES IDX 50 57 51 58 65 60 86 61 53 62 37 63 38 64 46 65 39 66 45 67
REMARK SMILES IDX 47 68 44 69 40 70 41 71 42 72 43 73 69 74 70 75 78 76 71 77
REMARK SMILES IDX 77 78 79 79 76 80 72 81 73 82 74 83 75 84 54 85 55 86 63 87
REMARK SMILES IDX 56 88 62 89 64 90 61 91 57 92 58 93 59 94 60 95
REMARK H PARENT 18 8 7 17 25 29 84 48 52 59
REMARK Flexibility Score: inf
ROOT
ATOM      1  C   UNL A   1      32.055  28.548  26.694  1.00  0.00     0.002 C 
ENDROOT
BRANCH   1   2
ATOM      2  C   UNL A   1      31.433  27.153  26.791  1.00  0.00     0.002 C 
BRANCH   2   3
ATOM      3  C   UNL A   1      30.742  26.635  25.522  1.00  0.00     0.021 C 
BRANCH   3   4
ATOM      4  C   UNL A   1      29.658  25.572  25.744  1.00  0.00     0.116 C 
BRANCH   4   5
ATOM      5  N   UNL A   1      30.098  24.257  25.309  1.00  0.00    -0.356 N 
ATOM      6  O   UNL A   1      31.052  23.641  27.286  1.00  0.00    -0.275 OA
ATOM      7  C   UNL A   1      30.842  23.419  26.095  1.00  0.00     0.220 C 
ATOM      8  H   UNL A   1      29.848  23.956  24.406  1.00  0.00     0.163 HD
BRANCH   7   9
ATOM      9  C   UNL A   1      31.547  22.264  25.401  1.00  0.00     0.117 C 
BRANCH   9  10
ATOM     10  C   UNL A   1      32.989  22.466  24.891  1.00  0.00     0.136 C 
BRANCH  10  11
ATOM     11  C   UNL A   1      33.866  21.221  24.977  1.00  0.00    -0.010 A 
ATOM     12  C   UNL A   1      35.108  21.111  25.579  1.00  0.00     0.087 A 
ATOM     13  C   UNL A   1      33.568  19.910  24.456  1.00  0.00     0.003 A 
ATOM     14  N   UNL A   1      35.631  19.880  25.295  1.00  0.00    -0.361 N 
ATOM     15  C   UNL A   1      34.701  19.115  24.643  1.00  0.00     0.046 A 
ATOM     16  C   UNL A   1      32.443  19.315  23.842  1.00  0.00     0.010 A 
ATOM     17  H   UNL A   1      36.543  19.588  25.524  1.00  0.00     0.166 HD
ATOM     18  C   UNL A   1      34.782  17.783  24.218  1.00  0.00     0.026 A 
ATOM     19  C   UNL A   1      32.486  17.966  23.466  1.00  0.00     0.001 A 
ATOM     20  C   UNL A   1      33.646  17.217  23.639  1.00  0.00     0.002 A 
ENDBRANCH  10  11
BRANCH  10  21
ATOM     21  C   UNL A   1      32.893  23.001  23.455  1.00  0.00     0.396 C 
ATOM     22  F   UNL A   1      34.024  22.717  22.759  1.00  0.00    -0.170 F 
ATOM     23  F   UNL A   1      31.876  22.454  22.755  1.00  0.00    -0.170 F 
ATOM     24  F   UNL A   1      32.739  24.344  23.426  1.00  0.00    -0.170 F 
ENDBRANCH  10  21
ENDBRANCH   9  10
ENDBRANCH   7   9
ENDBRANCH   4   5
ENDBRANCH   3   4
ENDBRANCH   2   3
ENDBRANCH   1   2
BRANCH   1  25
ATOM     25  C   UNL A   1      33.323  28.632  25.843  1.00  0.00     0.021 C 
BRANCH  25  26
ATOM     26  C   UNL A   1      34.483  29.390  26.484  1.00  0.00     0.116 C 
BRANCH  26  27
ATOM     27  N   UNL A   1      34.113  30.732  26.909  1.00  0.00    -0.352 N 
ATOM     28  C   UNL A   1      34.663  31.513  27.900  1.00  0.00     0.251 C 
ATOM     29  H   UNL A   1      33.363  31.139  26.419  1.00  0.00     0.163 HD
ATOM     30  O   UNL A   1      34.117  32.568  28.215  1.00  0.00    -0.269 OA
BRANCH  28  31
ATOM     31  C   UNL A   1      35.884  31.060  28.604  1.00  0.00     0.039 A 
ATOM     32  C   UNL A   1      35.780  30.033  29.546  1.00  0.00     0.014 A 
ATOM     33  C   UNL A   1      37.130  31.624  28.315  1.00  0.00     0.014 A 
ATOM     34  C   UNL A   1      36.937  29.511  30.130  1.00  0.00     0.010 A 
ATOM     35  C   UNL A   1      38.285  31.056  28.845  1.00  0.00     0.010 A 
ATOM     36  C   UNL A   1      38.203  29.983  29.746  1.00  0.00    -0.014 A 
BRANCH  36  37
ATOM     37  C   UNL A   1      39.449  29.343  30.243  1.00  0.00     0.031 A 
ATOM     38  C   UNL A   1      40.192  29.925  31.414  1.00  0.00     0.074 A 
ATOM     39  C   UNL A   1      39.961  28.287  29.580  1.00  0.00     0.049 A 
ATOM     40  N   UNL A   1      41.340  29.567  31.927  1.00  0.00    -0.248 NA
ATOM     41  C   UNL A   1      39.571  31.084  32.070  1.00  0.00     0.031 C 
ATOM     42  C   UNL A   1      39.363  27.665  28.396  1.00  0.00     0.029 A 
ATOM     43  N   UNL A   1      41.107  27.562  29.790  1.00  0.00    -0.354 N 
ATOM     44  C   UNL A   1      41.585  30.458  32.967  1.00  0.00     0.074 A 
ATOM     45  C   UNL A   1      40.496  31.414  32.959  1.00  0.00     0.031 C 
ATOM     46  C   UNL A   1      40.142  26.651  27.990  1.00  0.00     0.029 A 
ATOM     47  C   UNL A   1      41.316  26.576  28.854  1.00  0.00     0.049 A 
ATOM     48  H   UNL A   1      41.722  27.733  30.540  1.00  0.00     0.167 HD
ATOM     49  C   UNL A   1      42.608  30.463  33.860  1.00  0.00     0.034 A 
ATOM     50  C   UNL A   1      42.346  25.722  28.692  1.00  0.00     0.034 A 
ATOM     51  C   UNL A   1      43.690  29.507  33.847  1.00  0.00     0.049 A 
ATOM     52  C   UNL A   1      43.492  25.766  29.668  1.00  0.00     0.074 A 
ATOM     53  C   UNL A   1      44.743  29.382  34.735  1.00  0.00     0.029 A 
ATOM     54  N   UNL A   1      43.868  28.519  32.884  1.00  0.00    -0.354 N 
ATOM     55  N   UNL A   1      43.677  26.574  30.686  1.00  0.00    -0.248 NA
ATOM     56  C   UNL A   1      44.560  24.777  29.478  1.00  0.00     0.031 C 
ATOM     57  C   UNL A   1      45.593  28.371  34.273  1.00  0.00     0.029 A 
ATOM     58  C   UNL A   1      45.034  27.810  33.136  1.00  0.00     0.049 A 
ATOM     59  H   UNL A   1      43.256  28.349  32.133  1.00  0.00     0.167 HD
ATOM     60  C   UNL A   1      44.880  26.182  31.267  1.00  0.00     0.074 A 
ATOM     61  C   UNL A   1      45.362  25.052  30.498  1.00  0.00     0.031 C 
ATOM     62  C   UNL A   1      45.523  26.705  32.342  1.00  0.00     0.034 A 
BRANCH  49  63
ATOM     63  C   UNL A   1      42.604  31.558  34.903  1.00  0.00     0.023 A 
ATOM     64  C   UNL A   1      41.655  31.579  35.942  1.00  0.00     0.031 A 
ATOM     65  C   UNL A   1      43.520  32.621  34.832  1.00  0.00     0.131 A 
ATOM     66  C   UNL A   1      41.580  32.684  36.802  1.00  0.00     0.055 A 
ATOM     67  C   UNL A   1      43.498  33.675  35.749  1.00  0.00     0.041 A 
ATOM     68  F   UNL A   1      44.438  32.670  33.854  1.00  0.00    -0.206 F 
ATOM     69  C   UNL A   1      42.510  33.722  36.729  1.00  0.00     0.022 A 
BRANCH  66  70
ATOM     70  S   UNL A   1      40.139  32.829  37.895  1.00  0.00     0.124 S 
ATOM     71  O   UNL A   1      39.770  34.232  37.712  1.00  0.00    -0.237 OA
ATOM     72  O   UNL A   1      39.218  31.848  37.336  1.00  0.00    -0.237 OA
ATOM     73  O   UNL A   1      40.677  32.503  39.215  1.00  0.00    -0.744 OA
ENDBRANCH  66  70
ENDBRANCH  49  63
BRANCH  50  74
ATOM     74  C   UNL A   1      42.354  24.776  27.542  1.00  0.00     0.023 A 
ATOM     75  C   UNL A   1      41.605  23.589  27.570  1.00  0.00     0.031 A 
ATOM     76  C   UNL A   1      43.118  25.049  26.393  1.00  0.00     0.131 A 
ATOM     77  C   UNL A   1      41.661  22.704  26.482  1.00  0.00     0.055 A 
ATOM     78  C   UNL A   1      43.135  24.187  25.295  1.00  0.00     0.041 A 
ATOM     79  F   UNL A   1      43.844  26.176  26.313  1.00  0.00    -0.206 F 
ATOM     80  C   UNL A   1      42.410  23.001  25.340  1.00  0.00     0.022 A 
BRANCH  77  81
ATOM     81  S   UNL A   1      40.777  21.124  26.599  1.00  0.00     0.124 S 
ATOM     82  O   UNL A   1      41.625  20.248  25.800  1.00  0.00    -0.237 OA
ATOM     83  O   UNL A   1      40.779  20.882  28.038  1.00  0.00    -0.237 OA
ATOM     84  O   UNL A   1      39.468  21.423  26.023  1.00  0.00    -0.744 OA
ENDBRANCH  77  81
ENDBRANCH  50  74
BRANCH  62  85
ATOM     85  C   UNL A   1      46.815  26.043  32.753  1.00  0.00     0.023 A 
ATOM     86  C   UNL A   1      46.832  24.923  33.604  1.00  0.00     0.031 A 
ATOM     87  C   UNL A   1      48.048  26.545  32.298  1.00  0.00     0.131 A 
ATOM     88  C   UNL A   1      48.057  24.375  34.015  1.00  0.00     0.055 A 
ATOM     89  C   UNL A   1      49.261  25.959  32.664  1.00  0.00     0.041 A 
ATOM     90  F   UNL A   1      48.092  27.616  31.489  1.00  0.00    -0.206 F 
ATOM     91  C   UNL A   1      49.270  24.875  33.536  1.00  0.00     0.022 A 
BRANCH  88  92
ATOM     92  S   UNL A   1      48.047  23.046  35.249  1.00  0.00     0.124 S 
ATOM     93  O   UNL A   1      47.937  23.794  36.498  1.00  0.00    -0.237 OA
ATOM     94  O   UNL A   1      46.874  22.269  34.866  1.00  0.00    -0.237 OA
ATOM     95  O   UNL A   1      49.330  22.375  35.041  1.00  0.00    -0.744 OA
ENDBRANCH  88  92
ENDBRANCH  62  85
ENDBRANCH  36  37
ENDBRANCH  28  31
ENDBRANCH  26  27
ENDBRANCH  25  26
ENDBRANCH   1  25
TORSDOF 19
ENDMDL
MODEL 3
REMARK VINA RESULT:     -11.2      2.326      2.752
REMARK SMILES O=C(C[C@@H](c1c[nH]c2ccccc12)C(F)(F)F)NCCCCCCNC(=O)c1ccc(-c2c3nc(c(-c4cc(S(=O)(=O)[O-])ccc4F)c4ccc([nH]4)c(-c4cc(S(=O)(=O)[O-])ccc4F)c4nc(c(-c5cc(S(=O)(=O)[O-])ccc5F)c5ccc2[nH]5)C=C4)C=C3)cc1
REMARK SMILES IDX 22 1 21 2 20 3 19 4 18 5 1 6 2 7 3 9 4 10 5 11 6 12 13 13
REMARK SMILES IDX 7 14 8 15 12 16 9 18 11 19 10 20 14 21 15 22 16 23 17 24
REMARK SMILES IDX 23 25 24 26 25 27 26 28 27 30 28 31 29 32 90 33 30 34 89 35
REMARK SMILES IDX 31 36 32 37 33 38 83 39 34 40 88 41 82 42 84 43 35 44 87 45
REMARK SMILES IDX 81 46 80 47 36 49 68 50 48 51 67 52 49 53 52 54 66 55 85 56
REMARK SMILES IDX 50 57 51 58 65 60 86 61 53 62 37 63 38 64 46 65 39 66 45 67
REMARK SMILES IDX 47 68 44 69 40 70 41 71 42 72 43 73 69 74 70 75 78 76 71 77
REMARK SMILES IDX 77 78 79 79 76 80 72 81 73 82 74 83 75 84 54 85 55 86 63 87
REMARK SMILES IDX 56 88 62 89 64 90 61 91 57 92 58 93 59 94 60 95
REMARK H PARENT 18 8 7 17 25 29 84 48 52 59
REMARK Flexibility Score: inf
ROOT
ATOM      1  C   UNL A   1      31.594  28.679  24.609  1.00  0.00     0.002 C 
ENDROOT
BRANCH   1   2
ATOM      2  C   UNL A   1      30.760  28.342  23.371  1.00  0.00     0.002 C 
BRANCH   2   3
ATOM      3  C   UNL A   1      30.677  26.855  22.999  1.00  0.00     0.021 C 
BRANCH   3   4
ATOM      4  C   UNL A   1      29.809  25.989  23.920  1.00  0.00     0.116 C 
BRANCH   4   5
ATOM      5  N   UNL A   1      30.233  24.600  23.911  1.00  0.00    -0.356 N 
ATOM      6  O   UNL A   1      31.275  24.639  25.939  1.00  0.00    -0.275 OA
ATOM      7  C   UNL A   1      31.015  24.049  24.891  1.00  0.00     0.220 C 
ATOM      8  H   UNL A   1      29.946  24.027  23.163  1.00  0.00     0.163 HD
BRANCH   7   9
ATOM      9  C   UNL A   1      31.694  22.726  24.574  1.00  0.00     0.117 C 
BRANCH   9  10
ATOM     10  C   UNL A   1      33.224  22.698  24.385  1.00  0.00     0.136 C 
BRANCH  10  11
ATOM     11  C   UNL A   1      33.863  21.336  24.640  1.00  0.00    -0.010 A 
ATOM     12  C   UNL A   1      34.941  21.057  25.464  1.00  0.00     0.087 A 
ATOM     13  C   UNL A   1      33.463  20.069  24.080  1.00  0.00     0.003 A 
ATOM     14  N   UNL A   1      35.306  19.751  25.290  1.00  0.00    -0.361 N 
ATOM     15  C   UNL A   1      34.402  19.116  24.479  1.00  0.00     0.046 A 
ATOM     16  C   UNL A   1      32.390  19.634  23.270  1.00  0.00     0.010 A 
ATOM     17  H   UNL A   1      36.103  19.330  25.687  1.00  0.00     0.166 HD
ATOM     18  C   UNL A   1      34.349  17.773  24.084  1.00  0.00     0.026 A 
ATOM     19  C   UNL A   1      32.289  18.281  22.917  1.00  0.00     0.001 A 
ATOM     20  C   UNL A   1      33.264  17.369  23.308  1.00  0.00     0.002 A 
ENDBRANCH  10  11
BRANCH  10  21
ATOM     21  C   UNL A   1      33.518  23.211  22.968  1.00  0.00     0.396 C 
ATOM     22  F   UNL A   1      34.773  22.867  22.582  1.00  0.00    -0.170 F 
ATOM     23  F   UNL A   1      32.686  22.697  22.037  1.00  0.00    -0.170 F 
ATOM     24  F   UNL A   1      33.438  24.559  22.894  1.00  0.00    -0.170 F 
ENDBRANCH  10  21
ENDBRANCH   9  10
ENDBRANCH   7   9
ENDBRANCH   4   5
ENDBRANCH   3   4
ENDBRANCH   2   3
ENDBRANCH   1   2
BRANCH   1  25
ATOM     25  C   UNL A   1      31.303  30.046  25.230  1.00  0.00     0.021 C 
BRANCH  25  26
ATOM     26  C   UNL A   1      32.299  30.497  26.296  1.00  0.00     0.116 C 
BRANCH  26  27
ATOM     27  N   UNL A   1      32.135  31.896  26.666  1.00  0.00    -0.352 N 
ATOM     28  C   UNL A   1      32.941  32.688  27.450  1.00  0.00     0.251 C 
ATOM     29  H   UNL A   1      31.333  32.337  26.303  1.00  0.00     0.163 HD
ATOM     30  O   UNL A   1      32.559  33.810  27.774  1.00  0.00    -0.269 OA
BRANCH  28  31
ATOM     31  C   UNL A   1      34.242  32.171  27.930  1.00  0.00     0.039 A 
ATOM     32  C   UNL A   1      35.348  33.025  27.939  1.00  0.00     0.014 A 
ATOM     33  C   UNL A   1      34.365  30.860  28.398  1.00  0.00     0.014 A 
ATOM     34  C   UNL A   1      36.552  32.593  28.500  1.00  0.00     0.010 A 
ATOM     35  C   UNL A   1      35.544  30.455  29.019  1.00  0.00     0.010 A 
ATOM     36  C   UNL A   1      36.645  31.322  29.092  1.00  0.00    -0.014 A 
BRANCH  36  37
ATOM     37  C   UNL A   1      37.867  30.899  29.824  1.00  0.00     0.031 A 
ATOM     38  C   UNL A   1      38.790  29.867  29.237  1.00  0.00     0.074 A 
ATOM     39  C   UNL A   1      38.097  31.380  31.062  1.00  0.00     0.049 A 
ATOM     40  N   UNL A   1      39.845  29.302  29.765  1.00  0.00    -0.248 NA
ATOM     41  C   UNL A   1      38.458  29.385  27.889  1.00  0.00     0.031 C 
ATOM     42  C   UNL A   1      37.246  32.343  31.764  1.00  0.00     0.029 A 
ATOM     43  N   UNL A   1      39.101  31.111  31.960  1.00  0.00    -0.354 N 
ATOM     44  C   UNL A   1      40.304  28.395  28.815  1.00  0.00     0.074 A 
ATOM     45  C   UNL A   1      39.366  28.439  27.712  1.00  0.00     0.031 C 
ATOM     46  C   UNL A   1      37.766  32.589  32.976  1.00  0.00     0.029 A 
ATOM     47  C   UNL A   1      38.960  31.770  33.159  1.00  0.00     0.049 A 
ATOM     48  H   UNL A   1      39.850  30.503  31.763  1.00  0.00     0.167 HD
ATOM     49  C   UNL A   1      41.417  27.618  28.850  1.00  0.00     0.034 A 
ATOM     50  C   UNL A   1      39.694  31.708  34.286  1.00  0.00     0.034 A 
ATOM     51  C   UNL A   1      42.336  27.581  29.964  1.00  0.00     0.049 A 
ATOM     52  C   UNL A   1      40.903  30.811  34.324  1.00  0.00     0.074 A 
ATOM     53  C   UNL A   1      43.522  26.878  30.082  1.00  0.00     0.029 A 
ATOM     54  N   UNL A   1      42.163  28.265  31.162  1.00  0.00    -0.354 N 
ATOM     55  N   UNL A   1      41.361  30.007  33.393  1.00  0.00    -0.248 NA
ATOM     56  C   UNL A   1      41.698  30.824  35.557  1.00  0.00     0.031 C 
ATOM     57  C   UNL A   1      44.028  27.079  31.372  1.00  0.00     0.029 A 
ATOM     58  C   UNL A   1      43.199  27.968  32.037  1.00  0.00     0.049 A 
ATOM     59  H   UNL A   1      41.414  28.871  31.361  1.00  0.00     0.167 HD
ATOM     60  C   UNL A   1      42.508  29.425  33.926  1.00  0.00     0.074 A 
ATOM     61  C   UNL A   1      42.681  29.989  35.250  1.00  0.00     0.031 C 
ATOM     62  C   UNL A   1      43.344  28.511  33.369  1.00  0.00     0.034 A 
BRANCH  49  63
ATOM     63  C   UNL A   1      41.673  26.730  27.653  1.00  0.00     0.023 A 
ATOM     64  C   UNL A   1      41.357  25.359  27.675  1.00  0.00     0.031 A 
ATOM     65  C   UNL A   1      42.286  27.242  26.498  1.00  0.00     0.131 A 
ATOM     66  C   UNL A   1      41.744  24.532  26.610  1.00  0.00     0.055 A 
ATOM     67  C   UNL A   1      42.587  26.430  25.401  1.00  0.00     0.041 A 
ATOM     68  F   UNL A   1      42.630  28.537  26.421  1.00  0.00    -0.206 F 
ATOM     69  C   UNL A   1      42.335  25.062  25.462  1.00  0.00     0.022 A 
BRANCH  66  70
ATOM     70  S   UNL A   1      41.628  22.735  26.828  1.00  0.00     0.124 S 
ATOM     71  O   UNL A   1      41.667  22.612  28.285  1.00  0.00    -0.237 OA
ATOM     72  O   UNL A   1      40.353  22.422  26.196  1.00  0.00    -0.237 OA
ATOM     73  O   UNL A   1      42.812  22.228  26.137  1.00  0.00    -0.744 OA
ENDBRANCH  66  70
ENDBRANCH  49  63
BRANCH  50  74
ATOM     74  C   UNL A   1      39.285  32.494  35.484  1.00  0.00     0.023 A 
ATOM     75  C   UNL A   1      39.748  33.802  35.689  1.00  0.00     0.031 A 
ATOM     76  C   UNL A   1      38.421  31.939  36.446  1.00  0.00     0.131 A 
ATOM     77  C   UNL A   1      39.369  34.503  36.845  1.00  0.00     0.055 A 
ATOM     78  C   UNL A   1      38.011  32.656  37.571  1.00  0.00     0.041 A 
ATOM     79  F   UNL A   1      37.942  30.694  36.290  1.00  0.00    -0.206 F 
ATOM     80  C   UNL A   1      38.494  33.944  37.780  1.00  0.00     0.022 A 
BRANCH  77  81
ATOM     81  S   UNL A   1      40.080  36.146  37.139  1.00  0.00     0.124 S 
ATOM     82  O   UNL A   1      41.457  35.816  37.486  1.00  0.00    -0.237 OA
ATOM     83  O   UNL A   1      39.881  36.797  35.849  1.00  0.00    -0.237 OA
ATOM     84  O   UNL A   1      39.270  36.677  38.233  1.00  0.00    -0.744 OA
ENDBRANCH  77  81
ENDBRANCH  50  74
BRANCH  62  85
ATOM     85  C   UNL A   1      44.532  28.080  34.194  1.00  0.00     0.023 A 
ATOM     86  C   UNL A   1      45.754  28.774  34.145  1.00  0.00     0.031 A 
ATOM     87  C   UNL A   1      44.444  26.954  35.032  1.00  0.00     0.131 A 
ATOM     88  C   UNL A   1      46.854  28.304  34.879  1.00  0.00     0.055 A 
ATOM     89  C   UNL A   1      45.525  26.526  35.804  1.00  0.00     0.041 A 
ATOM     90  F   UNL A   1      43.303  26.251  35.113  1.00  0.00    -0.206 F 
ATOM     91  C   UNL A   1      46.742  27.195  35.721  1.00  0.00     0.022 A 
BRANCH  88  92
ATOM     92  S   UNL A   1      48.461  29.115  34.657  1.00  0.00     0.124 S 
ATOM     93  O   UNL A   1      48.665  29.745  35.957  1.00  0.00    -0.237 OA
ATOM     94  O   UNL A   1      49.340  27.992  34.347  1.00  0.00    -0.237 OA
ATOM     95  O   UNL A   1      48.228  30.042  33.549  1.00  0.00    -0.744 OA
ENDBRANCH  88  92
ENDBRANCH  62  85
ENDBRANCH  36  37
ENDBRANCH  28  31
ENDBRANCH  26  27
ENDBRANCH  25  26
ENDBRANCH   1  25
TORSDOF 19
ENDMDL
