MODEL 1
REMARK VINA RESULT:     -12.0      0.000      0.000
REMARK SMILES Cc1ccc(C)c(NS(=O)(=O)c2cc(C(=O)NCCCCCCNC(=O)c3ccc(-c4c5nc(c(-c6cc(S(=O)(=O)[O-])ccc6F)c6ccc([nH]6)c(-c6cc(S(=O)(=O)[O-])ccc6F)c6nc(c(-c7cc(S(=O)(=O)[O-])ccc7F)c7ccc4[nH]7)C=C6)C=C5)cc3)ccc2Cl)c1
REMARK SMILES IDX 20 1 19 2 18 3 17 4 15 5 16 6 14 8 12 9 13 10 92 11 91 12
REMARK SMILES IDX 93 13 90 14 9 15 10 16 11 17 8 18 7 20 1 21 2 22 3 23 94 24
REMARK SMILES IDX 4 25 5 26 6 27 21 28 22 29 23 30 24 31 25 32 26 34 27 35
REMARK SMILES IDX 28 36 89 37 29 38 88 39 30 40 31 41 32 42 82 43 33 44 87 45
REMARK SMILES IDX 81 46 83 47 34 48 86 49 80 50 79 51 35 53 67 54 47 55 66 56
REMARK SMILES IDX 48 57 51 58 65 59 84 60 49 61 50 62 64 64 85 65 52 66 36 67
REMARK SMILES IDX 37 68 45 69 38 70 44 71 46 72 43 73 39 74 40 75 41 76 42 77
REMARK SMILES IDX 68 78 69 79 77 80 70 81 76 82 78 83 75 84 71 85 72 86 73 87
REMARK SMILES IDX 74 88 53 89 54 90 62 91 55 92 61 93 63 94 60 95 56 96 57 97
REMARK SMILES IDX 58 98 59 99
REMARK H PARENT 17 7 8 19 24 33 83 52 51 63
REMARK Flexibility Score: inf
ROOT
ATOM      1  C   UNL A   1      31.328  29.683  24.049  1.00  0.00     0.002 C 
ENDROOT
BRANCH   1   2
ATOM      2  C   UNL A   1      29.866  29.975  23.682  1.00  0.00     0.021 C 
BRANCH   2   3
ATOM      3  C   UNL A   1      29.311  29.120  22.544  1.00  0.00     0.116 C 
BRANCH   3   4
ATOM      4  N   UNL A   1      28.528  28.000  23.019  1.00  0.00    -0.352 N 
ATOM      5  C   UNL A   1      28.755  26.940  23.854  1.00  0.00     0.251 C 
ATOM      6  O   UNL A   1      27.749  26.308  24.189  1.00  0.00    -0.269 OA
ATOM      7  H   UNL A   1      27.613  28.000  22.656  1.00  0.00     0.163 HD
BRANCH   5   8
ATOM      8  C   UNL A   1      30.081  26.495  24.390  1.00  0.00     0.041 A 
ATOM      9  C   UNL A   1      32.306  25.616  23.794  1.00  0.00     0.107 A 
ATOM     10  C   UNL A   1      31.023  26.076  23.432  1.00  0.00     0.037 A 
ATOM     11  C   UNL A   1      32.725  25.720  25.110  1.00  0.00     0.061 A 
ATOM     12  C   UNL A   1      31.785  26.083  26.080  1.00  0.00     0.023 A 
ATOM     13  Cl  UNL A   1      34.357  25.518  25.623  1.00  0.00    -0.083 Cl
ATOM     14  C   UNL A   1      30.475  26.453  25.727  1.00  0.00     0.015 A 
BRANCH   9  15
ATOM     15  S   UNL A   1      33.171  24.673  22.570  1.00  0.00     0.263 S 
ATOM     16  O   UNL A   1      34.565  25.026  22.648  1.00  0.00    -0.201 OA
ATOM     17  O   UNL A   1      32.452  24.836  21.313  1.00  0.00    -0.201 OA
BRANCH  15  18
ATOM     18  N   UNL A   1      33.088  23.037  22.941  1.00  0.00    -0.279 N 
ATOM     19  H   UNL A   1      32.711  22.452  22.246  1.00  0.00     0.180 HD
BRANCH  18  20
ATOM     20  C   UNL A   1      33.502  22.393  24.155  1.00  0.00     0.052 A 
ATOM     21  C   UNL A   1      36.828  20.746  25.103  1.00  0.00     0.044 C 
ATOM     22  C   UNL A   1      35.439  21.301  25.209  1.00  0.00    -0.049 A 
ATOM     23  C   UNL A   1      34.762  21.302  26.422  1.00  0.00     0.004 A 
ATOM     24  C   UNL A   1      34.814  21.877  24.098  1.00  0.00     0.030 A 
ATOM     25  C   UNL A   1      33.431  21.715  26.470  1.00  0.00     0.006 A 
ATOM     26  C   UNL A   1      32.755  22.174  25.320  1.00  0.00    -0.027 A 
ATOM     27  C   UNL A   1      31.269  22.339  25.439  1.00  0.00     0.046 C 
ENDBRANCH  18  20
ENDBRANCH  15  18
ENDBRANCH   9  15
ENDBRANCH   5   8
ENDBRANCH   3   4
ENDBRANCH   2   3
ENDBRANCH   1   2
BRANCH   1  28
ATOM     28  C   UNL A   1      31.759  29.896  25.511  1.00  0.00     0.002 C 
BRANCH  28  29
ATOM     29  C   UNL A   1      33.248  29.946  25.907  1.00  0.00     0.021 C 
BRANCH  29  30
ATOM     30  C   UNL A   1      33.673  29.897  27.380  1.00  0.00     0.116 C 
BRANCH  30  31
ATOM     31  N   UNL A   1      33.911  31.205  27.983  1.00  0.00    -0.352 N 
ATOM     32  C   UNL A   1      34.857  31.665  28.881  1.00  0.00     0.251 C 
ATOM     33  H   UNL A   1      33.272  31.895  27.693  1.00  0.00     0.163 HD
ATOM     34  O   UNL A   1      34.637  32.723  29.469  1.00  0.00    -0.269 OA
BRANCH  32  35
ATOM     35  C   UNL A   1      36.116  30.925  29.143  1.00  0.00     0.039 A 
ATOM     36  C   UNL A   1      36.119  29.622  29.663  1.00  0.00     0.014 A 
ATOM     37  C   UNL A   1      37.328  31.552  28.917  1.00  0.00     0.014 A 
ATOM     38  C   UNL A   1      37.339  28.984  29.928  1.00  0.00     0.010 A 
ATOM     39  C   UNL A   1      38.513  30.881  29.009  1.00  0.00     0.010 A 
ATOM     40  C   UNL A   1      38.535  29.634  29.610  1.00  0.00    -0.014 A 
BRANCH  40  41
ATOM     41  C   UNL A   1      39.859  29.067  29.824  1.00  0.00     0.031 A 
ATOM     42  C   UNL A   1      40.224  28.811  31.232  1.00  0.00     0.074 A 
ATOM     43  C   UNL A   1      40.533  28.437  28.834  1.00  0.00     0.049 A 
ATOM     44  N   UNL A   1      41.156  29.375  31.921  1.00  0.00    -0.248 NA
ATOM     45  C   UNL A   1      39.381  27.889  32.009  1.00  0.00     0.031 C 
ATOM     46  C   UNL A   1      40.094  28.236  27.446  1.00  0.00     0.029 A 
ATOM     47  N   UNL A   1      41.670  27.690  28.903  1.00  0.00    -0.354 N 
ATOM     48  C   UNL A   1      41.186  28.696  33.134  1.00  0.00     0.074 A 
ATOM     49  C   UNL A   1      39.937  27.988  33.217  1.00  0.00     0.031 C 
ATOM     50  C   UNL A   1      40.819  27.246  26.884  1.00  0.00     0.029 A 
ATOM     51  C   UNL A   1      41.873  26.861  27.805  1.00  0.00     0.049 A 
ATOM     52  H   UNL A   1      42.295  27.735  29.663  1.00  0.00     0.167 HD
ATOM     53  C   UNL A   1      42.345  28.557  33.836  1.00  0.00     0.034 A 
ATOM     54  C   UNL A   1      42.822  25.901  27.659  1.00  0.00     0.034 A 
ATOM     55  C   UNL A   1      43.380  29.422  33.306  1.00  0.00     0.049 A 
ATOM     56  C   UNL A   1      43.910  26.223  28.615  1.00  0.00     0.074 A 
ATOM     57  C   UNL A   1      43.476  30.778  33.045  1.00  0.00     0.029 A 
ATOM     58  N   UNL A   1      44.407  28.840  32.593  1.00  0.00    -0.354 N 
ATOM     59  N   UNL A   1      44.649  27.295  28.533  1.00  0.00    -0.248 NA
ATOM     60  C   UNL A   1      43.916  25.572  29.917  1.00  0.00     0.031 C 
ATOM     61  C   UNL A   1      44.211  30.869  31.825  1.00  0.00     0.029 A 
ATOM     62  C   UNL A   1      44.589  29.578  31.449  1.00  0.00     0.049 A 
ATOM     63  H   UNL A   1      44.917  28.040  32.856  1.00  0.00     0.167 HD
ATOM     64  C   UNL A   1      44.842  27.698  29.845  1.00  0.00     0.074 A 
ATOM     65  C   UNL A   1      44.497  26.530  30.647  1.00  0.00     0.031 C 
ATOM     66  C   UNL A   1      44.972  29.021  30.163  1.00  0.00     0.034 A 
BRANCH  53  67
ATOM     67  C   UNL A   1      42.671  27.413  34.776  1.00  0.00     0.023 A 
ATOM     68  C   UNL A   1      43.512  26.400  34.278  1.00  0.00     0.031 A 
ATOM     69  C   UNL A   1      42.027  27.123  36.001  1.00  0.00     0.131 A 
ATOM     70  C   UNL A   1      43.611  25.156  34.923  1.00  0.00     0.055 A 
ATOM     71  C   UNL A   1      42.199  25.915  36.685  1.00  0.00     0.041 A 
ATOM     72  F   UNL A   1      41.125  27.937  36.561  1.00  0.00    -0.206 F 
ATOM     73  C   UNL A   1      42.968  24.909  36.131  1.00  0.00     0.022 A 
BRANCH  70  74
ATOM     74  S   UNL A   1      44.436  23.804  34.046  1.00  0.00     0.124 S 
ATOM     75  O   UNL A   1      43.319  23.196  33.331  1.00  0.00    -0.237 OA
ATOM     76  O   UNL A   1      45.408  24.525  33.232  1.00  0.00    -0.237 OA
ATOM     77  O   UNL A   1      44.999  22.996  35.124  1.00  0.00    -0.744 OA
ENDBRANCH  70  74
ENDBRANCH  53  67
BRANCH  54  78
ATOM     78  C   UNL A   1      42.762  24.653  26.858  1.00  0.00     0.023 A 
ATOM     79  C   UNL A   1      43.818  24.260  26.012  1.00  0.00     0.031 A 
ATOM     80  C   UNL A   1      41.743  23.700  27.081  1.00  0.00     0.131 A 
ATOM     81  C   UNL A   1      43.827  22.971  25.433  1.00  0.00     0.055 A 
ATOM     82  C   UNL A   1      41.744  22.436  26.486  1.00  0.00     0.041 A 
ATOM     83  F   UNL A   1      40.749  23.930  27.956  1.00  0.00    -0.206 F 
ATOM     84  C   UNL A   1      42.794  22.061  25.665  1.00  0.00     0.022 A 
BRANCH  81  85
ATOM     85  S   UNL A   1      45.272  22.412  24.476  1.00  0.00     0.124 S 
ATOM     86  O   UNL A   1      46.119  21.828  25.507  1.00  0.00    -0.237 OA
ATOM     87  O   UNL A   1      44.675  21.483  23.522  1.00  0.00    -0.237 OA
ATOM     88  O   UNL A   1      45.780  23.649  23.882  1.00  0.00    -0.744 OA
ENDBRANCH  81  85
ENDBRANCH  54  78
BRANCH  66  89
ATOM     89  C   UNL A   1      45.291  30.005  29.054  1.00  0.00     0.023 A 
ATOM     90  C   UNL A   1      46.594  30.369  28.647  1.00  0.00     0.031 A 
ATOM     91  C   UNL A   1      44.213  30.511  28.304  1.00  0.00     0.131 A 
ATOM     92  C   UNL A   1      46.779  31.220  27.541  1.00  0.00     0.055 A 
ATOM     93  C   UNL A   1      44.401  31.336  27.194  1.00  0.00     0.041 A 
ATOM     94  F   UNL A   1      42.949  30.182  28.619  1.00  0.00    -0.206 F 
ATOM     95  C   UNL A   1      45.687  31.700  26.813  1.00  0.00     0.022 A 
BRANCH  92  96
ATOM     96  S   UNL A   1      48.454  31.726  27.037  1.00  0.00     0.124 S 
ATOM     97  O   UNL A   1      49.024  30.510  26.471  1.00  0.00    -0.237 OA
ATOM     98  O   UNL A   1      48.187  32.807  26.092  1.00  0.00    -0.237 OA
ATOM     99  O   UNL A   1      49.070  32.158  28.295  1.00  0.00    -0.744 OA
ENDBRANCH  92  96
ENDBRANCH  66  89
ENDBRANCH  40  41
ENDBRANCH  32  35
ENDBRANCH  30  31
ENDBRANCH  29  30
ENDBRANCH  28  29
ENDBRANCH   1  28
TORSDOF 19
ENDMDL
MODEL 2
REMARK VINA RESULT:     -12.0      3.530      9.267
REMARK SMILES Cc1ccc(C)c(NS(=O)(=O)c2cc(C(=O)NCCCCCCNC(=O)c3ccc(-c4c5nc(c(-c6cc(S(=O)(=O)[O-])ccc6F)c6ccc([nH]6)c(-c6cc(S(=O)(=O)[O-])ccc6F)c6nc(c(-c7cc(S(=O)(=O)[O-])ccc7F)c7ccc4[nH]7)C=C6)C=C5)cc3)ccc2Cl)c1
REMARK SMILES IDX 20 1 19 2 18 3 17 4 15 5 16 6 14 8 12 9 13 10 92 11 91 12
REMARK SMILES IDX 93 13 90 14 9 15 10 16 11 17 8 18 7 20 1 21 2 22 3 23 94 24
REMARK SMILES IDX 4 25 5 26 6 27 21 28 22 29 23 30 24 31 25 32 26 34 27 35
REMARK SMILES IDX 28 36 89 37 29 38 88 39 30 40 31 41 32 42 82 43 33 44 87 45
REMARK SMILES IDX 81 46 83 47 34 48 86 49 80 50 79 51 35 53 67 54 47 55 66 56
REMARK SMILES IDX 48 57 51 58 65 59 84 60 49 61 50 62 64 64 85 65 52 66 36 67
REMARK SMILES IDX 37 68 45 69 38 70 44 71 46 72 43 73 39 74 40 75 41 76 42 77
REMARK SMILES IDX 68 78 69 79 77 80 70 81 76 82 78 83 75 84 71 85 72 86 73 87
REMARK SMILES IDX 74 88 53 89 54 90 62 91 55 92 61 93 63 94 60 95 56 96 57 97
REMARK SMILES IDX 58 98 59 99
REMARK H PARENT 17 7 8 19 24 33 83 52 51 63
REMARK Flexibility Score: inf
ROOT
ATOM      1  C   UNL A   1      34.866  23.683  26.429  1.00  0.00     0.002 C 
ENDROOT
BRANCH   1   2
ATOM      2  C   UNL A   1      34.436  22.579  27.405  1.00  0.00     0.021 C 
BRANCH   2   3
ATOM      3  C   UNL A   1      32.925  22.442  27.587  1.00  0.00     0.116 C 
BRANCH   3   4
ATOM      4  N   UNL A   1      32.343  21.464  26.694  1.00  0.00    -0.352 N 
ATOM      5  C   UNL A   1      32.094  21.402  25.350  1.00  0.00     0.251 C 
ATOM      6  O   UNL A   1      31.778  20.287  24.923  1.00  0.00    -0.269 OA
ATOM      7  H   UNL A   1      32.057  20.648  27.165  1.00  0.00     0.163 HD
BRANCH   5   8
ATOM      8  C   UNL A   1      32.177  22.535  24.374  1.00  0.00     0.041 A 
ATOM      9  C   UNL A   1      31.644  24.912  23.993  1.00  0.00     0.107 A 
ATOM     10  C   UNL A   1      31.648  23.764  24.812  1.00  0.00     0.037 A 
ATOM     11  C   UNL A   1      32.316  24.892  22.781  1.00  0.00     0.061 A 
ATOM     12  C   UNL A   1      32.799  23.667  22.310  1.00  0.00     0.023 A 
ATOM     13  Cl  UNL A   1      32.676  26.297  21.853  1.00  0.00    -0.083 Cl
ATOM     14  C   UNL A   1      32.719  22.499  23.090  1.00  0.00     0.015 A 
BRANCH   9  15
ATOM     15  S   UNL A   1      30.526  26.203  24.464  1.00  0.00     0.263 S 
ATOM     16  O   UNL A   1      30.294  26.088  25.880  1.00  0.00    -0.201 OA
ATOM     17  O   UNL A   1      29.402  26.157  23.538  1.00  0.00    -0.201 OA
BRANCH  15  18
ATOM     18  N   UNL A   1      31.251  27.701  24.235  1.00  0.00    -0.279 N 
ATOM     19  H   UNL A   1      31.185  28.083  23.331  1.00  0.00     0.180 HD
BRANCH  18  20
ATOM     20  C   UNL A   1      31.958  28.489  25.206  1.00  0.00     0.052 A 
ATOM     21  C   UNL A   1      31.302  32.030  26.508  1.00  0.00     0.044 C 
ATOM     22  C   UNL A   1      31.895  30.662  26.359  1.00  0.00    -0.049 A 
ATOM     23  C   UNL A   1      32.900  30.222  27.211  1.00  0.00     0.004 A 
ATOM     24  C   UNL A   1      31.413  29.777  25.388  1.00  0.00     0.030 A 
ATOM     25  C   UNL A   1      33.516  28.993  26.978  1.00  0.00     0.006 A 
ATOM     26  C   UNL A   1      33.119  28.154  25.915  1.00  0.00    -0.027 A 
ATOM     27  C   UNL A   1      34.018  26.994  25.607  1.00  0.00     0.046 C 
ENDBRANCH  18  20
ENDBRANCH  15  18
ENDBRANCH   9  15
ENDBRANCH   5   8
ENDBRANCH   3   4
ENDBRANCH   2   3
ENDBRANCH   1   2
BRANCH   1  28
ATOM     28  C   UNL A   1      35.672  23.270  25.184  1.00  0.00     0.002 C 
BRANCH  28  29
ATOM     29  C   UNL A   1      37.077  22.649  25.311  1.00  0.00     0.021 C 
BRANCH  29  30
ATOM     30  C   UNL A   1      38.217  23.415  25.995  1.00  0.00     0.116 C 
BRANCH  30  31
ATOM     31  N   UNL A   1      39.162  22.569  26.718  1.00  0.00    -0.352 N 
ATOM     32  C   UNL A   1      40.308  22.849  27.440  1.00  0.00     0.251 C 
ATOM     33  H   UNL A   1      38.940  21.611  26.685  1.00  0.00     0.163 HD
ATOM     34  O   UNL A   1      41.091  21.929  27.672  1.00  0.00    -0.269 OA
BRANCH  32  35
ATOM     35  C   UNL A   1      40.609  24.214  27.938  1.00  0.00     0.039 A 
ATOM     36  C   UNL A   1      41.891  24.581  28.377  1.00  0.00     0.014 A 
ATOM     37  C   UNL A   1      39.589  25.144  28.020  1.00  0.00     0.014 A 
ATOM     38  C   UNL A   1      42.110  25.873  28.874  1.00  0.00     0.010 A 
ATOM     39  C   UNL A   1      39.828  26.450  28.338  1.00  0.00     0.010 A 
ATOM     40  C   UNL A   1      41.061  26.798  28.863  1.00  0.00    -0.014 A 
BRANCH  40  41
ATOM     41  C   UNL A   1      41.173  28.170  29.337  1.00  0.00     0.031 A 
ATOM     42  C   UNL A   1      42.180  29.003  28.650  1.00  0.00     0.074 A 
ATOM     43  C   UNL A   1      40.179  28.765  30.038  1.00  0.00     0.049 A 
ATOM     44  N   UNL A   1      43.252  29.518  29.149  1.00  0.00    -0.248 NA
ATOM     45  C   UNL A   1      42.039  29.205  27.200  1.00  0.00     0.031 C 
ATOM     46  C   UNL A   1      38.896  28.173  30.441  1.00  0.00     0.029 A 
ATOM     47  N   UNL A   1      40.031  30.074  30.384  1.00  0.00    -0.354 N 
ATOM     48  C   UNL A   1      43.782  30.320  28.145  1.00  0.00     0.074 A 
ATOM     49  C   UNL A   1      43.149  29.893  26.927  1.00  0.00     0.031 C 
ATOM     50  C   UNL A   1      38.027  29.156  30.755  1.00  0.00     0.029 A 
ATOM     51  C   UNL A   1      38.732  30.425  30.738  1.00  0.00     0.049 A 
ATOM     52  H   UNL A   1      40.778  30.716  30.384  1.00  0.00     0.167 HD
ATOM     53  C   UNL A   1      44.491  31.445  28.441  1.00  0.00     0.034 A 
ATOM     54  C   UNL A   1      38.249  31.671  30.977  1.00  0.00     0.034 A 
ATOM     55  C   UNL A   1      44.829  31.489  29.851  1.00  0.00     0.049 A 
ATOM     56  C   UNL A   1      39.414  32.527  31.308  1.00  0.00     0.074 A 
ATOM     57  C   UNL A   1      45.464  30.627  30.726  1.00  0.00     0.029 A 
ATOM     58  N   UNL A   1      44.154  32.388  30.649  1.00  0.00    -0.354 N 
ATOM     59  N   UNL A   1      40.157  32.358  32.367  1.00  0.00    -0.248 NA
ATOM     60  C   UNL A   1      40.025  33.321  30.251  1.00  0.00     0.031 C 
ATOM     61  C   UNL A   1      44.742  30.744  31.951  1.00  0.00     0.029 A 
ATOM     62  C   UNL A   1      43.759  31.721  31.783  1.00  0.00     0.049 A 
ATOM     63  H   UNL A   1      43.986  33.336  30.444  1.00  0.00     0.167 HD
ATOM     64  C   UNL A   1      41.450  32.624  31.944  1.00  0.00     0.074 A 
ATOM     65  C   UNL A   1      41.289  33.346  30.687  1.00  0.00     0.031 C 
ATOM     66  C   UNL A   1      42.519  31.975  32.496  1.00  0.00     0.034 A 
BRANCH  53  67
ATOM     67  C   UNL A   1      44.596  32.674  27.561  1.00  0.00     0.023 A 
ATOM     68  C   UNL A   1      44.050  33.869  28.067  1.00  0.00     0.031 A 
ATOM     69  C   UNL A   1      44.953  32.700  26.193  1.00  0.00     0.131 A 
ATOM     70  C   UNL A   1      43.796  34.966  27.227  1.00  0.00     0.055 A 
ATOM     71  C   UNL A   1      44.779  33.825  25.380  1.00  0.00     0.041 A 
ATOM     72  F   UNL A   1      45.395  31.622  25.535  1.00  0.00    -0.206 F 
ATOM     73  C   UNL A   1      44.167  34.957  25.886  1.00  0.00     0.022 A 
BRANCH  70  74
ATOM     74  S   UNL A   1      42.789  36.323  27.876  1.00  0.00     0.124 S 
ATOM     75  O   UNL A   1      43.807  37.321  28.181  1.00  0.00    -0.237 OA
ATOM     76  O   UNL A   1      41.916  36.615  26.744  1.00  0.00    -0.237 OA
ATOM     77  O   UNL A   1      42.130  35.728  29.037  1.00  0.00    -0.744 OA
ENDBRANCH  70  74
ENDBRANCH  53  67
BRANCH  54  78
ATOM     78  C   UNL A   1      36.869  32.182  30.783  1.00  0.00     0.023 A 
ATOM     79  C   UNL A   1      36.192  32.897  31.791  1.00  0.00     0.031 A 
ATOM     80  C   UNL A   1      36.266  32.167  29.505  1.00  0.00     0.131 A 
ATOM     81  C   UNL A   1      34.975  33.555  31.505  1.00  0.00     0.055 A 
ATOM     82  C   UNL A   1      35.049  32.798  29.234  1.00  0.00     0.041 A 
ATOM     83  F   UNL A   1      36.881  31.611  28.448  1.00  0.00    -0.206 F 
ATOM     84  C   UNL A   1      34.401  33.505  30.233  1.00  0.00     0.022 A 
BRANCH  81  85
ATOM     85  S   UNL A   1      34.191  34.611  32.764  1.00  0.00     0.124 S 
ATOM     86  O   UNL A   1      34.923  35.862  32.619  1.00  0.00    -0.237 OA
ATOM     87  O   UNL A   1      32.795  34.621  32.339  1.00  0.00    -0.237 OA
ATOM     88  O   UNL A   1      34.441  33.887  34.011  1.00  0.00    -0.744 OA
ENDBRANCH  81  85
ENDBRANCH  54  78
BRANCH  66  89
ATOM     89  C   UNL A   1      42.327  31.260  33.820  1.00  0.00     0.023 A 
ATOM     90  C   UNL A   1      42.137  29.868  33.965  1.00  0.00     0.031 A 
ATOM     91  C   UNL A   1      42.454  32.023  34.996  1.00  0.00     0.131 A 
ATOM     92  C   UNL A   1      42.065  29.292  35.248  1.00  0.00     0.055 A 
ATOM     93  C   UNL A   1      42.404  31.447  36.266  1.00  0.00     0.041 A 
ATOM     94  F   UNL A   1      42.665  33.348  34.929  1.00  0.00    -0.206 F 
ATOM     95  C   UNL A   1      42.202  30.079  36.396  1.00  0.00     0.022 A 
BRANCH  92  96
ATOM     96  S   UNL A   1      41.778  27.505  35.442  1.00  0.00     0.124 S 
ATOM     97  O   UNL A   1      40.903  27.175  34.324  1.00  0.00    -0.237 OA
ATOM     98  O   UNL A   1      43.131  26.960  35.378  1.00  0.00    -0.237 OA
ATOM     99  O   UNL A   1      41.146  27.404  36.760  1.00  0.00    -0.744 OA
ENDBRANCH  92  96
ENDBRANCH  66  89
ENDBRANCH  40  41
ENDBRANCH  32  35
ENDBRANCH  30  31
ENDBRANCH  29  30
ENDBRANCH  28  29
ENDBRANCH   1  28
TORSDOF 19
ENDMDL
MODEL 3
REMARK VINA RESULT:     -12.0      3.881      9.503
REMARK SMILES Cc1ccc(C)c(NS(=O)(=O)c2cc(C(=O)NCCCCCCNC(=O)c3ccc(-c4c5nc(c(-c6cc(S(=O)(=O)[O-])ccc6F)c6ccc([nH]6)c(-c6cc(S(=O)(=O)[O-])ccc6F)c6nc(c(-c7cc(S(=O)(=O)[O-])ccc7F)c7ccc4[nH]7)C=C6)C=C5)cc3)ccc2Cl)c1
REMARK SMILES IDX 20 1 19 2 18 3 17 4 15 5 16 6 14 8 12 9 13 10 92 11 91 12
REMARK SMILES IDX 93 13 90 14 9 15 10 16 11 17 8 18 7 20 1 21 2 22 3 23 94 24
REMARK SMILES IDX 4 25 5 26 6 27 21 28 22 29 23 30 24 31 25 32 26 34 27 35
REMARK SMILES IDX 28 36 89 37 29 38 88 39 30 40 31 41 32 42 82 43 33 44 87 45
REMARK SMILES IDX 81 46 83 47 34 48 86 49 80 50 79 51 35 53 67 54 47 55 66 56
REMARK SMILES IDX 48 57 51 58 65 59 84 60 49 61 50 62 64 64 85 65 52 66 36 67
REMARK SMILES IDX 37 68 45 69 38 70 44 71 46 72 43 73 39 74 40 75 41 76 42 77
REMARK SMILES IDX 68 78 69 79 77 80 70 81 76 82 78 83 75 84 71 85 72 86 73 87
REMARK SMILES IDX 74 88 53 89 54 90 62 91 55 92 61 93 63 94 60 95 56 96 57 97
REMARK SMILES IDX 58 98 59 99
REMARK H PARENT 17 7 8 19 24 33 83 52 51 63
REMARK Flexibility Score: inf
ROOT
ATOM      1  C   UNL A   1      36.048  21.112  25.156  1.00  0.00     0.002 C 
ENDROOT
BRANCH   1   2
ATOM      2  C   UNL A   1      34.963  20.037  25.000  1.00  0.00     0.021 C 
BRANCH   2   3
ATOM      3  C   UNL A   1      33.551  20.499  25.360  1.00  0.00     0.116 C 
BRANCH   3   4
ATOM      4  N   UNL A   1      32.772  20.867  24.198  1.00  0.00    -0.352 N 
ATOM      5  C   UNL A   1      32.223  22.026  23.723  1.00  0.00     0.251 C 
ATOM      6  O   UNL A   1      31.809  21.977  22.561  1.00  0.00    -0.269 OA
ATOM      7  H   UNL A   1      32.595  20.100  23.607  1.00  0.00     0.163 HD
BRANCH   5   8
ATOM      8  C   UNL A   1      32.090  23.320  24.466  1.00  0.00     0.041 A 
ATOM      9  C   UNL A   1      31.907  25.768  24.235  1.00  0.00     0.107 A 
ATOM     10  C   UNL A   1      32.017  24.481  23.671  1.00  0.00     0.037 A 
ATOM     11  C   UNL A   1      31.706  25.905  25.599  1.00  0.00     0.061 A 
ATOM     12  C   UNL A   1      31.830  24.769  26.406  1.00  0.00     0.023 A 
ATOM     13  Cl  UNL A   1      31.223  27.371  26.362  1.00  0.00    -0.083 Cl
ATOM     14  C   UNL A   1      32.033  23.493  25.848  1.00  0.00     0.015 A 
BRANCH   9  15
ATOM     15  S   UNL A   1      32.326  27.123  23.174  1.00  0.00     0.263 S 
ATOM     16  O   UNL A   1      33.387  26.688  22.304  1.00  0.00    -0.201 OA
ATOM     17  O   UNL A   1      32.517  28.292  24.023  1.00  0.00    -0.201 OA
BRANCH  15  18
ATOM     18  N   UNL A   1      31.028  27.489  22.171  1.00  0.00    -0.279 N 
ATOM     19  H   UNL A   1      31.080  27.145  21.250  1.00  0.00     0.180 HD
BRANCH  18  20
ATOM     20  C   UNL A   1      29.853  28.244  22.500  1.00  0.00     0.052 A 
ATOM     21  C   UNL A   1      29.034  31.949  21.977  1.00  0.00     0.044 C 
ATOM     22  C   UNL A   1      28.881  30.498  22.320  1.00  0.00    -0.049 A 
ATOM     23  C   UNL A   1      27.660  29.990  22.746  1.00  0.00     0.004 A 
ATOM     24  C   UNL A   1      29.954  29.612  22.171  1.00  0.00     0.030 A 
ATOM     25  C   UNL A   1      27.573  28.664  23.170  1.00  0.00     0.006 A 
ATOM     26  C   UNL A   1      28.690  27.802  23.144  1.00  0.00    -0.027 A 
ATOM     27  C   UNL A   1      28.542  26.495  23.863  1.00  0.00     0.046 C 
ENDBRANCH  18  20
ENDBRANCH  15  18
ENDBRANCH   9  15
ENDBRANCH   5   8
ENDBRANCH   3   4
ENDBRANCH   2   3
ENDBRANCH   1   2
BRANCH   1  28
ATOM     28  C   UNL A   1      35.594  22.573  25.325  1.00  0.00     0.002 C 
BRANCH  28  29
ATOM     29  C   UNL A   1      36.496  23.616  26.013  1.00  0.00     0.021 C 
BRANCH  29  30
ATOM     30  C   UNL A   1      37.996  23.689  25.701  1.00  0.00     0.116 C 
BRANCH  30  31
ATOM     31  N   UNL A   1      38.827  22.826  26.535  1.00  0.00    -0.352 N 
ATOM     32  C   UNL A   1      39.910  23.079  27.358  1.00  0.00     0.251 C 
ATOM     33  H   UNL A   1      38.566  21.878  26.506  1.00  0.00     0.163 HD
ATOM     34  O   UNL A   1      40.625  22.134  27.689  1.00  0.00    -0.269 OA
BRANCH  32  35
ATOM     35  C   UNL A   1      40.224  24.445  27.846  1.00  0.00     0.039 A 
ATOM     36  C   UNL A   1      41.492  24.785  28.343  1.00  0.00     0.014 A 
ATOM     37  C   UNL A   1      39.227  25.403  27.860  1.00  0.00     0.014 A 
ATOM     38  C   UNL A   1      41.722  26.080  28.828  1.00  0.00     0.010 A 
ATOM     39  C   UNL A   1      39.486  26.708  28.167  1.00  0.00     0.010 A 
ATOM     40  C   UNL A   1      40.700  27.032  28.748  1.00  0.00    -0.014 A 
BRANCH  40  41
ATOM     41  C   UNL A   1      40.826  28.410  29.203  1.00  0.00     0.031 A 
ATOM     42  C   UNL A   1      41.897  29.200  28.560  1.00  0.00     0.074 A 
ATOM     43  C   UNL A   1      39.813  29.047  29.835  1.00  0.00     0.049 A 
ATOM     44  N   UNL A   1      42.953  29.692  29.110  1.00  0.00    -0.248 NA
ATOM     45  C   UNL A   1      41.844  29.377  27.101  1.00  0.00     0.031 C 
ATOM     46  C   UNL A   1      38.492  28.500  30.174  1.00  0.00     0.029 A 
ATOM     47  N   UNL A   1      39.685  30.366  30.148  1.00  0.00    -0.354 N 
ATOM     48  C   UNL A   1      43.563  30.459  28.125  1.00  0.00     0.074 A 
ATOM     49  C   UNL A   1      42.988  30.026  26.880  1.00  0.00     0.031 C 
ATOM     50  C   UNL A   1      37.636  29.514  30.420  1.00  0.00     0.029 A 
ATOM     51  C   UNL A   1      38.379  30.761  30.420  1.00  0.00     0.049 A 
ATOM     52  H   UNL A   1      40.450  30.986  30.180  1.00  0.00     0.167 HD
ATOM     53  C   UNL A   1      44.288  31.568  28.441  1.00  0.00     0.034 A 
ATOM     54  C   UNL A   1      37.922  32.025  30.609  1.00  0.00     0.034 A 
ATOM     55  C   UNL A   1      44.546  31.630  29.866  1.00  0.00     0.049 A 
ATOM     56  C   UNL A   1      39.091  32.854  30.991  1.00  0.00     0.074 A 
ATOM     57  C   UNL A   1      45.105  30.767  30.792  1.00  0.00     0.029 A 
ATOM     58  N   UNL A   1      43.854  32.564  30.608  1.00  0.00    -0.354 N 
ATOM     59  N   UNL A   1      39.767  32.684  32.094  1.00  0.00    -0.248 NA
ATOM     60  C   UNL A   1      39.785  33.608  29.957  1.00  0.00     0.031 C 
ATOM     61  C   UNL A   1      44.317  30.929  31.971  1.00  0.00     0.029 A 
ATOM     62  C   UNL A   1      43.375  31.931  31.729  1.00  0.00     0.049 A 
ATOM     63  H   UNL A   1      43.727  33.513  30.377  1.00  0.00     0.167 HD
ATOM     64  C   UNL A   1      41.089  32.904  31.741  1.00  0.00     0.074 A 
ATOM     65  C   UNL A   1      41.022  33.605  30.464  1.00  0.00     0.031 C 
ATOM     66  C   UNL A   1      42.105  32.235  32.365  1.00  0.00     0.034 A 
BRANCH  53  67
ATOM     67  C   UNL A   1      44.480  32.777  27.546  1.00  0.00     0.023 A 
ATOM     68  C   UNL A   1      43.829  33.964  27.931  1.00  0.00     0.031 A 
ATOM     69  C   UNL A   1      45.029  32.778  26.243  1.00  0.00     0.131 A 
ATOM     70  C   UNL A   1      43.665  35.029  27.029  1.00  0.00     0.055 A 
ATOM     71  C   UNL A   1      44.938  33.875  25.378  1.00  0.00     0.041 A 
ATOM     72  F   UNL A   1      45.595  31.700  25.690  1.00  0.00    -0.206 F 
ATOM     73  C   UNL A   1      44.225  34.997  25.756  1.00  0.00     0.022 A 
BRANCH  70  74
ATOM     74  S   UNL A   1      42.533  36.366  27.485  1.00  0.00     0.124 S 
ATOM     75  O   UNL A   1      42.587  36.310  28.941  1.00  0.00    -0.237 OA
ATOM     76  O   UNL A   1      43.168  37.520  26.858  1.00  0.00    -0.237 OA
ATOM     77  O   UNL A   1      41.264  35.950  26.891  1.00  0.00    -0.744 OA
ENDBRANCH  70  74
ENDBRANCH  53  67
BRANCH  54  78
ATOM     78  C   UNL A   1      36.571  32.573  30.327  1.00  0.00     0.023 A 
ATOM     79  C   UNL A   1      35.784  33.167  31.333  1.00  0.00     0.031 A 
ATOM     80  C   UNL A   1      36.115  32.722  28.998  1.00  0.00     0.131 A 
ATOM     81  C   UNL A   1      34.605  33.870  30.996  1.00  0.00     0.055 A 
ATOM     82  C   UNL A   1      34.935  33.395  28.672  1.00  0.00     0.041 A 
ATOM     83  F   UNL A   1      36.845  32.292  27.955  1.00  0.00    -0.206 F 
ATOM     84  C   UNL A   1      34.178  33.982  29.672  1.00  0.00     0.022 A 
BRANCH  81  85
ATOM     85  S   UNL A   1      33.682  34.772  32.281  1.00  0.00     0.124 S 
ATOM     86  O   UNL A   1      32.588  35.360  31.520  1.00  0.00    -0.237 OA
ATOM     87  O   UNL A   1      33.327  33.710  33.216  1.00  0.00    -0.237 OA
ATOM     88  O   UNL A   1      34.666  35.728  32.792  1.00  0.00    -0.744 OA
ENDBRANCH  81  85
ENDBRANCH  54  78
BRANCH  66  89
ATOM     89  C   UNL A   1      41.817  31.552  33.689  1.00  0.00     0.023 A 
ATOM     90  C   UNL A   1      41.790  32.202  34.943  1.00  0.00     0.031 A 
ATOM     91  C   UNL A   1      41.443  30.196  33.654  1.00  0.00     0.131 A 
ATOM     92  C   UNL A   1      41.417  31.493  36.101  1.00  0.00     0.055 A 
ATOM     93  C   UNL A   1      41.052  29.502  34.799  1.00  0.00     0.041 A 
ATOM     94  F   UNL A   1      41.418  29.526  32.490  1.00  0.00    -0.206 F 
ATOM     95  C   UNL A   1      41.046  30.148  36.030  1.00  0.00     0.022 A 
BRANCH  92  96
ATOM     96  S   UNL A   1      41.423  32.314  37.726  1.00  0.00     0.124 S 
ATOM     97  O   UNL A   1      40.014  32.345  38.099  1.00  0.00    -0.237 OA
ATOM     98  O   UNL A   1      42.275  31.433  38.521  1.00  0.00    -0.237 OA
ATOM     99  O   UNL A   1      42.006  33.627  37.441  1.00  0.00    -0.744 OA
ENDBRANCH  92  96
ENDBRANCH  66  89
ENDBRANCH  40  41
ENDBRANCH  32  35
ENDBRANCH  30  31
ENDBRANCH  29  30
ENDBRANCH  28  29
ENDBRANCH   1  28
TORSDOF 19
ENDMDL
