MODEL 1
REMARK VINA RESULT:     -13.6      0.000      0.000
REMARK SMILES Cc1c(NC(=O)c2ccccc2NC(=O)[C@@H]2CCCO2)cccc1C(=O)NCCCCCCNC(=O)c1ccc(-c2c3nc(c(-c4cc(S(=O)(=O)[O-])ccc4F)c4ccc([nH]4)c(-c4cc(S(=O)(=O)[O-])ccc4F)c4nc(c(-c5cc(S(=O)(=O)[O-])ccc5F)c5ccc2[nH]5)C=C4)C=C3)cc1
REMARK SMILES IDX 30 1 29 2 28 3 27 4 25 5 26 6 24 8 1 9 2 10 3 11 21 12 23 13
REMARK SMILES IDX 22 14 4 15 5 16 6 18 7 19 8 20 12 21 9 22 11 23 10 24 13 25
REMARK SMILES IDX 14 26 15 28 16 29 17 30 20 31 18 32 19 33 31 34 32 35 33 36
REMARK SMILES IDX 34 37 35 38 36 40 37 41 38 42 99 43 39 44 98 45 40 46 41 47
REMARK SMILES IDX 42 48 92 49 43 50 97 51 91 52 93 53 44 54 96 55 90 56 89 57
REMARK SMILES IDX 45 59 77 60 57 61 76 62 58 63 61 64 75 65 94 66 59 67 60 68
REMARK SMILES IDX 74 70 95 71 62 72 46 73 47 74 55 75 48 76 54 77 56 78 53 79
REMARK SMILES IDX 49 80 50 81 51 82 52 83 78 84 79 85 87 86 80 87 86 88 88 89
REMARK SMILES IDX 85 90 81 91 82 92 83 93 84 94 63 95 64 96 72 97 65 98 71 99
REMARK SMILES IDX 73 100 70 101 66 102 67 103 68 104 69 105
REMARK H PARENT 27 7 4 17 13 27 34 39 93 58 61 69
REMARK Flexibility Score: inf
ROOT
ATOM      1  C   UNL A   1      35.423  23.375  26.186  1.00  0.00     0.002 C 
ENDROOT
BRANCH   1   2
ATOM      2  C   UNL A   1      34.920  21.960  26.488  1.00  0.00     0.021 C 
BRANCH   2   3
ATOM      3  C   UNL A   1      35.143  20.931  25.370  1.00  0.00     0.116 C 
BRANCH   3   4
ATOM      4  N   UNL A   1      34.000  20.043  25.255  1.00  0.00    -0.352 N 
ATOM      5  C   UNL A   1      32.665  20.229  25.013  1.00  0.00     0.251 C 
ATOM      6  O   UNL A   1      31.981  19.210  24.877  1.00  0.00    -0.269 OA
ATOM      7  H   UNL A   1      34.238  19.095  25.377  1.00  0.00     0.163 HD
BRANCH   5   8
ATOM      8  C   UNL A   1      31.992  21.553  24.810  1.00  0.00     0.044 A 
ATOM      9  C   UNL A   1      33.032  22.131  22.548  1.00  0.00     0.047 C 
ATOM     10  C   UNL A   1      32.100  22.415  23.697  1.00  0.00    -0.015 A 
ATOM     11  C   UNL A   1      31.445  23.679  23.730  1.00  0.00     0.045 A 
ATOM     12  C   UNL A   1      30.775  24.112  24.876  1.00  0.00     0.026 A 
ATOM     13  C   UNL A   1      31.310  22.026  25.953  1.00  0.00     0.014 A 
ATOM     14  C   UNL A   1      30.721  23.291  25.994  1.00  0.00     0.003 A 
BRANCH  11  15
ATOM     15  N   UNL A   1      31.523  24.493  22.582  1.00  0.00    -0.322 N 
ATOM     16  C   UNL A   1      31.571  25.858  22.417  1.00  0.00     0.257 C 
ATOM     17  H   UNL A   1      31.549  23.989  21.737  1.00  0.00     0.170 HD
ATOM     18  O   UNL A   1      31.304  26.323  21.308  1.00  0.00    -0.269 OA
BRANCH  16  19
ATOM     19  C   UNL A   1      32.022  26.791  23.492  1.00  0.00     0.063 A 
ATOM     20  C   UNL A   1      33.352  26.588  23.915  1.00  0.00     0.016 A 
ATOM     21  C   UNL A   1      31.203  27.743  24.155  1.00  0.00     0.054 A 
ATOM     22  C   UNL A   1      33.904  27.360  24.930  1.00  0.00     0.001 A 
ATOM     23  C   UNL A   1      31.809  28.554  25.117  1.00  0.00     0.027 A 
ATOM     24  C   UNL A   1      33.140  28.362  25.509  1.00  0.00     0.002 A 
BRANCH  21  25
ATOM     25  N   UNL A   1      29.826  27.794  23.851  1.00  0.00    -0.323 N 
ATOM     26  C   UNL A   1      28.975  28.577  23.127  1.00  0.00     0.253 C 
ATOM     27  H   UNL A   1      29.342  27.056  24.286  1.00  0.00     0.170 HD
ATOM     28  O   UNL A   1      27.802  28.190  23.073  1.00  0.00    -0.272 OA
BRANCH  26  29
ATOM     29  C   UNL A   1      29.408  29.879  22.457  1.00  0.00     0.207 C 
ATOM     30  C   UNL A   1      28.914  31.063  23.280  1.00  0.00     0.044 C 
ATOM     31  O   UNL A   1      28.872  30.066  21.134  1.00  0.00    -0.368 OA
ATOM     32  C   UNL A   1      28.734  32.134  22.239  1.00  0.00     0.032 C 
ATOM     33  C   UNL A   1      28.201  31.330  21.076  1.00  0.00     0.161 C 
ENDBRANCH  26  29
ENDBRANCH  21  25
ENDBRANCH  16  19
ENDBRANCH  11  15
ENDBRANCH   5   8
ENDBRANCH   3   4
ENDBRANCH   2   3
ENDBRANCH   1   2
BRANCH   1  34
ATOM     34  C   UNL A   1      36.247  23.539  24.901  1.00  0.00     0.002 C 
BRANCH  34  35
ATOM     35  C   UNL A   1      37.749  23.742  25.099  1.00  0.00     0.021 C 
BRANCH  35  36
ATOM     36  C   UNL A   1      38.348  22.894  26.220  1.00  0.00     0.116 C 
BRANCH  36  37
ATOM     37  N   UNL A   1      39.805  22.917  26.257  1.00  0.00    -0.352 N 
ATOM     38  C   UNL A   1      40.648  23.968  26.554  1.00  0.00     0.251 C 
ATOM     39  H   UNL A   1      40.249  22.065  26.041  1.00  0.00     0.163 HD
ATOM     40  O   UNL A   1      41.871  23.842  26.475  1.00  0.00    -0.269 OA
BRANCH  38  41
ATOM     41  C   UNL A   1      40.075  25.227  27.082  1.00  0.00     0.039 A 
ATOM     42  C   UNL A   1      40.421  26.418  26.433  1.00  0.00     0.014 A 
ATOM     43  C   UNL A   1      39.382  25.260  28.290  1.00  0.00     0.014 A 
ATOM     44  C   UNL A   1      40.264  27.633  27.097  1.00  0.00     0.010 A 
ATOM     45  C   UNL A   1      39.298  26.455  28.983  1.00  0.00     0.010 A 
ATOM     46  C   UNL A   1      39.794  27.632  28.412  1.00  0.00    -0.014 A 
BRANCH  46  47
ATOM     47  C   UNL A   1      39.913  28.787  29.298  1.00  0.00     0.031 A 
ATOM     48  C   UNL A   1      38.868  29.829  29.343  1.00  0.00     0.074 A 
ATOM     49  C   UNL A   1      40.992  28.903  30.102  1.00  0.00     0.049 A 
ATOM     50  N   UNL A   1      39.073  31.048  29.718  1.00  0.00    -0.248 NA
ATOM     51  C   UNL A   1      37.495  29.580  28.921  1.00  0.00     0.031 C 
ATOM     52  C   UNL A   1      41.195  29.855  31.189  1.00  0.00     0.029 A 
ATOM     53  N   UNL A   1      42.250  28.343  29.890  1.00  0.00    -0.354 N 
ATOM     54  C   UNL A   1      37.853  31.668  29.826  1.00  0.00     0.074 A 
ATOM     55  C   UNL A   1      36.904  30.725  29.278  1.00  0.00     0.031 C 
ATOM     56  C   UNL A   1      42.513  30.030  31.367  1.00  0.00     0.029 A 
ATOM     57  C   UNL A   1      43.196  29.295  30.317  1.00  0.00     0.049 A 
ATOM     58  H   UNL A   1      42.441  27.453  29.515  1.00  0.00     0.167 HD
ATOM     59  C   UNL A   1      37.754  32.869  30.463  1.00  0.00     0.034 A 
ATOM     60  C   UNL A   1      44.105  29.811  29.439  1.00  0.00     0.034 A 
ATOM     61  C   UNL A   1      39.053  33.376  30.901  1.00  0.00     0.049 A 
ATOM     62  C   UNL A   1      44.000  31.311  29.245  1.00  0.00     0.074 A 
ATOM     63  C   UNL A   1      39.740  33.373  32.103  1.00  0.00     0.029 A 
ATOM     64  N   UNL A   1      39.963  33.778  29.942  1.00  0.00    -0.354 N 
ATOM     65  N   UNL A   1      43.093  32.069  29.798  1.00  0.00    -0.248 NA
ATOM     66  C   UNL A   1      44.861  32.058  28.325  1.00  0.00     0.031 C 
ATOM     67  C   UNL A   1      41.092  33.743  31.840  1.00  0.00     0.029 A 
ATOM     68  C   UNL A   1      41.215  33.990  30.485  1.00  0.00     0.049 A 
ATOM     69  H   UNL A   1      39.746  33.899  28.989  1.00  0.00     0.167 HD
ATOM     70  C   UNL A   1      43.187  33.336  29.285  1.00  0.00     0.074 A 
ATOM     71  C   UNL A   1      44.313  33.283  28.369  1.00  0.00     0.031 C 
ATOM     72  C   UNL A   1      42.312  34.335  29.599  1.00  0.00     0.034 A 
BRANCH  59  73
ATOM     73  C   UNL A   1      36.444  33.478  30.894  1.00  0.00     0.023 A 
ATOM     74  C   UNL A   1      35.625  34.102  29.932  1.00  0.00     0.031 A 
ATOM     75  C   UNL A   1      35.961  33.502  32.215  1.00  0.00     0.131 A 
ATOM     76  C   UNL A   1      34.458  34.792  30.303  1.00  0.00     0.055 A 
ATOM     77  C   UNL A   1      34.838  34.246  32.597  1.00  0.00     0.041 A 
ATOM     78  F   UNL A   1      36.531  32.768  33.183  1.00  0.00    -0.206 F 
ATOM     79  C   UNL A   1      34.085  34.909  31.639  1.00  0.00     0.022 A 
BRANCH  76  80
ATOM     80  S   UNL A   1      33.420  35.527  29.009  1.00  0.00     0.124 S 
ATOM     81  O   UNL A   1      32.597  36.466  29.764  1.00  0.00    -0.237 OA
ATOM     82  O   UNL A   1      34.413  36.112  28.115  1.00  0.00    -0.237 OA
ATOM     83  O   UNL A   1      32.698  34.379  28.461  1.00  0.00    -0.744 OA
ENDBRANCH  76  80
ENDBRANCH  59  73
BRANCH  60  84
ATOM     84  C   UNL A   1      44.522  28.826  28.395  1.00  0.00     0.023 A 
ATOM     85  C   UNL A   1      45.383  27.783  28.805  1.00  0.00     0.031 A 
ATOM     86  C   UNL A   1      43.826  28.663  27.191  1.00  0.00     0.131 A 
ATOM     87  C   UNL A   1      45.380  26.558  28.125  1.00  0.00     0.055 A 
ATOM     88  C   UNL A   1      43.900  27.469  26.464  1.00  0.00     0.041 A 
ATOM     89  F   UNL A   1      42.965  29.598  26.762  1.00  0.00    -0.206 F 
ATOM     90  C   UNL A   1      44.639  26.392  26.954  1.00  0.00     0.022 A 
BRANCH  87  91
ATOM     91  S   UNL A   1      46.097  25.107  28.956  1.00  0.00     0.124 S 
ATOM     92  O   UNL A   1      45.360  25.078  30.213  1.00  0.00    -0.237 OA
ATOM     93  O   UNL A   1      45.805  24.024  28.020  1.00  0.00    -0.237 OA
ATOM     94  O   UNL A   1      47.516  25.441  29.064  1.00  0.00    -0.744 OA
ENDBRANCH  87  91
ENDBRANCH  60  84
BRANCH  72  95
ATOM     95  C   UNL A   1      42.439  35.725  29.041  1.00  0.00     0.023 A 
ATOM     96  C   UNL A   1      43.276  36.681  29.639  1.00  0.00     0.031 A 
ATOM     97  C   UNL A   1      41.681  36.154  27.932  1.00  0.00     0.131 A 
ATOM     98  C   UNL A   1      43.394  37.970  29.094  1.00  0.00     0.055 A 
ATOM     99  C   UNL A   1      41.735  37.463  27.446  1.00  0.00     0.041 A 
ATOM    100  F   UNL A   1      40.894  35.309  27.249  1.00  0.00    -0.206 F 
ATOM    101  C   UNL A   1      42.607  38.377  28.019  1.00  0.00     0.022 A 
BRANCH  98 102
ATOM    102  S   UNL A   1      44.669  39.072  29.758  1.00  0.00     0.124 S 
ATOM    103  O   UNL A   1      44.126  39.441  31.061  1.00  0.00    -0.237 OA
ATOM    104  O   UNL A   1      45.835  38.193  29.782  1.00  0.00    -0.237 OA
ATOM    105  O   UNL A   1      44.731  40.156  28.779  1.00  0.00    -0.744 OA
ENDBRANCH  98 102
ENDBRANCH  72  95
ENDBRANCH  46  47
ENDBRANCH  38  41
ENDBRANCH  36  37
ENDBRANCH  35  36
ENDBRANCH  34  35
ENDBRANCH   1  34
TORSDOF 20
ENDMDL
MODEL 2
REMARK VINA RESULT:     -12.5      3.970     10.576
REMARK SMILES Cc1c(NC(=O)c2ccccc2NC(=O)[C@@H]2CCCO2)cccc1C(=O)NCCCCCCNC(=O)c1ccc(-c2c3nc(c(-c4cc(S(=O)(=O)[O-])ccc4F)c4ccc([nH]4)c(-c4cc(S(=O)(=O)[O-])ccc4F)c4nc(c(-c5cc(S(=O)(=O)[O-])ccc5F)c5ccc2[nH]5)C=C4)C=C3)cc1
REMARK SMILES IDX 30 1 29 2 28 3 27 4 25 5 26 6 24 8 1 9 2 10 3 11 21 12 23 13
REMARK SMILES IDX 22 14 4 15 5 16 6 18 7 19 8 20 12 21 9 22 11 23 10 24 13 25
REMARK SMILES IDX 14 26 15 28 16 29 17 30 20 31 18 32 19 33 31 34 32 35 33 36
REMARK SMILES IDX 34 37 35 38 36 40 37 41 38 42 99 43 39 44 98 45 40 46 41 47
REMARK SMILES IDX 42 48 92 49 43 50 97 51 91 52 93 53 44 54 96 55 90 56 89 57
REMARK SMILES IDX 45 59 77 60 57 61 76 62 58 63 61 64 75 65 94 66 59 67 60 68
REMARK SMILES IDX 74 70 95 71 62 72 46 73 47 74 55 75 48 76 54 77 56 78 53 79
REMARK SMILES IDX 49 80 50 81 51 82 52 83 78 84 79 85 87 86 80 87 86 88 88 89
REMARK SMILES IDX 85 90 81 91 82 92 83 93 84 94 63 95 64 96 72 97 65 98 71 99
REMARK SMILES IDX 73 100 70 101 66 102 67 103 68 104 69 105
REMARK H PARENT 27 7 4 17 13 27 34 39 93 58 61 69
REMARK Flexibility Score: inf
ROOT
ATOM      1  C   UNL A   1      31.920  28.228  26.268  1.00  0.00     0.002 C 
ENDROOT
BRANCH   1   2
ATOM      2  C   UNL A   1      30.878  28.450  25.167  1.00  0.00     0.021 C 
BRANCH   2   3
ATOM      3  C   UNL A   1      31.063  27.593  23.905  1.00  0.00     0.116 C 
BRANCH   3   4
ATOM      4  N   UNL A   1      32.240  28.014  23.167  1.00  0.00    -0.352 N 
ATOM      5  C   UNL A   1      33.219  27.356  22.472  1.00  0.00     0.251 C 
ATOM      6  O   UNL A   1      34.033  28.058  21.864  1.00  0.00    -0.269 OA
ATOM      7  H   UNL A   1      32.360  28.991  23.164  1.00  0.00     0.163 HD
BRANCH   5   8
ATOM      8  C   UNL A   1      33.327  25.869  22.314  1.00  0.00     0.044 A 
ATOM      9  C   UNL A   1      34.804  25.406  24.348  1.00  0.00     0.047 C 
ATOM     10  C   UNL A   1      33.994  24.956  23.160  1.00  0.00    -0.015 A 
ATOM     11  C   UNL A   1      34.056  23.583  22.790  1.00  0.00     0.045 A 
ATOM     12  C   UNL A   1      33.545  23.143  21.567  1.00  0.00     0.026 A 
ATOM     13  C   UNL A   1      32.827  25.390  21.083  1.00  0.00     0.014 A 
ATOM     14  C   UNL A   1      32.944  24.052  20.706  1.00  0.00     0.003 A 
BRANCH  11  15
ATOM     15  N   UNL A   1      34.679  22.687  23.681  1.00  0.00    -0.322 N 
ATOM     16  C   UNL A   1      34.386  22.311  24.972  1.00  0.00     0.257 C 
ATOM     17  H   UNL A   1      35.476  22.244  23.309  1.00  0.00     0.170 HD
ATOM     18  O   UNL A   1      35.268  21.766  25.638  1.00  0.00    -0.269 OA
BRANCH  16  19
ATOM     19  C   UNL A   1      33.023  22.446  25.567  1.00  0.00     0.063 A 
ATOM     20  C   UNL A   1      32.984  23.192  26.762  1.00  0.00     0.016 A 
ATOM     21  C   UNL A   1      31.848  21.808  25.087  1.00  0.00     0.054 A 
ATOM     22  C   UNL A   1      31.789  23.378  27.448  1.00  0.00     0.001 A 
ATOM     23  C   UNL A   1      30.651  22.078  25.756  1.00  0.00     0.027 A 
ATOM     24  C   UNL A   1      30.620  22.845  26.928  1.00  0.00     0.002 A 
BRANCH  21  25
ATOM     25  N   UNL A   1      31.946  20.910  24.004  1.00  0.00    -0.323 N 
ATOM     26  C   UNL A   1      32.372  19.633  23.781  1.00  0.00     0.253 C 
ATOM     27  H   UNL A   1      31.613  21.320  23.174  1.00  0.00     0.170 HD
ATOM     28  O   UNL A   1      32.194  19.199  22.637  1.00  0.00    -0.272 OA
BRANCH  26  29
ATOM     29  C   UNL A   1      33.072  18.790  24.844  1.00  0.00     0.207 C 
ATOM     30  C   UNL A   1      34.113  17.897  24.180  1.00  0.00     0.044 C 
ATOM     31  O   UNL A   1      32.194  17.905  25.565  1.00  0.00    -0.368 OA
ATOM     32  C   UNL A   1      34.160  16.708  25.101  1.00  0.00     0.032 C 
ATOM     33  C   UNL A   1      32.705  16.570  25.481  1.00  0.00     0.161 C 
ENDBRANCH  26  29
ENDBRANCH  21  25
ENDBRANCH  16  19
ENDBRANCH  11  15
ENDBRANCH   5   8
ENDBRANCH   3   4
ENDBRANCH   2   3
ENDBRANCH   1   2
BRANCH   1  34
ATOM     34  C   UNL A   1      31.951  29.277  27.389  1.00  0.00     0.002 C 
BRANCH  34  35
ATOM     35  C   UNL A   1      32.875  30.472  27.151  1.00  0.00     0.021 C 
BRANCH  35  36
ATOM     36  C   UNL A   1      34.336  30.207  27.506  1.00  0.00     0.116 C 
BRANCH  36  37
ATOM     37  N   UNL A   1      34.874  31.126  28.502  1.00  0.00    -0.352 N 
ATOM     38  C   UNL A   1      36.019  31.008  29.261  1.00  0.00     0.251 C 
ATOM     39  H   UNL A   1      34.346  31.944  28.654  1.00  0.00     0.163 HD
ATOM     40  O   UNL A   1      36.303  31.847  30.117  1.00  0.00    -0.269 OA
BRANCH  38  41
ATOM     41  C   UNL A   1      36.975  29.917  28.961  1.00  0.00     0.039 A 
ATOM     42  C   UNL A   1      37.239  28.991  29.977  1.00  0.00     0.014 A 
ATOM     43  C   UNL A   1      37.735  29.917  27.794  1.00  0.00     0.014 A 
ATOM     44  C   UNL A   1      38.394  28.213  29.914  1.00  0.00     0.010 A 
ATOM     45  C   UNL A   1      38.922  29.205  27.766  1.00  0.00     0.010 A 
ATOM     46  C   UNL A   1      39.281  28.400  28.852  1.00  0.00    -0.014 A 
BRANCH  46  47
ATOM     47  C   UNL A   1      40.652  27.898  28.867  1.00  0.00     0.031 A 
ATOM     48  C   UNL A   1      40.974  26.534  28.400  1.00  0.00     0.074 A 
ATOM     49  C   UNL A   1      41.651  28.696  29.303  1.00  0.00     0.049 A 
ATOM     50  N   UNL A   1      42.011  25.863  28.777  1.00  0.00    -0.248 NA
ATOM     51  C   UNL A   1      40.111  25.795  27.486  1.00  0.00     0.031 C 
ATOM     52  C   UNL A   1      43.088  28.461  29.203  1.00  0.00     0.029 A 
ATOM     53  N   UNL A   1      41.534  29.764  30.189  1.00  0.00    -0.354 N 
ATOM     54  C   UNL A   1      42.093  24.736  27.998  1.00  0.00     0.074 A 
ATOM     55  C   UNL A   1      40.863  24.718  27.237  1.00  0.00     0.031 C 
ATOM     56  C   UNL A   1      43.704  29.143  30.180  1.00  0.00     0.029 A 
ATOM     57  C   UNL A   1      42.673  29.733  31.016  1.00  0.00     0.049 A 
ATOM     58  H   UNL A   1      40.796  30.415  30.230  1.00  0.00     0.167 HD
ATOM     59  C   UNL A   1      43.235  23.993  27.994  1.00  0.00     0.034 A 
ATOM     60  C   UNL A   1      42.546  29.573  32.366  1.00  0.00     0.034 A 
ATOM     61  C   UNL A   1      44.234  24.501  28.931  1.00  0.00     0.049 A 
ATOM     62  C   UNL A   1      43.212  28.324  32.909  1.00  0.00     0.074 A 
ATOM     63  C   UNL A   1      45.360  25.297  28.811  1.00  0.00     0.029 A 
ATOM     64  N   UNL A   1      43.981  24.400  30.286  1.00  0.00    -0.354 N 
ATOM     65  N   UNL A   1      43.807  27.422  32.176  1.00  0.00    -0.248 NA
ATOM     66  C   UNL A   1      43.170  27.950  34.324  1.00  0.00     0.031 C 
ATOM     67  C   UNL A   1      45.755  25.704  30.119  1.00  0.00     0.029 A 
ATOM     68  C   UNL A   1      44.881  25.138  31.029  1.00  0.00     0.049 A 
ATOM     69  H   UNL A   1      43.249  23.867  30.675  1.00  0.00     0.167 HD
ATOM     70  C   UNL A   1      44.151  26.355  32.964  1.00  0.00     0.074 A 
ATOM     71  C   UNL A   1      43.737  26.733  34.303  1.00  0.00     0.031 C 
ATOM     72  C   UNL A   1      44.706  25.211  32.469  1.00  0.00     0.034 A 
BRANCH  59  73
ATOM     73  C   UNL A   1      43.535  22.931  26.966  1.00  0.00     0.023 A 
ATOM     74  C   UNL A   1      42.883  21.684  27.053  1.00  0.00     0.031 A 
ATOM     75  C   UNL A   1      44.452  23.068  25.909  1.00  0.00     0.131 A 
ATOM     76  C   UNL A   1      43.221  20.622  26.196  1.00  0.00     0.055 A 
ATOM     77  C   UNL A   1      44.839  21.993  25.099  1.00  0.00     0.041 A 
ATOM     78  F   UNL A   1      44.977  24.260  25.586  1.00  0.00    -0.206 F 
ATOM     79  C   UNL A   1      44.232  20.755  25.249  1.00  0.00     0.022 A 
BRANCH  76  80
ATOM     80  S   UNL A   1      42.306  19.060  26.327  1.00  0.00     0.124 S 
ATOM     81  O   UNL A   1      43.106  18.160  25.503  1.00  0.00    -0.237 OA
ATOM     82  O   UNL A   1      42.329  18.812  27.765  1.00  0.00    -0.237 OA
ATOM     83  O   UNL A   1      40.991  19.391  25.780  1.00  0.00    -0.744 OA
ENDBRANCH  76  80
ENDBRANCH  59  73
BRANCH  60  84
ATOM     84  C   UNL A   1      41.303  30.202  32.907  1.00  0.00     0.023 A 
ATOM     85  C   UNL A   1      41.281  31.612  32.991  1.00  0.00     0.031 A 
ATOM     86  C   UNL A   1      40.078  29.526  32.960  1.00  0.00     0.131 A 
ATOM     87  C   UNL A   1      40.065  32.304  32.932  1.00  0.00     0.055 A 
ATOM     88  C   UNL A   1      38.864  30.222  32.995  1.00  0.00     0.041 A 
ATOM     89  F   UNL A   1      40.024  28.191  32.848  1.00  0.00    -0.206 F 
ATOM     90  C   UNL A   1      38.851  31.616  32.931  1.00  0.00     0.022 A 
BRANCH  87  91
ATOM     91  S   UNL A   1      40.100  34.080  32.539  1.00  0.00     0.124 S 
ATOM     92  O   UNL A   1      39.816  34.084  31.109  1.00  0.00    -0.237 OA
ATOM     93  O   UNL A   1      39.048  34.619  33.399  1.00  0.00    -0.237 OA
ATOM     94  O   UNL A   1      41.452  34.487  32.915  1.00  0.00    -0.744 OA
ENDBRANCH  87  91
ENDBRANCH  60  84
BRANCH  72  95
ATOM     95  C   UNL A   1      45.095  24.056  33.348  1.00  0.00     0.023 A 
ATOM     96  C   UNL A   1      46.379  23.961  33.908  1.00  0.00     0.031 A 
ATOM     97  C   UNL A   1      44.214  22.984  33.602  1.00  0.00     0.131 A 
ATOM     98  C   UNL A   1      46.720  22.882  34.740  1.00  0.00     0.055 A 
ATOM     99  C   UNL A   1      44.586  21.869  34.358  1.00  0.00     0.041 A 
ATOM    100  F   UNL A   1      42.946  22.998  33.165  1.00  0.00    -0.206 F 
ATOM    101  C   UNL A   1      45.841  21.819  34.945  1.00  0.00     0.022 A 
BRANCH  98 102
ATOM    102  S   UNL A   1      48.297  22.943  35.627  1.00  0.00     0.124 S 
ATOM    103  O   UNL A   1      48.974  21.738  35.160  1.00  0.00    -0.237 OA
ATOM    104  O   UNL A   1      48.853  24.208  35.153  1.00  0.00    -0.237 OA
ATOM    105  O   UNL A   1      47.902  22.930  37.034  1.00  0.00    -0.744 OA
ENDBRANCH  98 102
ENDBRANCH  72  95
ENDBRANCH  46  47
ENDBRANCH  38  41
ENDBRANCH  36  37
ENDBRANCH  35  36
ENDBRANCH  34  35
ENDBRANCH   1  34
TORSDOF 20
ENDMDL
MODEL 3
REMARK VINA RESULT:     -12.5      3.910      9.925
REMARK SMILES Cc1c(NC(=O)c2ccccc2NC(=O)[C@@H]2CCCO2)cccc1C(=O)NCCCCCCNC(=O)c1ccc(-c2c3nc(c(-c4cc(S(=O)(=O)[O-])ccc4F)c4ccc([nH]4)c(-c4cc(S(=O)(=O)[O-])ccc4F)c4nc(c(-c5cc(S(=O)(=O)[O-])ccc5F)c5ccc2[nH]5)C=C4)C=C3)cc1
REMARK SMILES IDX 30 1 29 2 28 3 27 4 25 5 26 6 24 8 1 9 2 10 3 11 21 12 23 13
REMARK SMILES IDX 22 14 4 15 5 16 6 18 7 19 8 20 12 21 9 22 11 23 10 24 13 25
REMARK SMILES IDX 14 26 15 28 16 29 17 30 20 31 18 32 19 33 31 34 32 35 33 36
REMARK SMILES IDX 34 37 35 38 36 40 37 41 38 42 99 43 39 44 98 45 40 46 41 47
REMARK SMILES IDX 42 48 92 49 43 50 97 51 91 52 93 53 44 54 96 55 90 56 89 57
REMARK SMILES IDX 45 59 77 60 57 61 76 62 58 63 61 64 75 65 94 66 59 67 60 68
REMARK SMILES IDX 74 70 95 71 62 72 46 73 47 74 55 75 48 76 54 77 56 78 53 79
REMARK SMILES IDX 49 80 50 81 51 82 52 83 78 84 79 85 87 86 80 87 86 88 88 89
REMARK SMILES IDX 85 90 81 91 82 92 83 93 84 94 63 95 64 96 72 97 65 98 71 99
REMARK SMILES IDX 73 100 70 101 66 102 67 103 68 104 69 105
REMARK H PARENT 27 7 4 17 13 27 34 39 93 58 61 69
REMARK Flexibility Score: inf
ROOT
ATOM      1  C   UNL A   1      34.163  29.156  26.096  1.00  0.00     0.002 C 
ENDROOT
BRANCH   1   2
ATOM      2  C   UNL A   1      32.891  28.350  26.379  1.00  0.00     0.021 C 
BRANCH   2   3
ATOM      3  C   UNL A   1      31.571  29.097  26.134  1.00  0.00     0.116 C 
BRANCH   3   4
ATOM      4  N   UNL A   1      31.426  29.433  24.729  1.00  0.00    -0.352 N 
ATOM      5  C   UNL A   1      31.318  28.701  23.577  1.00  0.00     0.251 C 
ATOM      6  O   UNL A   1      31.097  29.333  22.539  1.00  0.00    -0.269 OA
ATOM      7  H   UNL A   1      31.398  30.405  24.569  1.00  0.00     0.163 HD
BRANCH   5   8
ATOM      8  C   UNL A   1      31.352  27.205  23.488  1.00  0.00     0.044 A 
ATOM      9  C   UNL A   1      33.654  26.969  22.405  1.00  0.00     0.047 C 
ATOM     10  C   UNL A   1      32.399  26.391  23.007  1.00  0.00    -0.015 A 
ATOM     11  C   UNL A   1      32.204  24.984  22.923  1.00  0.00     0.045 A 
ATOM     12  C   UNL A   1      30.968  24.409  23.225  1.00  0.00     0.026 A 
ATOM     13  C   UNL A   1      30.113  26.591  23.779  1.00  0.00     0.014 A 
ATOM     14  C   UNL A   1      29.917  25.217  23.638  1.00  0.00     0.003 A 
BRANCH  11  15
ATOM     15  N   UNL A   1      33.288  24.191  22.494  1.00  0.00    -0.322 N 
ATOM     16  C   UNL A   1      34.221  23.449  23.180  1.00  0.00     0.257 C 
ATOM     17  H   UNL A   1      33.398  24.164  21.516  1.00  0.00     0.170 HD
ATOM     18  O   UNL A   1      35.254  23.121  22.594  1.00  0.00    -0.269 OA
BRANCH  16  19
ATOM     19  C   UNL A   1      33.997  22.945  24.567  1.00  0.00     0.063 A 
ATOM     20  C   UNL A   1      34.647  23.695  25.569  1.00  0.00     0.016 A 
ATOM     21  C   UNL A   1      33.299  21.756  24.909  1.00  0.00     0.054 A 
ATOM     22  C   UNL A   1      34.556  23.328  26.907  1.00  0.00     0.001 A 
ATOM     23  C   UNL A   1      33.161  21.459  26.267  1.00  0.00     0.027 A 
ATOM     24  C   UNL A   1      33.788  22.228  27.255  1.00  0.00     0.002 A 
BRANCH  21  25
ATOM     25  N   UNL A   1      32.824  20.918  23.879  1.00  0.00    -0.323 N 
ATOM     26  C   UNL A   1      32.761  19.582  23.605  1.00  0.00     0.253 C 
ATOM     27  H   UNL A   1      32.425  21.446  23.150  1.00  0.00     0.170 HD
ATOM     28  O   UNL A   1      32.159  19.274  22.569  1.00  0.00    -0.272 OA
BRANCH  26  29
ATOM     29  C   UNL A   1      33.423  18.520  24.479  1.00  0.00     0.207 C 
ATOM     30  C   UNL A   1      33.847  17.342  23.611  1.00  0.00     0.044 C 
ATOM     31  O   UNL A   1      32.562  17.975  25.496  1.00  0.00    -0.368 OA
ATOM     32  C   UNL A   1      33.769  16.185  24.569  1.00  0.00     0.032 C 
ATOM     33  C   UNL A   1      32.542  16.548  25.372  1.00  0.00     0.161 C 
ENDBRANCH  26  29
ENDBRANCH  21  25
ENDBRANCH  16  19
ENDBRANCH  11  15
ENDBRANCH   5   8
ENDBRANCH   3   4
ENDBRANCH   2   3
ENDBRANCH   1   2
BRANCH   1  34
ATOM     34  C   UNL A   1      35.139  29.312  27.270  1.00  0.00     0.002 C 
BRANCH  34  35
ATOM     35  C   UNL A   1      34.814  30.432  28.258  1.00  0.00     0.021 C 
BRANCH  35  36
ATOM     36  C   UNL A   1      34.731  31.817  27.620  1.00  0.00     0.116 C 
BRANCH  36  37
ATOM     37  N   UNL A   1      34.007  32.792  28.427  1.00  0.00    -0.352 N 
ATOM     38  C   UNL A   1      34.409  33.428  29.583  1.00  0.00     0.251 C 
ATOM     39  H   UNL A   1      33.108  33.029  28.103  1.00  0.00     0.163 HD
ATOM     40  O   UNL A   1      33.647  34.183  30.190  1.00  0.00    -0.269 OA
BRANCH  38  41
ATOM     41  C   UNL A   1      35.813  33.288  30.035  1.00  0.00     0.039 A 
ATOM     42  C   UNL A   1      36.807  33.883  29.248  1.00  0.00     0.014 A 
ATOM     43  C   UNL A   1      36.159  32.439  31.082  1.00  0.00     0.014 A 
ATOM     44  C   UNL A   1      38.129  33.458  29.375  1.00  0.00     0.010 A 
ATOM     45  C   UNL A   1      37.454  31.957  31.156  1.00  0.00     0.010 A 
ATOM     46  C   UNL A   1      38.425  32.422  30.263  1.00  0.00    -0.014 A 
BRANCH  46  47
ATOM     47  C   UNL A   1      39.685  31.683  30.227  1.00  0.00     0.031 A 
ATOM     48  C   UNL A   1      39.769  30.342  29.614  1.00  0.00     0.074 A 
ATOM     49  C   UNL A   1      40.800  32.237  30.752  1.00  0.00     0.049 A 
ATOM     50  N   UNL A   1      40.660  29.458  29.919  1.00  0.00    -0.248 NA
ATOM     51  C   UNL A   1      38.809  29.873  28.622  1.00  0.00     0.031 C 
ATOM     52  C   UNL A   1      42.173  31.759  30.631  1.00  0.00     0.029 A 
ATOM     53  N   UNL A   1      40.855  33.206  31.750  1.00  0.00    -0.354 N 
ATOM     54  C   UNL A   1      40.557  28.426  29.020  1.00  0.00     0.074 A 
ATOM     55  C   UNL A   1      39.361  28.711  28.258  1.00  0.00     0.031 C 
ATOM     56  C   UNL A   1      42.879  32.210  31.679  1.00  0.00     0.029 A 
ATOM     57  C   UNL A   1      41.951  32.882  32.571  1.00  0.00     0.049 A 
ATOM     58  H   UNL A   1      40.245  33.972  31.859  1.00  0.00     0.167 HD
ATOM     59  C   UNL A   1      41.548  27.493  28.938  1.00  0.00     0.034 A 
ATOM     60  C   UNL A   1      41.767  32.604  33.895  1.00  0.00     0.034 A 
ATOM     61  C   UNL A   1      42.599  27.710  29.929  1.00  0.00     0.049 A 
ATOM     62  C   UNL A   1      42.186  31.204  34.300  1.00  0.00     0.074 A 
ATOM     63  C   UNL A   1      43.852  28.298  29.901  1.00  0.00     0.029 A 
ATOM     64  N   UNL A   1      42.301  27.511  31.264  1.00  0.00    -0.354 N 
ATOM     65  N   UNL A   1      42.627  30.294  33.474  1.00  0.00    -0.248 NA
ATOM     66  C   UNL A   1      42.046  30.693  35.665  1.00  0.00     0.031 C 
ATOM     67  C   UNL A   1      44.284  28.485  31.247  1.00  0.00     0.029 A 
ATOM     68  C   UNL A   1      43.302  27.990  32.086  1.00  0.00     0.049 A 
ATOM     69  H   UNL A   1      41.477  27.080  31.589  1.00  0.00     0.167 HD
ATOM     70  C   UNL A   1      42.757  29.103  34.141  1.00  0.00     0.074 A 
ATOM     71  C   UNL A   1      42.387  29.404  35.512  1.00  0.00     0.031 C 
ATOM     72  C   UNL A   1      43.110  27.938  33.525  1.00  0.00     0.034 A 
BRANCH  59  73
ATOM     73  C   UNL A   1      41.676  26.512  27.801  1.00  0.00     0.023 A 
ATOM     74  C   UNL A   1      41.664  25.130  28.079  1.00  0.00     0.031 A 
ATOM     75  C   UNL A   1      41.835  26.862  26.448  1.00  0.00     0.131 A 
ATOM     76  C   UNL A   1      41.907  24.181  27.070  1.00  0.00     0.055 A 
ATOM     77  C   UNL A   1      42.144  25.923  25.455  1.00  0.00     0.041 A 
ATOM     78  F   UNL A   1      41.652  28.121  26.024  1.00  0.00    -0.206 F 
ATOM     79  C   UNL A   1      42.195  24.573  25.767  1.00  0.00     0.022 A 
BRANCH  76  80
ATOM     80  S   UNL A   1      41.824  22.416  27.485  1.00  0.00     0.124 S 
ATOM     81  O   UNL A   1      40.387  22.189  27.602  1.00  0.00    -0.237 OA
ATOM     82  O   UNL A   1      42.485  21.801  26.340  1.00  0.00    -0.237 OA
ATOM     83  O   UNL A   1      42.565  22.329  28.743  1.00  0.00    -0.744 OA
ENDBRANCH  76  80
ENDBRANCH  59  73
BRANCH  60  84
ATOM     84  C   UNL A   1      40.645  33.384  34.498  1.00  0.00     0.023 A 
ATOM     85  C   UNL A   1      39.599  32.647  35.098  1.00  0.00     0.031 A 
ATOM     86  C   UNL A   1      40.763  34.739  34.834  1.00  0.00     0.131 A 
ATOM     87  C   UNL A   1      38.842  33.210  36.133  1.00  0.00     0.055 A 
ATOM     88  C   UNL A   1      39.939  35.324  35.802  1.00  0.00     0.041 A 
ATOM     89  F   UNL A   1      41.755  35.488  34.329  1.00  0.00    -0.206 F 
ATOM     90  C   UNL A   1      39.007  34.548  36.493  1.00  0.00     0.022 A 
BRANCH  87  91
ATOM     91  S   UNL A   1      37.875  32.098  37.199  1.00  0.00     0.124 S 
ATOM     92  O   UNL A   1      36.630  32.837  37.366  1.00  0.00    -0.237 OA
ATOM     93  O   UNL A   1      37.791  30.878  36.398  1.00  0.00    -0.237 OA
ATOM     94  O   UNL A   1      38.700  31.972  38.400  1.00  0.00    -0.744 OA
ENDBRANCH  87  91
ENDBRANCH  60  84
BRANCH  72  95
ATOM     95  C   UNL A   1      43.266  26.644  34.273  1.00  0.00     0.023 A 
ATOM     96  C   UNL A   1      44.521  26.033  34.426  1.00  0.00     0.031 A 
ATOM     97  C   UNL A   1      42.157  25.951  34.801  1.00  0.00     0.131 A 
ATOM     98  C   UNL A   1      44.650  24.832  35.142  1.00  0.00     0.055 A 
ATOM     99  C   UNL A   1      42.278  24.712  35.436  1.00  0.00     0.041 A 
ATOM    100  F   UNL A   1      40.921  26.470  34.762  1.00  0.00    -0.206 F 
ATOM    101  C   UNL A   1      43.532  24.151  35.623  1.00  0.00     0.022 A 
BRANCH  98 102
ATOM    102  S   UNL A   1      46.315  24.227  35.517  1.00  0.00     0.124 S 
ATOM    103  O   UNL A   1      46.685  25.014  36.687  1.00  0.00    -0.237 OA
ATOM    104  O   UNL A   1      46.066  22.808  35.758  1.00  0.00    -0.237 OA
ATOM    105  O   UNL A   1      47.071  24.524  34.301  1.00  0.00    -0.744 OA
ENDBRANCH  98 102
ENDBRANCH  72  95
ENDBRANCH  46  47
ENDBRANCH  38  41
ENDBRANCH  36  37
ENDBRANCH  35  36
ENDBRANCH  34  35
ENDBRANCH   1  34
TORSDOF 20
ENDMDL
