MODEL 1
REMARK VINA RESULT:     -12.2      0.000      0.000
REMARK SMILES C[C@@]1(CN2C(=O)c3ccc(C(=O)NCCCCCCNC(=O)c4ccc(-c5c6nc(c(-c7cc(S(=O)(=O)[O-])ccc7F)c7ccc([nH]7)c(-c7cc(S(=O)(=O)[O-])ccc7F)c7nc(c(-c8cc(S(=O)(=O)[O-])ccc8F)c8ccc5[nH]8)C=C7)C=C6)cc4)cc3C2=O)CCCO1
REMARK SMILES IDX 17 1 16 2 15 3 14 4 13 5 11 6 12 7 10 9 4 10 5 11 88 12 6 13
REMARK SMILES IDX 7 14 87 15 89 16 8 17 86 18 9 19 3 20 2 21 1 22 90 23 93 24
REMARK SMILES IDX 91 25 92 26 18 27 19 28 20 29 21 30 22 32 23 33 24 34 85 35
REMARK SMILES IDX 25 36 84 37 26 38 27 39 28 40 78 41 29 42 83 43 77 44 79 45
REMARK SMILES IDX 30 46 82 47 76 48 75 49 31 51 63 52 43 53 62 54 44 55 47 56
REMARK SMILES IDX 61 57 80 58 45 59 46 60 60 62 81 63 48 64 32 65 33 66 41 67
REMARK SMILES IDX 34 68 40 69 42 70 39 71 35 72 36 73 37 74 38 75 64 76 65 77
REMARK SMILES IDX 73 78 66 79 72 80 74 81 71 82 67 83 68 84 69 85 70 86 49 87
REMARK SMILES IDX 50 88 58 89 51 90 57 91 59 92 56 93 52 94 53 95 54 96 55 97
REMARK H PARENT 13 8 20 31 79 50 47 61
REMARK Flexibility Score: inf
ROOT
ATOM      1  C   UNL A   1      31.417  30.638  26.389  1.00  0.00     0.002 C 
ENDROOT
BRANCH   1   2
ATOM      2  C   UNL A   1      31.760  30.156  24.974  1.00  0.00     0.002 C 
BRANCH   2   3
ATOM      3  C   UNL A   1      30.628  29.412  24.252  1.00  0.00     0.021 C 
BRANCH   3   4
ATOM      4  C   UNL A   1      31.042  28.834  22.896  1.00  0.00     0.116 C 
BRANCH   4   5
ATOM      5  N   UNL A   1      32.440  29.114  22.631  1.00  0.00    -0.352 N 
ATOM      6  C   UNL A   1      33.599  28.468  22.968  1.00  0.00     0.251 C 
ATOM      7  O   UNL A   1      34.657  28.948  22.559  1.00  0.00    -0.269 OA
ATOM      8  H   UNL A   1      32.585  29.933  22.103  1.00  0.00     0.163 HD
BRANCH   6   9
ATOM      9  C   UNL A   1      33.651  27.212  23.772  1.00  0.00     0.040 A 
ATOM     10  N   UNL A   1      33.900  22.652  24.405  1.00  0.00    -0.271 N 
ATOM     11  C   UNL A   1      34.006  23.410  25.535  1.00  0.00     0.261 C 
ATOM     12  C   UNL A   1      33.740  23.428  23.287  1.00  0.00     0.261 C 
ATOM     13  O   UNL A   1      34.249  23.063  26.678  1.00  0.00    -0.269 OA
ATOM     14  C   UNL A   1      33.841  24.798  25.124  1.00  0.00     0.053 A 
ATOM     15  C   UNL A   1      33.683  24.816  23.754  1.00  0.00     0.054 A 
ATOM     16  O   UNL A   1      33.723  23.106  22.116  1.00  0.00    -0.269 OA
ATOM     17  C   UNL A   1      33.916  25.955  25.868  1.00  0.00     0.015 A 
ATOM     18  C   UNL A   1      33.582  26.002  23.050  1.00  0.00     0.028 A 
ATOM     19  C   UNL A   1      33.846  27.170  25.173  1.00  0.00     0.015 A 
BRANCH  10  20
ATOM     20  C   UNL A   1      34.090  21.211  24.378  1.00  0.00     0.164 C 
BRANCH  20  21
ATOM     21  C   UNL A   1      32.791  20.380  24.556  1.00  0.00     0.084 C 
ATOM     22  C   UNL A   1      31.652  21.186  25.178  1.00  0.00     0.044 C 
ATOM     23  C   UNL A   1      33.078  19.123  25.388  1.00  0.00     0.039 C 
ATOM     24  O   UNL A   1      32.356  19.897  23.266  1.00  0.00    -0.373 OA
ATOM     25  C   UNL A   1      33.496  18.118  24.343  1.00  0.00     0.031 C 
ATOM     26  C   UNL A   1      32.612  18.491  23.173  1.00  0.00     0.161 C 
ENDBRANCH  20  21
ENDBRANCH  10  20
ENDBRANCH   6   9
ENDBRANCH   4   5
ENDBRANCH   3   4
ENDBRANCH   2   3
ENDBRANCH   1   2
BRANCH   1  27
ATOM     27  C   UNL A   1      31.456  32.155  26.586  1.00  0.00     0.021 C 
BRANCH  27  28
ATOM     28  C   UNL A   1      32.754  32.680  27.193  1.00  0.00     0.116 C 
BRANCH  28  29
ATOM     29  N   UNL A   1      32.599  34.035  27.696  1.00  0.00    -0.352 N 
ATOM     30  C   UNL A   1      33.198  34.633  28.777  1.00  0.00     0.251 C 
ATOM     31  H   UNL A   1      31.976  34.604  27.190  1.00  0.00     0.163 HD
ATOM     32  O   UNL A   1      32.756  35.695  29.206  1.00  0.00    -0.269 OA
BRANCH  30  33
ATOM     33  C   UNL A   1      34.361  33.991  29.425  1.00  0.00     0.039 A 
ATOM     34  C   UNL A   1      35.638  34.206  28.899  1.00  0.00     0.014 A 
ATOM     35  C   UNL A   1      34.191  33.156  30.535  1.00  0.00     0.014 A 
ATOM     36  C   UNL A   1      36.749  33.626  29.515  1.00  0.00     0.010 A 
ATOM     37  C   UNL A   1      35.304  32.633  31.186  1.00  0.00     0.010 A 
ATOM     38  C   UNL A   1      36.594  32.855  30.679  1.00  0.00    -0.014 A 
BRANCH  38  39
ATOM     39  C   UNL A   1      37.767  32.264  31.373  1.00  0.00     0.031 A 
ATOM     40  C   UNL A   1      38.529  31.135  30.735  1.00  0.00     0.074 A 
ATOM     41  C   UNL A   1      38.092  32.689  32.609  1.00  0.00     0.049 A 
ATOM     42  N   UNL A   1      39.524  30.432  31.212  1.00  0.00    -0.248 NA
ATOM     43  C   UNL A   1      38.086  30.720  29.396  1.00  0.00     0.031 C 
ATOM     44  C   UNL A   1      37.389  33.737  33.352  1.00  0.00     0.029 A 
ATOM     45  N   UNL A   1      39.082  32.282  33.466  1.00  0.00    -0.354 N 
ATOM     46  C   UNL A   1      39.811  29.476  30.243  1.00  0.00     0.074 A 
ATOM     47  C   UNL A   1      38.844  29.657  29.180  1.00  0.00     0.031 C 
ATOM     48  C   UNL A   1      37.975  33.895  34.550  1.00  0.00     0.029 A 
ATOM     49  C   UNL A   1      39.069  32.936  34.675  1.00  0.00     0.049 A 
ATOM     50  H   UNL A   1      39.741  31.586  33.236  1.00  0.00     0.167 HD
ATOM     51  C   UNL A   1      40.802  28.548  30.233  1.00  0.00     0.034 A 
ATOM     52  C   UNL A   1      39.839  32.772  35.769  1.00  0.00     0.034 A 
ATOM     53  C   UNL A   1      41.766  28.399  31.298  1.00  0.00     0.049 A 
ATOM     54  C   UNL A   1      40.940  31.747  35.736  1.00  0.00     0.074 A 
ATOM     55  C   UNL A   1      42.862  27.556  31.358  1.00  0.00     0.029 A 
ATOM     56  N   UNL A   1      41.740  29.100  32.499  1.00  0.00    -0.354 N 
ATOM     57  N   UNL A   1      41.252  30.900  34.781  1.00  0.00    -0.248 NA
ATOM     58  C   UNL A   1      41.804  31.666  36.920  1.00  0.00     0.031 C 
ATOM     59  C   UNL A   1      43.455  27.696  32.619  1.00  0.00     0.029 A 
ATOM     60  C   UNL A   1      42.778  28.682  33.319  1.00  0.00     0.049 A 
ATOM     61  H   UNL A   1      41.081  29.793  32.733  1.00  0.00     0.167 HD
ATOM     62  C   UNL A   1      42.362  30.199  35.243  1.00  0.00     0.074 A 
ATOM     63  C   UNL A   1      42.674  30.735  36.553  1.00  0.00     0.031 C 
ATOM     64  C   UNL A   1      43.064  29.209  34.634  1.00  0.00     0.034 A 
BRANCH  51  65
ATOM     65  C   UNL A   1      40.862  27.608  29.051  1.00  0.00     0.023 A 
ATOM     66  C   UNL A   1      41.811  27.767  28.024  1.00  0.00     0.031 A 
ATOM     67  C   UNL A   1      39.926  26.567  28.921  1.00  0.00     0.131 A 
ATOM     68  C   UNL A   1      41.742  26.964  26.875  1.00  0.00     0.055 A 
ATOM     69  C   UNL A   1      39.921  25.712  27.816  1.00  0.00     0.041 A 
ATOM     70  F   UNL A   1      38.983  26.374  29.857  1.00  0.00    -0.206 F 
ATOM     71  C   UNL A   1      40.820  25.921  26.774  1.00  0.00     0.022 A 
BRANCH  68  72
ATOM     72  S   UNL A   1      42.760  27.418  25.442  1.00  0.00     0.124 S 
ATOM     73  O   UNL A   1      42.695  26.200  24.637  1.00  0.00    -0.237 OA
ATOM     74  O   UNL A   1      42.053  28.576  24.908  1.00  0.00    -0.237 OA
ATOM     75  O   UNL A   1      44.069  27.700  26.027  1.00  0.00    -0.744 OA
ENDBRANCH  68  72
ENDBRANCH  51  65
BRANCH  52  76
ATOM     76  C   UNL A   1      39.581  33.590  36.987  1.00  0.00     0.023 A 
ATOM     77  C   UNL A   1      38.990  33.029  38.129  1.00  0.00     0.031 A 
ATOM     78  C   UNL A   1      39.926  34.953  37.022  1.00  0.00     0.131 A 
ATOM     79  C   UNL A   1      38.733  33.835  39.249  1.00  0.00     0.055 A 
ATOM     80  C   UNL A   1      39.709  35.741  38.154  1.00  0.00     0.041 A 
ATOM     81  F   UNL A   1      40.506  35.533  35.959  1.00  0.00    -0.206 F 
ATOM     82  C   UNL A   1      39.101  35.183  39.274  1.00  0.00     0.022 A 
BRANCH  79  83
ATOM     83  S   UNL A   1      37.865  33.107  40.666  1.00  0.00     0.124 S 
ATOM     84  O   UNL A   1      38.975  32.733  41.534  1.00  0.00    -0.237 OA
ATOM     85  O   UNL A   1      37.040  34.221  41.121  1.00  0.00    -0.237 OA
ATOM     86  O   UNL A   1      37.129  31.990  40.076  1.00  0.00    -0.744 OA
ENDBRANCH  79  83
ENDBRANCH  52  76
BRANCH  64  87
ATOM     87  C   UNL A   1      44.261  28.665  35.376  1.00  0.00     0.023 A 
ATOM     88  C   UNL A   1      44.143  27.620  36.309  1.00  0.00     0.031 A 
ATOM     89  C   UNL A   1      45.538  29.207  35.149  1.00  0.00     0.131 A 
ATOM     90  C   UNL A   1      45.272  27.187  37.020  1.00  0.00     0.055 A 
ATOM     91  C   UNL A   1      46.669  28.730  35.816  1.00  0.00     0.041 A 
ATOM     92  F   UNL A   1      45.709  30.208  34.271  1.00  0.00    -0.206 F 
ATOM     93  C   UNL A   1      46.537  27.724  36.766  1.00  0.00     0.022 A 
BRANCH  90  94
ATOM     94  S   UNL A   1      45.052  25.970  38.348  1.00  0.00     0.124 S 
ATOM     95  O   UNL A   1      44.282  24.927  37.679  1.00  0.00    -0.237 OA
ATOM     96  O   UNL A   1      46.429  25.627  38.688  1.00  0.00    -0.237 OA
ATOM     97  O   UNL A   1      44.327  26.713  39.377  1.00  0.00    -0.744 OA
ENDBRANCH  90  94
ENDBRANCH  64  87
ENDBRANCH  38  39
ENDBRANCH  30  33
ENDBRANCH  28  29
ENDBRANCH  27  28
ENDBRANCH   1  27
TORSDOF 18
ENDMDL
MODEL 2
REMARK VINA RESULT:     -12.1      2.366      7.715
REMARK SMILES C[C@@]1(CN2C(=O)c3ccc(C(=O)NCCCCCCNC(=O)c4ccc(-c5c6nc(c(-c7cc(S(=O)(=O)[O-])ccc7F)c7ccc([nH]7)c(-c7cc(S(=O)(=O)[O-])ccc7F)c7nc(c(-c8cc(S(=O)(=O)[O-])ccc8F)c8ccc5[nH]8)C=C7)C=C6)cc4)cc3C2=O)CCCO1
REMARK SMILES IDX 17 1 16 2 15 3 14 4 13 5 11 6 12 7 10 9 4 10 5 11 88 12 6 13
REMARK SMILES IDX 7 14 87 15 89 16 8 17 86 18 9 19 3 20 2 21 1 22 90 23 93 24
REMARK SMILES IDX 91 25 92 26 18 27 19 28 20 29 21 30 22 32 23 33 24 34 85 35
REMARK SMILES IDX 25 36 84 37 26 38 27 39 28 40 78 41 29 42 83 43 77 44 79 45
REMARK SMILES IDX 30 46 82 47 76 48 75 49 31 51 63 52 43 53 62 54 44 55 47 56
REMARK SMILES IDX 61 57 80 58 45 59 46 60 60 62 81 63 48 64 32 65 33 66 41 67
REMARK SMILES IDX 34 68 40 69 42 70 39 71 35 72 36 73 37 74 38 75 64 76 65 77
REMARK SMILES IDX 73 78 66 79 72 80 74 81 71 82 67 83 68 84 69 85 70 86 49 87
REMARK SMILES IDX 50 88 58 89 51 90 57 91 59 92 56 93 52 94 53 95 54 96 55 97
REMARK H PARENT 13 8 20 31 79 50 47 61
REMARK Flexibility Score: inf
ROOT
ATOM      1  C   UNL A   1      32.654  28.135  25.776  1.00  0.00     0.002 C 
ENDROOT
BRANCH   1   2
ATOM      2  C   UNL A   1      33.682  28.136  24.639  1.00  0.00     0.002 C 
BRANCH   2   3
ATOM      3  C   UNL A   1      33.585  29.332  23.680  1.00  0.00     0.021 C 
BRANCH   3   4
ATOM      4  C   UNL A   1      33.189  28.943  22.253  1.00  0.00     0.116 C 
BRANCH   4   5
ATOM      5  N   UNL A   1      31.777  29.193  22.033  1.00  0.00    -0.352 N 
ATOM      6  C   UNL A   1      30.650  28.468  22.309  1.00  0.00     0.251 C 
ATOM      7  O   UNL A   1      29.564  28.974  22.024  1.00  0.00    -0.269 OA
ATOM      8  H   UNL A   1      31.593  30.058  21.600  1.00  0.00     0.163 HD
BRANCH   6   9
ATOM      9  C   UNL A   1      30.659  27.122  22.955  1.00  0.00     0.040 A 
ATOM     10  N   UNL A   1      32.361  22.943  23.902  1.00  0.00    -0.271 N 
ATOM     11  C   UNL A   1      31.273  23.317  24.638  1.00  0.00     0.261 C 
ATOM     12  C   UNL A   1      32.730  23.918  23.012  1.00  0.00     0.261 C 
ATOM     13  O   UNL A   1      30.741  22.747  25.574  1.00  0.00    -0.269 OA
ATOM     14  C   UNL A   1      30.864  24.625  24.144  1.00  0.00     0.053 A 
ATOM     15  C   UNL A   1      31.750  24.998  23.154  1.00  0.00     0.054 A 
ATOM     16  O   UNL A   1      33.701  23.974  22.285  1.00  0.00    -0.269 OA
ATOM     17  C   UNL A   1      29.859  25.461  24.580  1.00  0.00     0.015 A 
ATOM     18  C   UNL A   1      31.674  26.234  22.540  1.00  0.00     0.028 A 
ATOM     19  C   UNL A   1      29.782  26.730  23.993  1.00  0.00     0.015 A 
BRANCH  10  20
ATOM     20  C   UNL A   1      33.121  21.727  24.144  1.00  0.00     0.164 C 
BRANCH  20  21
ATOM     21  C   UNL A   1      34.379  21.914  25.033  1.00  0.00     0.084 C 
ATOM     22  C   UNL A   1      35.679  21.906  24.231  1.00  0.00     0.044 C 
ATOM     23  C   UNL A   1      34.416  20.838  26.127  1.00  0.00     0.039 C 
ATOM     24  O   UNL A   1      34.283  23.173  25.733  1.00  0.00    -0.373 OA
ATOM     25  C   UNL A   1      33.619  21.468  27.243  1.00  0.00     0.031 C 
ATOM     26  C   UNL A   1      33.994  22.928  27.115  1.00  0.00     0.161 C 
ENDBRANCH  20  21
ENDBRANCH  10  20
ENDBRANCH   6   9
ENDBRANCH   4   5
ENDBRANCH   3   4
ENDBRANCH   2   3
ENDBRANCH   1   2
BRANCH   1  27
ATOM     27  C   UNL A   1      31.725  29.352  25.814  1.00  0.00     0.021 C 
BRANCH  27  28
ATOM     28  C   UNL A   1      31.797  30.160  27.106  1.00  0.00     0.116 C 
BRANCH  28  29
ATOM     29  N   UNL A   1      31.968  31.579  26.839  1.00  0.00    -0.352 N 
ATOM     30  C   UNL A   1      32.927  32.441  27.310  1.00  0.00     0.251 C 
ATOM     31  H   UNL A   1      31.301  31.978  26.235  1.00  0.00     0.163 HD
ATOM     32  O   UNL A   1      32.767  33.652  27.189  1.00  0.00    -0.269 OA
BRANCH  30  33
ATOM     33  C   UNL A   1      34.138  31.908  27.971  1.00  0.00     0.039 A 
ATOM     34  C   UNL A   1      35.166  32.788  28.318  1.00  0.00     0.014 A 
ATOM     35  C   UNL A   1      34.269  30.539  28.224  1.00  0.00     0.014 A 
ATOM     36  C   UNL A   1      36.304  32.303  28.965  1.00  0.00     0.010 A 
ATOM     37  C   UNL A   1      35.373  30.067  28.927  1.00  0.00     0.010 A 
ATOM     38  C   UNL A   1      36.407  30.942  29.298  1.00  0.00    -0.014 A 
BRANCH  38  39
ATOM     39  C   UNL A   1      37.591  30.413  30.022  1.00  0.00     0.031 A 
ATOM     40  C   UNL A   1      37.885  30.874  31.423  1.00  0.00     0.074 A 
ATOM     41  C   UNL A   1      38.442  29.582  29.388  1.00  0.00     0.049 A 
ATOM     42  N   UNL A   1      38.907  30.596  32.191  1.00  0.00    -0.248 NA
ATOM     43  C   UNL A   1      36.915  31.801  32.025  1.00  0.00     0.031 C 
ATOM     44  C   UNL A   1      38.291  29.113  28.009  1.00  0.00     0.029 A 
ATOM     45  N   UNL A   1      39.610  29.001  29.811  1.00  0.00    -0.354 N 
ATOM     46  C   UNL A   1      38.717  31.331  33.356  1.00  0.00     0.074 A 
ATOM     47  C   UNL A   1      37.511  32.110  33.165  1.00  0.00     0.031 C 
ATOM     48  C   UNL A   1      39.323  28.310  27.704  1.00  0.00     0.029 A 
ATOM     49  C   UNL A   1      40.227  28.238  28.848  1.00  0.00     0.049 A 
ATOM     50  H   UNL A   1      39.972  29.119  30.720  1.00  0.00     0.167 HD
ATOM     51  C   UNL A   1      39.468  31.339  34.487  1.00  0.00     0.034 A 
ATOM     52  C   UNL A   1      41.396  27.569  28.876  1.00  0.00     0.034 A 
ATOM     53  C   UNL A   1      40.658  30.540  34.660  1.00  0.00     0.049 A 
ATOM     54  C   UNL A   1      42.210  27.579  30.142  1.00  0.00     0.074 A 
ATOM     55  C   UNL A   1      41.448  30.401  35.788  1.00  0.00     0.029 A 
ATOM     56  N   UNL A   1      41.240  29.755  33.672  1.00  0.00    -0.354 N 
ATOM     57  N   UNL A   1      41.980  28.218  31.267  1.00  0.00    -0.248 NA
ATOM     58  C   UNL A   1      43.433  26.768  30.150  1.00  0.00     0.031 C 
ATOM     59  C   UNL A   1      42.542  29.591  35.462  1.00  0.00     0.029 A 
ATOM     60  C   UNL A   1      42.396  29.159  34.153  1.00  0.00     0.049 A 
ATOM     61  H   UNL A   1      40.883  29.637  32.762  1.00  0.00     0.167 HD
ATOM     62  C   UNL A   1      43.019  27.867  32.123  1.00  0.00     0.074 A 
ATOM     63  C   UNL A   1      43.867  26.948  31.389  1.00  0.00     0.031 C 
ATOM     64  C   UNL A   1      43.246  28.262  33.402  1.00  0.00     0.034 A 
BRANCH  51  65
ATOM     65  C   UNL A   1      39.038  32.268  35.600  1.00  0.00     0.023 A 
ATOM     66  C   UNL A   1      39.461  33.609  35.653  1.00  0.00     0.031 A 
ATOM     67  C   UNL A   1      38.234  31.794  36.651  1.00  0.00     0.131 A 
ATOM     68  C   UNL A   1      39.160  34.395  36.775  1.00  0.00     0.055 A 
ATOM     69  C   UNL A   1      37.861  32.610  37.722  1.00  0.00     0.041 A 
ATOM     70  F   UNL A   1      37.813  30.519  36.670  1.00  0.00    -0.206 F 
ATOM     71  C   UNL A   1      38.342  33.914  37.799  1.00  0.00     0.022 A 
BRANCH  68  72
ATOM     72  S   UNL A   1      39.998  35.994  36.959  1.00  0.00     0.124 S 
ATOM     73  O   UNL A   1      39.742  36.613  35.660  1.00  0.00    -0.237 OA
ATOM     74  O   UNL A   1      39.303  36.586  38.096  1.00  0.00    -0.237 OA
ATOM     75  O   UNL A   1      41.391  35.625  37.201  1.00  0.00    -0.744 OA
ENDBRANCH  68  72
ENDBRANCH  51  65
BRANCH  52  76
ATOM     76  C   UNL A   1      41.869  26.849  27.661  1.00  0.00     0.023 A 
ATOM     77  C   UNL A   1      41.734  25.458  27.541  1.00  0.00     0.031 A 
ATOM     78  C   UNL A   1      42.467  27.550  26.599  1.00  0.00     0.131 A 
ATOM     79  C   UNL A   1      42.218  24.806  26.395  1.00  0.00     0.055 A 
ATOM     80  C   UNL A   1      42.907  26.904  25.442  1.00  0.00     0.041 A 
ATOM     81  F   UNL A   1      42.607  28.884  26.660  1.00  0.00    -0.206 F 
ATOM     82  C   UNL A   1      42.791  25.521  25.340  1.00  0.00     0.022 A 
BRANCH  79  83
ATOM     83  S   UNL A   1      42.130  22.996  26.321  1.00  0.00     0.124 S 
ATOM     84  O   UNL A   1      42.993  22.610  27.432  1.00  0.00    -0.237 OA
ATOM     85  O   UNL A   1      40.703  22.754  26.502  1.00  0.00    -0.237 OA
ATOM     86  O   UNL A   1      42.649  22.684  24.990  1.00  0.00    -0.744 OA
ENDBRANCH  79  83
ENDBRANCH  52  76
BRANCH  64  87
ATOM     87  C   UNL A   1      44.450  27.671  34.096  1.00  0.00     0.023 A 
ATOM     88  C   UNL A   1      44.352  26.519  34.896  1.00  0.00     0.031 A 
ATOM     89  C   UNL A   1      45.711  28.277  33.959  1.00  0.00     0.131 A 
ATOM     90  C   UNL A   1      45.484  26.039  35.571  1.00  0.00     0.055 A 
ATOM     91  C   UNL A   1      46.847  27.759  34.585  1.00  0.00     0.041 A 
ATOM     92  F   UNL A   1      45.862  29.380  33.210  1.00  0.00    -0.206 F 
ATOM     93  C   UNL A   1      46.734  26.642  35.407  1.00  0.00     0.022 A 
BRANCH  90  94
ATOM     94  S   UNL A   1      45.286  24.667  36.740  1.00  0.00     0.124 S 
ATOM     95  O   UNL A   1      45.895  23.558  36.012  1.00  0.00    -0.237 OA
ATOM     96  O   UNL A   1      46.021  25.141  37.908  1.00  0.00    -0.237 OA
ATOM     97  O   UNL A   1      43.838  24.572  36.916  1.00  0.00    -0.744 OA
ENDBRANCH  90  94
ENDBRANCH  64  87
ENDBRANCH  38  39
ENDBRANCH  30  33
ENDBRANCH  28  29
ENDBRANCH  27  28
ENDBRANCH   1  27
TORSDOF 18
ENDMDL
MODEL 3
REMARK VINA RESULT:     -12.0      3.094      8.293
REMARK SMILES C[C@@]1(CN2C(=O)c3ccc(C(=O)NCCCCCCNC(=O)c4ccc(-c5c6nc(c(-c7cc(S(=O)(=O)[O-])ccc7F)c7ccc([nH]7)c(-c7cc(S(=O)(=O)[O-])ccc7F)c7nc(c(-c8cc(S(=O)(=O)[O-])ccc8F)c8ccc5[nH]8)C=C7)C=C6)cc4)cc3C2=O)CCCO1
REMARK SMILES IDX 17 1 16 2 15 3 14 4 13 5 11 6 12 7 10 9 4 10 5 11 88 12 6 13
REMARK SMILES IDX 7 14 87 15 89 16 8 17 86 18 9 19 3 20 2 21 1 22 90 23 93 24
REMARK SMILES IDX 91 25 92 26 18 27 19 28 20 29 21 30 22 32 23 33 24 34 85 35
REMARK SMILES IDX 25 36 84 37 26 38 27 39 28 40 78 41 29 42 83 43 77 44 79 45
REMARK SMILES IDX 30 46 82 47 76 48 75 49 31 51 63 52 43 53 62 54 44 55 47 56
REMARK SMILES IDX 61 57 80 58 45 59 46 60 60 62 81 63 48 64 32 65 33 66 41 67
REMARK SMILES IDX 34 68 40 69 42 70 39 71 35 72 36 73 37 74 38 75 64 76 65 77
REMARK SMILES IDX 73 78 66 79 72 80 74 81 71 82 67 83 68 84 69 85 70 86 49 87
REMARK SMILES IDX 50 88 58 89 51 90 57 91 59 92 56 93 52 94 53 95 54 96 55 97
REMARK H PARENT 13 8 20 31 79 50 47 61
REMARK Flexibility Score: inf
ROOT
ATOM      1  C   UNL A   1      34.188  28.489  26.569  1.00  0.00     0.002 C 
ENDROOT
BRANCH   1   2
ATOM      2  C   UNL A   1      33.043  28.270  25.573  1.00  0.00     0.002 C 
BRANCH   2   3
ATOM      3  C   UNL A   1      32.689  29.494  24.715  1.00  0.00     0.021 C 
BRANCH   3   4
ATOM      4  C   UNL A   1      31.235  29.948  24.866  1.00  0.00     0.116 C 
BRANCH   4   5
ATOM      5  N   UNL A   1      30.534  29.832  23.602  1.00  0.00    -0.352 N 
ATOM      6  C   UNL A   1      30.145  28.757  22.848  1.00  0.00     0.251 C 
ATOM      7  O   UNL A   1      29.523  28.986  21.810  1.00  0.00    -0.269 OA
ATOM      8  H   UNL A   1      30.289  30.700  23.205  1.00  0.00     0.163 HD
BRANCH   6   9
ATOM      9  C   UNL A   1      30.405  27.337  23.224  1.00  0.00     0.040 A 
ATOM     10  N   UNL A   1      32.774  23.381  23.263  1.00  0.00    -0.271 N 
ATOM     11  C   UNL A   1      31.708  23.438  24.114  1.00  0.00     0.261 C 
ATOM     12  C   UNL A   1      32.921  24.546  22.557  1.00  0.00     0.261 C 
ATOM     13  O   UNL A   1      31.344  22.631  24.951  1.00  0.00    -0.269 OA
ATOM     14  C   UNL A   1      31.071  24.731  23.901  1.00  0.00     0.053 A 
ATOM     15  C   UNL A   1      31.809  25.413  22.955  1.00  0.00     0.054 A 
ATOM     16  O   UNL A   1      33.810  24.887  21.803  1.00  0.00    -0.269 OA
ATOM     17  C   UNL A   1      29.995  25.304  24.543  1.00  0.00     0.015 A 
ATOM     18  C   UNL A   1      31.502  26.712  22.594  1.00  0.00     0.028 A 
ATOM     19  C   UNL A   1      29.684  26.629  24.214  1.00  0.00     0.015 A 
BRANCH  10  20
ATOM     20  C   UNL A   1      33.721  22.279  23.226  1.00  0.00     0.164 C 
BRANCH  20  21
ATOM     21  C   UNL A   1      34.982  22.476  24.109  1.00  0.00     0.084 C 
ATOM     22  C   UNL A   1      36.214  22.884  23.302  1.00  0.00     0.044 C 
ATOM     23  C   UNL A   1      35.265  21.203  24.917  1.00  0.00     0.039 C 
ATOM     24  O   UNL A   1      34.719  23.504  25.090  1.00  0.00    -0.373 OA
ATOM     25  C   UNL A   1      34.444  21.408  26.165  1.00  0.00     0.031 C 
ATOM     26  C   UNL A   1      34.560  22.901  26.379  1.00  0.00     0.161 C 
ENDBRANCH  20  21
ENDBRANCH  10  20
ENDBRANCH   6   9
ENDBRANCH   4   5
ENDBRANCH   3   4
ENDBRANCH   2   3
ENDBRANCH   1   2
BRANCH   1  27
ATOM     27  C   UNL A   1      33.945  29.585  27.610  1.00  0.00     0.021 C 
BRANCH  27  28
ATOM     28  C   UNL A   1      34.673  30.896  27.328  1.00  0.00     0.116 C 
BRANCH  28  29
ATOM     29  N   UNL A   1      34.316  31.923  28.294  1.00  0.00    -0.352 N 
ATOM     30  C   UNL A   1      34.858  32.180  29.529  1.00  0.00     0.251 C 
ATOM     31  H   UNL A   1      33.580  32.518  28.023  1.00  0.00     0.163 HD
ATOM     32  O   UNL A   1      34.265  32.915  30.311  1.00  0.00    -0.269 OA
BRANCH  30  33
ATOM     33  C   UNL A   1      36.145  31.560  29.912  1.00  0.00     0.039 A 
ATOM     34  C   UNL A   1      36.140  30.457  30.768  1.00  0.00     0.014 A 
ATOM     35  C   UNL A   1      37.356  32.083  29.446  1.00  0.00     0.014 A 
ATOM     36  C   UNL A   1      37.347  29.846  31.119  1.00  0.00     0.010 A 
ATOM     37  C   UNL A   1      38.551  31.434  29.743  1.00  0.00     0.010 A 
ATOM     38  C   UNL A   1      38.560  30.314  30.589  1.00  0.00    -0.014 A 
BRANCH  38  39
ATOM     39  C   UNL A   1      39.850  29.653  30.916  1.00  0.00     0.031 A 
ATOM     40  C   UNL A   1      40.700  30.177  32.041  1.00  0.00     0.074 A 
ATOM     41  C   UNL A   1      40.289  28.636  30.150  1.00  0.00     0.049 A 
ATOM     42  N   UNL A   1      41.890  29.794  32.429  1.00  0.00    -0.248 NA
ATOM     43  C   UNL A   1      40.152  31.307  32.805  1.00  0.00     0.031 C 
ATOM     44  C   UNL A   1      39.577  28.081  28.997  1.00  0.00     0.029 A 
ATOM     45  N   UNL A   1      41.445  27.900  30.212  1.00  0.00    -0.354 N 
ATOM     46  C   UNL A   1      42.244  30.651  33.467  1.00  0.00     0.074 A 
ATOM     47  C   UNL A   1      41.165  31.607  33.603  1.00  0.00     0.031 C 
ATOM     48  C   UNL A   1      40.308  27.088  28.466  1.00  0.00     0.029 A 
ATOM     49  C   UNL A   1      41.555  26.960  29.215  1.00  0.00     0.049 A 
ATOM     50  H   UNL A   1      42.131  28.033  30.907  1.00  0.00     0.167 HD
ATOM     51  C   UNL A   1      43.355  30.627  34.245  1.00  0.00     0.034 A 
ATOM     52  C   UNL A   1      42.554  26.104  28.923  1.00  0.00     0.034 A 
ATOM     53  C   UNL A   1      44.411  29.652  34.100  1.00  0.00     0.049 A 
ATOM     54  C   UNL A   1      43.774  26.084  29.804  1.00  0.00     0.074 A 
ATOM     55  C   UNL A   1      45.538  29.477  34.884  1.00  0.00     0.029 A 
ATOM     56  N   UNL A   1      44.476  28.694  33.095  1.00  0.00    -0.354 N 
ATOM     57  N   UNL A   1      44.063  26.849  30.833  1.00  0.00    -0.248 NA
ATOM     58  C   UNL A   1      44.796  25.076  29.497  1.00  0.00     0.031 C 
ATOM     59  C   UNL A   1      46.318  28.464  34.313  1.00  0.00     0.029 A 
ATOM     60  C   UNL A   1      45.641  27.951  33.216  1.00  0.00     0.049 A 
ATOM     61  H   UNL A   1      43.794  28.561  32.397  1.00  0.00     0.167 HD
ATOM     62  C   UNL A   1      45.291  26.399  31.307  1.00  0.00     0.074 A 
ATOM     63  C   UNL A   1      45.679  25.286  30.463  1.00  0.00     0.031 C 
ATOM     64  C   UNL A   1      46.027  26.859  32.352  1.00  0.00     0.034 A 
BRANCH  51  65
ATOM     65  C   UNL A   1      43.494  31.709  35.291  1.00  0.00     0.023 A 
ATOM     66  C   UNL A   1      42.853  31.620  36.541  1.00  0.00     0.031 A 
ATOM     67  C   UNL A   1      44.237  32.872  35.019  1.00  0.00     0.131 A 
ATOM     68  C   UNL A   1      42.888  32.708  37.426  1.00  0.00     0.055 A 
ATOM     69  C   UNL A   1      44.343  33.914  35.944  1.00  0.00     0.041 A 
ATOM     70  F   UNL A   1      44.856  33.027  33.839  1.00  0.00    -0.206 F 
ATOM     71  C   UNL A   1      43.648  33.845  37.148  1.00  0.00     0.022 A 
BRANCH  68  72
ATOM     72  S   UNL A   1      41.782  32.686  38.865  1.00  0.00     0.124 S 
ATOM     73  O   UNL A   1      41.927  34.049  39.370  1.00  0.00    -0.237 OA
ATOM     74  O   UNL A   1      40.493  32.360  38.267  1.00  0.00    -0.237 OA
ATOM     75  O   UNL A   1      42.354  31.649  39.721  1.00  0.00    -0.744 OA
ENDBRANCH  68  72
ENDBRANCH  51  65
BRANCH  52  76
ATOM     76  C   UNL A   1      42.443  25.209  27.738  1.00  0.00     0.023 A 
ATOM     77  C   UNL A   1      41.740  23.997  27.804  1.00  0.00     0.031 A 
ATOM     78  C   UNL A   1      43.047  25.559  26.517  1.00  0.00     0.131 A 
ATOM     79  C   UNL A   1      41.681  23.163  26.676  1.00  0.00     0.055 A 
ATOM     80  C   UNL A   1      42.948  24.747  25.385  1.00  0.00     0.041 A 
ATOM     81  F   UNL A   1      43.720  26.715  26.399  1.00  0.00    -0.206 F 
ATOM     82  C   UNL A   1      42.269  23.536  25.465  1.00  0.00     0.022 A 
BRANCH  79  83
ATOM     83  S   UNL A   1      40.861  21.552  26.827  1.00  0.00     0.124 S 
ATOM     84  O   UNL A   1      41.791  20.677  26.123  1.00  0.00    -0.237 OA
ATOM     85  O   UNL A   1      40.789  21.383  28.275  1.00  0.00    -0.237 OA
ATOM     86  O   UNL A   1      39.575  21.761  26.163  1.00  0.00    -0.744 OA
ENDBRANCH  79  83
ENDBRANCH  52  76
BRANCH  64  87
ATOM     87  C   UNL A   1      47.315  26.131  32.654  1.00  0.00     0.023 A 
ATOM     88  C   UNL A   1      47.359  25.037  33.536  1.00  0.00     0.031 A 
ATOM     89  C   UNL A   1      48.517  26.545  32.053  1.00  0.00     0.131 A 
ATOM     90  C   UNL A   1      48.587  24.429  33.833  1.00  0.00     0.055 A 
ATOM     91  C   UNL A   1      49.728  25.897  32.307  1.00  0.00     0.041 A 
ATOM     92  F   UNL A   1      48.534  27.586  31.205  1.00  0.00    -0.206 F 
ATOM     93  C   UNL A   1      49.769  24.841  33.212  1.00  0.00     0.022 A 
BRANCH  90  94
ATOM     94  S   UNL A   1      48.637  23.145  35.115  1.00  0.00     0.124 S 
ATOM     95  O   UNL A   1      49.701  22.273  34.628  1.00  0.00    -0.237 OA
ATOM     96  O   UNL A   1      48.942  23.914  36.316  1.00  0.00    -0.237 OA
ATOM     97  O   UNL A   1      47.295  22.567  35.073  1.00  0.00    -0.744 OA
ENDBRANCH  90  94
ENDBRANCH  64  87
ENDBRANCH  38  39
ENDBRANCH  30  33
ENDBRANCH  28  29
ENDBRANCH  27  28
ENDBRANCH   1  27
TORSDOF 18
ENDMDL
