MODEL 1
REMARK VINA RESULT:      -9.2      0.000      0.000
REMARK SMILES Cc1ccc(O)c(C(=O)CCCC(=O)NCCCCCCNC(=O)c2ccc(-c3c4nc(c(-c5cc(S(=O)(=O)[O-])ccc5F)c5ccc([nH]5)c(-c5cc(S(=O)(=O)[O-])ccc5F)c5nc(c(-c6cc(S(=O)(=O)[O-])ccc6F)c6ccc3[nH]6)C=C5)C=C4)cc2)c1
REMARK SMILES IDX 17 1 16 2 15 3 13 4 14 5 12 7 11 8 10 9 8 10 9 11 7 12 1 13
REMARK SMILES IDX 2 14 3 15 88 16 4 17 5 18 6 19 18 21 19 22 20 23 21 24 22 25
REMARK SMILES IDX 23 26 24 28 25 29 26 30 87 31 27 32 86 33 28 34 29 35 30 36
REMARK SMILES IDX 80 37 31 38 85 39 79 40 81 41 32 42 84 43 78 44 77 45 33 47
REMARK SMILES IDX 65 48 45 49 64 50 46 51 49 52 63 53 82 54 47 55 48 56 62 58
REMARK SMILES IDX 83 59 50 60 34 61 35 62 43 63 36 64 42 65 44 66 41 67 37 68
REMARK SMILES IDX 38 69 39 70 40 71 66 72 67 73 75 74 68 75 74 76 76 77 73 78
REMARK SMILES IDX 69 79 70 80 71 81 72 82 51 83 52 84 60 85 53 86 59 87 61 88
REMARK SMILES IDX 58 89 54 90 55 91 56 92 57 93
REMARK H PARENT 15 6 6 20 22 27 81 46 49 57
REMARK Flexibility Score: inf
ROOT
ATOM      1  C   UNL A   1      45.764  20.554  25.161  1.00  0.00     0.021 C 
ENDROOT
BRANCH   1   2
ATOM      2  C   UNL A   1      45.217  19.594  24.105  1.00  0.00     0.116 C 
BRANCH   2   3
ATOM      3  N   UNL A   1      44.264  18.660  24.669  1.00  0.00    -0.356 N 
ATOM      4  C   UNL A   1      43.287  18.717  25.601  1.00  0.00     0.220 C 
ATOM      5  O   UNL A   1      42.645  17.666  25.745  1.00  0.00    -0.275 OA
ATOM      6  H   UNL A   1      44.350  17.761  24.278  1.00  0.00     0.163 HD
BRANCH   4   7
ATOM      7  C   UNL A   1      42.828  19.955  26.370  1.00  0.00     0.100 C 
BRANCH   7   8
ATOM      8  C   UNL A   1      41.378  20.270  26.726  1.00  0.00     0.018 C 
BRANCH   8   9
ATOM      9  C   UNL A   1      40.865  21.636  27.167  1.00  0.00     0.082 C 
BRANCH   9  10
ATOM     10  C   UNL A   1      41.503  22.992  26.816  1.00  0.00     0.166 C 
ATOM     11  O   UNL A   1      42.286  23.021  25.855  1.00  0.00    -0.294 OA
BRANCH  10  12
ATOM     12  C   UNL A   1      41.174  24.330  27.428  1.00  0.00     0.060 A 
ATOM     13  C   UNL A   1      42.563  26.845  29.957  1.00  0.00     0.044 C 
ATOM     14  C   UNL A   1      41.653  26.215  28.942  1.00  0.00    -0.050 A 
ATOM     15  C   UNL A   1      40.504  26.870  28.512  1.00  0.00     0.007 A 
ATOM     16  C   UNL A   1      41.959  24.957  28.395  1.00  0.00     0.019 A 
ATOM     17  C   UNL A   1      39.673  26.258  27.577  1.00  0.00     0.047 A 
ATOM     18  C   UNL A   1      40.002  25.005  27.047  1.00  0.00     0.126 A 
BRANCH  18  19
ATOM     19  O   UNL A   1      39.088  24.495  26.162  1.00  0.00    -0.507 OA
ATOM     20  H   UNL A   1      38.180  24.710  26.251  1.00  0.00     0.293 HD
ENDBRANCH  18  19
ENDBRANCH  10  12
ENDBRANCH   9  10
ENDBRANCH   8   9
ENDBRANCH   7   8
ENDBRANCH   4   7
ENDBRANCH   2   3
ENDBRANCH   1   2
BRANCH   1  21
ATOM     21  C   UNL A   1      46.122  21.922  24.581  1.00  0.00     0.002 C 
BRANCH  21  22
ATOM     22  C   UNL A   1      46.062  23.076  25.593  1.00  0.00     0.002 C 
BRANCH  22  23
ATOM     23  C   UNL A   1      46.402  24.463  25.039  1.00  0.00     0.021 C 
BRANCH  23  24
ATOM     24  C   UNL A   1      45.510  25.597  25.537  1.00  0.00     0.116 C 
BRANCH  24  25
ATOM     25  N   UNL A   1      44.183  25.548  24.945  1.00  0.00    -0.352 N 
ATOM     26  C   UNL A   1      43.093  26.353  25.163  1.00  0.00     0.251 C 
ATOM     27  H   UNL A   1      44.044  24.828  24.288  1.00  0.00     0.163 HD
ATOM     28  O   UNL A   1      41.998  26.020  24.724  1.00  0.00    -0.269 OA
BRANCH  26  29
ATOM     29  C   UNL A   1      43.241  27.604  25.937  1.00  0.00     0.039 A 
ATOM     30  C   UNL A   1      42.325  28.638  25.730  1.00  0.00     0.014 A 
ATOM     31  C   UNL A   1      44.291  27.766  26.846  1.00  0.00     0.014 A 
ATOM     32  C   UNL A   1      42.428  29.813  26.478  1.00  0.00     0.010 A 
ATOM     33  C   UNL A   1      44.350  28.907  27.641  1.00  0.00     0.010 A 
ATOM     34  C   UNL A   1      43.422  29.946  27.460  1.00  0.00    -0.014 A 
BRANCH  34  35
ATOM     35  C   UNL A   1      43.513  31.166  28.302  1.00  0.00     0.031 A 
ATOM     36  C   UNL A   1      44.576  32.195  28.024  1.00  0.00     0.074 A 
ATOM     37  C   UNL A   1      42.680  31.316  29.350  1.00  0.00     0.049 A 
ATOM     38  N   UNL A   1      44.867  33.285  28.686  1.00  0.00    -0.248 NA
ATOM     39  C   UNL A   1      45.444  31.945  26.864  1.00  0.00     0.031 C 
ATOM     40  C   UNL A   1      41.641  30.362  29.743  1.00  0.00     0.029 A 
ATOM     41  N   UNL A   1      42.583  32.315  30.285  1.00  0.00    -0.354 N 
ATOM     42  C   UNL A   1      45.959  33.846  28.031  1.00  0.00     0.074 A 
ATOM     43  C   UNL A   1      46.315  32.937  26.962  1.00  0.00     0.031 C 
ATOM     44  C   UNL A   1      40.998  30.832  30.825  1.00  0.00     0.029 A 
ATOM     45  C   UNL A   1      41.609  32.093  31.232  1.00  0.00     0.049 A 
ATOM     46  H   UNL A   1      43.156  33.116  30.279  1.00  0.00     0.167 HD
ATOM     47  C   UNL A   1      46.588  35.021  28.283  1.00  0.00     0.034 A 
ATOM     48  C   UNL A   1      41.260  32.815  32.315  1.00  0.00     0.034 A 
ATOM     49  C   UNL A   1      46.213  35.914  29.353  1.00  0.00     0.049 A 
ATOM     50  C   UNL A   1      41.990  34.105  32.593  1.00  0.00     0.074 A 
ATOM     51  C   UNL A   1      46.744  37.151  29.670  1.00  0.00     0.029 A 
ATOM     52  N   UNL A   1      45.217  35.660  30.289  1.00  0.00    -0.354 N 
ATOM     53  N   UNL A   1      42.984  34.651  31.931  1.00  0.00    -0.248 NA
ATOM     54  C   UNL A   1      41.542  34.881  33.756  1.00  0.00     0.031 C 
ATOM     55  C   UNL A   1      46.123  37.611  30.836  1.00  0.00     0.029 A 
ATOM     56  C   UNL A   1      45.143  36.702  31.202  1.00  0.00     0.049 A 
ATOM     57  H   UNL A   1      44.648  34.857  30.303  1.00  0.00     0.167 HD
ATOM     58  C   UNL A   1      43.260  35.850  32.582  1.00  0.00     0.074 A 
ATOM     59  C   UNL A   1      42.316  35.954  33.677  1.00  0.00     0.031 C 
ATOM     60  C   UNL A   1      44.205  36.785  32.298  1.00  0.00     0.034 A 
BRANCH  47  61
ATOM     61  C   UNL A   1      47.761  35.384  27.399  1.00  0.00     0.023 A 
ATOM     62  C   UNL A   1      49.077  35.010  27.728  1.00  0.00     0.031 A 
ATOM     63  C   UNL A   1      47.568  36.145  26.234  1.00  0.00     0.131 A 
ATOM     64  C   UNL A   1      50.152  35.472  26.954  1.00  0.00     0.055 A 
ATOM     65  C   UNL A   1      48.636  36.526  25.417  1.00  0.00     0.041 A 
ATOM     66  F   UNL A   1      46.340  36.550  25.876  1.00  0.00    -0.206 F 
ATOM     67  C   UNL A   1      49.939  36.205  25.785  1.00  0.00     0.022 A 
BRANCH  64  68
ATOM     68  S   UNL A   1      51.836  35.241  27.589  1.00  0.00     0.124 S 
ATOM     69  O   UNL A   1      52.533  34.748  26.403  1.00  0.00    -0.237 OA
ATOM     70  O   UNL A   1      52.195  36.585  28.029  1.00  0.00    -0.237 OA
ATOM     71  O   UNL A   1      51.668  34.259  28.657  1.00  0.00    -0.744 OA
ENDBRANCH  64  68
ENDBRANCH  47  61
BRANCH  48  72
ATOM     72  C   UNL A   1      40.182  32.333  33.225  1.00  0.00     0.023 A 
ATOM     73  C   UNL A   1      38.908  32.925  33.221  1.00  0.00     0.031 A 
ATOM     74  C   UNL A   1      40.421  31.292  34.140  1.00  0.00     0.131 A 
ATOM     75  C   UNL A   1      37.938  32.503  34.142  1.00  0.00     0.055 A 
ATOM     76  C   UNL A   1      39.435  30.838  35.016  1.00  0.00     0.041 A 
ATOM     77  F   UNL A   1      41.619  30.688  34.182  1.00  0.00    -0.206 F 
ATOM     78  C   UNL A   1      38.187  31.453  35.031  1.00  0.00     0.022 A 
BRANCH  75  79
ATOM     79  S   UNL A   1      36.365  33.403  34.222  1.00  0.00     0.124 S 
ATOM     80  O   UNL A   1      35.523  32.607  33.334  1.00  0.00    -0.237 OA
ATOM     81  O   UNL A   1      36.046  33.330  35.644  1.00  0.00    -0.237 OA
ATOM     82  O   UNL A   1      36.709  34.734  33.729  1.00  0.00    -0.744 OA
ENDBRANCH  75  79
ENDBRANCH  48  72
BRANCH  60  83
ATOM     83  C   UNL A   1      44.227  38.021  33.165  1.00  0.00     0.023 A 
ATOM     84  C   UNL A   1      43.462  39.159  32.854  1.00  0.00     0.031 A 
ATOM     85  C   UNL A   1      45.036  38.062  34.314  1.00  0.00     0.131 A 
ATOM     86  C   UNL A   1      43.567  40.310  33.651  1.00  0.00     0.055 A 
ATOM     87  C   UNL A   1      45.087  39.186  35.139  1.00  0.00     0.041 A 
ATOM     88  F   UNL A   1      45.790  37.005  34.658  1.00  0.00    -0.206 F 
ATOM     89  C   UNL A   1      44.360  40.324  34.801  1.00  0.00     0.022 A 
BRANCH  86  90
ATOM     90  S   UNL A   1      42.726  41.824  33.110  1.00  0.00     0.124 S 
ATOM     91  O   UNL A   1      42.020  42.227  34.323  1.00  0.00    -0.237 OA
ATOM     92  O   UNL A   1      43.841  42.674  32.708  1.00  0.00    -0.237 OA
ATOM     93  O   UNL A   1      41.869  41.368  32.017  1.00  0.00    -0.744 OA
ENDBRANCH  86  90
ENDBRANCH  60  83
ENDBRANCH  34  35
ENDBRANCH  26  29
ENDBRANCH  24  25
ENDBRANCH  23  24
ENDBRANCH  22  23
ENDBRANCH  21  22
ENDBRANCH   1  21
TORSDOF 21
ENDMDL
MODEL 2
REMARK VINA RESULT:      -9.1      3.839      6.085
REMARK SMILES Cc1ccc(O)c(C(=O)CCCC(=O)NCCCCCCNC(=O)c2ccc(-c3c4nc(c(-c5cc(S(=O)(=O)[O-])ccc5F)c5ccc([nH]5)c(-c5cc(S(=O)(=O)[O-])ccc5F)c5nc(c(-c6cc(S(=O)(=O)[O-])ccc6F)c6ccc3[nH]6)C=C5)C=C4)cc2)c1
REMARK SMILES IDX 17 1 16 2 15 3 13 4 14 5 12 7 11 8 10 9 8 10 9 11 7 12 1 13
REMARK SMILES IDX 2 14 3 15 88 16 4 17 5 18 6 19 18 21 19 22 20 23 21 24 22 25
REMARK SMILES IDX 23 26 24 28 25 29 26 30 87 31 27 32 86 33 28 34 29 35 30 36
REMARK SMILES IDX 80 37 31 38 85 39 79 40 81 41 32 42 84 43 78 44 77 45 33 47
REMARK SMILES IDX 65 48 45 49 64 50 46 51 49 52 63 53 82 54 47 55 48 56 62 58
REMARK SMILES IDX 83 59 50 60 34 61 35 62 43 63 36 64 42 65 44 66 41 67 37 68
REMARK SMILES IDX 38 69 39 70 40 71 66 72 67 73 75 74 68 75 74 76 76 77 73 78
REMARK SMILES IDX 69 79 70 80 71 81 72 82 51 83 52 84 60 85 53 86 59 87 61 88
REMARK SMILES IDX 58 89 54 90 55 91 56 92 57 93
REMARK H PARENT 15 6 6 20 22 27 81 46 49 57
REMARK Flexibility Score: inf
ROOT
ATOM      1  C   UNL A   1      44.324  23.472  28.852  1.00  0.00     0.021 C 
ENDROOT
BRANCH   1   2
ATOM      2  C   UNL A   1      44.104  23.580  30.361  1.00  0.00     0.116 C 
BRANCH   2   3
ATOM      3  N   UNL A   1      44.606  24.831  30.889  1.00  0.00    -0.356 N 
ATOM      4  C   UNL A   1      44.611  25.441  32.094  1.00  0.00     0.220 C 
ATOM      5  O   UNL A   1      45.224  26.519  32.128  1.00  0.00    -0.275 OA
ATOM      6  H   UNL A   1      45.055  25.370  30.199  1.00  0.00     0.163 HD
BRANCH   4   7
ATOM      7  C   UNL A   1      44.066  24.880  33.406  1.00  0.00     0.100 C 
BRANCH   7   8
ATOM      8  C   UNL A   1      44.252  25.529  34.775  1.00  0.00     0.018 C 
BRANCH   8   9
ATOM      9  C   UNL A   1      43.446  26.711  35.298  1.00  0.00     0.082 C 
BRANCH   9  10
ATOM     10  C   UNL A   1      42.017  27.087  34.863  1.00  0.00     0.166 C 
ATOM     11  O   UNL A   1      41.118  26.267  35.096  1.00  0.00    -0.294 OA
BRANCH  10  12
ATOM     12  C   UNL A   1      41.563  28.412  34.305  1.00  0.00     0.060 A 
ATOM     13  C   UNL A   1      39.727  31.596  35.374  1.00  0.00     0.044 C 
ATOM     14  C   UNL A   1      40.457  30.605  34.513  1.00  0.00    -0.050 A 
ATOM     15  C   UNL A   1      40.768  30.902  33.191  1.00  0.00     0.007 A 
ATOM     16  C   UNL A   1      40.856  29.364  35.039  1.00  0.00     0.019 A 
ATOM     17  C   UNL A   1      41.438  29.961  32.414  1.00  0.00     0.047 A 
ATOM     18  C   UNL A   1      41.825  28.733  32.962  1.00  0.00     0.126 A 
BRANCH  18  19
ATOM     19  O   UNL A   1      42.446  27.881  32.087  1.00  0.00    -0.507 OA
ATOM     20  H   UNL A   1      42.735  27.039  32.378  1.00  0.00     0.293 HD
ENDBRANCH  18  19
ENDBRANCH  10  12
ENDBRANCH   9  10
ENDBRANCH   8   9
ENDBRANCH   7   8
ENDBRANCH   4   7
ENDBRANCH   2   3
ENDBRANCH   1   2
BRANCH   1  21
ATOM     21  C   UNL A   1      43.040  23.135  28.094  1.00  0.00     0.002 C 
BRANCH  21  22
ATOM     22  C   UNL A   1      43.254  22.745  26.625  1.00  0.00     0.002 C 
BRANCH  22  23
ATOM     23  C   UNL A   1      42.212  21.791  26.032  1.00  0.00     0.021 C 
BRANCH  23  24
ATOM     24  C   UNL A   1      41.078  21.401  26.977  1.00  0.00     0.116 C 
BRANCH  24  25
ATOM     25  N   UNL A   1      39.772  21.583  26.366  1.00  0.00    -0.352 N 
ATOM     26  C   UNL A   1      38.953  22.684  26.353  1.00  0.00     0.251 C 
ATOM     27  H   UNL A   1      39.420  20.797  25.888  1.00  0.00     0.163 HD
ATOM     28  O   UNL A   1      37.795  22.573  25.965  1.00  0.00    -0.269 OA
BRANCH  26  29
ATOM     29  C   UNL A   1      39.464  23.990  26.823  1.00  0.00     0.039 A 
ATOM     30  C   UNL A   1      40.010  24.875  25.891  1.00  0.00     0.014 A 
ATOM     31  C   UNL A   1      39.423  24.331  28.178  1.00  0.00     0.014 A 
ATOM     32  C   UNL A   1      40.465  26.127  26.311  1.00  0.00     0.010 A 
ATOM     33  C   UNL A   1      39.810  25.606  28.583  1.00  0.00     0.010 A 
ATOM     34  C   UNL A   1      40.340  26.515  27.654  1.00  0.00    -0.014 A 
BRANCH  34  35
ATOM     35  C   UNL A   1      40.769  27.863  28.108  1.00  0.00     0.031 A 
ATOM     36  C   UNL A   1      42.230  28.223  28.124  1.00  0.00     0.074 A 
ATOM     37  C   UNL A   1      39.848  28.736  28.562  1.00  0.00     0.049 A 
ATOM     38  N   UNL A   1      42.809  29.315  28.553  1.00  0.00    -0.248 NA
ATOM     39  C   UNL A   1      43.162  27.206  27.616  1.00  0.00     0.031 C 
ATOM     40  C   UNL A   1      38.408  28.479  28.636  1.00  0.00     0.029 A 
ATOM     41  N   UNL A   1      39.985  30.007  29.060  1.00  0.00    -0.354 N 
ATOM     42  C   UNL A   1      44.175  29.112  28.378  1.00  0.00     0.074 A 
ATOM     43  C   UNL A   1      44.335  27.767  27.868  1.00  0.00     0.031 C 
ATOM     44  C   UNL A   1      37.793  29.567  29.130  1.00  0.00     0.029 A 
ATOM     45  C   UNL A   1      38.796  30.577  29.454  1.00  0.00     0.049 A 
ATOM     46  H   UNL A   1      40.852  30.468  29.129  1.00  0.00     0.167 HD
ATOM     47  C   UNL A   1      45.196  29.977  28.600  1.00  0.00     0.034 A 
ATOM     48  C   UNL A   1      38.543  31.771  30.025  1.00  0.00     0.034 A 
ATOM     49  C   UNL A   1      45.013  31.316  29.107  1.00  0.00     0.049 A 
ATOM     50  C   UNL A   1      39.696  32.707  30.289  1.00  0.00     0.074 A 
ATOM     51  C   UNL A   1      45.967  32.295  29.322  1.00  0.00     0.029 A 
ATOM     52  N   UNL A   1      43.793  31.862  29.489  1.00  0.00    -0.354 N 
ATOM     53  N   UNL A   1      40.977  32.523  30.066  1.00  0.00    -0.248 NA
ATOM     54  C   UNL A   1      39.366  34.015  30.868  1.00  0.00     0.031 C 
ATOM     55  C   UNL A   1      45.337  33.403  29.900  1.00  0.00     0.029 A 
ATOM     56  C   UNL A   1      43.976  33.151  29.969  1.00  0.00     0.049 A 
ATOM     57  H   UNL A   1      42.925  31.402  29.428  1.00  0.00     0.167 HD
ATOM     58  C   UNL A   1      41.602  33.705  30.452  1.00  0.00     0.074 A 
ATOM     59  C   UNL A   1      40.555  34.599  30.904  1.00  0.00     0.031 C 
ATOM     60  C   UNL A   1      42.922  34.026  30.430  1.00  0.00     0.034 A 
BRANCH  47  61
ATOM     61  C   UNL A   1      46.598  29.482  28.320  1.00  0.00     0.023 A 
ATOM     62  C   UNL A   1      47.326  28.748  29.274  1.00  0.00     0.031 A 
ATOM     63  C   UNL A   1      47.230  29.780  27.101  1.00  0.00     0.131 A 
ATOM     64  C   UNL A   1      48.667  28.416  29.030  1.00  0.00     0.055 A 
ATOM     65  C   UNL A   1      48.537  29.368  26.828  1.00  0.00     0.041 A 
ATOM     66  F   UNL A   1      46.597  30.495  26.158  1.00  0.00    -0.206 F 
ATOM     67  C   UNL A   1      49.270  28.697  27.802  1.00  0.00     0.022 A 
BRANCH  64  68
ATOM     68  S   UNL A   1      49.659  27.760  30.400  1.00  0.00     0.124 S 
ATOM     69  O   UNL A   1      48.670  27.696  31.474  1.00  0.00    -0.237 OA
ATOM     70  O   UNL A   1      50.115  26.478  29.874  1.00  0.00    -0.237 OA
ATOM     71  O   UNL A   1      50.702  28.767  30.582  1.00  0.00    -0.744 OA
ENDBRANCH  64  68
ENDBRANCH  47  61
BRANCH  48  72
ATOM     72  C   UNL A   1      37.150  32.145  30.403  1.00  0.00     0.023 A 
ATOM     73  C   UNL A   1      36.269  32.709  29.464  1.00  0.00     0.031 A 
ATOM     74  C   UNL A   1      36.688  31.976  31.720  1.00  0.00     0.131 A 
ATOM     75  C   UNL A   1      34.991  33.123  29.866  1.00  0.00     0.055 A 
ATOM     76  C   UNL A   1      35.396  32.338  32.101  1.00  0.00     0.041 A 
ATOM     77  F   UNL A   1      37.486  31.437  32.655  1.00  0.00    -0.206 F 
ATOM     78  C   UNL A   1      34.542  32.929  31.175  1.00  0.00     0.022 A 
BRANCH  75  79
ATOM     79  S   UNL A   1      33.945  34.000  28.671  1.00  0.00     0.124 S 
ATOM     80  O   UNL A   1      32.922  34.575  29.538  1.00  0.00    -0.237 OA
ATOM     81  O   UNL A   1      34.888  34.943  28.079  1.00  0.00    -0.237 OA
ATOM     82  O   UNL A   1      33.485  32.939  27.779  1.00  0.00    -0.744 OA
ENDBRANCH  75  79
ENDBRANCH  48  72
BRANCH  60  83
ATOM     83  C   UNL A   1      43.295  35.422  30.869  1.00  0.00     0.023 A 
ATOM     84  C   UNL A   1      43.429  35.763  32.226  1.00  0.00     0.031 A 
ATOM     85  C   UNL A   1      43.508  36.429  29.911  1.00  0.00     0.131 A 
ATOM     86  C   UNL A   1      43.710  37.089  32.590  1.00  0.00     0.055 A 
ATOM     87  C   UNL A   1      43.851  37.732  30.275  1.00  0.00     0.041 A 
ATOM     88  F   UNL A   1      43.391  36.161  28.600  1.00  0.00    -0.206 F 
ATOM     89  C   UNL A   1      43.940  38.071  31.623  1.00  0.00     0.022 A 
BRANCH  86  90
ATOM     90  S   UNL A   1      43.677  37.537  34.347  1.00  0.00     0.124 S 
ATOM     91  O   UNL A   1      42.922  36.431  34.927  1.00  0.00    -0.237 OA
ATOM     92  O   UNL A   1      45.095  37.587  34.683  1.00  0.00    -0.237 OA
ATOM     93  O   UNL A   1      42.992  38.829  34.358  1.00  0.00    -0.744 OA
ENDBRANCH  86  90
ENDBRANCH  60  83
ENDBRANCH  34  35
ENDBRANCH  26  29
ENDBRANCH  24  25
ENDBRANCH  23  24
ENDBRANCH  22  23
ENDBRANCH  21  22
ENDBRANCH   1  21
TORSDOF 21
ENDMDL
MODEL 3
REMARK VINA RESULT:      -9.0      3.842      6.166
REMARK SMILES Cc1ccc(O)c(C(=O)CCCC(=O)NCCCCCCNC(=O)c2ccc(-c3c4nc(c(-c5cc(S(=O)(=O)[O-])ccc5F)c5ccc([nH]5)c(-c5cc(S(=O)(=O)[O-])ccc5F)c5nc(c(-c6cc(S(=O)(=O)[O-])ccc6F)c6ccc3[nH]6)C=C5)C=C4)cc2)c1
REMARK SMILES IDX 17 1 16 2 15 3 13 4 14 5 12 7 11 8 10 9 8 10 9 11 7 12 1 13
REMARK SMILES IDX 2 14 3 15 88 16 4 17 5 18 6 19 18 21 19 22 20 23 21 24 22 25
REMARK SMILES IDX 23 26 24 28 25 29 26 30 87 31 27 32 86 33 28 34 29 35 30 36
REMARK SMILES IDX 80 37 31 38 85 39 79 40 81 41 32 42 84 43 78 44 77 45 33 47
REMARK SMILES IDX 65 48 45 49 64 50 46 51 49 52 63 53 82 54 47 55 48 56 62 58
REMARK SMILES IDX 83 59 50 60 34 61 35 62 43 63 36 64 42 65 44 66 41 67 37 68
REMARK SMILES IDX 38 69 39 70 40 71 66 72 67 73 75 74 68 75 74 76 76 77 73 78
REMARK SMILES IDX 69 79 70 80 71 81 72 82 51 83 52 84 60 85 53 86 59 87 61 88
REMARK SMILES IDX 58 89 54 90 55 91 56 92 57 93
REMARK H PARENT 15 6 6 20 22 27 81 46 49 57
REMARK Flexibility Score: inf
ROOT
ATOM      1  C   UNL A   1      44.295  23.609  28.759  1.00  0.00     0.021 C 
ENDROOT
BRANCH   1   2
ATOM      2  C   UNL A   1      43.962  23.572  30.250  1.00  0.00     0.116 C 
BRANCH   2   3
ATOM      3  N   UNL A   1      44.884  24.374  31.027  1.00  0.00    -0.356 N 
ATOM      4  C   UNL A   1      44.940  24.826  32.298  1.00  0.00     0.220 C 
ATOM      5  O   UNL A   1      45.972  25.454  32.582  1.00  0.00    -0.275 OA
ATOM      6  H   UNL A   1      45.662  24.661  30.497  1.00  0.00     0.163 HD
BRANCH   4   7
ATOM      7  C   UNL A   1      43.946  24.531  33.420  1.00  0.00     0.100 C 
BRANCH   7   8
ATOM      8  C   UNL A   1      44.069  25.045  34.852  1.00  0.00     0.018 C 
BRANCH   8   9
ATOM      9  C   UNL A   1      43.440  26.330  35.375  1.00  0.00     0.082 C 
BRANCH   9  10
ATOM     10  C   UNL A   1      42.061  26.884  34.973  1.00  0.00     0.166 C 
ATOM     11  O   UNL A   1      41.076  26.158  35.173  1.00  0.00    -0.294 OA
BRANCH  10  12
ATOM     12  C   UNL A   1      41.754  28.278  34.485  1.00  0.00     0.060 A 
ATOM     13  C   UNL A   1      40.133  31.534  35.672  1.00  0.00     0.044 C 
ATOM     14  C   UNL A   1      40.827  30.541  34.786  1.00  0.00    -0.050 A 
ATOM     15  C   UNL A   1      41.243  30.895  33.507  1.00  0.00     0.007 A 
ATOM     16  C   UNL A   1      41.087  29.238  35.244  1.00  0.00     0.019 A 
ATOM     17  C   UNL A   1      41.876  29.952  32.703  1.00  0.00     0.047 A 
ATOM     18  C   UNL A   1      42.124  28.661  33.184  1.00  0.00     0.126 A 
BRANCH  18  19
ATOM     19  O   UNL A   1      42.722  27.816  32.287  1.00  0.00    -0.507 OA
ATOM     20  H   UNL A   1      42.961  26.948  32.547  1.00  0.00     0.293 HD
ENDBRANCH  18  19
ENDBRANCH  10  12
ENDBRANCH   9  10
ENDBRANCH   8   9
ENDBRANCH   7   8
ENDBRANCH   4   7
ENDBRANCH   2   3
ENDBRANCH   1   2
BRANCH   1  21
ATOM     21  C   UNL A   1      43.046  23.617  27.878  1.00  0.00     0.002 C 
BRANCH  21  22
ATOM     22  C   UNL A   1      43.312  23.318  26.396  1.00  0.00     0.002 C 
BRANCH  22  23
ATOM     23  C   UNL A   1      42.381  22.288  25.749  1.00  0.00     0.021 C 
BRANCH  23  24
ATOM     24  C   UNL A   1      41.330  21.689  26.679  1.00  0.00     0.116 C 
BRANCH  24  25
ATOM     25  N   UNL A   1      39.995  21.748  26.105  1.00  0.00    -0.352 N 
ATOM     26  C   UNL A   1      39.054  22.745  26.173  1.00  0.00     0.251 C 
ATOM     27  H   UNL A   1      39.725  20.954  25.591  1.00  0.00     0.163 HD
ATOM     28  O   UNL A   1      37.907  22.519  25.803  1.00  0.00    -0.269 OA
BRANCH  26  29
ATOM     29  C   UNL A   1      39.421  24.074  26.706  1.00  0.00     0.039 A 
ATOM     30  C   UNL A   1      39.180  24.350  28.054  1.00  0.00     0.014 A 
ATOM     31  C   UNL A   1      39.981  25.050  25.877  1.00  0.00     0.014 A 
ATOM     32  C   UNL A   1      39.553  25.588  28.583  1.00  0.00     0.010 A 
ATOM     33  C   UNL A   1      40.417  26.255  26.422  1.00  0.00     0.010 A 
ATOM     34  C   UNL A   1      40.202  26.538  27.780  1.00  0.00    -0.014 A 
BRANCH  34  35
ATOM     35  C   UNL A   1      40.654  27.838  28.340  1.00  0.00     0.031 A 
ATOM     36  C   UNL A   1      42.121  28.100  28.545  1.00  0.00     0.074 A 
ATOM     37  C   UNL A   1      39.741  28.754  28.717  1.00  0.00     0.049 A 
ATOM     38  N   UNL A   1      42.711  29.135  29.086  1.00  0.00    -0.248 NA
ATOM     39  C   UNL A   1      43.045  27.041  28.109  1.00  0.00     0.031 C 
ATOM     40  C   UNL A   1      38.289  28.591  28.608  1.00  0.00     0.029 A 
ATOM     41  N   UNL A   1      39.893  29.995  29.282  1.00  0.00    -0.354 N 
ATOM     42  C   UNL A   1      44.072  28.848  29.068  1.00  0.00     0.074 A 
ATOM     43  C   UNL A   1      44.210  27.514  28.523  1.00  0.00     0.031 C 
ATOM     44  C   UNL A   1      37.687  29.699  29.071  1.00  0.00     0.029 A 
ATOM     45  C   UNL A   1      38.703  30.628  29.554  1.00  0.00     0.049 A 
ATOM     46  H   UNL A   1      40.772  30.395  29.474  1.00  0.00     0.167 HD
ATOM     47  C   UNL A   1      45.110  29.635  29.447  1.00  0.00     0.034 A 
ATOM     48  C   UNL A   1      38.456  31.815  30.142  1.00  0.00     0.034 A 
ATOM     49  C   UNL A   1      44.950  30.965  29.985  1.00  0.00     0.049 A 
ATOM     50  C   UNL A   1      39.624  32.663  30.582  1.00  0.00     0.074 A 
ATOM     51  C   UNL A   1      45.928  31.870  30.355  1.00  0.00     0.029 A 
ATOM     52  N   UNL A   1      43.728  31.577  30.242  1.00  0.00    -0.354 N 
ATOM     53  N   UNL A   1      40.908  32.403  30.506  1.00  0.00    -0.248 NA
ATOM     54  C   UNL A   1      39.307  33.969  31.172  1.00  0.00     0.031 C 
ATOM     55  C   UNL A   1      45.302  32.997  30.900  1.00  0.00     0.029 A 
ATOM     56  C   UNL A   1      43.930  32.833  30.795  1.00  0.00     0.049 A 
ATOM     57  H   UNL A   1      42.847  31.177  30.058  1.00  0.00     0.167 HD
ATOM     58  C   UNL A   1      41.554  33.527  31.014  1.00  0.00     0.074 A 
ATOM     59  C   UNL A   1      40.517  34.472  31.375  1.00  0.00     0.031 C 
ATOM     60  C   UNL A   1      42.884  33.760  31.164  1.00  0.00     0.034 A 
BRANCH  47  61
ATOM     61  C   UNL A   1      46.502  29.058  29.316  1.00  0.00     0.023 A 
ATOM     62  C   UNL A   1      47.224  29.138  28.111  1.00  0.00     0.031 A 
ATOM     63  C   UNL A   1      47.102  28.387  30.395  1.00  0.00     0.131 A 
ATOM     64  C   UNL A   1      48.458  28.482  27.986  1.00  0.00     0.055 A 
ATOM     65  C   UNL A   1      48.372  27.813  30.292  1.00  0.00     0.041 A 
ATOM     66  F   UNL A   1      46.458  28.258  31.565  1.00  0.00    -0.206 F 
ATOM     67  C   UNL A   1      49.050  27.843  29.077  1.00  0.00     0.022 A 
BRANCH  64  68
ATOM     68  S   UNL A   1      49.197  28.337  26.336  1.00  0.00     0.124 S 
ATOM     69  O   UNL A   1      50.017  29.545  26.273  1.00  0.00    -0.237 OA
ATOM     70  O   UNL A   1      49.924  27.075  26.426  1.00  0.00    -0.237 OA
ATOM     71  O   UNL A   1      48.041  28.329  25.442  1.00  0.00    -0.744 OA
ENDBRANCH  64  68
ENDBRANCH  47  61
BRANCH  48  72
ATOM     72  C   UNL A   1      37.054  32.268  30.366  1.00  0.00     0.023 A 
ATOM     73  C   UNL A   1      36.356  32.989  29.382  1.00  0.00     0.031 A 
ATOM     74  C   UNL A   1      36.398  32.015  31.585  1.00  0.00     0.131 A 
ATOM     75  C   UNL A   1      35.066  33.469  29.650  1.00  0.00     0.055 A 
ATOM     76  C   UNL A   1      35.093  32.447  31.825  1.00  0.00     0.041 A 
ATOM     77  F   UNL A   1      37.016  31.326  32.557  1.00  0.00    -0.206 F 
ATOM     78  C   UNL A   1      34.423  33.191  30.859  1.00  0.00     0.022 A 
BRANCH  75  79
ATOM     79  S   UNL A   1      34.264  34.538  28.423  1.00  0.00     0.124 S 
ATOM     80  O   UNL A   1      34.948  34.145  27.196  1.00  0.00    -0.237 OA
ATOM     81  O   UNL A   1      32.867  34.134  28.537  1.00  0.00    -0.237 OA
ATOM     82  O   UNL A   1      34.562  35.887  28.900  1.00  0.00    -0.744 OA
ENDBRANCH  75  79
ENDBRANCH  48  72
BRANCH  60  83
ATOM     83  C   UNL A   1      43.286  35.111  31.703  1.00  0.00     0.023 A 
ATOM     84  C   UNL A   1      43.506  36.213  30.857  1.00  0.00     0.031 A 
ATOM     85  C   UNL A   1      43.462  35.295  33.086  1.00  0.00     0.131 A 
ATOM     86  C   UNL A   1      43.945  37.432  31.396  1.00  0.00     0.055 A 
ATOM     87  C   UNL A   1      43.836  36.528  33.624  1.00  0.00     0.041 A 
ATOM     88  F   UNL A   1      43.268  34.277  33.941  1.00  0.00    -0.206 F 
ATOM     89  C   UNL A   1      44.093  37.602  32.775  1.00  0.00     0.022 A 
BRANCH  86  90
ATOM     90  S   UNL A   1      44.413  38.769  30.264  1.00  0.00     0.124 S 
ATOM     91  O   UNL A   1      45.846  38.542  30.103  1.00  0.00    -0.237 OA
ATOM     92  O   UNL A   1      43.588  38.490  29.093  1.00  0.00    -0.237 OA
ATOM     93  O   UNL A   1      44.055  39.982  30.998  1.00  0.00    -0.744 OA
ENDBRANCH  86  90
ENDBRANCH  60  83
ENDBRANCH  34  35
ENDBRANCH  26  29
ENDBRANCH  24  25
ENDBRANCH  23  24
ENDBRANCH  22  23
ENDBRANCH  21  22
ENDBRANCH   1  21
TORSDOF 21
ENDMDL
