MODEL 1
REMARK VINA RESULT:     -12.2      0.000      0.000
REMARK SMILES Cc1ccc(NC(=O)C[C@H]2SC[C@H](C(=O)NCCCCCCNC(=O)c3ccc(-c4c5nc(c(-c6cc(S(=O)(=O)[O-])ccc6F)c6ccc([nH]6)c(-c6cc(S(=O)(=O)[O-])ccc6F)c6nc(c(-c7cc(S(=O)(=O)[O-])ccc7F)c7ccc4[nH]7)C=C6)C=C5)cc3)NC2=O)cc1
REMARK SMILES IDX 19 1 18 2 17 3 16 4 14 5 15 6 13 8 10 9 11 10 90 11 12 12
REMARK SMILES IDX 89 13 91 14 9 16 7 17 6 18 8 20 5 21 1 22 2 23 3 24 93 25
REMARK SMILES IDX 4 26 92 27 20 28 21 29 22 30 23 31 24 32 25 34 26 35 27 36
REMARK SMILES IDX 88 37 28 38 87 39 29 40 30 41 31 42 81 43 32 44 86 45 80 46
REMARK SMILES IDX 82 47 33 48 85 49 79 50 78 51 34 53 66 54 46 55 65 56 47 57
REMARK SMILES IDX 50 58 64 59 83 60 48 61 49 62 63 64 84 65 51 66 35 67 36 68
REMARK SMILES IDX 44 69 37 70 43 71 45 72 42 73 38 74 39 75 40 76 41 77 67 78
REMARK SMILES IDX 68 79 76 80 69 81 75 82 77 83 74 84 70 85 71 86 72 87 73 88
REMARK SMILES IDX 52 89 53 90 61 91 54 92 60 93 62 94 59 95 55 96 56 97 57 98
REMARK SMILES IDX 58 99
REMARK H PARENT 16 7 89 15 6 19 23 33 82 52 50 63
REMARK Flexibility Score: inf
ROOT
ATOM      1  C   UNL A   1      37.044  22.286  23.709  1.00  0.00     0.002 C 
ENDROOT
BRANCH   1   2
ATOM      2  C   UNL A   1      35.667  22.900  23.408  1.00  0.00     0.021 C 
BRANCH   2   3
ATOM      3  C   UNL A   1      34.481  22.149  24.017  1.00  0.00     0.116 C 
BRANCH   3   4
ATOM      4  N   UNL A   1      33.243  22.456  23.322  1.00  0.00    -0.354 N 
ATOM      5  C   UNL A   1      32.272  23.373  23.575  1.00  0.00     0.243 C 
ATOM      6  O   UNL A   1      31.338  23.461  22.771  1.00  0.00    -0.273 OA
ATOM      7  H   UNL A   1      33.079  21.900  22.526  1.00  0.00     0.163 HD
BRANCH   5   8
ATOM      8  C   UNL A   1      32.359  24.345  24.760  1.00  0.00     0.181 C 
ATOM      9  C   UNL A   1      31.604  27.043  25.908  1.00  0.00     0.145 C 
ATOM     10  S   UNL A   1      33.395  26.606  25.979  1.00  0.00    -0.145 SA
ATOM     11  C   UNL A   1      30.754  25.772  26.037  1.00  0.00     0.234 C 
ATOM     12  C   UNL A   1      33.414  25.434  24.580  1.00  0.00     0.105 C 
ATOM     13  N   UNL A   1      31.011  24.771  25.137  1.00  0.00    -0.343 N 
ATOM     14  O   UNL A   1      29.800  25.631  26.798  1.00  0.00    -0.274 OA
ATOM     15  H   UNL A   1      30.246  24.312  24.720  1.00  0.00     0.164 HD
BRANCH   9  16
ATOM     16  C   UNL A   1      31.324  28.211  26.863  1.00  0.00     0.124 C 
BRANCH  16  17
ATOM     17  C   UNL A   1      32.016  29.536  26.622  1.00  0.00     0.226 C 
ATOM     18  N   UNL A   1      31.696  30.382  25.608  1.00  0.00    -0.326 N 
ATOM     19  H   UNL A   1      32.168  31.245  25.658  1.00  0.00     0.169 HD
ATOM     20  O   UNL A   1      32.928  29.890  27.381  1.00  0.00    -0.275 OA
BRANCH  18  21
ATOM     21  C   UNL A   1      30.838  30.286  24.507  1.00  0.00     0.041 A 
ATOM     22  C   UNL A   1      27.966  30.165  21.290  1.00  0.00     0.044 C 
ATOM     23  C   UNL A   1      28.979  30.234  22.394  1.00  0.00    -0.051 A 
ATOM     24  C   UNL A   1      30.034  29.314  22.444  1.00  0.00     0.005 A 
ATOM     25  C   UNL A   1      28.874  31.196  23.400  1.00  0.00     0.005 A 
ATOM     26  C   UNL A   1      30.964  29.344  23.490  1.00  0.00     0.026 A 
ATOM     27  C   UNL A   1      29.808  31.231  24.436  1.00  0.00     0.026 A 
ENDBRANCH  18  21
ENDBRANCH  16  17
ENDBRANCH   9  16
ENDBRANCH   5   8
ENDBRANCH   3   4
ENDBRANCH   2   3
ENDBRANCH   1   2
BRANCH   1  28
ATOM     28  C   UNL A   1      37.105  21.291  24.880  1.00  0.00     0.002 C 
BRANCH  28  29
ATOM     29  C   UNL A   1      38.285  21.461  25.836  1.00  0.00     0.021 C 
BRANCH  29  30
ATOM     30  C   UNL A   1      38.836  22.882  25.907  1.00  0.00     0.116 C 
BRANCH  30  31
ATOM     31  N   UNL A   1      40.247  22.966  26.254  1.00  0.00    -0.352 N 
ATOM     32  C   UNL A   1      40.961  24.063  26.718  1.00  0.00     0.251 C 
ATOM     33  H   UNL A   1      40.765  22.134  26.145  1.00  0.00     0.163 HD
ATOM     34  O   UNL A   1      42.163  24.022  26.888  1.00  0.00    -0.269 OA
BRANCH  32  35
ATOM     35  C   UNL A   1      40.196  25.262  27.148  1.00  0.00     0.039 A 
ATOM     36  C   UNL A   1      40.475  26.462  26.485  1.00  0.00     0.014 A 
ATOM     37  C   UNL A   1      39.428  25.262  28.309  1.00  0.00     0.014 A 
ATOM     38  C   UNL A   1      40.195  27.674  27.115  1.00  0.00     0.010 A 
ATOM     39  C   UNL A   1      39.225  26.459  28.975  1.00  0.00     0.010 A 
ATOM     40  C   UNL A   1      39.675  27.656  28.412  1.00  0.00    -0.014 A 
BRANCH  40  41
ATOM     41  C   UNL A   1      39.729  28.824  29.287  1.00  0.00     0.031 A 
ATOM     42  C   UNL A   1      38.678  29.866  29.239  1.00  0.00     0.074 A 
ATOM     43  C   UNL A   1      40.759  28.987  30.154  1.00  0.00     0.049 A 
ATOM     44  N   UNL A   1      38.908  31.127  29.402  1.00  0.00    -0.248 NA
ATOM     45  C   UNL A   1      37.270  29.561  28.994  1.00  0.00     0.031 C 
ATOM     46  C   UNL A   1      40.872  30.024  31.179  1.00  0.00     0.029 A 
ATOM     47  N   UNL A   1      42.014  28.382  30.179  1.00  0.00    -0.354 N 
ATOM     48  C   UNL A   1      37.693  31.739  29.601  1.00  0.00     0.074 A 
ATOM     49  C   UNL A   1      36.703  30.746  29.244  1.00  0.00     0.031 C 
ATOM     50  C   UNL A   1      42.172  30.205  31.461  1.00  0.00     0.029 A 
ATOM     51  C   UNL A   1      42.926  29.390  30.525  1.00  0.00     0.049 A 
ATOM     52  H   UNL A   1      42.219  27.439  29.990  1.00  0.00     0.167 HD
ATOM     53  C   UNL A   1      37.617  32.953  30.213  1.00  0.00     0.034 A 
ATOM     54  C   UNL A   1      43.955  29.831  29.743  1.00  0.00     0.034 A 
ATOM     55  C   UNL A   1      38.921  33.454  30.634  1.00  0.00     0.049 A 
ATOM     56  C   UNL A   1      43.962  31.337  29.544  1.00  0.00     0.074 A 
ATOM     57  C   UNL A   1      39.558  33.476  31.865  1.00  0.00     0.029 A 
ATOM     58  N   UNL A   1      39.881  33.796  29.691  1.00  0.00    -0.354 N 
ATOM     59  N   UNL A   1      42.935  32.104  29.784  1.00  0.00    -0.248 NA
ATOM     60  C   UNL A   1      45.095  32.088  29.012  1.00  0.00     0.031 C 
ATOM     61  C   UNL A   1      40.915  33.813  31.655  1.00  0.00     0.029 A 
ATOM     62  C   UNL A   1      41.105  34.009  30.299  1.00  0.00     0.049 A 
ATOM     63  H   UNL A   1      39.714  33.875  28.723  1.00  0.00     0.167 HD
ATOM     64  C   UNL A   1      43.222  33.399  29.426  1.00  0.00     0.074 A 
ATOM     65  C   UNL A   1      44.600  33.339  28.973  1.00  0.00     0.031 C 
ATOM     66  C   UNL A   1      42.278  34.386  29.519  1.00  0.00     0.034 A 
BRANCH  53  67
ATOM     67  C   UNL A   1      36.311  33.507  30.723  1.00  0.00     0.023 A 
ATOM     68  C   UNL A   1      35.443  34.187  29.845  1.00  0.00     0.031 A 
ATOM     69  C   UNL A   1      35.888  33.425  32.062  1.00  0.00     0.131 A 
ATOM     70  C   UNL A   1      34.289  34.835  30.313  1.00  0.00     0.055 A 
ATOM     71  C   UNL A   1      34.762  34.107  32.541  1.00  0.00     0.041 A 
ATOM     72  F   UNL A   1      36.556  32.671  32.953  1.00  0.00    -0.206 F 
ATOM     73  C   UNL A   1      33.963  34.832  31.666  1.00  0.00     0.022 A 
BRANCH  70  74
ATOM     74  S   UNL A   1      33.223  35.691  29.119  1.00  0.00     0.124 S 
ATOM     75  O   UNL A   1      32.334  36.454  29.990  1.00  0.00    -0.237 OA
ATOM     76  O   UNL A   1      34.187  36.465  28.345  1.00  0.00    -0.237 OA
ATOM     77  O   UNL A   1      32.583  34.597  28.391  1.00  0.00    -0.744 OA
ENDBRANCH  70  74
ENDBRANCH  53  67
BRANCH  54  78
ATOM     78  C   UNL A   1      44.440  28.851  28.734  1.00  0.00     0.023 A 
ATOM     79  C   UNL A   1      45.319  27.841  29.173  1.00  0.00     0.031 A 
ATOM     80  C   UNL A   1      43.792  28.673  27.504  1.00  0.00     0.131 A 
ATOM     81  C   UNL A   1      45.394  26.625  28.481  1.00  0.00     0.055 A 
ATOM     82  C   UNL A   1      43.919  27.480  26.782  1.00  0.00     0.041 A 
ATOM     83  F   UNL A   1      42.929  29.590  27.045  1.00  0.00    -0.206 F 
ATOM     84  C   UNL A   1      44.686  26.432  27.294  1.00  0.00     0.022 A 
BRANCH  81  85
ATOM     85  S   UNL A   1      46.196  25.203  29.284  1.00  0.00     0.124 S 
ATOM     86  O   UNL A   1      47.584  25.642  29.369  1.00  0.00    -0.237 OA
ATOM     87  O   UNL A   1      45.486  25.098  30.555  1.00  0.00    -0.237 OA
ATOM     88  O   UNL A   1      45.932  24.107  28.355  1.00  0.00    -0.744 OA
ENDBRANCH  81  85
ENDBRANCH  54  78
BRANCH  66  89
ATOM     89  C   UNL A   1      42.379  35.806  28.986  1.00  0.00     0.023 A 
ATOM     90  C   UNL A   1      43.172  36.807  29.564  1.00  0.00     0.031 A 
ATOM     91  C   UNL A   1      41.698  36.189  27.799  1.00  0.00     0.131 A 
ATOM     92  C   UNL A   1      43.218  38.111  29.032  1.00  0.00     0.055 A 
ATOM     93  C   UNL A   1      41.798  37.465  27.232  1.00  0.00     0.041 A 
ATOM     94  F   UNL A   1      40.912  35.338  27.123  1.00  0.00    -0.206 F 
ATOM     95  C   UNL A   1      42.551  38.443  27.858  1.00  0.00     0.022 A 
BRANCH  92  96
ATOM     96  S   UNL A   1      44.130  39.382  29.948  1.00  0.00     0.124 S 
ATOM     97  O   UNL A   1      43.778  39.066  31.330  1.00  0.00    -0.237 OA
ATOM     98  O   UNL A   1      45.511  39.109  29.568  1.00  0.00    -0.237 OA
ATOM     99  O   UNL A   1      43.580  40.637  29.439  1.00  0.00    -0.744 OA
ENDBRANCH  92  96
ENDBRANCH  66  89
ENDBRANCH  40  41
ENDBRANCH  32  35
ENDBRANCH  30  31
ENDBRANCH  29  30
ENDBRANCH  28  29
ENDBRANCH   1  28
TORSDOF 19
ENDMDL
MODEL 2
REMARK VINA RESULT:     -12.2      1.638      2.435
REMARK SMILES Cc1ccc(NC(=O)C[C@H]2SC[C@H](C(=O)NCCCCCCNC(=O)c3ccc(-c4c5nc(c(-c6cc(S(=O)(=O)[O-])ccc6F)c6ccc([nH]6)c(-c6cc(S(=O)(=O)[O-])ccc6F)c6nc(c(-c7cc(S(=O)(=O)[O-])ccc7F)c7ccc4[nH]7)C=C6)C=C5)cc3)NC2=O)cc1
REMARK SMILES IDX 19 1 18 2 17 3 16 4 14 5 15 6 13 8 10 9 11 10 90 11 12 12
REMARK SMILES IDX 89 13 91 14 9 16 7 17 6 18 8 20 5 21 1 22 2 23 3 24 93 25
REMARK SMILES IDX 4 26 92 27 20 28 21 29 22 30 23 31 24 32 25 34 26 35 27 36
REMARK SMILES IDX 88 37 28 38 87 39 29 40 30 41 31 42 81 43 32 44 86 45 80 46
REMARK SMILES IDX 82 47 33 48 85 49 79 50 78 51 34 53 66 54 46 55 65 56 47 57
REMARK SMILES IDX 50 58 64 59 83 60 48 61 49 62 63 64 84 65 51 66 35 67 36 68
REMARK SMILES IDX 44 69 37 70 43 71 45 72 42 73 38 74 39 75 40 76 41 77 67 78
REMARK SMILES IDX 68 79 76 80 69 81 75 82 77 83 74 84 70 85 71 86 72 87 73 88
REMARK SMILES IDX 52 89 53 90 61 91 54 92 60 93 62 94 59 95 55 96 56 97 57 98
REMARK SMILES IDX 58 99
REMARK H PARENT 16 7 89 15 6 19 23 33 82 52 50 63
REMARK Flexibility Score: inf
ROOT
ATOM      1  C   UNL A   1      37.194  22.889  24.799  1.00  0.00     0.002 C 
ENDROOT
BRANCH   1   2
ATOM      2  C   UNL A   1      35.772  23.343  25.170  1.00  0.00     0.021 C 
BRANCH   2   3
ATOM      3  C   UNL A   1      35.144  22.593  26.347  1.00  0.00     0.116 C 
BRANCH   3   4
ATOM      4  N   UNL A   1      34.850  21.214  26.002  1.00  0.00    -0.354 N 
ATOM      5  C   UNL A   1      33.924  20.671  25.166  1.00  0.00     0.243 C 
ATOM      6  O   UNL A   1      33.933  19.446  25.011  1.00  0.00    -0.273 OA
ATOM      7  H   UNL A   1      35.424  20.553  26.454  1.00  0.00     0.163 HD
BRANCH   5   8
ATOM      8  C   UNL A   1      32.953  21.541  24.356  1.00  0.00     0.181 C 
ATOM      9  C   UNL A   1      32.387  24.231  23.086  1.00  0.00     0.145 C 
ATOM     10  S   UNL A   1      31.061  23.556  24.178  1.00  0.00    -0.145 SA
ATOM     11  C   UNL A   1      33.125  23.078  22.393  1.00  0.00     0.234 C 
ATOM     12  C   UNL A   1      32.120  22.490  25.213  1.00  0.00     0.105 C 
ATOM     13  N   UNL A   1      33.659  22.115  23.210  1.00  0.00    -0.343 N 
ATOM     14  O   UNL A   1      33.370  23.014  21.191  1.00  0.00    -0.274 OA
ATOM     15  H   UNL A   1      34.568  21.791  23.015  1.00  0.00     0.164 HD
BRANCH   9  16
ATOM     16  C   UNL A   1      31.811  25.358  22.219  1.00  0.00     0.124 C 
BRANCH  16  17
ATOM     17  C   UNL A   1      32.765  26.300  21.514  1.00  0.00     0.226 C 
ATOM     18  N   UNL A   1      33.246  27.442  22.070  1.00  0.00    -0.326 N 
ATOM     19  H   UNL A   1      33.936  27.881  21.520  1.00  0.00     0.169 HD
ATOM     20  O   UNL A   1      33.140  26.034  20.365  1.00  0.00    -0.275 OA
BRANCH  18  21
ATOM     21  C   UNL A   1      32.971  28.127  23.258  1.00  0.00     0.041 A 
ATOM     22  C   UNL A   1      31.879  30.403  26.757  1.00  0.00     0.044 C 
ATOM     23  C   UNL A   1      32.239  29.587  25.551  1.00  0.00    -0.051 A 
ATOM     24  C   UNL A   1      33.497  28.977  25.461  1.00  0.00     0.005 A 
ATOM     25  C   UNL A   1      31.340  29.441  24.493  1.00  0.00     0.005 A 
ATOM     26  C   UNL A   1      33.859  28.244  24.324  1.00  0.00     0.026 A 
ATOM     27  C   UNL A   1      31.699  28.701  23.365  1.00  0.00     0.026 A 
ENDBRANCH  18  21
ENDBRANCH  16  17
ENDBRANCH   9  16
ENDBRANCH   5   8
ENDBRANCH   3   4
ENDBRANCH   2   3
ENDBRANCH   1   2
BRANCH   1  28
ATOM     28  C   UNL A   1      37.626  21.510  25.321  1.00  0.00     0.002 C 
BRANCH  28  29
ATOM     29  C   UNL A   1      39.074  21.403  25.799  1.00  0.00     0.021 C 
BRANCH  29  30
ATOM     30  C   UNL A   1      39.546  22.586  26.639  1.00  0.00     0.116 C 
BRANCH  30  31
ATOM     31  N   UNL A   1      40.940  22.953  26.437  1.00  0.00    -0.352 N 
ATOM     32  C   UNL A   1      41.510  24.219  26.430  1.00  0.00     0.251 C 
ATOM     33  H   UNL A   1      41.562  22.204  26.285  1.00  0.00     0.163 HD
ATOM     34  O   UNL A   1      42.681  24.395  26.160  1.00  0.00    -0.269 OA
BRANCH  32  35
ATOM     35  C   UNL A   1      40.683  25.359  26.907  1.00  0.00     0.039 A 
ATOM     36  C   UNL A   1      40.853  26.582  26.250  1.00  0.00     0.014 A 
ATOM     37  C   UNL A   1      39.966  25.294  28.099  1.00  0.00     0.014 A 
ATOM     38  C   UNL A   1      40.517  27.765  26.907  1.00  0.00     0.010 A 
ATOM     39  C   UNL A   1      39.711  26.467  28.788  1.00  0.00     0.010 A 
ATOM     40  C   UNL A   1      40.055  27.698  28.224  1.00  0.00    -0.014 A 
BRANCH  40  41
ATOM     41  C   UNL A   1      40.066  28.857  29.112  1.00  0.00     0.031 A 
ATOM     42  C   UNL A   1      38.978  29.861  29.073  1.00  0.00     0.074 A 
ATOM     43  C   UNL A   1      41.088  29.047  29.982  1.00  0.00     0.049 A 
ATOM     44  N   UNL A   1      39.163  31.128  29.250  1.00  0.00    -0.248 NA
ATOM     45  C   UNL A   1      37.583  29.509  28.823  1.00  0.00     0.031 C 
ATOM     46  C   UNL A   1      41.163  30.077  31.019  1.00  0.00     0.029 A 
ATOM     47  N   UNL A   1      42.364  28.488  30.003  1.00  0.00    -0.354 N 
ATOM     48  C   UNL A   1      37.927  31.694  29.454  1.00  0.00     0.074 A 
ATOM     49  C   UNL A   1      36.973  30.671  29.085  1.00  0.00     0.031 C 
ATOM     50  C   UNL A   1      42.455  30.301  31.305  1.00  0.00     0.029 A 
ATOM     51  C   UNL A   1      43.239  29.523  30.362  1.00  0.00     0.049 A 
ATOM     52  H   UNL A   1      42.603  27.554  29.804  1.00  0.00     0.167 HD
ATOM     53  C   UNL A   1      37.807  32.898  30.080  1.00  0.00     0.034 A 
ATOM     54  C   UNL A   1      44.253  30.009  29.586  1.00  0.00     0.034 A 
ATOM     55  C   UNL A   1      39.091  33.441  30.508  1.00  0.00     0.049 A 
ATOM     56  C   UNL A   1      44.206  31.517  29.404  1.00  0.00     0.074 A 
ATOM     57  C   UNL A   1      39.725  33.472  31.741  1.00  0.00     0.029 A 
ATOM     58  N   UNL A   1      40.040  33.827  29.570  1.00  0.00    -0.354 N 
ATOM     59  N   UNL A   1      43.152  32.243  29.650  1.00  0.00    -0.248 NA
ATOM     60  C   UNL A   1      45.312  32.314  28.882  1.00  0.00     0.031 C 
ATOM     61  C   UNL A   1      41.070  33.859  31.536  1.00  0.00     0.029 A 
ATOM     62  C   UNL A   1      41.254  34.077  30.183  1.00  0.00     0.049 A 
ATOM     63  H   UNL A   1      39.871  33.910  28.603  1.00  0.00     0.167 HD
ATOM     64  C   UNL A   1      43.393  33.552  29.307  1.00  0.00     0.074 A 
ATOM     65  C   UNL A   1      44.773  33.546  28.855  1.00  0.00     0.031 C 
ATOM     66  C   UNL A   1      42.414  34.504  29.409  1.00  0.00     0.034 A 
BRANCH  53  67
ATOM     67  C   UNL A   1      36.481  33.400  30.593  1.00  0.00     0.023 A 
ATOM     68  C   UNL A   1      35.611  34.099  29.733  1.00  0.00     0.031 A 
ATOM     69  C   UNL A   1      36.041  33.247  31.920  1.00  0.00     0.131 A 
ATOM     70  C   UNL A   1      34.435  34.700  30.211  1.00  0.00     0.055 A 
ATOM     71  C   UNL A   1      34.892  33.882  32.411  1.00  0.00     0.041 A 
ATOM     72  F   UNL A   1      36.711  32.469  32.787  1.00  0.00    -0.206 F 
ATOM     73  C   UNL A   1      34.089  34.628  31.557  1.00  0.00     0.022 A 
BRANCH  70  74
ATOM     74  S   UNL A   1      33.368  35.585  29.041  1.00  0.00     0.124 S 
ATOM     75  O   UNL A   1      34.340  36.255  28.182  1.00  0.00    -0.237 OA
ATOM     76  O   UNL A   1      32.610  34.498  28.431  1.00  0.00    -0.237 OA
ATOM     77  O   UNL A   1      32.589  36.475  29.900  1.00  0.00    -0.744 OA
ENDBRANCH  70  74
ENDBRANCH  53  67
BRANCH  54  78
ATOM     78  C   UNL A   1      44.773  29.058  28.567  1.00  0.00     0.023 A 
ATOM     79  C   UNL A   1      45.651  28.046  29.006  1.00  0.00     0.031 A 
ATOM     80  C   UNL A   1      44.160  28.904  27.316  1.00  0.00     0.131 A 
ATOM     81  C   UNL A   1      45.756  26.848  28.287  1.00  0.00     0.055 A 
ATOM     82  C   UNL A   1      44.318  27.731  26.570  1.00  0.00     0.041 A 
ATOM     83  F   UNL A   1      43.301  29.825  26.857  1.00  0.00    -0.206 F 
ATOM     84  C   UNL A   1      45.081  26.678  27.077  1.00  0.00     0.022 A 
BRANCH  81  85
ATOM     85  S   UNL A   1      46.550  25.414  29.077  1.00  0.00     0.124 S 
ATOM     86  O   UNL A   1      47.734  26.014  29.680  1.00  0.00    -0.237 OA
ATOM     87  O   UNL A   1      45.530  24.946  30.011  1.00  0.00    -0.237 OA
ATOM     88  O   UNL A   1      46.796  24.513  27.954  1.00  0.00    -0.744 OA
ENDBRANCH  81  85
ENDBRANCH  54  78
BRANCH  66  89
ATOM     89  C   UNL A   1      42.465  35.932  28.892  1.00  0.00     0.023 A 
ATOM     90  C   UNL A   1      43.092  36.989  29.566  1.00  0.00     0.031 A 
ATOM     91  C   UNL A   1      41.914  36.270  27.626  1.00  0.00     0.131 A 
ATOM     92  C   UNL A   1      43.097  38.298  29.043  1.00  0.00     0.055 A 
ATOM     93  C   UNL A   1      41.980  37.555  27.075  1.00  0.00     0.041 A 
ATOM     94  F   UNL A   1      41.295  35.363  26.856  1.00  0.00    -0.206 F 
ATOM     95  C   UNL A   1      42.562  38.585  27.792  1.00  0.00     0.022 A 
BRANCH  92  96
ATOM     96  S   UNL A   1      43.775  39.631  30.068  1.00  0.00     0.124 S 
ATOM     97  O   UNL A   1      44.978  39.998  29.326  1.00  0.00    -0.237 OA
ATOM     98  O   UNL A   1      42.697  40.614  30.053  1.00  0.00    -0.237 OA
ATOM     99  O   UNL A   1      44.014  38.988  31.358  1.00  0.00    -0.744 OA
ENDBRANCH  92  96
ENDBRANCH  66  89
ENDBRANCH  40  41
ENDBRANCH  32  35
ENDBRANCH  30  31
ENDBRANCH  29  30
ENDBRANCH  28  29
ENDBRANCH   1  28
TORSDOF 19
ENDMDL
MODEL 3
REMARK VINA RESULT:     -12.2      3.954      9.856
REMARK SMILES Cc1ccc(NC(=O)C[C@H]2SC[C@H](C(=O)NCCCCCCNC(=O)c3ccc(-c4c5nc(c(-c6cc(S(=O)(=O)[O-])ccc6F)c6ccc([nH]6)c(-c6cc(S(=O)(=O)[O-])ccc6F)c6nc(c(-c7cc(S(=O)(=O)[O-])ccc7F)c7ccc4[nH]7)C=C6)C=C5)cc3)NC2=O)cc1
REMARK SMILES IDX 19 1 18 2 17 3 16 4 14 5 15 6 13 8 10 9 11 10 90 11 12 12
REMARK SMILES IDX 89 13 91 14 9 16 7 17 6 18 8 20 5 21 1 22 2 23 3 24 93 25
REMARK SMILES IDX 4 26 92 27 20 28 21 29 22 30 23 31 24 32 25 34 26 35 27 36
REMARK SMILES IDX 88 37 28 38 87 39 29 40 30 41 31 42 81 43 32 44 86 45 80 46
REMARK SMILES IDX 82 47 33 48 85 49 79 50 78 51 34 53 66 54 46 55 65 56 47 57
REMARK SMILES IDX 50 58 64 59 83 60 48 61 49 62 63 64 84 65 51 66 35 67 36 68
REMARK SMILES IDX 44 69 37 70 43 71 45 72 42 73 38 74 39 75 40 76 41 77 67 78
REMARK SMILES IDX 68 79 76 80 69 81 75 82 77 83 74 84 70 85 71 86 72 87 73 88
REMARK SMILES IDX 52 89 53 90 61 91 54 92 60 93 62 94 59 95 55 96 56 97 57 98
REMARK SMILES IDX 58 99
REMARK H PARENT 16 7 89 15 6 19 23 33 82 52 50 63
REMARK Flexibility Score: inf
ROOT
ATOM      1  C   UNL A   1      33.802  28.468  25.726  1.00  0.00     0.002 C 
ENDROOT
BRANCH   1   2
ATOM      2  C   UNL A   1      33.201  29.392  24.654  1.00  0.00     0.021 C 
BRANCH   2   3
ATOM      3  C   UNL A   1      33.250  28.840  23.228  1.00  0.00     0.116 C 
BRANCH   3   4
ATOM      4  N   UNL A   1      31.972  28.989  22.556  1.00  0.00    -0.354 N 
ATOM      5  C   UNL A   1      30.895  28.163  22.474  1.00  0.00     0.243 C 
ATOM      6  O   UNL A   1      29.896  28.573  21.875  1.00  0.00    -0.273 OA
ATOM      7  H   UNL A   1      31.866  29.842  22.073  1.00  0.00     0.163 HD
BRANCH   5   8
ATOM      8  C   UNL A   1      30.862  26.799  23.178  1.00  0.00     0.181 C 
ATOM      9  C   UNL A   1      31.944  25.046  25.398  1.00  0.00     0.145 C 
ATOM     10  S   UNL A   1      31.950  24.307  23.707  1.00  0.00    -0.145 SA
ATOM     11  C   UNL A   1      30.751  25.999  25.544  1.00  0.00     0.234 C 
ATOM     12  C   UNL A   1      31.997  25.868  22.761  1.00  0.00     0.105 C 
ATOM     13  N   UNL A   1      30.650  27.000  24.612  1.00  0.00    -0.343 N 
ATOM     14  O   UNL A   1      29.957  26.004  26.481  1.00  0.00    -0.274 OA
ATOM     15  H   UNL A   1      30.424  27.906  24.925  1.00  0.00     0.164 HD
BRANCH   9  16
ATOM     16  C   UNL A   1      32.127  23.936  26.441  1.00  0.00     0.124 C 
BRANCH  16  17
ATOM     17  C   UNL A   1      31.408  22.619  26.243  1.00  0.00     0.226 C 
ATOM     18  N   UNL A   1      32.040  21.447  25.974  1.00  0.00    -0.326 N 
ATOM     19  H   UNL A   1      31.435  20.669  25.980  1.00  0.00     0.169 HD
ATOM     20  O   UNL A   1      30.173  22.583  26.328  1.00  0.00    -0.275 OA
BRANCH  18  21
ATOM     21  C   UNL A   1      33.368  21.111  25.688  1.00  0.00     0.041 A 
ATOM     22  C   UNL A   1      37.541  20.397  24.863  1.00  0.00     0.044 C 
ATOM     23  C   UNL A   1      36.096  20.635  25.181  1.00  0.00    -0.051 A 
ATOM     24  C   UNL A   1      35.115  19.744  24.726  1.00  0.00     0.005 A 
ATOM     25  C   UNL A   1      35.701  21.757  25.912  1.00  0.00     0.005 A 
ATOM     26  C   UNL A   1      33.759  19.976  24.985  1.00  0.00     0.026 A 
ATOM     27  C   UNL A   1      34.349  21.980  26.178  1.00  0.00     0.026 A 
ENDBRANCH  18  21
ENDBRANCH  16  17
ENDBRANCH   9  16
ENDBRANCH   5   8
ENDBRANCH   3   4
ENDBRANCH   2   3
ENDBRANCH   1   2
BRANCH   1  28
ATOM     28  C   UNL A   1      34.498  29.158  26.909  1.00  0.00     0.002 C 
BRANCH  28  29
ATOM     29  C   UNL A   1      33.734  30.319  27.546  1.00  0.00     0.021 C 
BRANCH  29  30
ATOM     30  C   UNL A   1      34.570  31.575  27.766  1.00  0.00     0.116 C 
BRANCH  30  31
ATOM     31  N   UNL A   1      33.834  32.702  28.322  1.00  0.00    -0.352 N 
ATOM     32  C   UNL A   1      34.176  33.517  29.392  1.00  0.00     0.251 C 
ATOM     33  H   UNL A   1      32.979  32.914  27.880  1.00  0.00     0.163 HD
ATOM     34  O   UNL A   1      33.426  34.375  29.813  1.00  0.00    -0.269 OA
BRANCH  32  35
ATOM     35  C   UNL A   1      35.559  33.418  29.930  1.00  0.00     0.039 A 
ATOM     36  C   UNL A   1      36.569  34.055  29.201  1.00  0.00     0.014 A 
ATOM     37  C   UNL A   1      35.882  32.534  30.957  1.00  0.00     0.014 A 
ATOM     38  C   UNL A   1      37.887  33.624  29.337  1.00  0.00     0.010 A 
ATOM     39  C   UNL A   1      37.175  32.046  31.033  1.00  0.00     0.010 A 
ATOM     40  C   UNL A   1      38.160  32.537  30.173  1.00  0.00    -0.014 A 
BRANCH  40  41
ATOM     41  C   UNL A   1      39.399  31.772  30.073  1.00  0.00     0.031 A 
ATOM     42  C   UNL A   1      39.415  30.415  29.480  1.00  0.00     0.074 A 
ATOM     43  C   UNL A   1      40.564  32.284  30.542  1.00  0.00     0.049 A 
ATOM     44  N   UNL A   1      40.169  29.454  29.904  1.00  0.00    -0.248 NA
ATOM     45  C   UNL A   1      38.567  30.032  28.354  1.00  0.00     0.031 C 
ATOM     46  C   UNL A   1      41.894  31.696  30.385  1.00  0.00     0.029 A 
ATOM     47  N   UNL A   1      40.788  33.338  31.425  1.00  0.00    -0.354 N 
ATOM     48  C   UNL A   1      40.147  28.469  28.944  1.00  0.00     0.074 A 
ATOM     49  C   UNL A   1      39.068  28.829  28.051  1.00  0.00     0.031 C 
ATOM     50  C   UNL A   1      42.681  32.151  31.373  1.00  0.00     0.029 A 
ATOM     51  C   UNL A   1      41.837  32.929  32.262  1.00  0.00     0.049 A 
ATOM     52  H   UNL A   1      40.308  34.195  31.456  1.00  0.00     0.167 HD
ATOM     53  C   UNL A   1      41.141  27.540  28.878  1.00  0.00     0.034 A 
ATOM     54  C   UNL A   1      41.754  32.767  33.616  1.00  0.00     0.034 A 
ATOM     55  C   UNL A   1      42.180  27.755  29.879  1.00  0.00     0.049 A 
ATOM     56  C   UNL A   1      42.230  31.406  34.093  1.00  0.00     0.074 A 
ATOM     57  C   UNL A   1      43.443  28.322  29.805  1.00  0.00     0.029 A 
ATOM     58  N   UNL A   1      41.896  27.608  31.231  1.00  0.00    -0.354 N 
ATOM     59  N   UNL A   1      42.376  30.374  33.309  1.00  0.00    -0.248 NA
ATOM     60  C   UNL A   1      42.523  31.081  35.486  1.00  0.00     0.031 C 
ATOM     61  C   UNL A   1      43.910  28.537  31.123  1.00  0.00     0.029 A 
ATOM     62  C   UNL A   1      42.939  28.089  32.001  1.00  0.00     0.049 A 
ATOM     63  H   UNL A   1      41.067  27.217  31.591  1.00  0.00     0.167 HD
ATOM     64  C   UNL A   1      42.734  29.271  34.046  1.00  0.00     0.074 A 
ATOM     65  C   UNL A   1      42.838  29.777  35.403  1.00  0.00     0.031 C 
ATOM     66  C   UNL A   1      42.883  28.043  33.458  1.00  0.00     0.034 A 
BRANCH  53  67
ATOM     67  C   UNL A   1      41.319  26.649  27.676  1.00  0.00     0.023 A 
ATOM     68  C   UNL A   1      41.039  25.271  27.772  1.00  0.00     0.031 A 
ATOM     69  C   UNL A   1      41.790  27.094  26.427  1.00  0.00     0.131 A 
ATOM     70  C   UNL A   1      41.326  24.390  26.716  1.00  0.00     0.055 A 
ATOM     71  C   UNL A   1      42.119  26.214  25.387  1.00  0.00     0.041 A 
ATOM     72  F   UNL A   1      41.942  28.405  26.172  1.00  0.00    -0.206 F 
ATOM     73  C   UNL A   1      41.902  24.849  25.535  1.00  0.00     0.022 A 
BRANCH  70  74
ATOM     74  S   UNL A   1      40.939  22.629  26.918  1.00  0.00     0.124 S 
ATOM     75  O   UNL A   1      41.641  22.027  25.789  1.00  0.00    -0.237 OA
ATOM     76  O   UNL A   1      41.483  22.344  28.241  1.00  0.00    -0.237 OA
ATOM     77  O   UNL A   1      39.480  22.590  26.828  1.00  0.00    -0.744 OA
ENDBRANCH  70  74
ENDBRANCH  53  67
BRANCH  54  78
ATOM     78  C   UNL A   1      40.680  33.557  34.277  1.00  0.00     0.023 A 
ATOM     79  C   UNL A   1      39.652  32.847  34.928  1.00  0.00     0.031 A 
ATOM     80  C   UNL A   1      40.844  34.914  34.588  1.00  0.00     0.131 A 
ATOM     81  C   UNL A   1      38.943  33.442  35.980  1.00  0.00     0.055 A 
ATOM     82  C   UNL A   1      40.090  35.524  35.597  1.00  0.00     0.041 A 
ATOM     83  F   UNL A   1      41.819  35.635  34.016  1.00  0.00    -0.206 F 
ATOM     84  C   UNL A   1      39.168  34.775  36.329  1.00  0.00     0.022 A 
BRANCH  81  85
ATOM     85  S   UNL A   1      37.933  32.391  37.068  1.00  0.00     0.124 S 
ATOM     86  O   UNL A   1      36.708  33.171  37.196  1.00  0.00    -0.237 OA
ATOM     87  O   UNL A   1      37.817  31.148  36.311  1.00  0.00    -0.237 OA
ATOM     88  O   UNL A   1      38.749  32.286  38.276  1.00  0.00    -0.744 OA
ENDBRANCH  81  85
ENDBRANCH  54  78
BRANCH  66  89
ATOM     89  C   UNL A   1      43.080  26.708  34.157  1.00  0.00     0.023 A 
ATOM     90  C   UNL A   1      44.274  25.974  34.123  1.00  0.00     0.031 A 
ATOM     91  C   UNL A   1      42.051  26.146  34.959  1.00  0.00     0.131 A 
ATOM     92  C   UNL A   1      44.395  24.734  34.783  1.00  0.00     0.055 A 
ATOM     93  C   UNL A   1      42.196  24.949  35.670  1.00  0.00     0.041 A 
ATOM     94  F   UNL A   1      40.857  26.739  35.102  1.00  0.00    -0.206 F 
ATOM     95  C   UNL A   1      43.370  24.225  35.573  1.00  0.00     0.022 A 
BRANCH  92  96
ATOM     96  S   UNL A   1      45.913  23.774  34.536  1.00  0.00     0.124 S 
ATOM     97  O   UNL A   1      45.419  22.616  33.796  1.00  0.00    -0.237 OA
ATOM     98  O   UNL A   1      46.748  24.700  33.778  1.00  0.00    -0.237 OA
ATOM     99  O   UNL A   1      46.370  23.493  35.895  1.00  0.00    -0.744 OA
ENDBRANCH  92  96
ENDBRANCH  66  89
ENDBRANCH  40  41
ENDBRANCH  32  35
ENDBRANCH  30  31
ENDBRANCH  29  30
ENDBRANCH  28  29
ENDBRANCH   1  28
TORSDOF 19
ENDMDL
