MODEL 1
REMARK VINA RESULT:     -11.5      0.000      0.000
REMARK SMILES Cc1cc(C)cc([S@@](=O)Cc2ccc(C(=O)NCCCCCCNC(=O)c3ccc(-c4c5nc(c(-c6cc(S(=O)(=O)[O-])ccc6F)c6ccc([nH]6)c(-c6cc(S(=O)(=O)[O-])ccc6F)c6nc(c(-c7cc(S(=O)(=O)[O-])ccc7F)c7ccc4[nH]7)C=C6)C=C5)cc3)o2)c1
REMARK SMILES IDX 20 1 19 2 18 3 17 4 15 5 16 6 14 8 11 9 12 10 90 11 13 12
REMARK SMILES IDX 10 13 8 14 9 15 7 16 1 17 2 18 3 19 91 20 4 21 5 22 6 23
REMARK SMILES IDX 21 24 22 25 23 26 24 27 25 28 26 30 27 31 28 32 89 33 29 34
REMARK SMILES IDX 88 35 30 36 31 37 32 38 82 39 33 40 87 41 81 42 83 43 34 44
REMARK SMILES IDX 86 45 80 46 79 47 35 49 67 50 47 51 66 52 48 53 51 54 65 55
REMARK SMILES IDX 84 56 49 57 50 58 64 60 85 61 52 62 36 63 37 64 45 65 38 66
REMARK SMILES IDX 44 67 46 68 43 69 39 70 40 71 41 72 42 73 68 74 69 75 77 76
REMARK SMILES IDX 70 77 76 78 78 79 75 80 71 81 72 82 73 83 74 84 53 85 54 86
REMARK SMILES IDX 62 87 55 88 61 89 63 90 60 91 56 92 57 93 58 94 59 95
REMARK H PARENT 17 7 24 29 83 48 51 59
REMARK Flexibility Score: inf
ROOT
ATOM      1  C   UNL A   1      31.296  28.984  24.546  1.00  0.00     0.002 C 
ENDROOT
BRANCH   1   2
ATOM      2  C   UNL A   1      31.662  28.672  23.091  1.00  0.00     0.021 C 
BRANCH   2   3
ATOM      3  C   UNL A   1      33.145  28.330  22.916  1.00  0.00     0.116 C 
BRANCH   3   4
ATOM      4  N   UNL A   1      33.339  27.412  21.809  1.00  0.00    -0.349 N 
ATOM      5  C   UNL A   1      32.954  26.094  21.658  1.00  0.00     0.286 C 
ATOM      6  O   UNL A   1      33.191  25.575  20.571  1.00  0.00    -0.266 OA
ATOM      7  H   UNL A   1      33.825  27.790  21.041  1.00  0.00     0.163 HD
BRANCH   5   8
ATOM      8  C   UNL A   1      32.286  25.406  22.747  1.00  0.00     0.191 A 
ATOM      9  C   UNL A   1      32.229  24.348  24.707  1.00  0.00     0.117 A 
ATOM     10  C   UNL A   1      30.979  24.238  24.141  1.00  0.00     0.047 A 
ATOM     11  O   UNL A   1      33.035  25.050  23.847  1.00  0.00    -0.455 OA
ATOM     12  C   UNL A   1      30.982  25.018  22.973  1.00  0.00     0.056 A 
BRANCH   9  13
ATOM     13  C   UNL A   1      32.823  24.033  26.036  1.00  0.00     0.185 C 
BRANCH  13  14
ATOM     14  S   UNL A   1      32.363  22.505  26.891  1.00  0.00     0.061 S 
ATOM     15  O   UNL A   1      32.861  22.554  28.305  1.00  0.00    -0.254 OA
BRANCH  14  16
ATOM     16  C   UNL A   1      33.299  21.201  26.066  1.00  0.00     0.040 A 
ATOM     17  C   UNL A   1      32.724  18.083  23.977  1.00  0.00     0.044 C 
ATOM     18  C   UNL A   1      33.427  19.164  24.748  1.00  0.00    -0.050 A 
ATOM     19  C   UNL A   1      34.793  19.385  24.542  1.00  0.00     0.007 A 
ATOM     20  C   UNL A   1      32.712  20.021  25.600  1.00  0.00     0.021 A 
ATOM     21  C   UNL A   1      35.435  20.479  25.129  1.00  0.00    -0.050 A 
ATOM     22  C   UNL A   1      36.905  20.690  24.917  1.00  0.00     0.044 C 
ATOM     23  C   UNL A   1      34.672  21.399  25.858  1.00  0.00     0.021 A 
ENDBRANCH  14  16
ENDBRANCH  13  14
ENDBRANCH   9  13
ENDBRANCH   5   8
ENDBRANCH   3   4
ENDBRANCH   2   3
ENDBRANCH   1   2
BRANCH   1  24
ATOM     24  C   UNL A   1      31.537  27.823  25.520  1.00  0.00     0.002 C 
BRANCH  24  25
ATOM     25  C   UNL A   1      32.393  28.168  26.745  1.00  0.00     0.021 C 
BRANCH  25  26
ATOM     26  C   UNL A   1      33.702  28.883  26.420  1.00  0.00     0.116 C 
BRANCH  26  27
ATOM     27  N   UNL A   1      33.602  30.312  26.667  1.00  0.00    -0.352 N 
ATOM     28  C   UNL A   1      34.331  31.110  27.512  1.00  0.00     0.251 C 
ATOM     29  H   UNL A   1      32.907  30.777  26.149  1.00  0.00     0.163 HD
ATOM     30  O   UNL A   1      33.918  32.236  27.779  1.00  0.00    -0.269 OA
BRANCH  28  31
ATOM     31  C   UNL A   1      35.596  30.620  28.100  1.00  0.00     0.039 A 
ATOM     32  C   UNL A   1      35.538  29.786  29.219  1.00  0.00     0.014 A 
ATOM     33  C   UNL A   1      36.834  31.013  27.583  1.00  0.00     0.014 A 
ATOM     34  C   UNL A   1      36.719  29.307  29.789  1.00  0.00     0.010 A 
ATOM     35  C   UNL A   1      38.010  30.481  28.110  1.00  0.00     0.010 A 
ATOM     36  C   UNL A   1      37.965  29.627  29.223  1.00  0.00    -0.014 A 
BRANCH  36  37
ATOM     37  C   UNL A   1      39.219  29.066  29.786  1.00  0.00     0.031 A 
ATOM     38  C   UNL A   1      39.803  29.622  31.056  1.00  0.00     0.074 A 
ATOM     39  C   UNL A   1      39.853  28.078  29.124  1.00  0.00     0.049 A 
ATOM     40  N   UNL A   1      40.891  29.269  31.691  1.00  0.00    -0.248 NA
ATOM     41  C   UNL A   1      39.081  30.740  31.681  1.00  0.00     0.031 C 
ATOM     42  C   UNL A   1      39.410  27.495  27.855  1.00  0.00     0.029 A 
ATOM     43  N   UNL A   1      41.002  27.389  29.421  1.00  0.00    -0.354 N 
ATOM     44  C   UNL A   1      40.990  30.122  32.785  1.00  0.00     0.074 A 
ATOM     45  C   UNL A   1      39.884  31.051  32.688  1.00  0.00     0.031 C 
ATOM     46  C   UNL A   1      40.257  26.516  27.502  1.00  0.00     0.029 A 
ATOM     47  C   UNL A   1      41.324  26.427  28.492  1.00  0.00     0.049 A 
ATOM     48  H   UNL A   1      41.543  27.565  30.224  1.00  0.00     0.167 HD
ATOM     49  C   UNL A   1      41.903  30.115  33.788  1.00  0.00     0.034 A 
ATOM     50  C   UNL A   1      42.364  25.572  28.441  1.00  0.00     0.034 A 
ATOM     51  C   UNL A   1      42.995  29.174  33.870  1.00  0.00     0.049 A 
ATOM     52  C   UNL A   1      43.371  25.589  29.561  1.00  0.00     0.074 A 
ATOM     53  C   UNL A   1      43.943  29.038  34.870  1.00  0.00     0.029 A 
ATOM     54  N   UNL A   1      43.294  28.216  32.909  1.00  0.00    -0.354 N 
ATOM     55  N   UNL A   1      43.413  26.360  30.624  1.00  0.00    -0.248 NA
ATOM     56  C   UNL A   1      44.463  24.611  29.483  1.00  0.00     0.031 C 
ATOM     57  C   UNL A   1      44.852  28.047  34.481  1.00  0.00     0.029 A 
ATOM     58  C   UNL A   1      44.431  27.510  33.276  1.00  0.00     0.049 A 
ATOM     59  H   UNL A   1      42.775  28.060  32.087  1.00  0.00     0.167 HD
ATOM     60  C   UNL A   1      44.523  25.941  31.353  1.00  0.00     0.074 A 
ATOM     61  C   UNL A   1      45.106  24.836  30.619  1.00  0.00     0.031 C 
ATOM     62  C   UNL A   1      45.014  26.423  32.523  1.00  0.00     0.034 A 
BRANCH  49  63
ATOM     63  C   UNL A   1      41.769  31.174  34.859  1.00  0.00     0.023 A 
ATOM     64  C   UNL A   1      40.664  31.211  35.728  1.00  0.00     0.031 A 
ATOM     65  C   UNL A   1      42.748  32.174  35.001  1.00  0.00     0.131 A 
ATOM     66  C   UNL A   1      40.525  32.266  36.643  1.00  0.00     0.055 A 
ATOM     67  C   UNL A   1      42.645  33.175  35.970  1.00  0.00     0.041 A 
ATOM     68  F   UNL A   1      43.815  32.205  34.188  1.00  0.00    -0.206 F 
ATOM     69  C   UNL A   1      41.521  33.234  36.788  1.00  0.00     0.022 A 
BRANCH  66  70
ATOM     70  S   UNL A   1      38.955  32.437  37.536  1.00  0.00     0.124 S 
ATOM     71  O   UNL A   1      38.245  31.230  37.119  1.00  0.00    -0.237 OA
ATOM     72  O   UNL A   1      39.387  32.476  38.928  1.00  0.00    -0.237 OA
ATOM     73  O   UNL A   1      38.401  33.686  37.019  1.00  0.00    -0.744 OA
ENDBRANCH  66  70
ENDBRANCH  49  63
BRANCH  50  74
ATOM     74  C   UNL A   1      42.508  24.629  27.296  1.00  0.00     0.023 A 
ATOM     75  C   UNL A   1      41.973  23.332  27.352  1.00  0.00     0.031 A 
ATOM     76  C   UNL A   1      43.215  25.000  26.139  1.00  0.00     0.131 A 
ATOM     77  C   UNL A   1      42.190  22.439  26.292  1.00  0.00     0.055 A 
ATOM     78  C   UNL A   1      43.383  24.126  25.064  1.00  0.00     0.041 A 
ATOM     79  F   UNL A   1      43.741  26.231  26.030  1.00  0.00    -0.206 F 
ATOM     80  C   UNL A   1      42.881  22.831  25.143  1.00  0.00     0.022 A 
BRANCH  77  81
ATOM     81  S   UNL A   1      41.627  20.724  26.473  1.00  0.00     0.124 S 
ATOM     82  O   UNL A   1      42.400  20.046  25.439  1.00  0.00    -0.237 OA
ATOM     83  O   UNL A   1      42.000  20.428  27.852  1.00  0.00    -0.237 OA
ATOM     84  O   UNL A   1      40.190  20.811  26.223  1.00  0.00    -0.744 OA
ENDBRANCH  77  81
ENDBRANCH  50  74
BRANCH  62  85
ATOM     85  C   UNL A   1      46.229  25.728  33.089  1.00  0.00     0.023 A 
ATOM     86  C   UNL A   1      46.116  24.567  33.875  1.00  0.00     0.031 A 
ATOM     87  C   UNL A   1      47.515  26.249  32.863  1.00  0.00     0.131 A 
ATOM     88  C   UNL A   1      47.261  24.004  34.459  1.00  0.00     0.055 A 
ATOM     89  C   UNL A   1      48.657  25.647  33.391  1.00  0.00     0.041 A 
ATOM     90  F   UNL A   1      47.682  27.357  32.123  1.00  0.00    -0.206 F 
ATOM     91  C   UNL A   1      48.532  24.526  34.208  1.00  0.00     0.022 A 
BRANCH  88  92
ATOM     92  S   UNL A   1      47.054  22.639  35.636  1.00  0.00     0.124 S 
ATOM     93  O   UNL A   1      48.411  22.475  36.150  1.00  0.00    -0.237 OA
ATOM     94  O   UNL A   1      46.078  23.181  36.575  1.00  0.00    -0.237 OA
ATOM     95  O   UNL A   1      46.569  21.539  34.804  1.00  0.00    -0.744 OA
ENDBRANCH  88  92
ENDBRANCH  62  85
ENDBRANCH  36  37
ENDBRANCH  28  31
ENDBRANCH  26  27
ENDBRANCH  25  26
ENDBRANCH  24  25
ENDBRANCH   1  24
TORSDOF 19
ENDMDL
MODEL 2
REMARK VINA RESULT:     -11.4      1.703      2.258
REMARK SMILES Cc1cc(C)cc([S@@](=O)Cc2ccc(C(=O)NCCCCCCNC(=O)c3ccc(-c4c5nc(c(-c6cc(S(=O)(=O)[O-])ccc6F)c6ccc([nH]6)c(-c6cc(S(=O)(=O)[O-])ccc6F)c6nc(c(-c7cc(S(=O)(=O)[O-])ccc7F)c7ccc4[nH]7)C=C6)C=C5)cc3)o2)c1
REMARK SMILES IDX 20 1 19 2 18 3 17 4 15 5 16 6 14 8 11 9 12 10 90 11 13 12
REMARK SMILES IDX 10 13 8 14 9 15 7 16 1 17 2 18 3 19 91 20 4 21 5 22 6 23
REMARK SMILES IDX 21 24 22 25 23 26 24 27 25 28 26 30 27 31 28 32 89 33 29 34
REMARK SMILES IDX 88 35 30 36 31 37 32 38 82 39 33 40 87 41 81 42 83 43 34 44
REMARK SMILES IDX 86 45 80 46 79 47 35 49 67 50 47 51 66 52 48 53 51 54 65 55
REMARK SMILES IDX 84 56 49 57 50 58 64 60 85 61 52 62 36 63 37 64 45 65 38 66
REMARK SMILES IDX 44 67 46 68 43 69 39 70 40 71 41 72 42 73 68 74 69 75 77 76
REMARK SMILES IDX 70 77 76 78 78 79 75 80 71 81 72 82 73 83 74 84 53 85 54 86
REMARK SMILES IDX 62 87 55 88 61 89 63 90 60 91 56 92 57 93 58 94 59 95
REMARK H PARENT 17 7 24 29 83 48 51 59
REMARK Flexibility Score: inf
ROOT
ATOM      1  C   UNL A   1      31.556  29.208  24.764  1.00  0.00     0.002 C 
ENDROOT
BRANCH   1   2
ATOM      2  C   UNL A   1      31.723  28.495  23.418  1.00  0.00     0.021 C 
BRANCH   2   3
ATOM      3  C   UNL A   1      33.061  27.760  23.303  1.00  0.00     0.116 C 
BRANCH   3   4
ATOM      4  N   UNL A   1      33.227  27.189  21.979  1.00  0.00    -0.349 N 
ATOM      5  C   UNL A   1      32.836  25.965  21.473  1.00  0.00     0.286 C 
ATOM      6  O   UNL A   1      33.047  25.772  20.280  1.00  0.00    -0.266 OA
ATOM      7  H   UNL A   1      33.695  27.770  21.337  1.00  0.00     0.163 HD
BRANCH   5   8
ATOM      8  C   UNL A   1      32.192  24.996  22.342  1.00  0.00     0.191 A 
ATOM      9  C   UNL A   1      32.035  23.024  23.367  1.00  0.00     0.117 A 
ATOM     10  C   UNL A   1      30.850  23.692  23.573  1.00  0.00     0.047 A 
ATOM     11  O   UNL A   1      32.853  23.815  22.599  1.00  0.00    -0.455 OA
ATOM     12  C   UNL A   1      31.004  24.984  23.040  1.00  0.00     0.056 A 
BRANCH   9  13
ATOM     13  C   UNL A   1      32.655  21.776  23.893  1.00  0.00     0.185 C 
BRANCH  13  14
ATOM     14  S   UNL A   1      33.300  21.732  25.583  1.00  0.00     0.061 S 
ATOM     15  O   UNL A   1      32.900  22.985  26.305  1.00  0.00    -0.254 OA
BRANCH  14  16
ATOM     16  C   UNL A   1      35.096  21.798  25.406  1.00  0.00     0.040 A 
ATOM     17  C   UNL A   1      38.010  24.110  26.162  1.00  0.00     0.044 C 
ATOM     18  C   UNL A   1      37.232  22.924  25.667  1.00  0.00    -0.050 A 
ATOM     19  C   UNL A   1      37.897  21.723  25.399  1.00  0.00     0.007 A 
ATOM     20  C   UNL A   1      35.833  22.976  25.563  1.00  0.00     0.021 A 
ATOM     21  C   UNL A   1      37.178  20.565  25.086  1.00  0.00    -0.050 A 
ATOM     22  C   UNL A   1      37.906  19.289  24.779  1.00  0.00     0.044 C 
ATOM     23  C   UNL A   1      35.779  20.605  25.127  1.00  0.00     0.021 A 
ENDBRANCH  14  16
ENDBRANCH  13  14
ENDBRANCH   9  13
ENDBRANCH   5   8
ENDBRANCH   3   4
ENDBRANCH   2   3
ENDBRANCH   1   2
BRANCH   1  24
ATOM     24  C   UNL A   1      31.564  28.272  25.980  1.00  0.00     0.002 C 
BRANCH  24  25
ATOM     25  C   UNL A   1      32.518  28.678  27.109  1.00  0.00     0.021 C 
BRANCH  25  26
ATOM     26  C   UNL A   1      33.713  29.514  26.656  1.00  0.00     0.116 C 
BRANCH  26  27
ATOM     27  N   UNL A   1      33.639  30.871  27.172  1.00  0.00    -0.352 N 
ATOM     28  C   UNL A   1      34.396  31.485  28.137  1.00  0.00     0.251 C 
ATOM     29  H   UNL A   1      32.941  31.433  26.768  1.00  0.00     0.163 HD
ATOM     30  O   UNL A   1      34.006  32.544  28.623  1.00  0.00    -0.269 OA
BRANCH  28  31
ATOM     31  C   UNL A   1      35.666  30.879  28.592  1.00  0.00     0.039 A 
ATOM     32  C   UNL A   1      36.867  31.360  28.065  1.00  0.00     0.014 A 
ATOM     33  C   UNL A   1      35.676  29.813  29.498  1.00  0.00     0.014 A 
ATOM     34  C   UNL A   1      38.078  30.805  28.482  1.00  0.00     0.010 A 
ATOM     35  C   UNL A   1      36.888  29.307  29.964  1.00  0.00     0.010 A 
ATOM     36  C   UNL A   1      38.102  29.793  29.457  1.00  0.00    -0.014 A 
BRANCH  36  37
ATOM     37  C   UNL A   1      39.391  29.248  29.952  1.00  0.00     0.031 A 
ATOM     38  C   UNL A   1      40.075  29.864  31.143  1.00  0.00     0.074 A 
ATOM     39  C   UNL A   1      39.964  28.218  29.299  1.00  0.00     0.049 A 
ATOM     40  N   UNL A   1      41.206  29.531  31.711  1.00  0.00    -0.248 NA
ATOM     41  C   UNL A   1      39.412  31.023  31.759  1.00  0.00     0.031 C 
ATOM     42  C   UNL A   1      39.419  27.573  28.101  1.00  0.00     0.029 A 
ATOM     43  N   UNL A   1      41.126  27.531  29.545  1.00  0.00    -0.354 N 
ATOM     44  C   UNL A   1      41.395  30.441  32.746  1.00  0.00     0.074 A 
ATOM     45  C   UNL A   1      40.293  31.377  32.683  1.00  0.00     0.031 C 
ATOM     46  C   UNL A   1      40.228  26.565  27.738  1.00  0.00     0.029 A 
ATOM     47  C   UNL A   1      41.368  26.517  28.648  1.00  0.00     0.049 A 
ATOM     48  H   UNL A   1      41.729  27.743  30.293  1.00  0.00     0.167 HD
ATOM     49  C   UNL A   1      42.383  30.476  33.676  1.00  0.00     0.034 A 
ATOM     50  C   UNL A   1      42.393  25.647  28.564  1.00  0.00     0.034 A 
ATOM     51  C   UNL A   1      43.470  29.527  33.725  1.00  0.00     0.049 A 
ATOM     52  C   UNL A   1      43.484  25.712  29.602  1.00  0.00     0.074 A 
ATOM     53  C   UNL A   1      44.491  29.432  34.655  1.00  0.00     0.029 A 
ATOM     54  N   UNL A   1      43.686  28.514  32.798  1.00  0.00    -0.354 N 
ATOM     55  N   UNL A   1      43.614  26.538  30.614  1.00  0.00    -0.248 NA
ATOM     56  C   UNL A   1      44.558  24.717  29.493  1.00  0.00     0.031 C 
ATOM     57  C   UNL A   1      45.359  28.411  34.253  1.00  0.00     0.029 A 
ATOM     58  C   UNL A   1      44.842  27.815  33.115  1.00  0.00     0.049 A 
ATOM     59  H   UNL A   1      43.105  28.322  32.027  1.00  0.00     0.167 HD
ATOM     60  C   UNL A   1      44.773  26.145  31.278  1.00  0.00     0.074 A 
ATOM     61  C   UNL A   1      45.288  24.995  30.563  1.00  0.00     0.031 C 
ATOM     62  C   UNL A   1      45.357  26.683  32.380  1.00  0.00     0.034 A 
BRANCH  49  63
ATOM     63  C   UNL A   1      42.340  31.592  34.695  1.00  0.00     0.023 A 
ATOM     64  C   UNL A   1      41.396  31.606  35.736  1.00  0.00     0.031 A 
ATOM     65  C   UNL A   1      43.242  32.668  34.613  1.00  0.00     0.131 A 
ATOM     66  C   UNL A   1      41.322  32.708  36.603  1.00  0.00     0.055 A 
ATOM     67  C   UNL A   1      43.218  33.722  35.529  1.00  0.00     0.041 A 
ATOM     68  F   UNL A   1      44.154  32.722  33.629  1.00  0.00    -0.206 F 
ATOM     69  C   UNL A   1      42.244  33.754  36.522  1.00  0.00     0.022 A 
BRANCH  66  70
ATOM     70  S   UNL A   1      39.913  32.824  37.740  1.00  0.00     0.124 S 
ATOM     71  O   UNL A   1      40.563  32.631  39.035  1.00  0.00    -0.237 OA
ATOM     72  O   UNL A   1      39.404  34.164  37.474  1.00  0.00    -0.237 OA
ATOM     73  O   UNL A   1      39.043  31.729  37.320  1.00  0.00    -0.744 OA
ENDBRANCH  66  70
ENDBRANCH  49  63
BRANCH  50  74
ATOM     74  C   UNL A   1      42.442  24.642  27.464  1.00  0.00     0.023 A 
ATOM     75  C   UNL A   1      41.904  23.356  27.632  1.00  0.00     0.031 A 
ATOM     76  C   UNL A   1      43.058  24.944  26.237  1.00  0.00     0.131 A 
ATOM     77  C   UNL A   1      42.032  22.405  26.609  1.00  0.00     0.055 A 
ATOM     78  C   UNL A   1      43.136  24.011  25.201  1.00  0.00     0.041 A 
ATOM     79  F   UNL A   1      43.582  26.161  26.021  1.00  0.00    -0.206 F 
ATOM     80  C   UNL A   1      42.633  22.727  25.390  1.00  0.00     0.022 A 
BRANCH  77  81
ATOM     81  S   UNL A   1      41.473  20.709  26.926  1.00  0.00     0.124 S 
ATOM     82  O   UNL A   1      42.673  20.100  27.487  1.00  0.00    -0.237 OA
ATOM     83  O   UNL A   1      40.368  20.924  27.853  1.00  0.00    -0.237 OA
ATOM     84  O   UNL A   1      41.088  20.226  25.601  1.00  0.00    -0.744 OA
ENDBRANCH  77  81
ENDBRANCH  50  74
BRANCH  62  85
ATOM     85  C   UNL A   1      46.605  26.003  32.888  1.00  0.00     0.023 A 
ATOM     86  C   UNL A   1      47.885  26.380  32.443  1.00  0.00     0.031 A 
ATOM     87  C   UNL A   1      46.512  24.946  33.810  1.00  0.00     0.131 A 
ATOM     88  C   UNL A   1      49.013  25.664  32.869  1.00  0.00     0.055 A 
ATOM     89  C   UNL A   1      47.644  24.280  34.282  1.00  0.00     0.041 A 
ATOM     90  F   UNL A   1      45.316  24.541  34.267  1.00  0.00    -0.206 F 
ATOM     91  C   UNL A   1      48.903  24.628  33.799  1.00  0.00     0.022 A 
BRANCH  88  92
ATOM     92  S   UNL A   1      50.618  26.039  32.112  1.00  0.00     0.124 S 
ATOM     93  O   UNL A   1      50.976  24.757  31.511  1.00  0.00    -0.237 OA
ATOM     94  O   UNL A   1      50.282  27.108  31.179  1.00  0.00    -0.237 OA
ATOM     95  O   UNL A   1      51.446  26.444  33.246  1.00  0.00    -0.744 OA
ENDBRANCH  88  92
ENDBRANCH  62  85
ENDBRANCH  36  37
ENDBRANCH  28  31
ENDBRANCH  26  27
ENDBRANCH  25  26
ENDBRANCH  24  25
ENDBRANCH   1  24
TORSDOF 19
ENDMDL
MODEL 3
REMARK VINA RESULT:     -11.4      2.065      2.569
REMARK SMILES Cc1cc(C)cc([S@@](=O)Cc2ccc(C(=O)NCCCCCCNC(=O)c3ccc(-c4c5nc(c(-c6cc(S(=O)(=O)[O-])ccc6F)c6ccc([nH]6)c(-c6cc(S(=O)(=O)[O-])ccc6F)c6nc(c(-c7cc(S(=O)(=O)[O-])ccc7F)c7ccc4[nH]7)C=C6)C=C5)cc3)o2)c1
REMARK SMILES IDX 20 1 19 2 18 3 17 4 15 5 16 6 14 8 11 9 12 10 90 11 13 12
REMARK SMILES IDX 10 13 8 14 9 15 7 16 1 17 2 18 3 19 91 20 4 21 5 22 6 23
REMARK SMILES IDX 21 24 22 25 23 26 24 27 25 28 26 30 27 31 28 32 89 33 29 34
REMARK SMILES IDX 88 35 30 36 31 37 32 38 82 39 33 40 87 41 81 42 83 43 34 44
REMARK SMILES IDX 86 45 80 46 79 47 35 49 67 50 47 51 66 52 48 53 51 54 65 55
REMARK SMILES IDX 84 56 49 57 50 58 64 60 85 61 52 62 36 63 37 64 45 65 38 66
REMARK SMILES IDX 44 67 46 68 43 69 39 70 40 71 41 72 42 73 68 74 69 75 77 76
REMARK SMILES IDX 70 77 76 78 78 79 75 80 71 81 72 82 73 83 74 84 53 85 54 86
REMARK SMILES IDX 62 87 55 88 61 89 63 90 60 91 56 92 57 93 58 94 59 95
REMARK H PARENT 17 7 24 29 83 48 51 59
REMARK Flexibility Score: inf
ROOT
ATOM      1  C   UNL A   1      31.062  29.152  24.389  1.00  0.00     0.002 C 
ENDROOT
BRANCH   1   2
ATOM      2  C   UNL A   1      31.496  29.134  22.920  1.00  0.00     0.021 C 
BRANCH   2   3
ATOM      3  C   UNL A   1      32.987  28.832  22.749  1.00  0.00     0.116 C 
BRANCH   3   4
ATOM      4  N   UNL A   1      33.196  27.793  21.758  1.00  0.00    -0.349 N 
ATOM      5  C   UNL A   1      33.266  26.420  21.898  1.00  0.00     0.286 C 
ATOM      6  O   UNL A   1      33.381  25.769  20.864  1.00  0.00    -0.266 OA
ATOM      7  H   UNL A   1      33.307  28.119  20.837  1.00  0.00     0.163 HD
BRANCH   5   8
ATOM      8  C   UNL A   1      33.180  25.822  23.218  1.00  0.00     0.191 A 
ATOM      9  C   UNL A   1      32.112  24.791  24.879  1.00  0.00     0.117 A 
ATOM     10  C   UNL A   1      33.351  25.161  25.351  1.00  0.00     0.047 A 
ATOM     11  O   UNL A   1      32.000  25.210  23.577  1.00  0.00    -0.455 OA
ATOM     12  C   UNL A   1      34.068  25.689  24.264  1.00  0.00     0.056 A 
BRANCH   9  13
ATOM     13  C   UNL A   1      30.993  23.948  25.384  1.00  0.00     0.185 C 
BRANCH  13  14
ATOM     14  S   UNL A   1      31.337  22.568  26.504  1.00  0.00     0.061 S 
ATOM     15  O   UNL A   1      32.032  23.081  27.731  1.00  0.00    -0.254 OA
BRANCH  14  16
ATOM     16  C   UNL A   1      32.538  21.539  25.632  1.00  0.00     0.040 A 
ATOM     17  C   UNL A   1      36.288  20.986  25.424  1.00  0.00     0.044 C 
ATOM     18  C   UNL A   1      34.817  20.855  25.147  1.00  0.00    -0.050 A 
ATOM     19  C   UNL A   1      34.335  19.713  24.498  1.00  0.00     0.007 A 
ATOM     20  C   UNL A   1      33.909  21.815  25.618  1.00  0.00     0.021 A 
ATOM     21  C   UNL A   1      32.961  19.496  24.365  1.00  0.00    -0.050 A 
ATOM     22  C   UNL A   1      32.459  18.279  23.646  1.00  0.00     0.044 C 
ATOM     23  C   UNL A   1      32.073  20.396  24.967  1.00  0.00     0.021 A 
ENDBRANCH  14  16
ENDBRANCH  13  14
ENDBRANCH   9  13
ENDBRANCH   5   8
ENDBRANCH   3   4
ENDBRANCH   2   3
ENDBRANCH   1   2
BRANCH   1  24
ATOM     24  C   UNL A   1      32.061  28.495  25.351  1.00  0.00     0.002 C 
BRANCH  24  25
ATOM     25  C   UNL A   1      32.086  29.083  26.766  1.00  0.00     0.021 C 
BRANCH  25  26
ATOM     26  C   UNL A   1      33.475  29.473  27.264  1.00  0.00     0.116 C 
BRANCH  26  27
ATOM     27  N   UNL A   1      33.547  30.889  27.584  1.00  0.00    -0.352 N 
ATOM     28  C   UNL A   1      34.433  31.565  28.385  1.00  0.00     0.251 C 
ATOM     29  H   UNL A   1      32.856  31.448  27.163  1.00  0.00     0.163 HD
ATOM     30  O   UNL A   1      34.166  32.709  28.745  1.00  0.00    -0.269 OA
BRANCH  28  31
ATOM     31  C   UNL A   1      35.693  30.922  28.816  1.00  0.00     0.039 A 
ATOM     32  C   UNL A   1      36.894  31.348  28.244  1.00  0.00     0.014 A 
ATOM     33  C   UNL A   1      35.691  29.875  29.744  1.00  0.00     0.014 A 
ATOM     34  C   UNL A   1      38.097  30.759  28.638  1.00  0.00     0.010 A 
ATOM     35  C   UNL A   1      36.898  29.335  30.186  1.00  0.00     0.010 A 
ATOM     36  C   UNL A   1      38.113  29.766  29.633  1.00  0.00    -0.014 A 
BRANCH  36  37
ATOM     37  C   UNL A   1      39.396  29.184  30.103  1.00  0.00     0.031 A 
ATOM     38  C   UNL A   1      40.096  29.750  31.309  1.00  0.00     0.074 A 
ATOM     39  C   UNL A   1      39.949  28.168  29.412  1.00  0.00     0.049 A 
ATOM     40  N   UNL A   1      41.224  29.381  31.859  1.00  0.00    -0.248 NA
ATOM     41  C   UNL A   1      39.455  30.898  31.967  1.00  0.00     0.031 C 
ATOM     42  C   UNL A   1      39.388  27.572  28.197  1.00  0.00     0.029 A 
ATOM     43  N   UNL A   1      41.101  27.455  29.629  1.00  0.00    -0.354 N 
ATOM     44  C   UNL A   1      41.434  30.252  32.923  1.00  0.00     0.074 A 
ATOM     45  C   UNL A   1      40.346  31.207  32.898  1.00  0.00     0.031 C 
ATOM     46  C   UNL A   1      40.179  26.564  27.796  1.00  0.00     0.029 A 
ATOM     47  C   UNL A   1      41.322  26.468  28.697  1.00  0.00     0.049 A 
ATOM     48  H   UNL A   1      41.711  27.633  30.380  1.00  0.00     0.167 HD
ATOM     49  C   UNL A   1      42.427  30.241  33.847  1.00  0.00     0.034 A 
ATOM     50  C   UNL A   1      42.333  25.585  28.579  1.00  0.00     0.034 A 
ATOM     51  C   UNL A   1      43.499  29.274  33.858  1.00  0.00     0.049 A 
ATOM     52  C   UNL A   1      43.431  25.598  29.611  1.00  0.00     0.074 A 
ATOM     53  C   UNL A   1      44.523  29.133  34.780  1.00  0.00     0.029 A 
ATOM     54  N   UNL A   1      43.694  28.290  32.898  1.00  0.00    -0.354 N 
ATOM     55  N   UNL A   1      43.579  26.389  30.650  1.00  0.00    -0.248 NA
ATOM     56  C   UNL A   1      44.488  24.591  29.464  1.00  0.00     0.031 C 
ATOM     57  C   UNL A   1      45.373  28.112  34.339  1.00  0.00     0.029 A 
ATOM     58  C   UNL A   1      44.840  27.562  33.185  1.00  0.00     0.049 A 
ATOM     59  H   UNL A   1      43.105  28.132  32.124  1.00  0.00     0.167 HD
ATOM     60  C   UNL A   1      44.735  25.955  31.294  1.00  0.00     0.074 A 
ATOM     61  C   UNL A   1      45.228  24.822  30.538  1.00  0.00     0.031 C 
ATOM     62  C   UNL A   1      45.333  26.447  32.409  1.00  0.00     0.034 A 
BRANCH  49  63
ATOM     63  C   UNL A   1      42.407  31.323  34.903  1.00  0.00     0.023 A 
ATOM     64  C   UNL A   1      43.090  32.540  34.727  1.00  0.00     0.031 A 
ATOM     65  C   UNL A   1      41.715  31.129  36.112  1.00  0.00     0.131 A 
ATOM     66  C   UNL A   1      43.132  33.479  35.769  1.00  0.00     0.055 A 
ATOM     67  C   UNL A   1      41.692  32.103  37.113  1.00  0.00     0.041 A 
ATOM     68  F   UNL A   1      41.062  29.980  36.348  1.00  0.00    -0.206 F 
ATOM     69  C   UNL A   1      42.415  33.280  36.951  1.00  0.00     0.022 A 
BRANCH  66  70
ATOM     70  S   UNL A   1      44.256  34.895  35.615  1.00  0.00     0.124 S 
ATOM     71  O   UNL A   1      43.910  35.676  36.802  1.00  0.00    -0.237 OA
ATOM     72  O   UNL A   1      45.567  34.259  35.628  1.00  0.00    -0.237 OA
ATOM     73  O   UNL A   1      43.868  35.504  34.345  1.00  0.00    -0.744 OA
ENDBRANCH  66  70
ENDBRANCH  49  63
BRANCH  50  74
ATOM     74  C   UNL A   1      42.360  24.617  27.446  1.00  0.00     0.023 A 
ATOM     75  C   UNL A   1      41.635  23.416  27.501  1.00  0.00     0.031 A 
ATOM     76  C   UNL A   1      43.140  24.864  26.303  1.00  0.00     0.131 A 
ATOM     77  C   UNL A   1      41.739  22.488  26.454  1.00  0.00     0.055 A 
ATOM     78  C   UNL A   1      43.199  23.961  25.240  1.00  0.00     0.041 A 
ATOM     79  F   UNL A   1      43.848  26.000  26.196  1.00  0.00    -0.206 F 
ATOM     80  C   UNL A   1      42.506  22.757  25.319  1.00  0.00     0.022 A 
BRANCH  77  81
ATOM     81  S   UNL A   1      40.920  20.879  26.637  1.00  0.00     0.124 S 
ATOM     82  O   UNL A   1      39.647  21.114  25.966  1.00  0.00    -0.237 OA
ATOM     83  O   UNL A   1      41.851  19.988  25.953  1.00  0.00    -0.237 OA
ATOM     84  O   UNL A   1      40.841  20.701  28.085  1.00  0.00    -0.744 OA
ENDBRANCH  77  81
ENDBRANCH  50  74
BRANCH  62  85
ATOM     85  C   UNL A   1      46.573  25.732  32.888  1.00  0.00     0.023 A 
ATOM     86  C   UNL A   1      47.825  25.937  32.280  1.00  0.00     0.031 A 
ATOM     87  C   UNL A   1      46.497  24.811  33.948  1.00  0.00     0.131 A 
ATOM     88  C   UNL A   1      48.935  25.185  32.694  1.00  0.00     0.055 A 
ATOM     89  C   UNL A   1      47.618  24.114  34.399  1.00  0.00     0.041 A 
ATOM     90  F   UNL A   1      45.327  24.573  34.563  1.00  0.00    -0.206 F 
ATOM     91  C   UNL A   1      48.844  24.288  33.761  1.00  0.00     0.022 A 
BRANCH  88  92
ATOM     92  S   UNL A   1      50.478  25.321  31.749  1.00  0.00     0.124 S 
ATOM     93  O   UNL A   1      50.897  23.926  31.652  1.00  0.00    -0.237 OA
ATOM     94  O   UNL A   1      50.030  25.940  30.506  1.00  0.00    -0.237 OA
ATOM     95  O   UNL A   1      51.322  26.165  32.592  1.00  0.00    -0.744 OA
ENDBRANCH  88  92
ENDBRANCH  62  85
ENDBRANCH  36  37
ENDBRANCH  28  31
ENDBRANCH  26  27
ENDBRANCH  25  26
ENDBRANCH  24  25
ENDBRANCH   1  24
TORSDOF 19
ENDMDL
