MODEL 1
REMARK VINA RESULT:     -12.3      0.000      0.000
REMARK SMILES C[NH+]1CCN(c2nc3c(cc2F)c(=O)c(C(=O)NCCCCCCNC(=O)c2ccc(-c4c5nc(c(-c6cc(S(=O)(=O)[O-])ccc6F)c6ccc([nH]6)c(-c6cc(S(=O)(=O)[O-])ccc6F)c6nc(c(-c7cc(S(=O)(=O)[O-])ccc7F)c7ccc4[nH]7)C=C6)C=C5)cc2)cn3-c2ccc(F)cc2F)CC1
REMARK SMILES IDX 22 1 21 2 20 3 19 4 18 5 16 6 17 7 15 9 6 10 7 11 11 12 8 13
REMARK SMILES IDX 10 14 12 15 9 16 92 17 13 18 91 19 14 20 5 21 1 22 2 23 3 24
REMARK SMILES IDX 102 25 4 27 101 28 93 29 94 30 99 31 95 32 98 33 100 34
REMARK SMILES IDX 96 35 97 36 23 37 24 38 25 39 26 40 27 42 28 43 29 44 90 45
REMARK SMILES IDX 30 46 89 47 31 48 32 49 33 50 83 51 34 52 88 53 82 54 84 55
REMARK SMILES IDX 35 56 87 57 81 58 80 59 36 61 68 62 48 63 67 64 49 65 52 66
REMARK SMILES IDX 66 67 85 68 50 69 51 70 65 72 86 73 53 74 37 75 38 76 46 77
REMARK SMILES IDX 39 78 45 79 47 80 44 81 40 82 41 83 42 84 43 85 69 86 70 87
REMARK SMILES IDX 78 88 71 89 77 90 79 91 76 92 72 93 73 94 74 95 75 96 54 97
REMARK SMILES IDX 55 98 63 99 56 100 62 101 64 102 61 103 57 104 58 105 59 106
REMARK SMILES IDX 60 107
REMARK H PARENT 18 8 2 26 25 41 84 60 52 71
REMARK Flexibility Score: inf
ROOT
ATOM      1  C   UNL A   1      31.870  26.767  26.447  1.00  0.00     0.002 C 
ENDROOT
BRANCH   1   2
ATOM      2  C   UNL A   1      30.665  26.728  25.499  1.00  0.00     0.002 C 
BRANCH   2   3
ATOM      3  C   UNL A   1      30.928  27.292  24.099  1.00  0.00     0.021 C 
BRANCH   3   4
ATOM      4  C   UNL A   1      32.405  27.580  23.819  1.00  0.00     0.116 C 
BRANCH   4   5
ATOM      5  N   UNL A   1      32.735  27.252  22.443  1.00  0.00    -0.352 N 
ATOM      6  C   UNL A   1      33.128  26.093  21.853  1.00  0.00     0.256 C 
ATOM      7  O   UNL A   1      33.356  26.143  20.639  1.00  0.00    -0.269 OA
ATOM      8  H   UNL A   1      32.662  28.012  21.822  1.00  0.00     0.163 HD
BRANCH   6   9
ATOM      9  C   UNL A   1      33.204  24.793  22.573  1.00  0.00     0.104 A 
ATOM     10  C   UNL A   1      33.378  19.988  24.204  1.00  0.00     0.167 A 
ATOM     11  N   UNL A   1      34.136  21.088  24.440  1.00  0.00    -0.209 NA
ATOM     12  C   UNL A   1      32.241  20.056  23.392  1.00  0.00     0.166 A 
ATOM     13  C   UNL A   1      33.799  22.271  23.863  1.00  0.00     0.151 A 
ATOM     14  C   UNL A   1      31.839  21.271  22.864  1.00  0.00     0.059 A 
ATOM     15  F   UNL A   1      31.482  18.972  23.174  1.00  0.00    -0.203 F 
ATOM     16  C   UNL A   1      32.625  22.392  23.117  1.00  0.00     0.069 A 
ATOM     17  N   UNL A   1      34.639  23.423  24.015  1.00  0.00    -0.297 N 
ATOM     18  C   UNL A   1      32.187  23.723  22.663  1.00  0.00     0.203 A 
ATOM     19  C   UNL A   1      34.316  24.571  23.298  1.00  0.00     0.111 A 
ATOM     20  O   UNL A   1      30.997  23.902  22.440  1.00  0.00    -0.288 OA
BRANCH  10  21
ATOM     21  N   UNL A   1      33.751  18.827  24.828  1.00  0.00    -0.343 N 
ATOM     22  C   UNL A   1      32.905  14.694  25.327  1.00  0.00     0.332 C 
ATOM     23  N   UNL A   1      33.508  16.018  25.468  1.00  0.00    -0.334 N 
ATOM     24  C   UNL A   1      32.504  17.008  25.926  1.00  0.00     0.283 C 
ATOM     25  C   UNL A   1      34.065  16.463  24.165  1.00  0.00     0.283 C 
ATOM     26  H   UNL A   1      34.254  15.954  26.161  1.00  0.00     0.347 HD
ATOM     27  C   UNL A   1      33.094  18.435  26.070  1.00  0.00     0.179 C 
ATOM     28  C   UNL A   1      34.685  17.875  24.233  1.00  0.00     0.179 C 
ENDBRANCH  10  21
BRANCH  17  29
ATOM     29  C   UNL A   1      35.833  23.400  24.799  1.00  0.00     0.083 A 
ATOM     30  C   UNL A   1      35.878  24.002  26.067  1.00  0.00     0.033 A 
ATOM     31  C   UNL A   1      36.997  22.766  24.327  1.00  0.00     0.150 A 
ATOM     32  C   UNL A   1      37.046  23.960  26.834  1.00  0.00     0.041 A 
ATOM     33  C   UNL A   1      38.167  22.734  25.077  1.00  0.00     0.080 A 
ATOM     34  F   UNL A   1      37.004  22.191  23.114  1.00  0.00    -0.205 F 
ATOM     35  C   UNL A   1      38.178  23.331  26.329  1.00  0.00     0.126 A 
ATOM     36  F   UNL A   1      39.299  23.300  27.063  1.00  0.00    -0.207 F 
ENDBRANCH  17  29
ENDBRANCH   6   9
ENDBRANCH   4   5
ENDBRANCH   3   4
ENDBRANCH   2   3
ENDBRANCH   1   2
BRANCH   1  37
ATOM     37  C   UNL A   1      32.087  28.099  27.170  1.00  0.00     0.021 C 
BRANCH  37  38
ATOM     38  C   UNL A   1      33.534  28.587  27.169  1.00  0.00     0.116 C 
BRANCH  38  39
ATOM     39  N   UNL A   1      33.600  30.041  27.166  1.00  0.00    -0.352 N 
ATOM     40  C   UNL A   1      34.539  30.854  27.748  1.00  0.00     0.251 C 
ATOM     41  H   UNL A   1      32.877  30.501  26.682  1.00  0.00     0.163 HD
ATOM     42  O   UNL A   1      34.330  32.057  27.878  1.00  0.00    -0.269 OA
BRANCH  40  43
ATOM     43  C   UNL A   1      35.808  30.264  28.219  1.00  0.00     0.039 A 
ATOM     44  C   UNL A   1      36.923  30.271  27.378  1.00  0.00     0.014 A 
ATOM     45  C   UNL A   1      35.883  29.701  29.497  1.00  0.00     0.014 A 
ATOM     46  C   UNL A   1      38.132  29.747  27.836  1.00  0.00     0.010 A 
ATOM     47  C   UNL A   1      37.101  29.222  29.970  1.00  0.00     0.010 A 
ATOM     48  C   UNL A   1      38.232  29.231  29.139  1.00  0.00    -0.014 A 
BRANCH  48  49
ATOM     49  C   UNL A   1      39.508  28.672  29.645  1.00  0.00     0.031 A 
ATOM     50  C   UNL A   1      40.158  29.278  30.855  1.00  0.00     0.074 A 
ATOM     51  C   UNL A   1      40.105  27.664  28.983  1.00  0.00     0.049 A 
ATOM     52  N   UNL A   1      41.282  28.950  31.436  1.00  0.00    -0.248 NA
ATOM     53  C   UNL A   1      39.463  30.412  31.487  1.00  0.00     0.031 C 
ATOM     54  C   UNL A   1      39.586  27.032  27.770  1.00  0.00     0.029 A 
ATOM     55  N   UNL A   1      41.283  27.003  29.226  1.00  0.00    -0.354 N 
ATOM     56  C   UNL A   1      41.431  29.834  32.497  1.00  0.00     0.074 A 
ATOM     57  C   UNL A   1      40.311  30.747  32.448  1.00  0.00     0.031 C 
ATOM     58  C   UNL A   1      40.435  26.067  27.381  1.00  0.00     0.029 A 
ATOM     59  C   UNL A   1      41.572  26.029  28.301  1.00  0.00     0.049 A 
ATOM     60  H   UNL A   1      41.867  27.208  29.992  1.00  0.00     0.167 HD
ATOM     61  C   UNL A   1      42.400  29.863  33.440  1.00  0.00     0.034 A 
ATOM     62  C   UNL A   1      42.629  25.197  28.203  1.00  0.00     0.034 A 
ATOM     63  C   UNL A   1      43.500  28.937  33.486  1.00  0.00     0.049 A 
ATOM     64  C   UNL A   1      43.698  25.247  29.267  1.00  0.00     0.074 A 
ATOM     65  C   UNL A   1      44.501  28.848  34.436  1.00  0.00     0.029 A 
ATOM     66  N   UNL A   1      43.745  27.945  32.549  1.00  0.00    -0.354 N 
ATOM     67  N   UNL A   1      43.773  26.024  30.321  1.00  0.00    -0.248 NA
ATOM     68  C   UNL A   1      44.816  24.301  29.140  1.00  0.00     0.031 C 
ATOM     69  C   UNL A   1      45.376  27.830  34.052  1.00  0.00     0.029 A 
ATOM     70  C   UNL A   1      44.893  27.250  32.888  1.00  0.00     0.049 A 
ATOM     71  H   UNL A   1      43.186  27.762  31.760  1.00  0.00     0.167 HD
ATOM     72  C   UNL A   1      44.928  25.644  30.998  1.00  0.00     0.074 A 
ATOM     73  C   UNL A   1      45.514  24.558  30.239  1.00  0.00     0.031 C 
ATOM     74  C   UNL A   1      45.456  26.152  32.139  1.00  0.00     0.034 A 
BRANCH  61  75
ATOM     75  C   UNL A   1      42.310  30.901  34.526  1.00  0.00     0.023 A 
ATOM     76  C   UNL A   1      42.936  32.149  34.366  1.00  0.00     0.031 A 
ATOM     77  C   UNL A   1      41.699  30.610  35.759  1.00  0.00     0.131 A 
ATOM     78  C   UNL A   1      42.961  33.053  35.436  1.00  0.00     0.055 A 
ATOM     79  C   UNL A   1      41.697  31.527  36.809  1.00  0.00     0.041 A 
ATOM     80  F   UNL A   1      41.086  29.430  35.954  1.00  0.00    -0.206 F 
ATOM     81  C   UNL A   1      42.339  32.752  36.653  1.00  0.00     0.022 A 
BRANCH  78  82
ATOM     82  S   UNL A   1      43.827  34.640  35.301  1.00  0.00     0.124 S 
ATOM     83  O   UNL A   1      42.895  35.551  35.962  1.00  0.00    -0.237 OA
ATOM     84  O   UNL A   1      45.063  34.374  36.030  1.00  0.00    -0.237 OA
ATOM     85  O   UNL A   1      43.970  34.839  33.863  1.00  0.00    -0.744 OA
ENDBRANCH  78  82
ENDBRANCH  61  75
BRANCH  62  86
ATOM     86  C   UNL A   1      42.673  24.205  27.093  1.00  0.00     0.023 A 
ATOM     87  C   UNL A   1      42.100  22.928  27.234  1.00  0.00     0.031 A 
ATOM     88  C   UNL A   1      43.381  24.489  25.913  1.00  0.00     0.131 A 
ATOM     89  C   UNL A   1      42.289  21.967  26.232  1.00  0.00     0.055 A 
ATOM     90  C   UNL A   1      43.517  23.546  24.892  1.00  0.00     0.041 A 
ATOM     91  F   UNL A   1      43.955  25.689  25.741  1.00  0.00    -0.206 F 
ATOM     92  C   UNL A   1      42.980  22.274  25.055  1.00  0.00     0.022 A 
BRANCH  89  93
ATOM     93  S   UNL A   1      41.725  20.258  26.462  1.00  0.00     0.124 S 
ATOM     94  O   UNL A   1      42.272  19.926  27.775  1.00  0.00    -0.237 OA
ATOM     95  O   UNL A   1      40.275  20.414  26.405  1.00  0.00    -0.237 OA
ATOM     96  O   UNL A   1      42.319  19.543  25.336  1.00  0.00    -0.744 OA
ENDBRANCH  89  93
ENDBRANCH  62  86
BRANCH  74  97
ATOM     97  C   UNL A   1      46.729  25.553  32.678  1.00  0.00     0.023 A 
ATOM     98  C   UNL A   1      46.669  24.555  33.670  1.00  0.00     0.031 A 
ATOM     99  C   UNL A   1      47.985  26.082  32.337  1.00  0.00     0.131 A 
ATOM    100  C   UNL A   1      47.841  24.149  34.319  1.00  0.00     0.055 A 
ATOM    101  C   UNL A   1      49.155  25.645  32.959  1.00  0.00     0.041 A 
ATOM    102  F   UNL A   1      48.088  27.043  31.405  1.00  0.00    -0.206 F 
ATOM    103  C   UNL A   1      49.084  24.684  33.964  1.00  0.00     0.022 A 
BRANCH 100 104
ATOM    104  S   UNL A   1      47.788  22.969  35.696  1.00  0.00     0.124 S 
ATOM    105  O   UNL A   1      46.526  23.317  36.345  1.00  0.00    -0.237 OA
ATOM    106  O   UNL A   1      47.799  21.686  35.001  1.00  0.00    -0.237 OA
ATOM    107  O   UNL A   1      48.986  23.278  36.470  1.00  0.00    -0.744 OA
ENDBRANCH 100 104
ENDBRANCH  74  97
ENDBRANCH  48  49
ENDBRANCH  40  43
ENDBRANCH  38  39
ENDBRANCH  37  38
ENDBRANCH   1  37
TORSDOF 18
ENDMDL
MODEL 2
REMARK VINA RESULT:     -11.6      2.822      3.369
REMARK SMILES C[NH+]1CCN(c2nc3c(cc2F)c(=O)c(C(=O)NCCCCCCNC(=O)c2ccc(-c4c5nc(c(-c6cc(S(=O)(=O)[O-])ccc6F)c6ccc([nH]6)c(-c6cc(S(=O)(=O)[O-])ccc6F)c6nc(c(-c7cc(S(=O)(=O)[O-])ccc7F)c7ccc4[nH]7)C=C6)C=C5)cc2)cn3-c2ccc(F)cc2F)CC1
REMARK SMILES IDX 22 1 21 2 20 3 19 4 18 5 16 6 17 7 15 9 6 10 7 11 11 12 8 13
REMARK SMILES IDX 10 14 12 15 9 16 92 17 13 18 91 19 14 20 5 21 1 22 2 23 3 24
REMARK SMILES IDX 102 25 4 27 101 28 93 29 94 30 99 31 95 32 98 33 100 34
REMARK SMILES IDX 96 35 97 36 23 37 24 38 25 39 26 40 27 42 28 43 29 44 90 45
REMARK SMILES IDX 30 46 89 47 31 48 32 49 33 50 83 51 34 52 88 53 82 54 84 55
REMARK SMILES IDX 35 56 87 57 81 58 80 59 36 61 68 62 48 63 67 64 49 65 52 66
REMARK SMILES IDX 66 67 85 68 50 69 51 70 65 72 86 73 53 74 37 75 38 76 46 77
REMARK SMILES IDX 39 78 45 79 47 80 44 81 40 82 41 83 42 84 43 85 69 86 70 87
REMARK SMILES IDX 78 88 71 89 77 90 79 91 76 92 72 93 73 94 74 95 75 96 54 97
REMARK SMILES IDX 55 98 63 99 56 100 62 101 64 102 61 103 57 104 58 105 59 106
REMARK SMILES IDX 60 107
REMARK H PARENT 18 8 2 26 25 41 84 60 52 71
REMARK Flexibility Score: inf
ROOT
ATOM      1  C   UNL A   1      31.719  27.264  26.953  1.00  0.00     0.002 C 
ENDROOT
BRANCH   1   2
ATOM      2  C   UNL A   1      31.087  26.886  25.608  1.00  0.00     0.002 C 
BRANCH   2   3
ATOM      3  C   UNL A   1      31.522  27.757  24.424  1.00  0.00     0.021 C 
BRANCH   3   4
ATOM      4  C   UNL A   1      32.995  27.593  24.048  1.00  0.00     0.116 C 
BRANCH   4   5
ATOM      5  N   UNL A   1      33.127  27.257  22.642  1.00  0.00    -0.352 N 
ATOM      6  C   UNL A   1      33.348  26.077  22.006  1.00  0.00     0.256 C 
ATOM      7  O   UNL A   1      33.429  26.123  20.773  1.00  0.00    -0.269 OA
ATOM      8  H   UNL A   1      33.042  28.027  22.036  1.00  0.00     0.163 HD
BRANCH   6   9
ATOM      9  C   UNL A   1      33.403  24.766  22.709  1.00  0.00     0.104 A 
ATOM     10  C   UNL A   1      33.478  19.938  24.278  1.00  0.00     0.167 A 
ATOM     11  N   UNL A   1      34.271  21.014  24.510  1.00  0.00    -0.209 NA
ATOM     12  C   UNL A   1      32.326  20.048  23.493  1.00  0.00     0.166 A 
ATOM     13  C   UNL A   1      33.955  22.212  23.955  1.00  0.00     0.151 A 
ATOM     14  C   UNL A   1      31.946  21.280  22.989  1.00  0.00     0.059 A 
ATOM     15  F   UNL A   1      31.531  18.989  23.279  1.00  0.00    -0.203 F 
ATOM     16  C   UNL A   1      32.769  22.376  23.237  1.00  0.00     0.069 A 
ATOM     17  N   UNL A   1      34.831  23.338  24.101  1.00  0.00    -0.297 N 
ATOM     18  C   UNL A   1      32.359  23.724  22.809  1.00  0.00     0.203 A 
ATOM     19  C   UNL A   1      34.525  24.504  23.405  1.00  0.00     0.111 A 
ATOM     20  O   UNL A   1      31.170  23.939  22.615  1.00  0.00    -0.288 OA
BRANCH  10  21
ATOM     21  N   UNL A   1      33.832  18.759  24.880  1.00  0.00    -0.343 N 
ATOM     22  C   UNL A   1      32.916  14.633  25.304  1.00  0.00     0.332 C 
ATOM     23  N   UNL A   1      33.541  15.944  25.468  1.00  0.00    -0.334 N 
ATOM     24  C   UNL A   1      32.556  16.942  25.946  1.00  0.00     0.283 C 
ATOM     25  C   UNL A   1      34.104  16.403  24.172  1.00  0.00     0.283 C 
ATOM     26  H   UNL A   1      34.288  15.854  26.158  1.00  0.00     0.347 HD
ATOM     27  C   UNL A   1      33.171  18.356  26.115  1.00  0.00     0.179 C 
ATOM     28  C   UNL A   1      34.748  17.802  24.265  1.00  0.00     0.179 C 
ENDBRANCH  10  21
BRANCH  17  29
ATOM     29  C   UNL A   1      36.041  23.272  24.857  1.00  0.00     0.083 A 
ATOM     30  C   UNL A   1      36.195  24.009  26.043  1.00  0.00     0.033 A 
ATOM     31  C   UNL A   1      37.111  22.460  24.441  1.00  0.00     0.150 A 
ATOM     32  C   UNL A   1      37.376  23.926  26.785  1.00  0.00     0.041 A 
ATOM     33  C   UNL A   1      38.296  22.383  25.165  1.00  0.00     0.080 A 
ATOM     34  F   UNL A   1      37.014  21.750  23.306  1.00  0.00    -0.205 F 
ATOM     35  C   UNL A   1      38.415  23.117  26.336  1.00  0.00     0.126 A 
ATOM     36  F   UNL A   1      39.549  23.046  27.045  1.00  0.00    -0.207 F 
ENDBRANCH  17  29
ENDBRANCH   6   9
ENDBRANCH   4   5
ENDBRANCH   3   4
ENDBRANCH   2   3
ENDBRANCH   1   2
BRANCH   1  37
ATOM     37  C   UNL A   1      31.851  28.768  27.211  1.00  0.00     0.021 C 
BRANCH  37  38
ATOM     38  C   UNL A   1      33.276  29.303  27.098  1.00  0.00     0.116 C 
BRANCH  38  39
ATOM     39  N   UNL A   1      33.283  30.743  26.884  1.00  0.00    -0.352 N 
ATOM     40  C   UNL A   1      34.082  31.690  27.474  1.00  0.00     0.251 C 
ATOM     41  H   UNL A   1      32.630  31.082  26.230  1.00  0.00     0.163 HD
ATOM     42  O   UNL A   1      33.805  32.883  27.386  1.00  0.00    -0.269 OA
BRANCH  40  43
ATOM     43  C   UNL A   1      35.279  31.256  28.220  1.00  0.00     0.039 A 
ATOM     44  C   UNL A   1      36.380  32.111  28.308  1.00  0.00     0.014 A 
ATOM     45  C   UNL A   1      35.305  29.996  28.827  1.00  0.00     0.014 A 
ATOM     46  C   UNL A   1      37.498  31.717  29.044  1.00  0.00     0.010 A 
ATOM     47  C   UNL A   1      36.401  29.625  29.599  1.00  0.00     0.010 A 
ATOM     48  C   UNL A   1      37.510  30.477  29.705  1.00  0.00    -0.014 A 
BRANCH  48  49
ATOM     49  C   UNL A   1      38.688  30.042  30.492  1.00  0.00     0.031 A 
ATOM     50  C   UNL A   1      38.901  30.588  31.874  1.00  0.00     0.074 A 
ATOM     51  C   UNL A   1      39.587  29.205  29.943  1.00  0.00     0.049 A 
ATOM     52  N   UNL A   1      39.878  30.352  32.710  1.00  0.00    -0.248 NA
ATOM     53  C   UNL A   1      37.896  31.539  32.378  1.00  0.00     0.031 C 
ATOM     54  C   UNL A   1      39.503  28.650  28.592  1.00  0.00     0.029 A 
ATOM     55  N   UNL A   1      40.755  28.687  30.445  1.00  0.00    -0.354 N 
ATOM     56  C   UNL A   1      39.608  31.122  33.834  1.00  0.00     0.074 A 
ATOM     57  C   UNL A   1      38.405  31.875  33.554  1.00  0.00     0.031 C 
ATOM     58  C   UNL A   1      40.567  27.860  28.376  1.00  0.00     0.029 A 
ATOM     59  C   UNL A   1      41.422  27.871  29.563  1.00  0.00     0.049 A 
ATOM     60  H   UNL A   1      41.083  28.880  31.353  1.00  0.00     0.167 HD
ATOM     61  C   UNL A   1      40.286  31.174  35.003  1.00  0.00     0.034 A 
ATOM     62  C   UNL A   1      42.589  27.207  29.692  1.00  0.00     0.034 A 
ATOM     63  C   UNL A   1      41.472  30.406  35.275  1.00  0.00     0.049 A 
ATOM     64  C   UNL A   1      43.329  27.280  31.005  1.00  0.00     0.074 A 
ATOM     65  C   UNL A   1      42.199  30.346  36.451  1.00  0.00     0.029 A 
ATOM     66  N   UNL A   1      42.104  29.570  34.369  1.00  0.00    -0.354 N 
ATOM     67  N   UNL A   1      43.007  27.935  32.095  1.00  0.00    -0.248 NA
ATOM     68  C   UNL A   1      44.579  26.514  31.115  1.00  0.00     0.031 C 
ATOM     69  C   UNL A   1      43.294  29.506  36.242  1.00  0.00     0.029 A 
ATOM     70  C   UNL A   1      43.224  29.002  34.952  1.00  0.00     0.049 A 
ATOM     71  H   UNL A   1      41.802  29.403  33.446  1.00  0.00     0.167 HD
ATOM     72  C   UNL A   1      43.997  27.640  33.028  1.00  0.00     0.074 A 
ATOM     73  C   UNL A   1      44.923  26.736  32.377  1.00  0.00     0.031 C 
ATOM     74  C   UNL A   1      44.127  28.083  34.303  1.00  0.00     0.034 A 
BRANCH  61  75
ATOM     75  C   UNL A   1      39.757  32.060  36.098  1.00  0.00     0.023 A 
ATOM     76  C   UNL A   1      38.814  31.565  37.016  1.00  0.00     0.031 A 
ATOM     77  C   UNL A   1      40.105  33.421  36.163  1.00  0.00     0.131 A 
ATOM     78  C   UNL A   1      38.228  32.436  37.944  1.00  0.00     0.055 A 
ATOM     79  C   UNL A   1      39.544  34.276  37.112  1.00  0.00     0.041 A 
ATOM     80  F   UNL A   1      41.005  33.936  35.309  1.00  0.00    -0.206 F 
ATOM     81  C   UNL A   1      38.594  33.785  38.001  1.00  0.00     0.022 A 
BRANCH  78  82
ATOM     82  S   UNL A   1      36.948  31.858  39.090  1.00  0.00     0.124 S 
ATOM     83  O   UNL A   1      36.858  30.439  38.753  1.00  0.00    -0.237 OA
ATOM     84  O   UNL A   1      37.546  32.155  40.388  1.00  0.00    -0.237 OA
ATOM     85  O   UNL A   1      35.776  32.651  38.736  1.00  0.00    -0.744 OA
ENDBRANCH  78  82
ENDBRANCH  61  75
BRANCH  62  86
ATOM     86  C   UNL A   1      43.073  26.362  28.565  1.00  0.00     0.023 A 
ATOM     87  C   UNL A   1      44.160  26.766  27.767  1.00  0.00     0.031 A 
ATOM     88  C   UNL A   1      42.389  25.188  28.210  1.00  0.00     0.131 A 
ATOM     89  C   UNL A   1      44.496  26.027  26.625  1.00  0.00     0.055 A 
ATOM     90  C   UNL A   1      42.763  24.424  27.103  1.00  0.00     0.041 A 
ATOM     91  F   UNL A   1      41.339  24.773  28.934  1.00  0.00    -0.206 F 
ATOM     92  C   UNL A   1      43.814  24.850  26.297  1.00  0.00     0.022 A 
BRANCH  89  93
ATOM     93  S   UNL A   1      45.766  26.619  25.473  1.00  0.00     0.124 S 
ATOM     94  O   UNL A   1      45.095  27.740  24.822  1.00  0.00    -0.237 OA
ATOM     95  O   UNL A   1      46.850  26.976  26.385  1.00  0.00    -0.237 OA
ATOM     96  O   UNL A   1      46.027  25.462  24.621  1.00  0.00    -0.744 OA
ENDBRANCH  89  93
ENDBRANCH  62  86
BRANCH  74  97
ATOM     97  C   UNL A   1      45.300  27.603  35.120  1.00  0.00     0.023 A 
ATOM     98  C   UNL A   1      45.136  26.536  36.022  1.00  0.00     0.031 A 
ATOM     99  C   UNL A   1      46.517  28.305  35.127  1.00  0.00     0.131 A 
ATOM    100  C   UNL A   1      46.159  26.227  36.927  1.00  0.00     0.055 A 
ATOM    101  C   UNL A   1      47.549  27.967  36.004  1.00  0.00     0.041 A 
ATOM    102  F   UNL A   1      46.713  29.337  34.291  1.00  0.00    -0.206 F 
ATOM    103  C   UNL A   1      47.366  26.933  36.918  1.00  0.00     0.022 A 
BRANCH 100 104
ATOM    104  S   UNL A   1      45.932  24.952  38.197  1.00  0.00     0.124 S 
ATOM    105  O   UNL A   1      46.144  25.708  39.429  1.00  0.00    -0.237 OA
ATOM    106  O   UNL A   1      44.557  24.521  37.957  1.00  0.00    -0.237 OA
ATOM    107  O   UNL A   1      46.963  23.965  37.893  1.00  0.00    -0.744 OA
ENDBRANCH 100 104
ENDBRANCH  74  97
ENDBRANCH  48  49
ENDBRANCH  40  43
ENDBRANCH  38  39
ENDBRANCH  37  38
ENDBRANCH   1  37
TORSDOF 18
ENDMDL
MODEL 3
REMARK VINA RESULT:     -11.3      5.039     10.115
REMARK SMILES C[NH+]1CCN(c2nc3c(cc2F)c(=O)c(C(=O)NCCCCCCNC(=O)c2ccc(-c4c5nc(c(-c6cc(S(=O)(=O)[O-])ccc6F)c6ccc([nH]6)c(-c6cc(S(=O)(=O)[O-])ccc6F)c6nc(c(-c7cc(S(=O)(=O)[O-])ccc7F)c7ccc4[nH]7)C=C6)C=C5)cc2)cn3-c2ccc(F)cc2F)CC1
REMARK SMILES IDX 22 1 21 2 20 3 19 4 18 5 16 6 17 7 15 9 6 10 7 11 11 12 8 13
REMARK SMILES IDX 10 14 12 15 9 16 92 17 13 18 91 19 14 20 5 21 1 22 2 23 3 24
REMARK SMILES IDX 102 25 4 27 101 28 93 29 94 30 99 31 95 32 98 33 100 34
REMARK SMILES IDX 96 35 97 36 23 37 24 38 25 39 26 40 27 42 28 43 29 44 90 45
REMARK SMILES IDX 30 46 89 47 31 48 32 49 33 50 83 51 34 52 88 53 82 54 84 55
REMARK SMILES IDX 35 56 87 57 81 58 80 59 36 61 68 62 48 63 67 64 49 65 52 66
REMARK SMILES IDX 66 67 85 68 50 69 51 70 65 72 86 73 53 74 37 75 38 76 46 77
REMARK SMILES IDX 39 78 45 79 47 80 44 81 40 82 41 83 42 84 43 85 69 86 70 87
REMARK SMILES IDX 78 88 71 89 77 90 79 91 76 92 72 93 73 94 74 95 75 96 54 97
REMARK SMILES IDX 55 98 63 99 56 100 62 101 64 102 61 103 57 104 58 105 59 106
REMARK SMILES IDX 60 107
REMARK H PARENT 18 8 2 26 25 41 84 60 52 71
REMARK Flexibility Score: inf
ROOT
ATOM      1  C   UNL A   1      38.777  33.731  35.856  1.00  0.00     0.002 C 
ENDROOT
BRANCH   1   2
ATOM      2  C   UNL A   1      38.146  34.562  34.733  1.00  0.00     0.002 C 
BRANCH   2   3
ATOM      3  C   UNL A   1      38.823  34.418  33.366  1.00  0.00     0.021 C 
BRANCH   3   4
ATOM      4  C   UNL A   1      37.845  34.418  32.190  1.00  0.00     0.116 C 
BRANCH   4   5
ATOM      5  N   UNL A   1      38.524  34.787  30.962  1.00  0.00    -0.352 N 
ATOM      6  C   UNL A   1      38.501  34.251  29.713  1.00  0.00     0.256 C 
ATOM      7  O   UNL A   1      39.220  34.795  28.868  1.00  0.00    -0.269 OA
ATOM      8  H   UNL A   1      39.113  35.570  31.049  1.00  0.00     0.163 HD
BRANCH   6   9
ATOM      9  C   UNL A   1      37.603  33.130  29.320  1.00  0.00     0.104 A 
ATOM     10  C   UNL A   1      34.333  29.833  27.267  1.00  0.00     0.167 A 
ATOM     11  N   UNL A   1      35.596  29.726  27.752  1.00  0.00    -0.209 NA
ATOM     12  C   UNL A   1      33.640  31.046  27.325  1.00  0.00     0.166 A 
ATOM     13  C   UNL A   1      36.206  30.818  28.283  1.00  0.00     0.151 A 
ATOM     14  C   UNL A   1      34.217  32.146  27.937  1.00  0.00     0.059 A 
ATOM     15  F   UNL A   1      32.385  31.147  26.863  1.00  0.00    -0.203 F 
ATOM     16  C   UNL A   1      35.512  32.021  28.432  1.00  0.00     0.069 A 
ATOM     17  N   UNL A   1      37.574  30.755  28.708  1.00  0.00    -0.297 N 
ATOM     18  C   UNL A   1      36.132  33.128  29.180  1.00  0.00     0.203 A 
ATOM     19  C   UNL A   1      38.187  31.934  29.123  1.00  0.00     0.111 A 
ATOM     20  O   UNL A   1      35.402  33.960  29.701  1.00  0.00    -0.288 OA
BRANCH  10  21
ATOM     21  N   UNL A   1      33.760  28.696  26.762  1.00  0.00    -0.343 N 
ATOM     22  C   UNL A   1      30.531  27.113  24.502  1.00  0.00     0.332 C 
ATOM     23  N   UNL A   1      31.736  27.217  25.322  1.00  0.00    -0.334 N 
ATOM     24  C   UNL A   1      31.439  27.884  26.612  1.00  0.00     0.283 C 
ATOM     25  C   UNL A   1      32.773  28.000  24.602  1.00  0.00     0.283 C 
ATOM     26  H   UNL A   1      32.078  26.274  25.504  1.00  0.00     0.347 HD
ATOM     27  C   UNL A   1      32.695  28.037  27.509  1.00  0.00     0.179 C 
ATOM     28  C   UNL A   1      34.063  28.183  25.430  1.00  0.00     0.179 C 
ENDBRANCH  10  21
BRANCH  17  29
ATOM     29  C   UNL A   1      38.343  29.555  28.635  1.00  0.00     0.083 A 
ATOM     30  C   UNL A   1      39.269  29.350  27.599  1.00  0.00     0.033 A 
ATOM     31  C   UNL A   1      38.202  28.544  29.603  1.00  0.00     0.150 A 
ATOM     32  C   UNL A   1      40.030  28.178  27.545  1.00  0.00     0.041 A 
ATOM     33  C   UNL A   1      38.943  27.369  29.548  1.00  0.00     0.080 A 
ATOM     34  F   UNL A   1      37.317  28.691  30.602  1.00  0.00    -0.205 F 
ATOM     35  C   UNL A   1      39.855  27.199  28.517  1.00  0.00     0.126 A 
ATOM     36  F   UNL A   1      40.579  26.073  28.457  1.00  0.00    -0.207 F 
ENDBRANCH  17  29
ENDBRANCH   6   9
ENDBRANCH   4   5
ENDBRANCH   3   4
ENDBRANCH   2   3
ENDBRANCH   1   2
BRANCH   1  37
ATOM     37  C   UNL A   1      37.902  32.596  36.397  1.00  0.00     0.021 C 
BRANCH  37  38
ATOM     38  C   UNL A   1      38.145  31.243  35.733  1.00  0.00     0.116 C 
BRANCH  38  39
ATOM     39  N   UNL A   1      37.433  31.142  34.467  1.00  0.00    -0.352 N 
ATOM     40  C   UNL A   1      37.929  30.808  33.233  1.00  0.00     0.251 C 
ATOM     41  H   UNL A   1      36.469  31.338  34.502  1.00  0.00     0.163 HD
ATOM     42  O   UNL A   1      37.267  31.009  32.218  1.00  0.00    -0.269 OA
BRANCH  40  43
ATOM     43  C   UNL A   1      39.272  30.203  33.138  1.00  0.00     0.039 A 
ATOM     44  C   UNL A   1      40.392  31.030  33.040  1.00  0.00     0.014 A 
ATOM     45  C   UNL A   1      39.412  28.811  33.143  1.00  0.00     0.014 A 
ATOM     46  C   UNL A   1      41.665  30.460  32.988  1.00  0.00     0.010 A 
ATOM     47  C   UNL A   1      40.683  28.246  33.139  1.00  0.00     0.010 A 
ATOM     48  C   UNL A   1      41.819  29.065  33.050  1.00  0.00    -0.014 A 
BRANCH  48  49
ATOM     49  C   UNL A   1      43.161  28.440  32.997  1.00  0.00     0.031 A 
ATOM     50  C   UNL A   1      43.725  28.000  31.677  1.00  0.00     0.074 A 
ATOM     51  C   UNL A   1      43.841  28.219  34.137  1.00  0.00     0.049 A 
ATOM     52  N   UNL A   1      44.866  27.414  31.425  1.00  0.00    -0.248 NA
ATOM     53  C   UNL A   1      42.892  28.232  30.486  1.00  0.00     0.031 C 
ATOM     54  C   UNL A   1      43.369  28.564  35.478  1.00  0.00     0.029 A 
ATOM     55  N   UNL A   1      45.067  27.641  34.354  1.00  0.00    -0.354 N 
ATOM     56  C   UNL A   1      44.888  27.206  30.051  1.00  0.00     0.074 A 
ATOM     57  C   UNL A   1      43.624  27.679  29.531  1.00  0.00     0.031 C 
ATOM     58  C   UNL A   1      44.297  28.201  36.377  1.00  0.00     0.029 A 
ATOM     59  C   UNL A   1      45.421  27.574  35.680  1.00  0.00     0.049 A 
ATOM     60  H   UNL A   1      45.640  27.305  33.627  1.00  0.00     0.167 HD
ATOM     61  C   UNL A   1      45.883  26.693  29.292  1.00  0.00     0.034 A 
ATOM     62  C   UNL A   1      46.523  27.069  36.270  1.00  0.00     0.034 A 
ATOM     63  C   UNL A   1      47.142  26.242  29.822  1.00  0.00     0.049 A 
ATOM     64  C   UNL A   1      47.620  26.501  35.404  1.00  0.00     0.074 A 
ATOM     65  C   UNL A   1      48.237  25.760  29.127  1.00  0.00     0.029 A 
ATOM     66  N   UNL A   1      47.477  26.216  31.167  1.00  0.00    -0.354 N 
ATOM     67  N   UNL A   1      47.667  26.403  34.097  1.00  0.00    -0.248 NA
ATOM     68  C   UNL A   1      48.818  25.990  36.086  1.00  0.00     0.031 C 
ATOM     69  C   UNL A   1      49.217  25.403  30.054  1.00  0.00     0.029 A 
ATOM     70  C   UNL A   1      48.755  25.708  31.324  1.00  0.00     0.049 A 
ATOM     71  H   UNL A   1      46.892  26.514  31.901  1.00  0.00     0.167 HD
ATOM     72  C   UNL A   1      48.907  25.846  33.797  1.00  0.00     0.074 A 
ATOM     73  C   UNL A   1      49.585  25.641  35.061  1.00  0.00     0.031 C 
ATOM     74  C   UNL A   1      49.432  25.531  32.587  1.00  0.00     0.034 A 
BRANCH  61  75
ATOM     75  C   UNL A   1      45.680  26.617  27.803  1.00  0.00     0.023 A 
ATOM     76  C   UNL A   1      45.312  25.401  27.200  1.00  0.00     0.031 A 
ATOM     77  C   UNL A   1      45.958  27.719  26.975  1.00  0.00     0.131 A 
ATOM     78  C   UNL A   1      45.259  25.310  25.803  1.00  0.00     0.055 A 
ATOM     79  C   UNL A   1      45.870  27.632  25.586  1.00  0.00     0.041 A 
ATOM     80  F   UNL A   1      46.309  28.901  27.509  1.00  0.00    -0.206 F 
ATOM     81  C   UNL A   1      45.529  26.420  24.995  1.00  0.00     0.022 A 
BRANCH  78  82
ATOM     82  S   UNL A   1      44.870  23.741  24.982  1.00  0.00     0.124 S 
ATOM     83  O   UNL A   1      45.799  23.752  23.853  1.00  0.00    -0.237 OA
ATOM     84  O   UNL A   1      45.169  22.768  26.028  1.00  0.00    -0.237 OA
ATOM     85  O   UNL A   1      43.462  23.874  24.624  1.00  0.00    -0.744 OA
ENDBRANCH  78  82
ENDBRANCH  61  75
BRANCH  62  86
ATOM     86  C   UNL A   1      46.658  27.153  37.752  1.00  0.00     0.023 A 
ATOM     87  C   UNL A   1      47.291  28.250  38.364  1.00  0.00     0.031 A 
ATOM     88  C   UNL A   1      46.244  26.086  38.566  1.00  0.00     0.131 A 
ATOM     89  C   UNL A   1      47.538  28.230  39.743  1.00  0.00     0.055 A 
ATOM     90  C   UNL A   1      46.440  26.096  39.949  1.00  0.00     0.041 A 
ATOM     91  F   UNL A   1      45.648  25.014  38.023  1.00  0.00    -0.206 F 
ATOM     92  C   UNL A   1      47.101  27.167  40.541  1.00  0.00     0.022 A 
BRANCH  89  93
ATOM     93  S   UNL A   1      48.515  29.538  40.534  1.00  0.00     0.124 S 
ATOM     94  O   UNL A   1      49.867  29.235  40.073  1.00  0.00    -0.237 OA
ATOM     95  O   UNL A   1      47.911  30.741  39.970  1.00  0.00    -0.237 OA
ATOM     96  O   UNL A   1      48.278  29.332  41.960  1.00  0.00    -0.744 OA
ENDBRANCH  89  93
ENDBRANCH  62  86
BRANCH  74  97
ATOM     97  C   UNL A   1      50.816  24.938  32.530  1.00  0.00     0.023 A 
ATOM     98  C   UNL A   1      50.991  23.549  32.678  1.00  0.00     0.031 A 
ATOM     99  C   UNL A   1      51.958  25.756  32.502  1.00  0.00     0.131 A 
ATOM    100  C   UNL A   1      52.278  23.023  32.836  1.00  0.00     0.055 A 
ATOM    101  C   UNL A   1      53.242  25.222  32.619  1.00  0.00     0.041 A 
ATOM    102  F   UNL A   1      51.839  27.087  32.373  1.00  0.00    -0.206 F 
ATOM    103  C   UNL A   1      53.405  23.851  32.800  1.00  0.00     0.022 A 
BRANCH 100 104
ATOM    104  S   UNL A   1      52.534  21.258  33.167  1.00  0.00     0.124 S 
ATOM    105  O   UNL A   1      53.389  20.860  32.051  1.00  0.00    -0.237 OA
ATOM    106  O   UNL A   1      53.184  21.282  34.474  1.00  0.00    -0.237 OA
ATOM    107  O   UNL A   1      51.186  20.696  33.144  1.00  0.00    -0.744 OA
ENDBRANCH 100 104
ENDBRANCH  74  97
ENDBRANCH  48  49
ENDBRANCH  40  43
ENDBRANCH  38  39
ENDBRANCH  37  38
ENDBRANCH   1  37
TORSDOF 18
ENDMDL
