MODEL 1
REMARK VINA RESULT:     -11.7      0.000      0.000
REMARK SMILES Cc1nc([C@]2(C)CCCO2)nc(C)c1C(=O)NCCCCCCNC(=O)c1ccc(-c2c3nc(c(-c4cc(S(=O)(=O)[O-])ccc4F)c4ccc([nH]4)c(-c4cc(S(=O)(=O)[O-])ccc4F)c4nc(c(-c5cc(S(=O)(=O)[O-])ccc5F)c5ccc2[nH]5)C=C4)C=C3)cc1
REMARK SMILES IDX 21 1 20 2 19 3 18 4 17 5 15 6 16 7 14 9 1 10 2 11 3 12 4 13
REMARK SMILES IDX 12 14 11 15 13 16 5 17 7 18 10 19 6 20 8 21 9 22 22 23 23 24
REMARK SMILES IDX 24 25 25 26 26 28 27 29 28 30 89 31 29 32 88 33 30 34 31 35
REMARK SMILES IDX 32 36 82 37 33 38 87 39 81 40 83 41 34 42 86 43 80 44 79 45
REMARK SMILES IDX 35 47 67 48 47 49 66 50 48 51 51 52 65 53 84 54 49 55 50 56
REMARK SMILES IDX 64 58 85 59 52 60 36 61 37 62 45 63 38 64 44 65 46 66 43 67
REMARK SMILES IDX 39 68 40 69 41 70 42 71 68 72 69 73 77 74 70 75 76 76 78 77
REMARK SMILES IDX 75 78 71 79 72 80 73 81 74 82 53 83 54 84 62 85 55 86 61 87
REMARK SMILES IDX 63 88 60 89 56 90 57 91 58 92 59 93
REMARK H PARENT 17 8 24 27 83 46 51 57
REMARK Flexibility Score: inf
ROOT
ATOM      1  C   UNL A   1      31.695  30.529  25.847  1.00  0.00     0.002 C 
ENDROOT
BRANCH   1   2
ATOM      2  C   UNL A   1      31.799  29.291  26.748  1.00  0.00     0.002 C 
BRANCH   2   3
ATOM      3  C   UNL A   1      32.810  28.242  26.272  1.00  0.00     0.021 C 
BRANCH   3   4
ATOM      4  C   UNL A   1      32.339  26.811  26.537  1.00  0.00     0.116 C 
BRANCH   4   5
ATOM      5  N   UNL A   1      32.145  26.095  25.303  1.00  0.00    -0.352 N 
ATOM      6  C   UNL A   1      31.631  26.259  24.056  1.00  0.00     0.254 C 
ATOM      7  O   UNL A   1      31.845  25.244  23.380  1.00  0.00    -0.269 OA
ATOM      8  H   UNL A   1      32.503  25.182  25.393  1.00  0.00     0.163 HD
BRANCH   6   9
ATOM      9  C   UNL A   1      30.900  27.417  23.430  1.00  0.00     0.082 A 
ATOM     10  C   UNL A   1      32.806  28.955  22.558  1.00  0.00     0.068 C 
ATOM     11  C   UNL A   1      31.395  28.556  22.799  1.00  0.00     0.054 A 
ATOM     12  N   UNL A   1      30.590  29.526  22.293  1.00  0.00    -0.234 NA
ATOM     13  C   UNL A   1      29.265  29.448  22.433  1.00  0.00     0.160 A 
ATOM     14  C   UNL A   1      29.484  27.414  23.506  1.00  0.00     0.054 A 
ATOM     15  N   UNL A   1      28.682  28.401  23.011  1.00  0.00    -0.234 NA
ATOM     16  C   UNL A   1      28.663  26.338  24.173  1.00  0.00     0.068 C 
BRANCH  13  17
ATOM     17  C   UNL A   1      28.434  30.644  21.953  1.00  0.00     0.125 C 
ATOM     18  C   UNL A   1      29.141  31.977  22.206  1.00  0.00     0.046 C 
ATOM     19  O   UNL A   1      27.214  30.746  22.734  1.00  0.00    -0.367 OA
ATOM     20  C   UNL A   1      28.025  30.501  20.486  1.00  0.00     0.051 C 
ATOM     21  C   UNL A   1      28.786  32.309  23.639  1.00  0.00     0.032 C 
ATOM     22  C   UNL A   1      27.479  31.575  23.878  1.00  0.00     0.161 C 
ENDBRANCH  13  17
ENDBRANCH   6   9
ENDBRANCH   4   5
ENDBRANCH   3   4
ENDBRANCH   2   3
ENDBRANCH   1   2
BRANCH   1  23
ATOM     23  C   UNL A   1      31.501  31.851  26.594  1.00  0.00     0.021 C 
BRANCH  23  24
ATOM     24  C   UNL A   1      32.767  32.375  27.266  1.00  0.00     0.116 C 
BRANCH  24  25
ATOM     25  N   UNL A   1      32.651  33.787  27.578  1.00  0.00    -0.352 N 
ATOM     26  C   UNL A   1      33.224  34.498  28.597  1.00  0.00     0.251 C 
ATOM     27  H   UNL A   1      32.077  34.308  26.970  1.00  0.00     0.163 HD
ATOM     28  O   UNL A   1      32.778  35.611  28.892  1.00  0.00    -0.269 OA
BRANCH  26  29
ATOM     29  C   UNL A   1      34.368  33.931  29.336  1.00  0.00     0.039 A 
ATOM     30  C   UNL A   1      34.128  33.055  30.396  1.00  0.00     0.014 A 
ATOM     31  C   UNL A   1      35.676  34.289  28.996  1.00  0.00     0.014 A 
ATOM     32  C   UNL A   1      35.205  32.503  31.090  1.00  0.00     0.010 A 
ATOM     33  C   UNL A   1      36.749  33.685  29.642  1.00  0.00     0.010 A 
ATOM     34  C   UNL A   1      36.524  32.794  30.703  1.00  0.00    -0.014 A 
BRANCH  34  35
ATOM     35  C   UNL A   1      37.683  32.192  31.407  1.00  0.00     0.031 A 
ATOM     36  C   UNL A   1      38.462  31.084  30.753  1.00  0.00     0.074 A 
ATOM     37  C   UNL A   1      37.990  32.602  32.652  1.00  0.00     0.049 A 
ATOM     38  N   UNL A   1      39.450  30.373  31.231  1.00  0.00    -0.248 NA
ATOM     39  C   UNL A   1      38.056  30.705  29.390  1.00  0.00     0.031 C 
ATOM     40  C   UNL A   1      37.279  33.645  33.397  1.00  0.00     0.029 A 
ATOM     41  N   UNL A   1      38.972  32.189  33.517  1.00  0.00    -0.354 N 
ATOM     42  C   UNL A   1      39.774  29.456  30.237  1.00  0.00     0.074 A 
ATOM     43  C   UNL A   1      38.838  29.663  29.153  1.00  0.00     0.031 C 
ATOM     44  C   UNL A   1      37.862  33.803  34.596  1.00  0.00     0.029 A 
ATOM     45  C   UNL A   1      38.954  32.845  34.727  1.00  0.00     0.049 A 
ATOM     46  H   UNL A   1      39.626  31.490  33.293  1.00  0.00     0.167 HD
ATOM     47  C   UNL A   1      40.775  28.540  30.223  1.00  0.00     0.034 A 
ATOM     48  C   UNL A   1      39.724  32.680  35.821  1.00  0.00     0.034 A 
ATOM     49  C   UNL A   1      41.709  28.362  31.309  1.00  0.00     0.049 A 
ATOM     50  C   UNL A   1      40.817  31.642  35.787  1.00  0.00     0.074 A 
ATOM     51  C   UNL A   1      42.793  27.505  31.379  1.00  0.00     0.029 A 
ATOM     52  N   UNL A   1      41.666  29.048  32.516  1.00  0.00    -0.354 N 
ATOM     53  N   UNL A   1      41.143  30.816  34.819  1.00  0.00    -0.248 NA
ATOM     54  C   UNL A   1      41.655  31.523  36.986  1.00  0.00     0.031 C 
ATOM     55  C   UNL A   1      43.363  27.624  32.651  1.00  0.00     0.029 A 
ATOM     56  C   UNL A   1      42.686  28.613  33.347  1.00  0.00     0.049 A 
ATOM     57  H   UNL A   1      41.009  29.744  32.747  1.00  0.00     0.167 HD
ATOM     58  C   UNL A   1      42.248  30.105  35.283  1.00  0.00     0.074 A 
ATOM     59  C   UNL A   1      42.538  30.611  36.608  1.00  0.00     0.031 C 
ATOM     60  C   UNL A   1      42.959  29.126  34.669  1.00  0.00     0.034 A 
BRANCH  47  61
ATOM     61  C   UNL A   1      40.891  27.650  29.009  1.00  0.00     0.023 A 
ATOM     62  C   UNL A   1      41.910  27.828  28.057  1.00  0.00     0.031 A 
ATOM     63  C   UNL A   1      39.965  26.614  28.796  1.00  0.00     0.131 A 
ATOM     64  C   UNL A   1      41.939  27.029  26.904  1.00  0.00     0.055 A 
ATOM     65  C   UNL A   1      40.046  25.771  27.686  1.00  0.00     0.041 A 
ATOM     66  F   UNL A   1      38.958  26.409  29.658  1.00  0.00    -0.206 F 
ATOM     67  C   UNL A   1      41.030  25.984  26.724  1.00  0.00     0.022 A 
BRANCH  64  68
ATOM     68  S   UNL A   1      43.102  27.458  25.580  1.00  0.00     0.124 S 
ATOM     69  O   UNL A   1      44.084  28.264  26.301  1.00  0.00    -0.237 OA
ATOM     70  O   UNL A   1      43.559  26.151  25.124  1.00  0.00    -0.237 OA
ATOM     71  O   UNL A   1      42.278  28.199  24.627  1.00  0.00    -0.744 OA
ENDBRANCH  64  68
ENDBRANCH  47  61
BRANCH  48  72
ATOM     72  C   UNL A   1      39.490  33.500  37.045  1.00  0.00     0.023 A 
ATOM     73  C   UNL A   1      38.836  32.958  38.162  1.00  0.00     0.031 A 
ATOM     74  C   UNL A   1      39.867  34.854  37.095  1.00  0.00     0.131 A 
ATOM     75  C   UNL A   1      38.527  33.778  39.259  1.00  0.00     0.055 A 
ATOM     76  C   UNL A   1      39.612  35.651  38.212  1.00  0.00     0.041 A 
ATOM     77  F   UNL A   1      40.501  35.422  36.057  1.00  0.00    -0.206 F 
ATOM     78  C   UNL A   1      38.923  35.117  39.297  1.00  0.00     0.022 A 
BRANCH  75  79
ATOM     79  S   UNL A   1      37.508  33.094  40.594  1.00  0.00     0.124 S 
ATOM     80  O   UNL A   1      37.037  34.304  41.257  1.00  0.00    -0.237 OA
ATOM     81  O   UNL A   1      36.505  32.338  39.850  1.00  0.00    -0.237 OA
ATOM     82  O   UNL A   1      38.452  32.286  41.362  1.00  0.00    -0.744 OA
ENDBRANCH  75  79
ENDBRANCH  48  72
BRANCH  60  83
ATOM     83  C   UNL A   1      44.154  28.580  35.411  1.00  0.00     0.023 A 
ATOM     84  C   UNL A   1      44.038  27.516  36.321  1.00  0.00     0.031 A 
ATOM     85  C   UNL A   1      45.426  29.144  35.211  1.00  0.00     0.131 A 
ATOM     86  C   UNL A   1      45.163  27.086  37.039  1.00  0.00     0.055 A 
ATOM     87  C   UNL A   1      46.554  28.671  35.881  1.00  0.00     0.041 A 
ATOM     88  F   UNL A   1      45.594  30.165  34.354  1.00  0.00    -0.206 F 
ATOM     89  C   UNL A   1      46.423  27.645  36.812  1.00  0.00     0.022 A 
BRANCH  86  90
ATOM     90  S   UNL A   1      44.941  25.846  38.345  1.00  0.00     0.124 S 
ATOM     91  O   UNL A   1      46.205  25.939  39.070  1.00  0.00    -0.237 OA
ATOM     92  O   UNL A   1      43.764  26.344  39.050  1.00  0.00    -0.237 OA
ATOM     93  O   UNL A   1      44.739  24.601  37.605  1.00  0.00    -0.744 OA
ENDBRANCH  86  90
ENDBRANCH  60  83
ENDBRANCH  34  35
ENDBRANCH  26  29
ENDBRANCH  24  25
ENDBRANCH  23  24
ENDBRANCH   1  23
TORSDOF 17
ENDMDL
MODEL 2
REMARK VINA RESULT:     -11.2      1.531      3.390
REMARK SMILES Cc1nc([C@]2(C)CCCO2)nc(C)c1C(=O)NCCCCCCNC(=O)c1ccc(-c2c3nc(c(-c4cc(S(=O)(=O)[O-])ccc4F)c4ccc([nH]4)c(-c4cc(S(=O)(=O)[O-])ccc4F)c4nc(c(-c5cc(S(=O)(=O)[O-])ccc5F)c5ccc2[nH]5)C=C4)C=C3)cc1
REMARK SMILES IDX 21 1 20 2 19 3 18 4 17 5 15 6 16 7 14 9 1 10 2 11 3 12 4 13
REMARK SMILES IDX 12 14 11 15 13 16 5 17 7 18 10 19 6 20 8 21 9 22 22 23 23 24
REMARK SMILES IDX 24 25 25 26 26 28 27 29 28 30 89 31 29 32 88 33 30 34 31 35
REMARK SMILES IDX 32 36 82 37 33 38 87 39 81 40 83 41 34 42 86 43 80 44 79 45
REMARK SMILES IDX 35 47 67 48 47 49 66 50 48 51 51 52 65 53 84 54 49 55 50 56
REMARK SMILES IDX 64 58 85 59 52 60 36 61 37 62 45 63 38 64 44 65 46 66 43 67
REMARK SMILES IDX 39 68 40 69 41 70 42 71 68 72 69 73 77 74 70 75 76 76 78 77
REMARK SMILES IDX 75 78 71 79 72 80 73 81 74 82 53 83 54 84 62 85 55 86 61 87
REMARK SMILES IDX 63 88 60 89 56 90 57 91 58 92 59 93
REMARK H PARENT 17 8 24 27 83 46 51 57
REMARK Flexibility Score: inf
ROOT
ATOM      1  C   UNL A   1      31.744  30.423  26.844  1.00  0.00     0.002 C 
ENDROOT
BRANCH   1   2
ATOM      2  C   UNL A   1      31.668  29.680  25.503  1.00  0.00     0.002 C 
BRANCH   2   3
ATOM      3  C   UNL A   1      33.018  29.178  24.978  1.00  0.00     0.021 C 
BRANCH   3   4
ATOM      4  C   UNL A   1      33.098  29.199  23.450  1.00  0.00     0.116 C 
BRANCH   4   5
ATOM      5  N   UNL A   1      31.941  28.573  22.864  1.00  0.00    -0.352 N 
ATOM      6  C   UNL A   1      31.303  27.374  22.810  1.00  0.00     0.254 C 
ATOM      7  O   UNL A   1      30.250  27.492  22.168  1.00  0.00    -0.269 OA
ATOM      8  H   UNL A   1      31.450  29.231  22.322  1.00  0.00     0.163 HD
BRANCH   6   9
ATOM      9  C   UNL A   1      31.668  26.030  23.382  1.00  0.00     0.082 A 
ATOM     10  C   UNL A   1      30.720  26.109  25.802  1.00  0.00     0.068 C 
ATOM     11  C   UNL A   1      31.423  25.496  24.646  1.00  0.00     0.054 A 
ATOM     12  N   UNL A   1      31.836  24.255  25.012  1.00  0.00    -0.234 NA
ATOM     13  C   UNL A   1      32.556  23.505  24.176  1.00  0.00     0.160 A 
ATOM     14  C   UNL A   1      32.414  25.150  22.558  1.00  0.00     0.054 A 
ATOM     15  N   UNL A   1      32.842  23.912  22.941  1.00  0.00    -0.234 NA
ATOM     16  C   UNL A   1      32.871  25.468  21.157  1.00  0.00     0.068 C 
BRANCH  13  17
ATOM     17  C   UNL A   1      33.098  22.174  24.709  1.00  0.00     0.125 C 
ATOM     18  C   UNL A   1      33.237  22.177  26.232  1.00  0.00     0.046 C 
ATOM     19  O   UNL A   1      34.455  21.966  24.239  1.00  0.00    -0.367 OA
ATOM     20  C   UNL A   1      32.261  20.986  24.229  1.00  0.00     0.051 C 
ATOM     21  C   UNL A   1      34.587  22.818  26.473  1.00  0.00     0.032 C 
ATOM     22  C   UNL A   1      35.358  22.548  25.193  1.00  0.00     0.161 C 
ENDBRANCH  13  17
ENDBRANCH   6   9
ENDBRANCH   4   5
ENDBRANCH   3   4
ENDBRANCH   2   3
ENDBRANCH   1   2
BRANCH   1  23
ATOM     23  C   UNL A   1      31.681  31.949  26.736  1.00  0.00     0.021 C 
BRANCH  23  24
ATOM     24  C   UNL A   1      32.984  32.650  27.108  1.00  0.00     0.116 C 
BRANCH  24  25
ATOM     25  N   UNL A   1      32.736  33.990  27.606  1.00  0.00    -0.352 N 
ATOM     26  C   UNL A   1      33.202  34.590  28.744  1.00  0.00     0.251 C 
ATOM     27  H   UNL A   1      32.148  34.547  27.046  1.00  0.00     0.163 HD
ATOM     28  O   UNL A   1      32.651  35.612  29.166  1.00  0.00    -0.269 OA
BRANCH  26  29
ATOM     29  C   UNL A   1      34.356  34.014  29.459  1.00  0.00     0.039 A 
ATOM     30  C   UNL A   1      34.131  33.183  30.558  1.00  0.00     0.014 A 
ATOM     31  C   UNL A   1      35.660  34.318  29.058  1.00  0.00     0.014 A 
ATOM     32  C   UNL A   1      35.218  32.622  31.231  1.00  0.00     0.010 A 
ATOM     33  C   UNL A   1      36.738  33.704  29.684  1.00  0.00     0.010 A 
ATOM     34  C   UNL A   1      36.528  32.858  30.783  1.00  0.00    -0.014 A 
BRANCH  34  35
ATOM     35  C   UNL A   1      37.695  32.244  31.465  1.00  0.00     0.031 A 
ATOM     36  C   UNL A   1      38.440  31.117  30.803  1.00  0.00     0.074 A 
ATOM     37  C   UNL A   1      38.041  32.663  32.697  1.00  0.00     0.049 A 
ATOM     38  N   UNL A   1      39.428  30.395  31.264  1.00  0.00    -0.248 NA
ATOM     39  C   UNL A   1      37.993  30.730  29.455  1.00  0.00     0.031 C 
ATOM     40  C   UNL A   1      37.366  33.725  33.448  1.00  0.00     0.029 A 
ATOM     41  N   UNL A   1      39.038  32.243  33.541  1.00  0.00    -0.354 N 
ATOM     42  C   UNL A   1      39.712  29.462  30.272  1.00  0.00     0.074 A 
ATOM     43  C   UNL A   1      38.752  29.674  29.210  1.00  0.00     0.031 C 
ATOM     44  C   UNL A   1      37.982  33.886  34.630  1.00  0.00     0.029 A 
ATOM     45  C   UNL A   1      39.061  32.912  34.744  1.00  0.00     0.049 A 
ATOM     46  H   UNL A   1      39.675  31.531  33.308  1.00  0.00     0.167 HD
ATOM     47  C   UNL A   1      40.697  28.531  30.243  1.00  0.00     0.034 A 
ATOM     48  C   UNL A   1      39.856  32.746  35.819  1.00  0.00     0.034 A 
ATOM     49  C   UNL A   1      41.656  28.348  31.306  1.00  0.00     0.049 A 
ATOM     50  C   UNL A   1      40.932  31.690  35.770  1.00  0.00     0.074 A 
ATOM     51  C   UNL A   1      42.727  27.474  31.359  1.00  0.00     0.029 A 
ATOM     52  N   UNL A   1      41.655  29.048  32.506  1.00  0.00    -0.354 N 
ATOM     53  N   UNL A   1      41.220  30.849  34.802  1.00  0.00    -0.248 NA
ATOM     54  C   UNL A   1      41.798  31.571  36.948  1.00  0.00     0.031 C 
ATOM     55  C   UNL A   1      43.332  27.598  32.615  1.00  0.00     0.029 A 
ATOM     56  C   UNL A   1      42.689  28.605  33.316  1.00  0.00     0.049 A 
ATOM     57  H   UNL A   1      41.015  29.757  32.746  1.00  0.00     0.167 HD
ATOM     58  C   UNL A   1      42.324  30.125  35.246  1.00  0.00     0.074 A 
ATOM     59  C   UNL A   1      42.657  30.640  36.558  1.00  0.00     0.031 C 
ATOM     60  C   UNL A   1      43.004  29.128  34.625  1.00  0.00     0.034 A 
BRANCH  47  61
ATOM     61  C   UNL A   1      40.768  27.625  29.036  1.00  0.00     0.023 A 
ATOM     62  C   UNL A   1      41.705  27.835  28.009  1.00  0.00     0.031 A 
ATOM     63  C   UNL A   1      39.881  26.543  28.906  1.00  0.00     0.131 A 
ATOM     64  C   UNL A   1      41.689  27.018  26.868  1.00  0.00     0.055 A 
ATOM     65  C   UNL A   1      39.922  25.685  27.806  1.00  0.00     0.041 A 
ATOM     66  F   UNL A   1      38.950  26.306  29.844  1.00  0.00    -0.206 F 
ATOM     67  C   UNL A   1      40.821  25.927  26.771  1.00  0.00     0.022 A 
BRANCH  64  68
ATOM     68  S   UNL A   1      42.730  27.479  25.457  1.00  0.00     0.124 S 
ATOM     69  O   UNL A   1      44.000  27.776  26.113  1.00  0.00    -0.237 OA
ATOM     70  O   UNL A   1      42.700  26.275  24.636  1.00  0.00    -0.237 OA
ATOM     71  O   UNL A   1      42.043  28.638  24.889  1.00  0.00    -0.744 OA
ENDBRANCH  64  68
ENDBRANCH  47  61
BRANCH  48  72
ATOM     72  C   UNL A   1      39.667  33.583  37.040  1.00  0.00     0.023 A 
ATOM     73  C   UNL A   1      39.159  33.027  38.224  1.00  0.00     0.031 A 
ATOM     74  C   UNL A   1      39.939  34.963  37.023  1.00  0.00     0.131 A 
ATOM     75  C   UNL A   1      38.884  33.855  39.324  1.00  0.00     0.055 A 
ATOM     76  C   UNL A   1      39.721  35.772  38.140  1.00  0.00     0.041 A 
ATOM     77  F   UNL A   1      40.432  35.546  35.919  1.00  0.00    -0.206 F 
ATOM     78  C   UNL A   1      39.174  35.220  39.295  1.00  0.00     0.022 A 
BRANCH  75  79
ATOM     79  S   UNL A   1      38.044  33.135  40.761  1.00  0.00     0.124 S 
ATOM     80  O   UNL A   1      36.693  33.665  40.611  1.00  0.00    -0.237 OA
ATOM     81  O   UNL A   1      38.202  31.705  40.519  1.00  0.00    -0.237 OA
ATOM     82  O   UNL A   1      38.799  33.661  41.896  1.00  0.00    -0.744 OA
ENDBRANCH  75  79
ENDBRANCH  48  72
BRANCH  60  83
ATOM     83  C   UNL A   1      44.208  28.571  35.343  1.00  0.00     0.023 A 
ATOM     84  C   UNL A   1      44.101  27.506  36.253  1.00  0.00     0.031 A 
ATOM     85  C   UNL A   1      45.481  29.124  35.118  1.00  0.00     0.131 A 
ATOM     86  C   UNL A   1      45.237  27.064  36.948  1.00  0.00     0.055 A 
ATOM     87  C   UNL A   1      46.618  28.640  35.765  1.00  0.00     0.041 A 
ATOM     88  F   UNL A   1      45.641  30.145  34.260  1.00  0.00    -0.206 F 
ATOM     89  C   UNL A   1      46.497  27.613  36.697  1.00  0.00     0.022 A 
BRANCH  86  90
ATOM     90  S   UNL A   1      45.030  25.824  38.256  1.00  0.00     0.124 S 
ATOM     91  O   UNL A   1      46.403  25.378  38.471  1.00  0.00    -0.237 OA
ATOM     92  O   UNL A   1      44.437  26.606  39.336  1.00  0.00    -0.237 OA
ATOM     93  O   UNL A   1      44.142  24.833  37.651  1.00  0.00    -0.744 OA
ENDBRANCH  86  90
ENDBRANCH  60  83
ENDBRANCH  34  35
ENDBRANCH  26  29
ENDBRANCH  24  25
ENDBRANCH  23  24
ENDBRANCH   1  23
TORSDOF 17
ENDMDL
MODEL 3
REMARK VINA RESULT:     -11.1      5.963     11.489
REMARK SMILES Cc1nc([C@]2(C)CCCO2)nc(C)c1C(=O)NCCCCCCNC(=O)c1ccc(-c2c3nc(c(-c4cc(S(=O)(=O)[O-])ccc4F)c4ccc([nH]4)c(-c4cc(S(=O)(=O)[O-])ccc4F)c4nc(c(-c5cc(S(=O)(=O)[O-])ccc5F)c5ccc2[nH]5)C=C4)C=C3)cc1
REMARK SMILES IDX 21 1 20 2 19 3 18 4 17 5 15 6 16 7 14 9 1 10 2 11 3 12 4 13
REMARK SMILES IDX 12 14 11 15 13 16 5 17 7 18 10 19 6 20 8 21 9 22 22 23 23 24
REMARK SMILES IDX 24 25 25 26 26 28 27 29 28 30 89 31 29 32 88 33 30 34 31 35
REMARK SMILES IDX 32 36 82 37 33 38 87 39 81 40 83 41 34 42 86 43 80 44 79 45
REMARK SMILES IDX 35 47 67 48 47 49 66 50 48 51 51 52 65 53 84 54 49 55 50 56
REMARK SMILES IDX 64 58 85 59 52 60 36 61 37 62 45 63 38 64 44 65 46 66 43 67
REMARK SMILES IDX 39 68 40 69 41 70 42 71 68 72 69 73 77 74 70 75 76 76 78 77
REMARK SMILES IDX 75 78 71 79 72 80 73 81 74 82 53 83 54 84 62 85 55 86 61 87
REMARK SMILES IDX 63 88 60 89 56 90 57 91 58 92 59 93
REMARK H PARENT 17 8 24 27 83 46 51 57
REMARK Flexibility Score: inf
ROOT
ATOM      1  C   UNL A   1      37.030  20.705  24.597  1.00  0.00     0.002 C 
ENDROOT
BRANCH   1   2
ATOM      2  C   UNL A   1      35.713  20.632  25.382  1.00  0.00     0.002 C 
BRANCH   2   3
ATOM      3  C   UNL A   1      34.584  19.889  24.661  1.00  0.00     0.021 C 
BRANCH   3   4
ATOM      4  C   UNL A   1      33.198  20.290  25.171  1.00  0.00     0.116 C 
BRANCH   4   5
ATOM      5  N   UNL A   1      33.291  20.969  26.437  1.00  0.00    -0.352 N 
ATOM      6  C   UNL A   1      33.175  22.208  26.983  1.00  0.00     0.254 C 
ATOM      7  O   UNL A   1      33.297  22.135  28.213  1.00  0.00    -0.269 OA
ATOM      8  H   UNL A   1      33.513  20.319  27.143  1.00  0.00     0.163 HD
BRANCH   6   9
ATOM      9  C   UNL A   1      32.934  23.552  26.347  1.00  0.00     0.082 A 
ATOM     10  C   UNL A   1      35.321  24.395  25.754  1.00  0.00     0.068 C 
ATOM     11  C   UNL A   1      33.840  24.475  25.830  1.00  0.00     0.054 A 
ATOM     12  N   UNL A   1      33.454  25.664  25.296  1.00  0.00    -0.234 NA
ATOM     13  C   UNL A   1      32.169  26.023  25.297  1.00  0.00     0.160 A 
ATOM     14  C   UNL A   1      31.594  24.011  26.279  1.00  0.00     0.054 A 
ATOM     15  N   UNL A   1      31.216  25.215  25.758  1.00  0.00    -0.234 NA
ATOM     16  C   UNL A   1      30.400  23.253  26.803  1.00  0.00     0.068 C 
BRANCH  13  17
ATOM     17  C   UNL A   1      31.829  27.432  24.799  1.00  0.00     0.125 C 
ATOM     18  C   UNL A   1      30.440  27.500  24.162  1.00  0.00     0.046 C 
ATOM     19  O   UNL A   1      32.724  27.805  23.718  1.00  0.00    -0.367 OA
ATOM     20  C   UNL A   1      31.987  28.479  25.903  1.00  0.00     0.051 C 
ATOM     21  C   UNL A   1      30.673  27.056  22.734  1.00  0.00     0.032 C 
ATOM     22  C   UNL A   1      32.133  27.383  22.478  1.00  0.00     0.161 C 
ENDBRANCH  13  17
ENDBRANCH   6   9
ENDBRANCH   4   5
ENDBRANCH   3   4
ENDBRANCH   2   3
ENDBRANCH   1   2
BRANCH   1  23
ATOM     23  C   UNL A   1      38.091  19.689  25.029  1.00  0.00     0.021 C 
BRANCH  23  24
ATOM     24  C   UNL A   1      39.174  20.270  25.933  1.00  0.00     0.116 C 
BRANCH  24  25
ATOM     25  N   UNL A   1      40.295  19.358  26.066  1.00  0.00    -0.352 N 
ATOM     26  C   UNL A   1      41.634  19.634  26.120  1.00  0.00     0.251 C 
ATOM     27  H   UNL A   1      40.057  18.404  26.124  1.00  0.00     0.163 HD
ATOM     28  O   UNL A   1      42.452  18.730  25.924  1.00  0.00    -0.269 OA
BRANCH  26  29
ATOM     29  C   UNL A   1      42.090  21.006  26.410  1.00  0.00     0.039 A 
ATOM     30  C   UNL A   1      42.336  21.377  27.733  1.00  0.00     0.014 A 
ATOM     31  C   UNL A   1      42.247  21.932  25.374  1.00  0.00     0.014 A 
ATOM     32  C   UNL A   1      42.782  22.669  28.014  1.00  0.00     0.010 A 
ATOM     33  C   UNL A   1      42.757  23.196  25.648  1.00  0.00     0.010 A 
ATOM     34  C   UNL A   1      43.019  23.581  26.971  1.00  0.00    -0.014 A 
BRANCH  34  35
ATOM     35  C   UNL A   1      43.525  24.949  27.247  1.00  0.00     0.031 A 
ATOM     36  C   UNL A   1      42.596  25.991  27.805  1.00  0.00     0.074 A 
ATOM     37  C   UNL A   1      44.798  25.261  26.939  1.00  0.00     0.049 A 
ATOM     38  N   UNL A   1      42.818  27.259  28.037  1.00  0.00    -0.248 NA
ATOM     39  C   UNL A   1      41.224  25.557  28.114  1.00  0.00     0.031 C 
ATOM     40  C   UNL A   1      45.778  24.337  26.360  1.00  0.00     0.029 A 
ATOM     41  N   UNL A   1      45.487  26.441  27.059  1.00  0.00    -0.354 N 
ATOM     42  C   UNL A   1      41.615  27.776  28.506  1.00  0.00     0.074 A 
ATOM     43  C   UNL A   1      40.651  26.697  28.468  1.00  0.00     0.031 C 
ATOM     44  C   UNL A   1      46.945  24.980  26.197  1.00  0.00     0.029 A 
ATOM     45  C   UNL A   1      46.787  26.370  26.611  1.00  0.00     0.049 A 
ATOM     46  H   UNL A   1      45.090  27.260  27.430  1.00  0.00     0.167 HD
ATOM     47  C   UNL A   1      41.347  29.030  28.946  1.00  0.00     0.034 A 
ATOM     48  C   UNL A   1      47.737  27.322  26.533  1.00  0.00     0.034 A 
ATOM     49  C   UNL A   1      42.328  30.088  28.992  1.00  0.00     0.049 A 
ATOM     50  C   UNL A   1      47.408  28.714  27.012  1.00  0.00     0.074 A 
ATOM     51  C   UNL A   1      42.182  31.378  29.469  1.00  0.00     0.029 A 
ATOM     52  N   UNL A   1      43.637  29.978  28.538  1.00  0.00    -0.354 N 
ATOM     53  N   UNL A   1      46.279  29.175  27.499  1.00  0.00    -0.248 NA
ATOM     54  C   UNL A   1      48.484  29.710  26.944  1.00  0.00     0.031 C 
ATOM     55  C   UNL A   1      43.379  32.067  29.243  1.00  0.00     0.029 A 
ATOM     56  C   UNL A   1      44.298  31.186  28.698  1.00  0.00     0.049 A 
ATOM     57  H   UNL A   1      44.036  29.162  28.159  1.00  0.00     0.167 HD
ATOM     58  C   UNL A   1      46.523  30.506  27.828  1.00  0.00     0.074 A 
ATOM     59  C   UNL A   1      47.908  30.767  27.497  1.00  0.00     0.031 C 
ATOM     60  C   UNL A   1      45.680  31.429  28.358  1.00  0.00     0.034 A 
BRANCH  47  61
ATOM     61  C   UNL A   1      39.934  29.330  29.388  1.00  0.00     0.023 A 
ATOM     62  C   UNL A   1      39.597  29.466  30.746  1.00  0.00     0.031 A 
ATOM     63  C   UNL A   1      38.907  29.472  28.438  1.00  0.00     0.131 A 
ATOM     64  C   UNL A   1      38.260  29.668  31.120  1.00  0.00     0.055 A 
ATOM     65  C   UNL A   1      37.592  29.752  28.812  1.00  0.00     0.041 A 
ATOM     66  F   UNL A   1      39.163  29.331  27.128  1.00  0.00    -0.206 F 
ATOM     67  C   UNL A   1      37.258  29.839  30.161  1.00  0.00     0.022 A 
BRANCH  64  68
ATOM     68  S   UNL A   1      37.828  29.575  32.878  1.00  0.00     0.124 S 
ATOM     69  O   UNL A   1      36.738  30.543  32.965  1.00  0.00    -0.237 OA
ATOM     70  O   UNL A   1      37.454  28.175  33.038  1.00  0.00    -0.237 OA
ATOM     71  O   UNL A   1      39.061  29.973  33.555  1.00  0.00    -0.744 OA
ENDBRANCH  64  68
ENDBRANCH  47  61
BRANCH  48  72
ATOM     72  C   UNL A   1      49.083  27.009  25.972  1.00  0.00     0.023 A 
ATOM     73  C   UNL A   1      50.165  26.713  26.815  1.00  0.00     0.031 A 
ATOM     74  C   UNL A   1      49.320  27.054  24.586  1.00  0.00     0.131 A 
ATOM     75  C   UNL A   1      51.447  26.531  26.271  1.00  0.00     0.055 A 
ATOM     76  C   UNL A   1      50.584  26.813  24.045  1.00  0.00     0.041 A 
ATOM     77  F   UNL A   1      48.319  27.325  23.733  1.00  0.00    -0.206 F 
ATOM     78  C   UNL A   1      51.661  26.566  24.891  1.00  0.00     0.022 A 
BRANCH  75  79
ATOM     79  S   UNL A   1      52.852  26.351  27.404  1.00  0.00     0.124 S 
ATOM     80  O   UNL A   1      52.178  26.095  28.672  1.00  0.00    -0.237 OA
ATOM     81  O   UNL A   1      53.568  25.223  26.818  1.00  0.00    -0.237 OA
ATOM     82  O   UNL A   1      53.534  27.639  27.306  1.00  0.00    -0.744 OA
ENDBRANCH  75  79
ENDBRANCH  48  72
BRANCH  60  83
ATOM     83  C   UNL A   1      46.258  32.790  28.660  1.00  0.00     0.023 A 
ATOM     84  C   UNL A   1      46.275  33.817  27.701  1.00  0.00     0.031 A 
ATOM     85  C   UNL A   1      46.810  33.056  29.925  1.00  0.00     0.131 A 
ATOM     86  C   UNL A   1      46.884  35.044  28.003  1.00  0.00     0.055 A 
ATOM     87  C   UNL A   1      47.358  34.299  30.242  1.00  0.00     0.041 A 
ATOM     88  F   UNL A   1      46.822  32.110  30.879  1.00  0.00    -0.206 F 
ATOM     89  C   UNL A   1      47.409  35.298  29.273  1.00  0.00     0.022 A 
BRANCH  86  90
ATOM     90  S   UNL A   1      47.063  36.275  26.683  1.00  0.00     0.124 S 
ATOM     91  O   UNL A   1      47.213  35.432  25.501  1.00  0.00    -0.237 OA
ATOM     92  O   UNL A   1      45.813  37.021  26.780  1.00  0.00    -0.237 OA
ATOM     93  O   UNL A   1      48.260  37.021  27.070  1.00  0.00    -0.744 OA
ENDBRANCH  86  90
ENDBRANCH  60  83
ENDBRANCH  34  35
ENDBRANCH  26  29
ENDBRANCH  24  25
ENDBRANCH  23  24
ENDBRANCH   1  23
TORSDOF 17
ENDMDL
