MODEL 1
REMARK VINA RESULT:     -12.3      0.000      0.000
REMARK SMILES Cc1nn(CC(=O)NCCCCCCNC(=O)c2ccc(-c3c4nc(c(-c5cc(S(=O)(=O)[O-])ccc5F)c5ccc([nH]5)c(-c5cc(S(=O)(=O)[O-])ccc5F)c5nc(c(-c6cc(S(=O)(=O)[O-])ccc6F)c6ccc3[nH]6)C=C5)C=C4)cc2)c(C)c1NS(=O)(=O)c1cccc2cccnc12
REMARK SMILES IDX 11 1 10 2 9 3 8 4 6 5 7 6 5 8 4 9 1 10 2 11 3 12 83 13 81 14
REMARK SMILES IDX 82 15 84 16 85 18 86 19 87 20 88 21 89 22 97 23 90 24 92 25
REMARK SMILES IDX 96 26 91 27 93 28 95 29 94 30 12 31 13 32 14 33 15 34 16 35
REMARK SMILES IDX 17 37 18 38 19 39 80 40 20 41 79 42 21 43 22 44 23 45 73 46
REMARK SMILES IDX 24 47 78 48 72 49 74 50 25 51 77 52 71 53 70 54 26 56 58 57
REMARK SMILES IDX 38 58 57 59 39 60 42 61 56 62 75 63 40 64 41 65 55 67 76 68
REMARK SMILES IDX 43 69 27 70 28 71 36 72 29 73 35 74 37 75 34 76 30 77 31 78
REMARK SMILES IDX 32 79 33 80 59 81 60 82 68 83 61 84 67 85 69 86 66 87 62 88
REMARK SMILES IDX 63 89 64 90 65 91 44 92 45 93 53 94 46 95 52 96 54 97 51 98
REMARK SMILES IDX 47 99 48 100 49 101 50 102
REMARK H PARENT 8 7 84 17 15 36 74 55 42 66
REMARK Flexibility Score: inf
ROOT
ATOM      1  C   UNL A   1      33.542  28.021  25.960  1.00  0.00     0.002 C 
ENDROOT
BRANCH   1   2
ATOM      2  C   UNL A   1      32.520  27.072  26.572  1.00  0.00     0.021 C 
BRANCH   2   3
ATOM      3  C   UNL A   1      32.792  25.606  26.238  1.00  0.00     0.116 C 
BRANCH   3   4
ATOM      4  N   UNL A   1      31.718  24.771  26.706  1.00  0.00    -0.354 N 
ATOM      5  C   UNL A   1      31.803  23.460  27.086  1.00  0.00     0.241 C 
ATOM      6  O   UNL A   1      30.754  22.897  27.414  1.00  0.00    -0.273 OA
ATOM      7  H   UNL A   1      30.828  25.186  26.759  1.00  0.00     0.163 HD
BRANCH   5   8
ATOM      8  C   UNL A   1      33.153  22.813  27.296  1.00  0.00     0.244 C 
BRANCH   8   9
ATOM      9  N   UNL A   1      33.819  22.244  26.124  1.00  0.00    -0.258 N 
ATOM     10  C   UNL A   1      36.558  23.093  24.063  1.00  0.00     0.071 C 
ATOM     11  C   UNL A   1      35.229  22.787  24.651  1.00  0.00     0.084 A 
ATOM     12  N   UNL A   1      35.129  22.512  25.959  1.00  0.00    -0.175 NA
ATOM     13  C   UNL A   1      33.963  22.683  23.994  1.00  0.00     0.093 A 
ATOM     14  C   UNL A   1      33.216  21.968  24.902  1.00  0.00     0.060 A 
ATOM     15  C   UNL A   1      32.038  21.105  24.704  1.00  0.00     0.069 C 
BRANCH  13  16
ATOM     16  N   UNL A   1      33.674  23.124  22.703  1.00  0.00    -0.276 N 
ATOM     17  H   UNL A   1      33.676  22.413  22.021  1.00  0.00     0.180 HD
BRANCH  16  18
ATOM     18  S   UNL A   1      33.323  24.653  22.103  1.00  0.00     0.264 S 
ATOM     19  O   UNL A   1      34.387  25.529  22.551  1.00  0.00    -0.201 OA
ATOM     20  O   UNL A   1      33.127  24.456  20.676  1.00  0.00    -0.201 OA
BRANCH  18  21
ATOM     21  C   UNL A   1      31.803  25.358  22.708  1.00  0.00     0.114 A 
ATOM     22  C   UNL A   1      30.838  24.421  23.157  1.00  0.00     0.024 A 
ATOM     23  C   UNL A   1      31.596  26.733  22.846  1.00  0.00     0.091 A 
ATOM     24  C   UNL A   1      29.707  24.830  23.845  1.00  0.00     0.002 A 
ATOM     25  C   UNL A   1      30.448  27.122  23.599  1.00  0.00     0.002 A 
ATOM     26  N   UNL A   1      32.428  27.678  22.354  1.00  0.00    -0.255 NA
ATOM     27  C   UNL A   1      29.530  26.181  24.095  1.00  0.00     0.010 A 
ATOM     28  C   UNL A   1      30.243  28.475  23.886  1.00  0.00     0.012 A 
ATOM     29  C   UNL A   1      32.159  28.985  22.596  1.00  0.00     0.112 A 
ATOM     30  C   UNL A   1      31.108  29.428  23.373  1.00  0.00     0.021 A 
ENDBRANCH  18  21
ENDBRANCH  16  18
ENDBRANCH  13  16
ENDBRANCH   8   9
ENDBRANCH   5   8
ENDBRANCH   3   4
ENDBRANCH   2   3
ENDBRANCH   1   2
BRANCH   1  31
ATOM     31  C   UNL A   1      34.274  28.906  26.981  1.00  0.00     0.002 C 
BRANCH  31  32
ATOM     32  C   UNL A   1      33.539  30.179  27.432  1.00  0.00     0.021 C 
BRANCH  32  33
ATOM     33  C   UNL A   1      34.416  31.423  27.418  1.00  0.00     0.116 C 
BRANCH  33  34
ATOM     34  N   UNL A   1      34.392  32.097  28.712  1.00  0.00    -0.352 N 
ATOM     35  C   UNL A   1      35.163  31.862  29.833  1.00  0.00     0.251 C 
ATOM     36  H   UNL A   1      33.733  32.823  28.798  1.00  0.00     0.163 HD
ATOM     37  O   UNL A   1      34.804  32.269  30.922  1.00  0.00    -0.269 OA
BRANCH  35  38
ATOM     38  C   UNL A   1      36.416  31.102  29.673  1.00  0.00     0.039 A 
ATOM     39  C   UNL A   1      37.626  31.763  29.456  1.00  0.00     0.014 A 
ATOM     40  C   UNL A   1      36.365  29.714  29.784  1.00  0.00     0.014 A 
ATOM     41  C   UNL A   1      38.801  31.018  29.440  1.00  0.00     0.010 A 
ATOM     42  C   UNL A   1      37.532  28.998  29.900  1.00  0.00     0.010 A 
ATOM     43  C   UNL A   1      38.750  29.636  29.686  1.00  0.00    -0.014 A 
BRANCH  43  44
ATOM     44  C   UNL A   1      39.982  28.868  29.860  1.00  0.00     0.031 A 
ATOM     45  C   UNL A   1      40.328  28.593  31.280  1.00  0.00     0.074 A 
ATOM     46  C   UNL A   1      40.623  28.251  28.843  1.00  0.00     0.049 A 
ATOM     47  N   UNL A   1      41.280  29.112  31.981  1.00  0.00    -0.248 NA
ATOM     48  C   UNL A   1      39.398  27.770  32.074  1.00  0.00     0.031 C 
ATOM     49  C   UNL A   1      40.188  28.158  27.443  1.00  0.00     0.029 A 
ATOM     50  N   UNL A   1      41.742  27.475  28.861  1.00  0.00    -0.354 N 
ATOM     51  C   UNL A   1      41.236  28.470  33.218  1.00  0.00     0.074 A 
ATOM     52  C   UNL A   1      39.939  27.858  33.292  1.00  0.00     0.031 C 
ATOM     53  C   UNL A   1      40.887  27.188  26.813  1.00  0.00     0.029 A 
ATOM     54  C   UNL A   1      41.944  26.736  27.698  1.00  0.00     0.049 A 
ATOM     55  H   UNL A   1      42.355  27.440  29.630  1.00  0.00     0.167 HD
ATOM     56  C   UNL A   1      42.379  28.257  33.932  1.00  0.00     0.034 A 
ATOM     57  C   UNL A   1      42.914  25.817  27.462  1.00  0.00     0.034 A 
ATOM     58  C   UNL A   1      43.464  29.028  33.368  1.00  0.00     0.049 A 
ATOM     59  C   UNL A   1      44.029  26.132  28.383  1.00  0.00     0.074 A 
ATOM     60  C   UNL A   1      43.815  30.357  33.299  1.00  0.00     0.029 A 
ATOM     61  N   UNL A   1      44.182  28.367  32.399  1.00  0.00    -0.354 N 
ATOM     62  N   UNL A   1      44.685  27.260  28.344  1.00  0.00    -0.248 NA
ATOM     63  C   UNL A   1      44.179  25.373  29.617  1.00  0.00     0.031 C 
ATOM     64  C   UNL A   1      44.538  30.502  32.076  1.00  0.00     0.029 A 
ATOM     65  C   UNL A   1      44.662  29.252  31.468  1.00  0.00     0.049 A 
ATOM     66  H   UNL A   1      44.330  27.394  32.377  1.00  0.00     0.167 HD
ATOM     67  C   UNL A   1      44.957  27.553  29.667  1.00  0.00     0.074 A 
ATOM     68  C   UNL A   1      44.788  26.291  30.375  1.00  0.00     0.031 C 
ATOM     69  C   UNL A   1      44.990  28.846  30.109  1.00  0.00     0.034 A 
BRANCH  56  70
ATOM     70  C   UNL A   1      42.676  27.047  34.810  1.00  0.00     0.023 A 
ATOM     71  C   UNL A   1      43.487  26.031  34.255  1.00  0.00     0.031 A 
ATOM     72  C   UNL A   1      41.999  26.696  36.000  1.00  0.00     0.131 A 
ATOM     73  C   UNL A   1      43.521  24.737  34.809  1.00  0.00     0.055 A 
ATOM     74  C   UNL A   1      42.077  25.422  36.575  1.00  0.00     0.041 A 
ATOM     75  F   UNL A   1      41.159  27.521  36.631  1.00  0.00    -0.206 F 
ATOM     76  C   UNL A   1      42.815  24.425  35.966  1.00  0.00     0.022 A 
BRANCH  73  77
ATOM     77  S   UNL A   1      44.380  23.421  33.903  1.00  0.00     0.124 S 
ATOM     78  O   UNL A   1      43.577  23.319  32.690  1.00  0.00    -0.237 OA
ATOM     79  O   UNL A   1      45.716  23.986  33.748  1.00  0.00    -0.237 OA
ATOM     80  O   UNL A   1      44.291  22.276  34.806  1.00  0.00    -0.744 OA
ENDBRANCH  73  77
ENDBRANCH  56  70
BRANCH  57  81
ATOM     81  C   UNL A   1      42.777  24.532  26.723  1.00  0.00     0.023 A 
ATOM     82  C   UNL A   1      43.802  23.998  25.913  1.00  0.00     0.031 A 
ATOM     83  C   UNL A   1      41.692  23.677  27.022  1.00  0.00     0.131 A 
ATOM     84  C   UNL A   1      43.721  22.661  25.453  1.00  0.00     0.055 A 
ATOM     85  C   UNL A   1      41.618  22.359  26.567  1.00  0.00     0.041 A 
ATOM     86  F   UNL A   1      40.705  24.071  27.843  1.00  0.00    -0.206 F 
ATOM     87  C   UNL A   1      42.641  21.840  25.788  1.00  0.00     0.022 A 
BRANCH  84  88
ATOM     88  S   UNL A   1      45.078  21.936  24.474  1.00  0.00     0.124 S 
ATOM     89  O   UNL A   1      45.356  22.987  23.503  1.00  0.00    -0.237 OA
ATOM     90  O   UNL A   1      46.101  21.699  25.487  1.00  0.00    -0.237 OA
ATOM     91  O   UNL A   1      44.484  20.723  23.912  1.00  0.00    -0.744 OA
ENDBRANCH  84  88
ENDBRANCH  57  81
BRANCH  69  92
ATOM     92  C   UNL A   1      45.267  29.934  29.096  1.00  0.00     0.023 A 
ATOM     93  C   UNL A   1      46.543  30.345  28.649  1.00  0.00     0.031 A 
ATOM     94  C   UNL A   1      44.141  30.538  28.506  1.00  0.00     0.131 A 
ATOM     95  C   UNL A   1      46.649  31.330  27.644  1.00  0.00     0.055 A 
ATOM     96  C   UNL A   1      44.249  31.491  27.497  1.00  0.00     0.041 A 
ATOM     97  F   UNL A   1      42.902  30.182  28.884  1.00  0.00    -0.206 F 
ATOM     98  C   UNL A   1      45.506  31.895  27.065  1.00  0.00     0.022 A 
BRANCH  95  99
ATOM     99  S   UNL A   1      48.278  31.920  27.079  1.00  0.00     0.124 S 
ATOM    100  O   UNL A   1      48.902  32.422  28.298  1.00  0.00    -0.237 OA
ATOM    101  O   UNL A   1      48.871  30.716  26.505  1.00  0.00    -0.237 OA
ATOM    102  O   UNL A   1      47.944  32.957  26.099  1.00  0.00    -0.744 OA
ENDBRANCH  95  99
ENDBRANCH  69  92
ENDBRANCH  43  44
ENDBRANCH  35  38
ENDBRANCH  33  34
ENDBRANCH  32  33
ENDBRANCH  31  32
ENDBRANCH   1  31
TORSDOF 20
ENDMDL
MODEL 2
REMARK VINA RESULT:     -12.0      3.498      7.945
REMARK SMILES Cc1nn(CC(=O)NCCCCCCNC(=O)c2ccc(-c3c4nc(c(-c5cc(S(=O)(=O)[O-])ccc5F)c5ccc([nH]5)c(-c5cc(S(=O)(=O)[O-])ccc5F)c5nc(c(-c6cc(S(=O)(=O)[O-])ccc6F)c6ccc3[nH]6)C=C5)C=C4)cc2)c(C)c1NS(=O)(=O)c1cccc2cccnc12
REMARK SMILES IDX 11 1 10 2 9 3 8 4 6 5 7 6 5 8 4 9 1 10 2 11 3 12 83 13 81 14
REMARK SMILES IDX 82 15 84 16 85 18 86 19 87 20 88 21 89 22 97 23 90 24 92 25
REMARK SMILES IDX 96 26 91 27 93 28 95 29 94 30 12 31 13 32 14 33 15 34 16 35
REMARK SMILES IDX 17 37 18 38 19 39 80 40 20 41 79 42 21 43 22 44 23 45 73 46
REMARK SMILES IDX 24 47 78 48 72 49 74 50 25 51 77 52 71 53 70 54 26 56 58 57
REMARK SMILES IDX 38 58 57 59 39 60 42 61 56 62 75 63 40 64 41 65 55 67 76 68
REMARK SMILES IDX 43 69 27 70 28 71 36 72 29 73 35 74 37 75 34 76 30 77 31 78
REMARK SMILES IDX 32 79 33 80 59 81 60 82 68 83 61 84 67 85 69 86 66 87 62 88
REMARK SMILES IDX 63 89 64 90 65 91 44 92 45 93 53 94 46 95 52 96 54 97 51 98
REMARK SMILES IDX 47 99 48 100 49 101 50 102
REMARK H PARENT 8 7 84 17 15 36 74 55 42 66
REMARK Flexibility Score: inf
ROOT
ATOM      1  C   UNL A   1      35.229  22.984  26.477  1.00  0.00     0.002 C 
ENDROOT
BRANCH   1   2
ATOM      2  C   UNL A   1      34.796  21.579  26.076  1.00  0.00     0.021 C 
BRANCH   2   3
ATOM      3  C   UNL A   1      33.399  21.219  26.578  1.00  0.00     0.116 C 
BRANCH   3   4
ATOM      4  N   UNL A   1      32.801  22.335  27.261  1.00  0.00    -0.354 N 
ATOM      5  C   UNL A   1      31.703  23.048  26.866  1.00  0.00     0.241 C 
ATOM      6  O   UNL A   1      31.370  24.008  27.566  1.00  0.00    -0.273 OA
ATOM      7  H   UNL A   1      33.227  22.616  28.103  1.00  0.00     0.163 HD
BRANCH   5   8
ATOM      8  C   UNL A   1      30.826  22.538  25.746  1.00  0.00     0.244 C 
BRANCH   8   9
ATOM      9  N   UNL A   1      31.041  23.099  24.411  1.00  0.00    -0.258 N 
ATOM     10  C   UNL A   1      33.571  22.973  21.950  1.00  0.00     0.071 C 
ATOM     11  C   UNL A   1      32.589  23.350  22.999  1.00  0.00     0.084 A 
ATOM     12  N   UNL A   1      31.822  22.404  23.560  1.00  0.00    -0.175 NA
ATOM     13  C   UNL A   1      32.276  24.649  23.506  1.00  0.00     0.093 A 
ATOM     14  C   UNL A   1      31.046  24.451  24.090  1.00  0.00     0.060 A 
ATOM     15  C   UNL A   1      29.950  25.399  24.358  1.00  0.00     0.069 C 
BRANCH  13  16
ATOM     16  N   UNL A   1      33.032  25.806  23.311  1.00  0.00    -0.276 N 
ATOM     17  H   UNL A   1      33.881  25.823  23.810  1.00  0.00     0.180 HD
BRANCH  16  18
ATOM     18  S   UNL A   1      32.752  27.172  22.377  1.00  0.00     0.264 S 
ATOM     19  O   UNL A   1      34.046  27.629  21.911  1.00  0.00    -0.201 OA
ATOM     20  O   UNL A   1      31.758  26.758  21.400  1.00  0.00    -0.201 OA
BRANCH  18  21
ATOM     21  C   UNL A   1      32.024  28.540  23.257  1.00  0.00     0.114 A 
ATOM     22  C   UNL A   1      30.854  29.084  22.669  1.00  0.00     0.024 A 
ATOM     23  C   UNL A   1      32.486  28.987  24.498  1.00  0.00     0.091 A 
ATOM     24  C   UNL A   1      30.068  30.000  23.350  1.00  0.00     0.002 A 
ATOM     25  C   UNL A   1      31.633  29.895  25.195  1.00  0.00     0.002 A 
ATOM     26  N   UNL A   1      33.642  28.581  25.067  1.00  0.00    -0.255 NA
ATOM     27  C   UNL A   1      30.442  30.380  24.629  1.00  0.00     0.010 A 
ATOM     28  C   UNL A   1      31.968  30.289  26.494  1.00  0.00     0.012 A 
ATOM     29  C   UNL A   1      33.966  29.038  26.302  1.00  0.00     0.112 A 
ATOM     30  C   UNL A   1      33.158  29.860  27.060  1.00  0.00     0.021 A 
ENDBRANCH  18  21
ENDBRANCH  16  18
ENDBRANCH  13  16
ENDBRANCH   8   9
ENDBRANCH   5   8
ENDBRANCH   3   4
ENDBRANCH   2   3
ENDBRANCH   1   2
BRANCH   1  31
ATOM     31  C   UNL A   1      36.209  23.647  25.497  1.00  0.00     0.002 C 
BRANCH  31  32
ATOM     32  C   UNL A   1      37.692  23.271  25.657  1.00  0.00     0.021 C 
BRANCH  32  33
ATOM     33  C   UNL A   1      38.486  24.275  26.481  1.00  0.00     0.116 C 
BRANCH  33  34
ATOM     34  N   UNL A   1      39.830  24.453  25.940  1.00  0.00    -0.352 N 
ATOM     35  C   UNL A   1      40.669  25.545  26.029  1.00  0.00     0.251 C 
ATOM     36  H   UNL A   1      40.189  23.684  25.441  1.00  0.00     0.163 HD
ATOM     37  O   UNL A   1      41.601  25.669  25.257  1.00  0.00    -0.269 OA
BRANCH  35  38
ATOM     38  C   UNL A   1      40.398  26.552  27.071  1.00  0.00     0.039 A 
ATOM     39  C   UNL A   1      40.148  26.163  28.388  1.00  0.00     0.014 A 
ATOM     40  C   UNL A   1      40.437  27.898  26.715  1.00  0.00     0.014 A 
ATOM     41  C   UNL A   1      40.025  27.147  29.364  1.00  0.00     0.010 A 
ATOM     42  C   UNL A   1      40.448  28.861  27.695  1.00  0.00     0.010 A 
ATOM     43  C   UNL A   1      40.200  28.496  29.015  1.00  0.00    -0.014 A 
BRANCH  43  44
ATOM     44  C   UNL A   1      40.262  29.527  30.049  1.00  0.00     0.031 A 
ATOM     45  C   UNL A   1      38.988  30.270  30.241  1.00  0.00     0.074 A 
ATOM     46  C   UNL A   1      41.288  29.644  30.921  1.00  0.00     0.049 A 
ATOM     47  N   UNL A   1      38.720  31.488  29.908  1.00  0.00    -0.248 NA
ATOM     48  C   UNL A   1      37.809  29.516  30.702  1.00  0.00     0.031 C 
ATOM     49  C   UNL A   1      42.446  28.751  31.058  1.00  0.00     0.029 A 
ATOM     50  N   UNL A   1      41.460  30.518  31.951  1.00  0.00    -0.354 N 
ATOM     51  C   UNL A   1      37.428  31.735  30.372  1.00  0.00     0.074 A 
ATOM     52  C   UNL A   1      36.851  30.444  30.619  1.00  0.00     0.031 C 
ATOM     53  C   UNL A   1      43.060  28.980  32.239  1.00  0.00     0.029 A 
ATOM     54  C   UNL A   1      42.466  30.158  32.844  1.00  0.00     0.049 A 
ATOM     55  H   UNL A   1      40.920  31.335  32.056  1.00  0.00     0.167 HD
ATOM     56  C   UNL A   1      37.066  32.983  30.789  1.00  0.00     0.034 A 
ATOM     57  C   UNL A   1      42.804  30.779  34.003  1.00  0.00     0.034 A 
ATOM     58  C   UNL A   1      38.068  33.947  30.392  1.00  0.00     0.049 A 
ATOM     59  C   UNL A   1      42.340  32.180  33.882  1.00  0.00     0.074 A 
ATOM     60  C   UNL A   1      38.493  34.518  29.214  1.00  0.00     0.029 A 
ATOM     61  N   UNL A   1      39.063  34.141  31.320  1.00  0.00    -0.354 N 
ATOM     62  N   UNL A   1      42.791  33.001  32.973  1.00  0.00    -0.248 NA
ATOM     63  C   UNL A   1      41.088  32.580  34.509  1.00  0.00     0.031 C 
ATOM     64  C   UNL A   1      39.881  34.797  29.400  1.00  0.00     0.029 A 
ATOM     65  C   UNL A   1      40.247  34.448  30.701  1.00  0.00     0.049 A 
ATOM     66  H   UNL A   1      38.943  34.069  32.295  1.00  0.00     0.167 HD
ATOM     67  C   UNL A   1      41.693  33.759  32.611  1.00  0.00     0.074 A 
ATOM     68  C   UNL A   1      40.740  33.584  33.699  1.00  0.00     0.031 C 
ATOM     69  C   UNL A   1      41.538  34.205  31.329  1.00  0.00     0.034 A 
BRANCH  56  70
ATOM     70  C   UNL A   1      36.104  33.304  31.927  1.00  0.00     0.023 A 
ATOM     71  C   UNL A   1      34.978  34.098  31.614  1.00  0.00     0.031 A 
ATOM     72  C   UNL A   1      36.363  33.142  33.306  1.00  0.00     0.131 A 
ATOM     73  C   UNL A   1      34.243  34.755  32.619  1.00  0.00     0.055 A 
ATOM     74  C   UNL A   1      35.597  33.756  34.305  1.00  0.00     0.041 A 
ATOM     75  F   UNL A   1      37.411  32.459  33.776  1.00  0.00    -0.206 F 
ATOM     76  C   UNL A   1      34.549  34.592  33.965  1.00  0.00     0.022 A 
BRANCH  73  77
ATOM     77  S   UNL A   1      32.972  35.954  32.131  1.00  0.00     0.124 S 
ATOM     78  O   UNL A   1      33.213  36.079  30.698  1.00  0.00    -0.237 OA
ATOM     79  O   UNL A   1      31.746  35.268  32.522  1.00  0.00    -0.237 OA
ATOM     80  O   UNL A   1      33.301  37.137  32.923  1.00  0.00    -0.744 OA
ENDBRANCH  73  77
ENDBRANCH  56  70
BRANCH  57  81
ATOM     81  C   UNL A   1      43.207  30.139  35.285  1.00  0.00     0.023 A 
ATOM     82  C   UNL A   1      42.795  28.843  35.662  1.00  0.00     0.031 A 
ATOM     83  C   UNL A   1      44.238  30.727  36.053  1.00  0.00     0.131 A 
ATOM     84  C   UNL A   1      43.416  28.189  36.753  1.00  0.00     0.055 A 
ATOM     85  C   UNL A   1      44.848  30.076  37.127  1.00  0.00     0.041 A 
ATOM     86  F   UNL A   1      44.747  31.926  35.728  1.00  0.00    -0.206 F 
ATOM     87  C   UNL A   1      44.447  28.795  37.475  1.00  0.00     0.022 A 
BRANCH  84  88
ATOM     88  S   UNL A   1      42.946  26.484  37.197  1.00  0.00     0.124 S 
ATOM     89  O   UNL A   1      43.723  26.252  38.408  1.00  0.00    -0.237 OA
ATOM     90  O   UNL A   1      41.501  26.592  37.362  1.00  0.00    -0.237 OA
ATOM     91  O   UNL A   1      43.370  25.699  36.036  1.00  0.00    -0.744 OA
ENDBRANCH  84  88
ENDBRANCH  57  81
BRANCH  69  92
ATOM     92  C   UNL A   1      42.776  34.340  30.470  1.00  0.00     0.023 A 
ATOM     93  C   UNL A   1      43.201  33.427  29.479  1.00  0.00     0.031 A 
ATOM     94  C   UNL A   1      43.527  35.518  30.641  1.00  0.00     0.131 A 
ATOM     95  C   UNL A   1      44.344  33.719  28.704  1.00  0.00     0.055 A 
ATOM     96  C   UNL A   1      44.639  35.813  29.858  1.00  0.00     0.041 A 
ATOM     97  F   UNL A   1      43.166  36.427  31.562  1.00  0.00    -0.206 F 
ATOM     98  C   UNL A   1      45.055  34.910  28.888  1.00  0.00     0.022 A 
BRANCH  95  99
ATOM     99  S   UNL A   1      44.951  32.541  27.452  1.00  0.00     0.124 S 
ATOM    100  O   UNL A   1      46.302  32.229  27.901  1.00  0.00    -0.237 OA
ATOM    101  O   UNL A   1      43.979  31.455  27.541  1.00  0.00    -0.237 OA
ATOM    102  O   UNL A   1      44.888  33.308  26.205  1.00  0.00    -0.744 OA
ENDBRANCH  95  99
ENDBRANCH  69  92
ENDBRANCH  43  44
ENDBRANCH  35  38
ENDBRANCH  33  34
ENDBRANCH  32  33
ENDBRANCH  31  32
ENDBRANCH   1  31
TORSDOF 20
ENDMDL
MODEL 3
REMARK VINA RESULT:     -12.0      1.241      3.566
REMARK SMILES Cc1nn(CC(=O)NCCCCCCNC(=O)c2ccc(-c3c4nc(c(-c5cc(S(=O)(=O)[O-])ccc5F)c5ccc([nH]5)c(-c5cc(S(=O)(=O)[O-])ccc5F)c5nc(c(-c6cc(S(=O)(=O)[O-])ccc6F)c6ccc3[nH]6)C=C5)C=C4)cc2)c(C)c1NS(=O)(=O)c1cccc2cccnc12
REMARK SMILES IDX 11 1 10 2 9 3 8 4 6 5 7 6 5 8 4 9 1 10 2 11 3 12 83 13 81 14
REMARK SMILES IDX 82 15 84 16 85 18 86 19 87 20 88 21 89 22 97 23 90 24 92 25
REMARK SMILES IDX 96 26 91 27 93 28 95 29 94 30 12 31 13 32 14 33 15 34 16 35
REMARK SMILES IDX 17 37 18 38 19 39 80 40 20 41 79 42 21 43 22 44 23 45 73 46
REMARK SMILES IDX 24 47 78 48 72 49 74 50 25 51 77 52 71 53 70 54 26 56 58 57
REMARK SMILES IDX 38 58 57 59 39 60 42 61 56 62 75 63 40 64 41 65 55 67 76 68
REMARK SMILES IDX 43 69 27 70 28 71 36 72 29 73 35 74 37 75 34 76 30 77 31 78
REMARK SMILES IDX 32 79 33 80 59 81 60 82 68 83 61 84 67 85 69 86 66 87 62 88
REMARK SMILES IDX 63 89 64 90 65 91 44 92 45 93 53 94 46 95 52 96 54 97 51 98
REMARK SMILES IDX 47 99 48 100 49 101 50 102
REMARK H PARENT 8 7 84 17 15 36 74 55 42 66
REMARK Flexibility Score: inf
ROOT
ATOM      1  C   UNL A   1      33.606  29.236  27.153  1.00  0.00     0.002 C 
ENDROOT
BRANCH   1   2
ATOM      2  C   UNL A   1      32.176  29.682  26.874  1.00  0.00     0.021 C 
BRANCH   2   3
ATOM      3  C   UNL A   1      31.821  29.650  25.388  1.00  0.00     0.116 C 
BRANCH   3   4
ATOM      4  N   UNL A   1      33.007  29.521  24.584  1.00  0.00    -0.354 N 
ATOM      5  C   UNL A   1      33.095  28.983  23.331  1.00  0.00     0.241 C 
ATOM      6  O   UNL A   1      34.218  28.916  22.821  1.00  0.00    -0.273 OA
ATOM      7  H   UNL A   1      33.845  29.855  24.979  1.00  0.00     0.163 HD
BRANCH   5   8
ATOM      8  C   UNL A   1      31.843  28.691  22.536  1.00  0.00     0.244 C 
BRANCH   8   9
ATOM      9  N   UNL A   1      31.184  27.405  22.765  1.00  0.00    -0.258 N 
ATOM     10  C   UNL A   1      29.720  25.720  25.502  1.00  0.00     0.071 C 
ATOM     11  C   UNL A   1      30.556  26.178  24.363  1.00  0.00     0.084 A 
ATOM     12  N   UNL A   1      30.272  27.338  23.755  1.00  0.00    -0.175 NA
ATOM     13  C   UNL A   1      31.657  25.513  23.737  1.00  0.00     0.093 A 
ATOM     14  C   UNL A   1      31.738  26.154  22.522  1.00  0.00     0.060 A 
ATOM     15  C   UNL A   1      32.281  25.694  21.232  1.00  0.00     0.069 C 
BRANCH  13  16
ATOM     16  N   UNL A   1      32.349  24.417  24.252  1.00  0.00    -0.276 N 
ATOM     17  H   UNL A   1      31.960  23.544  24.013  1.00  0.00     0.180 HD
BRANCH  16  18
ATOM     18  S   UNL A   1      33.727  24.322  25.207  1.00  0.00     0.264 S 
ATOM     19  O   UNL A   1      34.566  25.444  24.837  1.00  0.00    -0.201 OA
ATOM     20  O   UNL A   1      33.230  24.232  26.570  1.00  0.00    -0.201 OA
BRANCH  18  21
ATOM     21  C   UNL A   1      34.708  22.856  24.953  1.00  0.00     0.114 A 
ATOM     22  C   UNL A   1      36.104  23.024  25.133  1.00  0.00     0.024 A 
ATOM     23  C   UNL A   1      34.156  21.596  24.707  1.00  0.00     0.091 A 
ATOM     24  C   UNL A   1      36.958  21.932  25.178  1.00  0.00     0.002 A 
ATOM     25  C   UNL A   1      35.050  20.489  24.805  1.00  0.00     0.002 A 
ATOM     26  N   UNL A   1      32.850  21.381  24.431  1.00  0.00    -0.255 NA
ATOM     27  C   UNL A   1      36.423  20.662  25.048  1.00  0.00     0.010 A 
ATOM     28  C   UNL A   1      34.546  19.189  24.696  1.00  0.00     0.012 A 
ATOM     29  C   UNL A   1      32.411  20.110  24.264  1.00  0.00     0.112 A 
ATOM     30  C   UNL A   1      33.205  18.991  24.414  1.00  0.00     0.021 A 
ENDBRANCH  18  21
ENDBRANCH  16  18
ENDBRANCH  13  16
ENDBRANCH   8   9
ENDBRANCH   5   8
ENDBRANCH   3   4
ENDBRANCH   2   3
ENDBRANCH   1   2
BRANCH   1  31
ATOM     31  C   UNL A   1      34.580  30.386  27.453  1.00  0.00     0.002 C 
BRANCH  31  32
ATOM     32  C   UNL A   1      33.961  31.788  27.583  1.00  0.00     0.021 C 
BRANCH  32  33
ATOM     33  C   UNL A   1      34.918  32.822  28.156  1.00  0.00     0.116 C 
BRANCH  33  34
ATOM     34  N   UNL A   1      34.715  32.987  29.593  1.00  0.00    -0.352 N 
ATOM     35  C   UNL A   1      35.251  32.263  30.639  1.00  0.00     0.251 C 
ATOM     36  H   UNL A   1      34.110  33.719  29.852  1.00  0.00     0.163 HD
ATOM     37  O   UNL A   1      34.735  32.300  31.740  1.00  0.00    -0.269 OA
BRANCH  35  38
ATOM     38  C   UNL A   1      36.448  31.443  30.381  1.00  0.00     0.039 A 
ATOM     39  C   UNL A   1      37.683  32.046  30.133  1.00  0.00     0.014 A 
ATOM     40  C   UNL A   1      36.323  30.057  30.429  1.00  0.00     0.014 A 
ATOM     41  C   UNL A   1      38.811  31.238  30.023  1.00  0.00     0.010 A 
ATOM     42  C   UNL A   1      37.450  29.272  30.452  1.00  0.00     0.010 A 
ATOM     43  C   UNL A   1      38.692  29.852  30.207  1.00  0.00    -0.014 A 
BRANCH  43  44
ATOM     44  C   UNL A   1      39.884  29.009  30.283  1.00  0.00     0.031 A 
ATOM     45  C   UNL A   1      40.302  28.674  31.671  1.00  0.00     0.074 A 
ATOM     46  C   UNL A   1      40.422  28.384  29.212  1.00  0.00     0.049 A 
ATOM     47  N   UNL A   1      41.325  29.117  32.321  1.00  0.00    -0.248 NA
ATOM     48  C   UNL A   1      39.376  27.884  32.502  1.00  0.00     0.031 C 
ATOM     49  C   UNL A   1      39.895  28.355  27.841  1.00  0.00     0.029 A 
ATOM     50  N   UNL A   1      41.492  27.545  29.139  1.00  0.00    -0.354 N 
ATOM     51  C   UNL A   1      41.320  28.444  33.543  1.00  0.00     0.074 A 
ATOM     52  C   UNL A   1      39.997  27.906  33.685  1.00  0.00     0.031 C 
ATOM     53  C   UNL A   1      40.494  27.365  27.144  1.00  0.00     0.029 A 
ATOM     54  C   UNL A   1      41.576  26.828  27.948  1.00  0.00     0.049 A 
ATOM     55  H   UNL A   1      42.149  27.452  29.866  1.00  0.00     0.167 HD
ATOM     56  C   UNL A   1      42.491  28.145  34.176  1.00  0.00     0.034 A 
ATOM     57  C   UNL A   1      42.472  25.861  27.628  1.00  0.00     0.034 A 
ATOM     58  C   UNL A   1      43.583  28.867  33.563  1.00  0.00     0.049 A 
ATOM     59  C   UNL A   1      43.660  26.084  28.482  1.00  0.00     0.074 A 
ATOM     60  C   UNL A   1      44.008  30.175  33.503  1.00  0.00     0.029 A 
ATOM     61  N   UNL A   1      44.198  28.194  32.534  1.00  0.00    -0.354 N 
ATOM     62  N   UNL A   1      44.379  27.173  28.428  1.00  0.00    -0.248 NA
ATOM     63  C   UNL A   1      43.841  25.284  29.686  1.00  0.00     0.031 C 
ATOM     64  C   UNL A   1      44.660  30.312  32.240  1.00  0.00     0.029 A 
ATOM     65  C   UNL A   1      44.671  29.074  31.595  1.00  0.00     0.049 A 
ATOM     66  H   UNL A   1      44.286  27.215  32.478  1.00  0.00     0.167 HD
ATOM     67  C   UNL A   1      44.750  27.413  29.739  1.00  0.00     0.074 A 
ATOM     68  C   UNL A   1      44.550  26.143  30.425  1.00  0.00     0.031 C 
ATOM     69  C   UNL A   1      44.887  28.688  30.208  1.00  0.00     0.034 A 
BRANCH  56  70
ATOM     70  C   UNL A   1      42.770  26.896  35.003  1.00  0.00     0.023 A 
ATOM     71  C   UNL A   1      43.582  25.900  34.415  1.00  0.00     0.031 A 
ATOM     72  C   UNL A   1      42.077  26.497  36.168  1.00  0.00     0.131 A 
ATOM     73  C   UNL A   1      43.601  24.583  34.911  1.00  0.00     0.055 A 
ATOM     74  C   UNL A   1      42.139  25.198  36.688  1.00  0.00     0.041 A 
ATOM     75  F   UNL A   1      41.234  27.299  36.825  1.00  0.00    -0.206 F 
ATOM     76  C   UNL A   1      42.880  24.224  36.044  1.00  0.00     0.022 A 
BRANCH  73  77
ATOM     77  S   UNL A   1      44.464  23.302  33.959  1.00  0.00     0.124 S 
ATOM     78  O   UNL A   1      43.508  23.028  32.893  1.00  0.00    -0.237 OA
ATOM     79  O   UNL A   1      45.688  23.993  33.566  1.00  0.00    -0.237 OA
ATOM     80  O   UNL A   1      44.643  22.223  34.927  1.00  0.00    -0.744 OA
ENDBRANCH  73  77
ENDBRANCH  56  70
BRANCH  57  81
ATOM     81  C   UNL A   1      42.213  24.607  26.867  1.00  0.00     0.023 A 
ATOM     82  C   UNL A   1      43.208  23.941  26.121  1.00  0.00     0.031 A 
ATOM     83  C   UNL A   1      41.006  23.906  27.086  1.00  0.00     0.131 A 
ATOM     84  C   UNL A   1      42.978  22.628  25.643  1.00  0.00     0.055 A 
ATOM     85  C   UNL A   1      40.785  22.611  26.613  1.00  0.00     0.041 A 
ATOM     86  F   UNL A   1      40.028  24.429  27.845  1.00  0.00    -0.206 F 
ATOM     87  C   UNL A   1      41.778  21.960  25.898  1.00  0.00     0.022 A 
BRANCH  84  88
ATOM     88  S   UNL A   1      44.287  21.728  24.747  1.00  0.00     0.124 S 
ATOM     89  O   UNL A   1      44.307  22.410  23.459  1.00  0.00    -0.237 OA
ATOM     90  O   UNL A   1      45.448  21.928  25.607  1.00  0.00    -0.237 OA
ATOM     91  O   UNL A   1      43.788  20.353  24.705  1.00  0.00    -0.744 OA
ENDBRANCH  84  88
ENDBRANCH  57  81
BRANCH  69  92
ATOM     92  C   UNL A   1      45.165  29.787  29.206  1.00  0.00     0.023 A 
ATOM     93  C   UNL A   1      46.435  30.150  28.705  1.00  0.00     0.031 A 
ATOM     94  C   UNL A   1      44.041  30.455  28.686  1.00  0.00     0.131 A 
ATOM     95  C   UNL A   1      46.537  31.153  27.717  1.00  0.00     0.055 A 
ATOM     96  C   UNL A   1      44.143  31.425  27.694  1.00  0.00     0.041 A 
ATOM     97  F   UNL A   1      42.806  30.146  29.118  1.00  0.00    -0.206 F 
ATOM     98  C   UNL A   1      45.395  31.782  27.209  1.00  0.00     0.022 A 
BRANCH  95  99
ATOM     99  S   UNL A   1      48.163  31.683  27.085  1.00  0.00     0.124 S 
ATOM    100  O   UNL A   1      48.714  30.468  26.496  1.00  0.00    -0.237 OA
ATOM    101  O   UNL A   1      47.808  32.746  26.149  1.00  0.00    -0.237 OA
ATOM    102  O   UNL A   1      48.862  32.143  28.288  1.00  0.00    -0.744 OA
ENDBRANCH  95  99
ENDBRANCH  69  92
ENDBRANCH  43  44
ENDBRANCH  35  38
ENDBRANCH  33  34
ENDBRANCH  32  33
ENDBRANCH  31  32
ENDBRANCH   1  31
TORSDOF 20
ENDMDL
