MODEL 1
REMARK VINA RESULT:     -10.3      0.000      0.000
REMARK SMILES COc1ccc2c(c1)c(Cc1nc(-c3ccc(C(=O)NCCCCCCNC(=O)c4ccc(-c5c6nc(c(-c7cc(S(=O)(=O)[O-])ccc7F)c7ccc([nH]7)c(-c7cc(S(=O)(=O)[O-])ccc7F)c7nc(c(-c8cc(S(=O)(=O)[O-])ccc8F)c8ccc5[nH]8)C=C7)C=C6)cc4)cc3)cs1)c(C)n2C(=O)c1ccc(Cl)cc1
REMARK SMILES IDX 22 1 21 2 20 3 18 4 19 5 17 7 14 8 15 9 94 10 16 11 93 12
REMARK SMILES IDX 13 13 11 14 12 15 96 16 95 17 10 18 9 19 3 20 4 21 8 22 5 23
REMARK SMILES IDX 7 24 6 25 99 26 97 27 98 28 2 29 1 30 100 31 101 32 102 33
REMARK SMILES IDX 103 34 108 35 104 36 107 37 105 38 106 39 23 40 24 41 25 42
REMARK SMILES IDX 26 43 27 44 28 45 29 47 30 48 31 49 92 50 32 51 91 52 33 53
REMARK SMILES IDX 34 54 35 55 85 56 36 57 90 58 84 59 86 60 37 61 89 62 83 63
REMARK SMILES IDX 82 64 38 66 70 67 50 68 69 69 51 70 54 71 68 72 87 73 52 74
REMARK SMILES IDX 53 75 67 77 88 78 55 79 39 80 40 81 48 82 41 83 47 84 49 85
REMARK SMILES IDX 46 86 42 87 43 88 44 89 45 90 71 91 72 92 80 93 73 94 79 95
REMARK SMILES IDX 81 96 78 97 74 98 75 99 76 100 77 101 56 102 57 103 65 104
REMARK SMILES IDX 58 105 64 106 66 107 63 108 59 109 60 110 61 111 62 112
REMARK H PARENT 20 6 27 46 86 65 54 76
REMARK Flexibility Score: inf
ROOT
ATOM      1  C   UNL A   1      36.660  33.765  35.113  1.00  0.00     0.021 C 
ENDROOT
BRANCH   1   2
ATOM      2  C   UNL A   1      37.777  33.527  36.123  1.00  0.00     0.116 C 
BRANCH   2   3
ATOM      3  N   UNL A   1      38.422  32.231  35.995  1.00  0.00    -0.352 N 
ATOM      4  C   UNL A   1      39.418  31.790  35.154  1.00  0.00     0.251 C 
ATOM      5  O   UNL A   1      39.773  30.615  35.225  1.00  0.00    -0.269 OA
ATOM      6  H   UNL A   1      38.087  31.548  36.621  1.00  0.00     0.163 HD
BRANCH   4   7
ATOM      7  C   UNL A   1      40.012  32.661  34.102  1.00  0.00     0.039 A 
ATOM      8  C   UNL A   1      41.500  34.184  32.260  1.00  0.00     0.001 A 
ATOM      9  C   UNL A   1      41.447  34.561  33.605  1.00  0.00     0.011 A 
ATOM     10  C   UNL A   1      40.685  33.128  31.827  1.00  0.00     0.011 A 
ATOM     11  C   UNL A   1      40.714  33.799  34.521  1.00  0.00     0.014 A 
ATOM     12  C   UNL A   1      39.916  32.398  32.736  1.00  0.00     0.014 A 
BRANCH   8  13
ATOM     13  C   UNL A   1      42.358  34.858  31.298  1.00  0.00     0.081 A 
ATOM     14  C   UNL A   1      43.978  36.257  30.721  1.00  0.00     0.098 A 
ATOM     15  N   UNL A   1      43.233  35.834  31.718  1.00  0.00    -0.241 NA
ATOM     16  S   UNL A   1      43.545  35.632  29.182  1.00  0.00    -0.126 S 
ATOM     17  C   UNL A   1      42.343  34.658  29.933  1.00  0.00     0.095 A 
BRANCH  14  18
ATOM     18  C   UNL A   1      45.118  37.216  30.893  1.00  0.00     0.105 C 
BRANCH  18  19
ATOM     19  C   UNL A   1      44.866  38.530  30.194  1.00  0.00    -0.012 A 
ATOM     20  C   UNL A   1      42.713  40.981  32.199  1.00  0.00     0.119 A 
ATOM     21  C   UNL A   1      42.603  41.932  31.201  1.00  0.00     0.048 A 
ATOM     22  C   UNL A   1      43.433  39.815  31.946  1.00  0.00     0.057 A 
ATOM     23  C   UNL A   1      43.226  41.740  29.959  1.00  0.00     0.031 A 
ATOM     24  C   UNL A   1      44.100  39.611  30.714  1.00  0.00     0.008 A 
ATOM     25  C   UNL A   1      44.035  40.604  29.734  1.00  0.00     0.057 A 
ATOM     26  N   UNL A   1      44.857  40.209  28.660  1.00  0.00    -0.280 N 
ATOM     27  C   UNL A   1      45.317  38.908  28.934  1.00  0.00     0.028 A 
ATOM     28  C   UNL A   1      46.171  38.067  28.037  1.00  0.00     0.065 C 
BRANCH  20  29
ATOM     29  O   UNL A   1      42.195  41.077  33.459  1.00  0.00    -0.497 OA
ATOM     30  C   UNL A   1      42.431  42.298  34.149  1.00  0.00     0.278 C 
ENDBRANCH  20  29
BRANCH  26  31
ATOM     31  C   UNL A   1      45.162  40.990  27.500  1.00  0.00     0.262 C 
ATOM     32  O   UNL A   1      46.315  41.326  27.282  1.00  0.00    -0.268 OA
BRANCH  31  33
ATOM     33  C   UNL A   1      44.181  41.416  26.483  1.00  0.00     0.040 A 
ATOM     34  C   UNL A   1      43.011  40.684  26.251  1.00  0.00     0.015 A 
ATOM     35  C   UNL A   1      44.468  42.563  25.735  1.00  0.00     0.015 A 
ATOM     36  C   UNL A   1      42.174  41.054  25.195  1.00  0.00     0.021 A 
ATOM     37  C   UNL A   1      43.622  42.933  24.689  1.00  0.00     0.021 A 
ATOM     38  C   UNL A   1      42.491  42.166  24.411  1.00  0.00     0.041 A 
ATOM     39  Cl  UNL A   1      41.490  42.584  23.076  1.00  0.00    -0.084 Cl
ENDBRANCH  31  33
ENDBRANCH  26  31
ENDBRANCH  18  19
ENDBRANCH  14  18
ENDBRANCH   8  13
ENDBRANCH   4   7
ENDBRANCH   2   3
ENDBRANCH   1   2
BRANCH   1  40
ATOM     40  C   UNL A   1      37.025  34.592  33.882  1.00  0.00     0.002 C 
BRANCH  40  41
ATOM     41  C   UNL A   1      36.468  34.099  32.543  1.00  0.00     0.002 C 
BRANCH  41  42
ATOM     42  C   UNL A   1      36.123  32.605  32.451  1.00  0.00     0.021 C 
BRANCH  42  43
ATOM     43  C   UNL A   1      34.709  32.287  31.964  1.00  0.00     0.116 C 
BRANCH  43  44
ATOM     44  N   UNL A   1      34.491  32.574  30.564  1.00  0.00    -0.352 N 
ATOM     45  C   UNL A   1      35.043  32.149  29.389  1.00  0.00     0.251 C 
ATOM     46  H   UNL A   1      33.774  33.233  30.424  1.00  0.00     0.163 HD
ATOM     47  O   UNL A   1      34.470  32.534  28.366  1.00  0.00    -0.269 OA
BRANCH  45  48
ATOM     48  C   UNL A   1      36.286  31.341  29.258  1.00  0.00     0.039 A 
ATOM     49  C   UNL A   1      36.354  29.950  29.214  1.00  0.00     0.014 A 
ATOM     50  C   UNL A   1      37.493  32.071  29.260  1.00  0.00     0.014 A 
ATOM     51  C   UNL A   1      37.586  29.305  29.289  1.00  0.00     0.010 A 
ATOM     52  C   UNL A   1      38.727  31.432  29.319  1.00  0.00     0.010 A 
ATOM     53  C   UNL A   1      38.767  30.046  29.397  1.00  0.00    -0.014 A 
BRANCH  53  54
ATOM     54  C   UNL A   1      40.017  29.309  29.545  1.00  0.00     0.031 A 
ATOM     55  C   UNL A   1      40.320  28.840  30.927  1.00  0.00     0.074 A 
ATOM     56  C   UNL A   1      40.834  29.003  28.518  1.00  0.00     0.049 A 
ATOM     57  N   UNL A   1      41.284  29.214  31.705  1.00  0.00    -0.248 NA
ATOM     58  C   UNL A   1      39.356  27.933  31.563  1.00  0.00     0.031 C 
ATOM     59  C   UNL A   1      40.577  29.103  27.079  1.00  0.00     0.029 A 
ATOM     60  N   UNL A   1      42.068  28.434  28.565  1.00  0.00    -0.354 N 
ATOM     61  C   UNL A   1      41.148  28.477  32.881  1.00  0.00     0.074 A 
ATOM     62  C   UNL A   1      39.874  27.805  32.785  1.00  0.00     0.031 C 
ATOM     63  C   UNL A   1      41.509  28.385  26.411  1.00  0.00     0.029 A 
ATOM     64  C   UNL A   1      42.507  27.914  27.359  1.00  0.00     0.049 A 
ATOM     65  H   UNL A   1      42.606  28.395  29.390  1.00  0.00     0.167 HD
ATOM     66  C   UNL A   1      42.156  28.353  33.791  1.00  0.00     0.034 A 
ATOM     67  C   UNL A   1      43.559  27.075  27.173  1.00  0.00     0.034 A 
ATOM     68  C   UNL A   1      43.194  29.321  33.565  1.00  0.00     0.049 A 
ATOM     69  C   UNL A   1      44.450  27.190  28.356  1.00  0.00     0.074 A 
ATOM     70  C   UNL A   1      43.248  30.699  33.609  1.00  0.00     0.029 A 
ATOM     71  N   UNL A   1      44.313  28.923  32.874  1.00  0.00    -0.354 N 
ATOM     72  N   UNL A   1      45.161  28.248  28.635  1.00  0.00    -0.248 NA
ATOM     73  C   UNL A   1      44.191  26.298  29.477  1.00  0.00     0.031 C 
ATOM     74  C   UNL A   1      44.094  31.064  32.524  1.00  0.00     0.029 A 
ATOM     75  C   UNL A   1      44.560  29.888  31.931  1.00  0.00     0.049 A 
ATOM     76  H   UNL A   1      44.837  28.103  33.027  1.00  0.00     0.167 HD
ATOM     77  C   UNL A   1      45.038  28.395  30.008  1.00  0.00     0.074 A 
ATOM     78  C   UNL A   1      44.506  27.118  30.483  1.00  0.00     0.031 C 
ATOM     79  C   UNL A   1      45.099  29.620  30.611  1.00  0.00     0.034 A 
BRANCH  66  80
ATOM     80  C   UNL A   1      42.323  27.189  34.734  1.00  0.00     0.023 A 
ATOM     81  C   UNL A   1      43.094  26.059  34.405  1.00  0.00     0.031 A 
ATOM     82  C   UNL A   1      41.891  27.272  36.073  1.00  0.00     0.131 A 
ATOM     83  C   UNL A   1      43.379  25.064  35.348  1.00  0.00     0.055 A 
ATOM     84  C   UNL A   1      42.235  26.312  37.035  1.00  0.00     0.041 A 
ATOM     85  F   UNL A   1      41.163  28.314  36.503  1.00  0.00    -0.206 F 
ATOM     86  C   UNL A   1      42.981  25.197  36.674  1.00  0.00     0.022 A 
BRANCH  83  87
ATOM     87  S   UNL A   1      44.286  23.572  34.858  1.00  0.00     0.124 S 
ATOM     88  O   UNL A   1      44.549  22.942  36.147  1.00  0.00    -0.237 OA
ATOM     89  O   UNL A   1      43.306  22.897  34.010  1.00  0.00    -0.237 OA
ATOM     90  O   UNL A   1      45.452  24.098  34.155  1.00  0.00    -0.744 OA
ENDBRANCH  83  87
ENDBRANCH  66  80
BRANCH  67  91
ATOM     91  C   UNL A   1      43.522  25.847  26.342  1.00  0.00     0.023 A 
ATOM     92  C   UNL A   1      42.675  24.784  26.711  1.00  0.00     0.031 A 
ATOM     93  C   UNL A   1      44.512  25.576  25.384  1.00  0.00     0.131 A 
ATOM     94  C   UNL A   1      42.856  23.503  26.175  1.00  0.00     0.055 A 
ATOM     95  C   UNL A   1      44.681  24.297  24.833  1.00  0.00     0.041 A 
ATOM     96  F   UNL A   1      45.382  26.530  25.015  1.00  0.00    -0.206 F 
ATOM     97  C   UNL A   1      43.858  23.250  25.239  1.00  0.00     0.022 A 
BRANCH  94  98
ATOM     98  S   UNL A   1      41.838  22.121  26.761  1.00  0.00     0.124 S 
ATOM     99  O   UNL A   1      40.519  22.464  26.235  1.00  0.00    -0.237 OA
ATOM    100  O   UNL A   1      42.491  20.982  26.129  1.00  0.00    -0.237 OA
ATOM    101  O   UNL A   1      41.960  22.198  28.214  1.00  0.00    -0.744 OA
ENDBRANCH  94  98
ENDBRANCH  67  91
BRANCH  79 102
ATOM    102  C   UNL A   1      45.491  30.838  29.798  1.00  0.00     0.023 A 
ATOM    103  C   UNL A   1      44.656  31.187  28.721  1.00  0.00     0.031 A 
ATOM    104  C   UNL A   1      46.745  31.477  29.876  1.00  0.00     0.131 A 
ATOM    105  C   UNL A   1      45.096  32.089  27.744  1.00  0.00     0.055 A 
ATOM    106  C   UNL A   1      47.148  32.436  28.940  1.00  0.00     0.041 A 
ATOM    107  F   UNL A   1      47.655  31.132  30.795  1.00  0.00    -0.206 F 
ATOM    108  C   UNL A   1      46.331  32.730  27.854  1.00  0.00     0.022 A 
BRANCH 105 109
ATOM    109  S   UNL A   1      44.149  32.311  26.215  1.00  0.00     0.124 S 
ATOM    110  O   UNL A   1      43.378  31.074  26.148  1.00  0.00    -0.237 OA
ATOM    111  O   UNL A   1      43.375  33.518  26.501  1.00  0.00    -0.237 OA
ATOM    112  O   UNL A   1      45.172  32.466  25.184  1.00  0.00    -0.744 OA
ENDBRANCH 105 109
ENDBRANCH  79 102
ENDBRANCH  53  54
ENDBRANCH  45  48
ENDBRANCH  43  44
ENDBRANCH  42  43
ENDBRANCH  41  42
ENDBRANCH  40  41
ENDBRANCH   1  40
TORSDOF 22
ENDMDL
MODEL 2
REMARK VINA RESULT:      -9.9      5.644     12.082
REMARK SMILES COc1ccc2c(c1)c(Cc1nc(-c3ccc(C(=O)NCCCCCCNC(=O)c4ccc(-c5c6nc(c(-c7cc(S(=O)(=O)[O-])ccc7F)c7ccc([nH]7)c(-c7cc(S(=O)(=O)[O-])ccc7F)c7nc(c(-c8cc(S(=O)(=O)[O-])ccc8F)c8ccc5[nH]8)C=C7)C=C6)cc4)cc3)cs1)c(C)n2C(=O)c1ccc(Cl)cc1
REMARK SMILES IDX 22 1 21 2 20 3 18 4 19 5 17 7 14 8 15 9 94 10 16 11 93 12
REMARK SMILES IDX 13 13 11 14 12 15 96 16 95 17 10 18 9 19 3 20 4 21 8 22 5 23
REMARK SMILES IDX 7 24 6 25 99 26 97 27 98 28 2 29 1 30 100 31 101 32 102 33
REMARK SMILES IDX 103 34 108 35 104 36 107 37 105 38 106 39 23 40 24 41 25 42
REMARK SMILES IDX 26 43 27 44 28 45 29 47 30 48 31 49 92 50 32 51 91 52 33 53
REMARK SMILES IDX 34 54 35 55 85 56 36 57 90 58 84 59 86 60 37 61 89 62 83 63
REMARK SMILES IDX 82 64 38 66 70 67 50 68 69 69 51 70 54 71 68 72 87 73 52 74
REMARK SMILES IDX 53 75 67 77 88 78 55 79 39 80 40 81 48 82 41 83 47 84 49 85
REMARK SMILES IDX 46 86 42 87 43 88 44 89 45 90 71 91 72 92 80 93 73 94 79 95
REMARK SMILES IDX 81 96 78 97 74 98 75 99 76 100 77 101 56 102 57 103 65 104
REMARK SMILES IDX 58 105 64 106 66 107 63 108 59 109 60 110 61 111 62 112
REMARK H PARENT 20 6 27 46 86 65 54 76
REMARK Flexibility Score: inf
ROOT
ATOM      1  C   UNL A   1      41.355  31.123  31.626  1.00  0.00     0.021 C 
ENDROOT
BRANCH   1   2
ATOM      2  C   UNL A   1      41.603  30.674  30.190  1.00  0.00     0.116 C 
BRANCH   2   3
ATOM      3  N   UNL A   1      41.493  29.239  29.993  1.00  0.00    -0.352 N 
ATOM      4  C   UNL A   1      40.449  28.459  29.550  1.00  0.00     0.251 C 
ATOM      5  O   UNL A   1      40.602  27.239  29.502  1.00  0.00    -0.269 OA
ATOM      6  H   UNL A   1      42.309  28.735  30.216  1.00  0.00     0.163 HD
BRANCH   4   7
ATOM      7  C   UNL A   1      39.116  29.032  29.218  1.00  0.00     0.039 A 
ATOM      8  C   UNL A   1      36.562  29.806  28.319  1.00  0.00     0.001 A 
ATOM      9  C   UNL A   1      37.681  29.983  27.498  1.00  0.00     0.011 A 
ATOM     10  C   UNL A   1      36.759  29.378  29.640  1.00  0.00     0.011 A 
ATOM     11  C   UNL A   1      38.948  29.590  27.943  1.00  0.00     0.014 A 
ATOM     12  C   UNL A   1      38.033  29.032  30.097  1.00  0.00     0.014 A 
BRANCH   8  13
ATOM     13  C   UNL A   1      35.209  30.067  27.852  1.00  0.00     0.081 A 
ATOM     14  C   UNL A   1      33.174  29.455  27.221  1.00  0.00     0.098 A 
ATOM     15  N   UNL A   1      34.373  29.020  27.536  1.00  0.00    -0.241 NA
ATOM     16  S   UNL A   1      33.032  31.163  27.113  1.00  0.00    -0.126 S 
ATOM     17  C   UNL A   1      34.668  31.315  27.620  1.00  0.00     0.095 A 
BRANCH  14  18
ATOM     18  C   UNL A   1      32.009  28.547  26.967  1.00  0.00     0.105 C 
BRANCH  18  19
ATOM     19  C   UNL A   1      32.064  27.924  25.593  1.00  0.00    -0.012 A 
ATOM     20  C   UNL A   1      29.944  29.734  22.968  1.00  0.00     0.119 A 
ATOM     21  C   UNL A   1      30.141  28.812  21.957  1.00  0.00     0.048 A 
ATOM     22  C   UNL A   1      30.532  29.511  24.211  1.00  0.00     0.057 A 
ATOM     23  C   UNL A   1      30.941  27.679  22.168  1.00  0.00     0.031 A 
ATOM     24  C   UNL A   1      31.372  28.395  24.441  1.00  0.00     0.008 A 
ATOM     25  C   UNL A   1      31.616  27.501  23.397  1.00  0.00     0.057 A 
ATOM     26  N   UNL A   1      32.553  26.551  23.847  1.00  0.00    -0.280 N 
ATOM     27  C   UNL A   1      32.777  26.791  25.215  1.00  0.00     0.028 A 
ATOM     28  C   UNL A   1      33.654  25.984  26.120  1.00  0.00     0.065 C 
BRANCH  20  29
ATOM     29  O   UNL A   1      29.229  30.894  22.867  1.00  0.00    -0.497 OA
ATOM     30  C   UNL A   1      29.034  31.623  24.073  1.00  0.00     0.278 C 
ENDBRANCH  20  29
BRANCH  26  31
ATOM     31  C   UNL A   1      33.160  25.525  23.055  1.00  0.00     0.262 C 
ATOM     32  O   UNL A   1      33.790  25.825  22.054  1.00  0.00    -0.268 OA
BRANCH  31  33
ATOM     33  C   UNL A   1      33.125  24.082  23.365  1.00  0.00     0.040 A 
ATOM     34  C   UNL A   1      34.296  23.316  23.390  1.00  0.00     0.015 A 
ATOM     35  C   UNL A   1      31.880  23.493  23.609  1.00  0.00     0.015 A 
ATOM     36  C   UNL A   1      34.203  21.933  23.565  1.00  0.00     0.021 A 
ATOM     37  C   UNL A   1      31.794  22.113  23.793  1.00  0.00     0.021 A 
ATOM     38  C   UNL A   1      32.952  21.337  23.750  1.00  0.00     0.041 A 
ATOM     39  Cl  UNL A   1      32.835  19.629  23.906  1.00  0.00    -0.084 Cl
ENDBRANCH  31  33
ENDBRANCH  26  31
ENDBRANCH  18  19
ENDBRANCH  14  18
ENDBRANCH   8  13
ENDBRANCH   4   7
ENDBRANCH   2   3
ENDBRANCH   1   2
BRANCH   1  40
ATOM     40  C   UNL A   1      39.921  31.518  31.974  1.00  0.00     0.002 C 
BRANCH  40  41
ATOM     41  C   UNL A   1      39.225  30.674  33.046  1.00  0.00     0.002 C 
BRANCH  41  42
ATOM     42  C   UNL A   1      39.142  31.284  34.453  1.00  0.00     0.021 C 
BRANCH  42  43
ATOM     43  C   UNL A   1      40.349  31.023  35.355  1.00  0.00     0.116 C 
BRANCH  43  44
ATOM     44  N   UNL A   1      40.283  29.773  36.078  1.00  0.00    -0.352 N 
ATOM     45  C   UNL A   1      41.058  28.651  36.149  1.00  0.00     0.251 C 
ATOM     46  H   UNL A   1      39.489  29.718  36.657  1.00  0.00     0.163 HD
ATOM     47  O   UNL A   1      40.729  27.835  37.016  1.00  0.00    -0.269 OA
BRANCH  45  48
ATOM     48  C   UNL A   1      42.189  28.320  35.239  1.00  0.00     0.039 A 
ATOM     49  C   UNL A   1      43.541  28.520  35.513  1.00  0.00     0.014 A 
ATOM     50  C   UNL A   1      41.827  27.836  33.966  1.00  0.00     0.014 A 
ATOM     51  C   UNL A   1      44.491  28.356  34.508  1.00  0.00     0.010 A 
ATOM     52  C   UNL A   1      42.774  27.654  32.963  1.00  0.00     0.010 A 
ATOM     53  C   UNL A   1      44.100  27.975  33.220  1.00  0.00    -0.014 A 
BRANCH  53  54
ATOM     54  C   UNL A   1      45.136  27.892  32.197  1.00  0.00     0.031 A 
ATOM     55  C   UNL A   1      45.179  29.032  31.238  1.00  0.00     0.074 A 
ATOM     56  C   UNL A   1      46.045  26.899  32.129  1.00  0.00     0.049 A 
ATOM     57  N   UNL A   1      44.932  29.019  29.968  1.00  0.00    -0.248 NA
ATOM     58  C   UNL A   1      45.406  30.374  31.790  1.00  0.00     0.031 C 
ATOM     59  C   UNL A   1      46.359  25.871  33.125  1.00  0.00     0.029 A 
ATOM     60  N   UNL A   1      46.963  26.664  31.153  1.00  0.00    -0.354 N 
ATOM     61  C   UNL A   1      45.121  30.326  29.518  1.00  0.00     0.074 A 
ATOM     62  C   UNL A   1      45.284  31.135  30.701  1.00  0.00     0.031 C 
ATOM     63  C   UNL A   1      47.544  25.299  32.813  1.00  0.00     0.029 A 
ATOM     64  C   UNL A   1      47.985  25.804  31.522  1.00  0.00     0.049 A 
ATOM     65  H   UNL A   1      46.907  27.072  30.258  1.00  0.00     0.167 HD
ATOM     66  C   UNL A   1      45.276  30.633  28.198  1.00  0.00     0.034 A 
ATOM     67  C   UNL A   1      49.152  25.603  30.859  1.00  0.00     0.034 A 
ATOM     68  C   UNL A   1      44.883  29.540  27.352  1.00  0.00     0.049 A 
ATOM     69  C   UNL A   1      48.965  26.053  29.456  1.00  0.00     0.074 A 
ATOM     70  C   UNL A   1      43.689  28.889  27.117  1.00  0.00     0.029 A 
ATOM     71  N   UNL A   1      45.864  28.713  26.860  1.00  0.00    -0.354 N 
ATOM     72  N   UNL A   1      48.204  25.445  28.589  1.00  0.00    -0.248 NA
ATOM     73  C   UNL A   1      49.265  27.447  29.156  1.00  0.00     0.031 C 
ATOM     74  C   UNL A   1      44.045  27.518  26.977  1.00  0.00     0.029 A 
ATOM     75  C   UNL A   1      45.436  27.426  27.062  1.00  0.00     0.049 A 
ATOM     76  H   UNL A   1      46.712  28.992  26.442  1.00  0.00     0.167 HD
ATOM     77  C   UNL A   1      47.562  26.472  27.912  1.00  0.00     0.074 A 
ATOM     78  C   UNL A   1      48.320  27.678  28.241  1.00  0.00     0.031 C 
ATOM     79  C   UNL A   1      46.313  26.316  27.381  1.00  0.00     0.034 A 
BRANCH  66  80
ATOM     80  C   UNL A   1      46.026  31.832  27.679  1.00  0.00     0.023 A 
ATOM     81  C   UNL A   1      47.431  31.899  27.674  1.00  0.00     0.031 A 
ATOM     82  C   UNL A   1      45.358  32.857  26.976  1.00  0.00     0.131 A 
ATOM     83  C   UNL A   1      48.116  32.942  27.038  1.00  0.00     0.055 A 
ATOM     84  C   UNL A   1      46.044  33.862  26.280  1.00  0.00     0.041 A 
ATOM     85  F   UNL A   1      44.018  32.886  26.901  1.00  0.00    -0.206 F 
ATOM     86  C   UNL A   1      47.432  33.910  26.310  1.00  0.00     0.022 A 
BRANCH  83  87
ATOM     87  S   UNL A   1      49.923  33.048  27.143  1.00  0.00     0.124 S 
ATOM     88  O   UNL A   1      50.191  32.356  28.399  1.00  0.00    -0.237 OA
ATOM     89  O   UNL A   1      50.330  32.342  25.931  1.00  0.00    -0.237 OA
ATOM     90  O   UNL A   1      50.181  34.484  27.138  1.00  0.00    -0.744 OA
ENDBRANCH  83  87
ENDBRANCH  66  80
BRANCH  67  91
ATOM     91  C   UNL A   1      50.491  25.577  31.497  1.00  0.00     0.023 A 
ATOM     92  C   UNL A   1      51.123  24.342  31.738  1.00  0.00     0.031 A 
ATOM     93  C   UNL A   1      51.020  26.705  32.146  1.00  0.00     0.131 A 
ATOM     94  C   UNL A   1      52.199  24.247  32.629  1.00  0.00     0.055 A 
ATOM     95  C   UNL A   1      52.110  26.613  33.023  1.00  0.00     0.041 A 
ATOM     96  F   UNL A   1      50.444  27.908  31.997  1.00  0.00    -0.206 F 
ATOM     97  C   UNL A   1      52.697  25.376  33.278  1.00  0.00     0.022 A 
BRANCH  94  98
ATOM     98  S   UNL A   1      52.912  22.626  33.022  1.00  0.00     0.124 S 
ATOM     99  O   UNL A   1      52.826  22.594  34.479  1.00  0.00    -0.237 OA
ATOM    100  O   UNL A   1      52.007  21.726  32.318  1.00  0.00    -0.237 OA
ATOM    101  O   UNL A   1      54.268  22.710  32.487  1.00  0.00    -0.744 OA
ENDBRANCH  94  98
ENDBRANCH  67  91
BRANCH  79 102
ATOM    102  C   UNL A   1      45.672  24.942  27.361  1.00  0.00     0.023 A 
ATOM    103  C   UNL A   1      45.748  24.216  26.159  1.00  0.00     0.031 A 
ATOM    104  C   UNL A   1      44.796  24.458  28.353  1.00  0.00     0.131 A 
ATOM    105  C   UNL A   1      44.933  23.095  25.953  1.00  0.00     0.055 A 
ATOM    106  C   UNL A   1      44.041  23.293  28.173  1.00  0.00     0.041 A 
ATOM    107  F   UNL A   1      44.567  25.139  29.483  1.00  0.00    -0.206 F 
ATOM    108  C   UNL A   1      44.091  22.617  26.959  1.00  0.00     0.022 A 
BRANCH 105 109
ATOM    109  S   UNL A   1      44.816  22.342  24.309  1.00  0.00     0.124 S 
ATOM    110  O   UNL A   1      45.352  21.005  24.543  1.00  0.00    -0.237 OA
ATOM    111  O   UNL A   1      43.380  22.403  24.041  1.00  0.00    -0.237 OA
ATOM    112  O   UNL A   1      45.637  23.205  23.464  1.00  0.00    -0.744 OA
ENDBRANCH 105 109
ENDBRANCH  79 102
ENDBRANCH  53  54
ENDBRANCH  45  48
ENDBRANCH  43  44
ENDBRANCH  42  43
ENDBRANCH  41  42
ENDBRANCH  40  41
ENDBRANCH   1  40
TORSDOF 22
ENDMDL
MODEL 3
REMARK VINA RESULT:      -9.5      4.439     10.306
REMARK SMILES COc1ccc2c(c1)c(Cc1nc(-c3ccc(C(=O)NCCCCCCNC(=O)c4ccc(-c5c6nc(c(-c7cc(S(=O)(=O)[O-])ccc7F)c7ccc([nH]7)c(-c7cc(S(=O)(=O)[O-])ccc7F)c7nc(c(-c8cc(S(=O)(=O)[O-])ccc8F)c8ccc5[nH]8)C=C7)C=C6)cc4)cc3)cs1)c(C)n2C(=O)c1ccc(Cl)cc1
REMARK SMILES IDX 22 1 21 2 20 3 18 4 19 5 17 7 14 8 15 9 94 10 16 11 93 12
REMARK SMILES IDX 13 13 11 14 12 15 96 16 95 17 10 18 9 19 3 20 4 21 8 22 5 23
REMARK SMILES IDX 7 24 6 25 99 26 97 27 98 28 2 29 1 30 100 31 101 32 102 33
REMARK SMILES IDX 103 34 108 35 104 36 107 37 105 38 106 39 23 40 24 41 25 42
REMARK SMILES IDX 26 43 27 44 28 45 29 47 30 48 31 49 92 50 32 51 91 52 33 53
REMARK SMILES IDX 34 54 35 55 85 56 36 57 90 58 84 59 86 60 37 61 89 62 83 63
REMARK SMILES IDX 82 64 38 66 70 67 50 68 69 69 51 70 54 71 68 72 87 73 52 74
REMARK SMILES IDX 53 75 67 77 88 78 55 79 39 80 40 81 48 82 41 83 47 84 49 85
REMARK SMILES IDX 46 86 42 87 43 88 44 89 45 90 71 91 72 92 80 93 73 94 79 95
REMARK SMILES IDX 81 96 78 97 74 98 75 99 76 100 77 101 56 102 57 103 65 104
REMARK SMILES IDX 58 105 64 106 66 107 63 108 59 109 60 110 61 111 62 112
REMARK H PARENT 20 6 27 46 86 65 54 76
REMARK Flexibility Score: inf
ROOT
ATOM      1  C   UNL A   1      35.879  31.607  28.178  1.00  0.00     0.021 C 
ENDROOT
BRANCH   1   2
ATOM      2  C   UNL A   1      35.682  30.164  28.629  1.00  0.00     0.116 C 
BRANCH   2   3
ATOM      3  N   UNL A   1      35.800  29.974  30.066  1.00  0.00    -0.352 N 
ATOM      4  C   UNL A   1      36.785  29.388  30.828  1.00  0.00     0.251 C 
ATOM      5  O   UNL A   1      36.629  29.324  32.046  1.00  0.00    -0.269 OA
ATOM      6  H   UNL A   1      35.041  30.327  30.585  1.00  0.00     0.163 HD
BRANCH   4   7
ATOM      7  C   UNL A   1      37.983  28.748  30.219  1.00  0.00     0.039 A 
ATOM      8  C   UNL A   1      40.387  27.922  29.008  1.00  0.00     0.001 A 
ATOM      9  C   UNL A   1      39.375  28.504  28.238  1.00  0.00     0.011 A 
ATOM     10  C   UNL A   1      40.123  27.627  30.353  1.00  0.00     0.011 A 
ATOM     11  C   UNL A   1      38.184  28.921  28.843  1.00  0.00     0.014 A 
ATOM     12  C   UNL A   1      38.914  28.002  30.943  1.00  0.00     0.014 A 
BRANCH   8  13
ATOM     13  C   UNL A   1      41.694  27.601  28.454  1.00  0.00     0.081 A 
ATOM     14  C   UNL A   1      43.154  27.395  26.799  1.00  0.00     0.098 A 
ATOM     15  N   UNL A   1      41.893  27.626  27.093  1.00  0.00    -0.241 NA
ATOM     16  S   UNL A   1      44.137  26.958  28.136  1.00  0.00    -0.126 S 
ATOM     17  C   UNL A   1      42.793  27.193  29.182  1.00  0.00     0.095 A 
BRANCH  14  18
ATOM     18  C   UNL A   1      43.707  27.496  25.409  1.00  0.00     0.105 C 
BRANCH  18  19
ATOM     19  C   UNL A   1      44.965  26.680  25.238  1.00  0.00    -0.012 A 
ATOM     20  C   UNL A   1      44.353  22.918  24.863  1.00  0.00     0.119 A 
ATOM     21  C   UNL A   1      45.685  22.549  24.884  1.00  0.00     0.048 A 
ATOM     22  C   UNL A   1      44.022  24.267  24.990  1.00  0.00     0.057 A 
ATOM     23  C   UNL A   1      46.693  23.515  25.007  1.00  0.00     0.031 A 
ATOM     24  C   UNL A   1      45.021  25.266  25.080  1.00  0.00     0.008 A 
ATOM     25  C   UNL A   1      46.365  24.890  25.039  1.00  0.00     0.057 A 
ATOM     26  N   UNL A   1      47.145  26.062  25.040  1.00  0.00    -0.280 N 
ATOM     27  C   UNL A   1      46.274  27.152  25.218  1.00  0.00     0.028 A 
ATOM     28  C   UNL A   1      46.672  28.590  25.343  1.00  0.00     0.065 C 
BRANCH  20  29
ATOM     29  O   UNL A   1      43.289  22.077  24.700  1.00  0.00    -0.497 OA
ATOM     30  C   UNL A   1      43.082  21.112  25.725  1.00  0.00     0.278 C 
ENDBRANCH  20  29
BRANCH  26  31
ATOM     31  C   UNL A   1      48.567  26.129  24.893  1.00  0.00     0.262 C 
ATOM     32  O   UNL A   1      49.288  25.633  25.744  1.00  0.00    -0.268 OA
BRANCH  31  33
ATOM     33  C   UNL A   1      49.274  26.733  23.747  1.00  0.00     0.040 A 
ATOM     34  C   UNL A   1      48.732  26.696  22.457  1.00  0.00     0.015 A 
ATOM     35  C   UNL A   1      50.520  27.324  23.983  1.00  0.00     0.015 A 
ATOM     36  C   UNL A   1      49.491  27.169  21.384  1.00  0.00     0.021 A 
ATOM     37  C   UNL A   1      51.269  27.806  22.908  1.00  0.00     0.021 A 
ATOM     38  C   UNL A   1      50.761  27.707  21.613  1.00  0.00     0.041 A 
ATOM     39  Cl  UNL A   1      51.717  28.235  20.284  1.00  0.00    -0.084 Cl
ENDBRANCH  31  33
ENDBRANCH  26  31
ENDBRANCH  18  19
ENDBRANCH  14  18
ENDBRANCH   8  13
ENDBRANCH   4   7
ENDBRANCH   2   3
ENDBRANCH   1   2
BRANCH   1  40
ATOM     40  C   UNL A   1      36.112  32.636  29.282  1.00  0.00     0.002 C 
BRANCH  40  41
ATOM     41  C   UNL A   1      35.661  34.069  28.982  1.00  0.00     0.002 C 
BRANCH  41  42
ATOM     42  C   UNL A   1      34.147  34.302  28.867  1.00  0.00     0.021 C 
BRANCH  42  43
ATOM     43  C   UNL A   1      33.623  35.561  29.558  1.00  0.00     0.116 C 
BRANCH  43  44
ATOM     44  N   UNL A   1      32.837  35.296  30.743  1.00  0.00    -0.352 N 
ATOM     45  C   UNL A   1      33.110  34.877  32.014  1.00  0.00     0.251 C 
ATOM     46  H   UNL A   1      31.878  35.456  30.599  1.00  0.00     0.163 HD
ATOM     47  O   UNL A   1      32.156  34.910  32.798  1.00  0.00    -0.269 OA
BRANCH  45  48
ATOM     48  C   UNL A   1      34.413  34.335  32.487  1.00  0.00     0.039 A 
ATOM     49  C   UNL A   1      34.697  32.993  32.734  1.00  0.00     0.014 A 
ATOM     50  C   UNL A   1      35.405  35.294  32.775  1.00  0.00     0.014 A 
ATOM     51  C   UNL A   1      35.887  32.632  33.360  1.00  0.00     0.010 A 
ATOM     52  C   UNL A   1      36.603  34.938  33.386  1.00  0.00     0.010 A 
ATOM     53  C   UNL A   1      36.815  33.610  33.735  1.00  0.00    -0.014 A 
BRANCH  53  54
ATOM     54  C   UNL A   1      38.007  33.172  34.452  1.00  0.00     0.031 A 
ATOM     55  C   UNL A   1      38.038  33.508  35.903  1.00  0.00     0.074 A 
ATOM     56  C   UNL A   1      39.002  32.459  33.887  1.00  0.00     0.049 A 
ATOM     57  N   UNL A   1      38.839  34.315  36.521  1.00  0.00    -0.248 NA
ATOM     58  C   UNL A   1      36.962  32.971  36.747  1.00  0.00     0.031 C 
ATOM     59  C   UNL A   1      39.024  31.782  32.588  1.00  0.00     0.029 A 
ATOM     60  N   UNL A   1      40.200  32.112  34.430  1.00  0.00    -0.354 N 
ATOM     61  C   UNL A   1      38.475  34.277  37.867  1.00  0.00     0.074 A 
ATOM     62  C   UNL A   1      37.237  33.537  37.924  1.00  0.00     0.031 C 
ATOM     63  C   UNL A   1      40.061  30.913  32.559  1.00  0.00     0.029 A 
ATOM     64  C   UNL A   1      40.856  31.089  33.764  1.00  0.00     0.049 A 
ATOM     65  H   UNL A   1      40.571  32.551  35.230  1.00  0.00     0.167 HD
ATOM     66  C   UNL A   1      39.290  34.731  38.861  1.00  0.00     0.034 A 
ATOM     67  C   UNL A   1      41.916  30.375  34.221  1.00  0.00     0.034 A 
ATOM     68  C   UNL A   1      40.360  35.536  38.341  1.00  0.00     0.049 A 
ATOM     69  C   UNL A   1      42.567  31.162  35.300  1.00  0.00     0.074 A 
ATOM     70  C   UNL A   1      40.417  36.740  37.669  1.00  0.00     0.029 A 
ATOM     71  N   UNL A   1      41.587  34.945  38.156  1.00  0.00    -0.354 N 
ATOM     72  N   UNL A   1      43.221  32.273  35.101  1.00  0.00    -0.248 NA
ATOM     73  C   UNL A   1      42.091  30.952  36.660  1.00  0.00     0.031 C 
ATOM     74  C   UNL A   1      41.457  36.573  36.712  1.00  0.00     0.029 A 
ATOM     75  C   UNL A   1      42.018  35.308  36.905  1.00  0.00     0.049 A 
ATOM     76  H   UNL A   1      42.065  34.372  38.799  1.00  0.00     0.167 HD
ATOM     77  C   UNL A   1      42.840  33.092  36.154  1.00  0.00     0.074 A 
ATOM     78  C   UNL A   1      42.217  32.196  37.127  1.00  0.00     0.031 C 
ATOM     79  C   UNL A   1      42.795  34.452  36.031  1.00  0.00     0.034 A 
BRANCH  66  80
ATOM     80  C   UNL A   1      39.265  34.236  40.284  1.00  0.00     0.023 A 
ATOM     81  C   UNL A   1      39.910  33.050  40.681  1.00  0.00     0.031 A 
ATOM     82  C   UNL A   1      38.775  35.049  41.327  1.00  0.00     0.131 A 
ATOM     83  C   UNL A   1      40.022  32.690  42.030  1.00  0.00     0.055 A 
ATOM     84  C   UNL A   1      38.948  34.724  42.679  1.00  0.00     0.041 A 
ATOM     85  F   UNL A   1      38.156  36.212  41.067  1.00  0.00    -0.206 F 
ATOM     86  C   UNL A   1      39.573  33.536  43.038  1.00  0.00     0.022 A 
BRANCH  83  87
ATOM     87  S   UNL A   1      40.767  31.103  42.493  1.00  0.00     0.124 S 
ATOM     88  O   UNL A   1      42.035  31.145  41.773  1.00  0.00    -0.237 OA
ATOM     89  O   UNL A   1      40.858  31.234  43.945  1.00  0.00    -0.237 OA
ATOM     90  O   UNL A   1      39.797  30.120  42.020  1.00  0.00    -0.744 OA
ENDBRANCH  83  87
ENDBRANCH  66  80
BRANCH  67  91
ATOM     91  C   UNL A   1      42.028  28.897  34.160  1.00  0.00     0.023 A 
ATOM     92  C   UNL A   1      41.835  28.136  35.328  1.00  0.00     0.031 A 
ATOM     93  C   UNL A   1      42.615  28.248  33.061  1.00  0.00     0.131 A 
ATOM     94  C   UNL A   1      42.261  26.804  35.397  1.00  0.00     0.055 A 
ATOM     95  C   UNL A   1      43.025  26.908  33.123  1.00  0.00     0.041 A 
ATOM     96  F   UNL A   1      42.868  28.922  31.928  1.00  0.00    -0.206 F 
ATOM     97  C   UNL A   1      42.860  26.183  34.301  1.00  0.00     0.022 A 
BRANCH  94  98
ATOM     98  S   UNL A   1      42.119  25.884  36.954  1.00  0.00     0.124 S 
ATOM     99  O   UNL A   1      42.870  24.666  36.663  1.00  0.00    -0.237 OA
ATOM    100  O   UNL A   1      42.747  26.801  37.897  1.00  0.00    -0.237 OA
ATOM    101  O   UNL A   1      40.680  25.698  37.111  1.00  0.00    -0.744 OA
ENDBRANCH  94  98
ENDBRANCH  67  91
BRANCH  79 102
ATOM    102  C   UNL A   1      43.345  35.111  34.781  1.00  0.00     0.023 A 
ATOM    103  C   UNL A   1      42.725  34.790  33.560  1.00  0.00     0.031 A 
ATOM    104  C   UNL A   1      44.573  35.800  34.719  1.00  0.00     0.131 A 
ATOM    105  C   UNL A   1      43.347  35.099  32.343  1.00  0.00     0.055 A 
ATOM    106  C   UNL A   1      45.153  36.175  33.502  1.00  0.00     0.041 A 
ATOM    107  F   UNL A   1      45.297  36.049  35.817  1.00  0.00    -0.206 F 
ATOM    108  C   UNL A   1      44.550  35.805  32.305  1.00  0.00     0.022 A 
BRANCH 105 109
ATOM    109  S   UNL A   1      42.697  34.429  30.790  1.00  0.00     0.124 S 
ATOM    110  O   UNL A   1      41.267  34.692  30.916  1.00  0.00    -0.237 OA
ATOM    111  O   UNL A   1      43.397  35.232  29.789  1.00  0.00    -0.237 OA
ATOM    112  O   UNL A   1      43.078  33.019  30.825  1.00  0.00    -0.744 OA
ENDBRANCH 105 109
ENDBRANCH  79 102
ENDBRANCH  53  54
ENDBRANCH  45  48
ENDBRANCH  43  44
ENDBRANCH  42  43
ENDBRANCH  41  42
ENDBRANCH  40  41
ENDBRANCH   1  40
TORSDOF 22
ENDMDL
