MODEL 1
REMARK VINA RESULT:     -10.7      0.000      0.000
REMARK SMILES O=C(NCCCCCCNC(=O)c1cc(-c2ccc(Cl)cc2)nc2c3c(C4CC4)cc(C(F)(F)F)nc3nn12)c1ccc(-c2c3nc(c(-c4cc(S(=O)(=O)[O-])ccc4F)c4ccc([nH]4)c(-c4cc(S(=O)(=O)[O-])ccc4F)c4nc(c(-c5cc(S(=O)(=O)[O-])ccc5F)c5ccc2[nH]5)C=C4)C=C3)cc1
REMARK SMILES IDX 5 1 4 2 3 3 1 4 2 5 40 7 41 8 102 9 42 10 101 11 43 12 44 13
REMARK SMILES IDX 45 14 95 15 46 16 100 17 94 18 96 19 47 20 99 21 93 22 92 23
REMARK SMILES IDX 48 25 80 26 60 27 79 28 61 29 64 30 78 31 97 32 62 33 63 34
REMARK SMILES IDX 77 36 98 37 65 38 49 39 50 40 58 41 51 42 57 43 59 44 56 45
REMARK SMILES IDX 52 46 53 47 54 48 55 49 81 50 82 51 90 52 83 53 89 54 91 55
REMARK SMILES IDX 88 56 84 57 85 58 86 59 87 60 66 61 67 62 75 63 68 64 74 65
REMARK SMILES IDX 76 66 73 67 69 68 70 69 71 70 72 71 6 72 7 73 8 74 9 75
REMARK SMILES IDX 10 76 11 77 12 79 13 80 14 81 39 82 15 83 24 84 38 85 23 86
REMARK SMILES IDX 25 87 37 88 26 89 36 90 30 91 31 92 16 93 17 94 22 95 18 96
REMARK SMILES IDX 21 97 19 98 20 99 27 100 28 101 29 102 32 103 33 104 34 105
REMARK SMILES IDX 35 106
REMARK H PARENT 3 6 96 24 64 35 10 78
REMARK Flexibility Score: inf
ROOT
ATOM      1  C   UNL A   1      41.871  25.962  36.069  1.00  0.00     0.021 C 
ENDROOT
BRANCH   1   2
ATOM      2  C   UNL A   1      41.898  24.558  35.476  1.00  0.00     0.116 C 
BRANCH   2   3
ATOM      3  N   UNL A   1      42.892  23.699  36.096  1.00  0.00    -0.352 N 
ATOM      4  O   UNL A   1      44.928  22.708  36.261  1.00  0.00    -0.269 OA
ATOM      5  C   UNL A   1      44.181  23.470  35.668  1.00  0.00     0.251 C 
ATOM      6  H   UNL A   1      42.613  23.229  36.914  1.00  0.00     0.163 HD
BRANCH   5   7
ATOM      7  C   UNL A   1      44.623  24.187  34.461  1.00  0.00     0.039 A 
ATOM      8  C   UNL A   1      45.417  25.331  34.602  1.00  0.00     0.014 A 
ATOM      9  C   UNL A   1      44.114  23.801  33.222  1.00  0.00     0.014 A 
ATOM     10  C   UNL A   1      45.639  26.141  33.496  1.00  0.00     0.010 A 
ATOM     11  C   UNL A   1      44.362  24.604  32.111  1.00  0.00     0.010 A 
ATOM     12  C   UNL A   1      45.107  25.783  32.250  1.00  0.00    -0.014 A 
BRANCH  12  13
ATOM     13  C   UNL A   1      45.416  26.648  31.102  1.00  0.00     0.031 A 
ATOM     14  C   UNL A   1      45.451  25.965  29.781  1.00  0.00     0.074 A 
ATOM     15  C   UNL A   1      45.171  27.972  31.111  1.00  0.00     0.049 A 
ATOM     16  N   UNL A   1      44.371  25.707  29.102  1.00  0.00    -0.248 NA
ATOM     17  C   UNL A   1      46.657  25.324  29.265  1.00  0.00     0.031 C 
ATOM     18  C   UNL A   1      44.121  28.611  31.913  1.00  0.00     0.029 A 
ATOM     19  N   UNL A   1      45.603  28.959  30.261  1.00  0.00    -0.354 N 
ATOM     20  C   UNL A   1      44.728  24.816  28.111  1.00  0.00     0.074 A 
ATOM     21  C   UNL A   1      46.159  24.625  28.235  1.00  0.00     0.031 C 
ATOM     22  C   UNL A   1      43.853  29.821  31.378  1.00  0.00     0.029 A 
ATOM     23  C   UNL A   1      44.824  30.110  30.330  1.00  0.00     0.049 A 
ATOM     24  H   UNL A   1      46.382  28.863  29.665  1.00  0.00     0.167 HD
ATOM     25  C   UNL A   1      43.837  24.258  27.251  1.00  0.00     0.034 A 
ATOM     26  C   UNL A   1      44.647  30.992  29.311  1.00  0.00     0.034 A 
ATOM     27  C   UNL A   1      42.477  24.683  27.388  1.00  0.00     0.049 A 
ATOM     28  C   UNL A   1      43.831  30.165  28.345  1.00  0.00     0.074 A 
ATOM     29  C   UNL A   1      41.347  24.250  28.047  1.00  0.00     0.029 A 
ATOM     30  N   UNL A   1      42.113  25.883  26.823  1.00  0.00    -0.354 N 
ATOM     31  N   UNL A   1      42.546  29.933  28.427  1.00  0.00    -0.248 NA
ATOM     32  C   UNL A   1      44.544  29.289  27.414  1.00  0.00     0.031 C 
ATOM     33  C   UNL A   1      40.520  25.410  28.199  1.00  0.00     0.029 A 
ATOM     34  C   UNL A   1      41.234  26.494  27.688  1.00  0.00     0.049 A 
ATOM     35  H   UNL A   1      42.423  26.240  25.960  1.00  0.00     0.167 HD
ATOM     36  C   UNL A   1      42.345  28.705  27.785  1.00  0.00     0.074 A 
ATOM     37  C   UNL A   1      43.607  28.389  27.150  1.00  0.00     0.031 C 
ATOM     38  C   UNL A   1      41.238  27.922  27.958  1.00  0.00     0.034 A 
BRANCH  25  39
ATOM     39  C   UNL A   1      44.262  23.388  26.140  1.00  0.00     0.023 A 
ATOM     40  C   UNL A   1      44.127  21.995  26.184  1.00  0.00     0.031 A 
ATOM     41  C   UNL A   1      44.741  23.992  24.966  1.00  0.00     0.131 A 
ATOM     42  C   UNL A   1      44.466  21.242  25.051  1.00  0.00     0.055 A 
ATOM     43  C   UNL A   1      45.075  23.243  23.844  1.00  0.00     0.041 A 
ATOM     44  F   UNL A   1      44.865  25.330  24.900  1.00  0.00    -0.206 F 
ATOM     45  C   UNL A   1      44.932  21.859  23.881  1.00  0.00     0.022 A 
BRANCH  42  46
ATOM     46  S   UNL A   1      44.286  19.438  25.029  1.00  0.00     0.124 S 
ATOM     47  O   UNL A   1      44.187  19.155  23.599  1.00  0.00    -0.237 OA
ATOM     48  O   UNL A   1      45.525  19.005  25.668  1.00  0.00    -0.237 OA
ATOM     49  O   UNL A   1      43.070  19.198  25.798  1.00  0.00    -0.744 OA
ENDBRANCH  42  46
ENDBRANCH  25  39
BRANCH  26  50
ATOM     50  C   UNL A   1      45.909  31.723  28.946  1.00  0.00     0.023 A 
ATOM     51  C   UNL A   1      47.162  31.537  29.545  1.00  0.00     0.031 A 
ATOM     52  C   UNL A   1      45.823  32.730  27.955  1.00  0.00     0.131 A 
ATOM     53  C   UNL A   1      48.207  32.443  29.292  1.00  0.00     0.055 A 
ATOM     54  C   UNL A   1      46.883  33.591  27.661  1.00  0.00     0.041 A 
ATOM     55  F   UNL A   1      44.686  32.907  27.261  1.00  0.00    -0.206 F 
ATOM     56  C   UNL A   1      48.077  33.470  28.357  1.00  0.00     0.022 A 
BRANCH  53  57
ATOM     57  S   UNL A   1      49.753  32.339  30.238  1.00  0.00     0.124 S 
ATOM     58  O   UNL A   1      49.817  33.646  30.887  1.00  0.00    -0.237 OA
ATOM     59  O   UNL A   1      49.472  31.210  31.119  1.00  0.00    -0.237 OA
ATOM     60  O   UNL A   1      50.759  32.104  29.209  1.00  0.00    -0.744 OA
ENDBRANCH  53  57
ENDBRANCH  26  50
BRANCH  38  61
ATOM     61  C   UNL A   1      40.086  28.544  28.692  1.00  0.00     0.023 A 
ATOM     62  C   UNL A   1      39.971  28.444  30.091  1.00  0.00     0.031 A 
ATOM     63  C   UNL A   1      39.040  29.158  27.984  1.00  0.00     0.131 A 
ATOM     64  C   UNL A   1      38.804  28.880  30.732  1.00  0.00     0.055 A 
ATOM     65  C   UNL A   1      37.906  29.650  28.636  1.00  0.00     0.041 A 
ATOM     66  F   UNL A   1      39.076  29.244  26.644  1.00  0.00    -0.206 F 
ATOM     67  C   UNL A   1      37.779  29.501  30.014  1.00  0.00     0.022 A 
BRANCH  64  68
ATOM     68  S   UNL A   1      38.556  28.588  32.505  1.00  0.00     0.124 S 
ATOM     69  O   UNL A   1      37.154  28.951  32.700  1.00  0.00    -0.237 OA
ATOM     70  O   UNL A   1      38.845  27.160  32.616  1.00  0.00    -0.237 OA
ATOM     71  O   UNL A   1      39.521  29.473  33.150  1.00  0.00    -0.744 OA
ENDBRANCH  64  68
ENDBRANCH  38  61
ENDBRANCH  12  13
ENDBRANCH   5   7
ENDBRANCH   2   3
ENDBRANCH   1   2
BRANCH   1  72
ATOM     72  C   UNL A   1      42.103  27.079  35.049  1.00  0.00     0.002 C 
BRANCH  72  73
ATOM     73  C   UNL A   1      43.182  28.103  35.423  1.00  0.00     0.002 C 
BRANCH  73  74
ATOM     74  C   UNL A   1      42.680  29.386  36.097  1.00  0.00     0.021 C 
BRANCH  74  75
ATOM     75  C   UNL A   1      42.344  30.525  35.139  1.00  0.00     0.116 C 
BRANCH  75  76
ATOM     76  N   UNL A   1      42.743  31.811  35.690  1.00  0.00    -0.351 N 
ATOM     77  C   UNL A   1      41.975  32.869  36.068  1.00  0.00     0.270 C 
ATOM     78  H   UNL A   1      43.713  31.934  35.807  1.00  0.00     0.163 HD
ATOM     79  O   UNL A   1      42.510  33.929  36.393  1.00  0.00    -0.268 OA
BRANCH  77  80
ATOM     80  C   UNL A   1      40.506  32.777  35.971  1.00  0.00     0.134 A 
ATOM     81  C   UNL A   1      39.859  32.628  37.137  1.00  0.00     0.063 A 
ATOM     82  N   UNL A   1      39.803  32.818  34.769  1.00  0.00    -0.207 N 
ATOM     83  C   UNL A   1      38.378  32.500  37.031  1.00  0.00     0.075 A 
ATOM     84  C   UNL A   1      38.394  32.768  34.767  1.00  0.00     0.166 A 
ATOM     85  N   UNL A   1      40.316  32.929  33.527  1.00  0.00    -0.145 NA
ATOM     86  N   UNL A   1      37.687  32.558  35.930  1.00  0.00    -0.228 NA
ATOM     87  C   UNL A   1      38.032  33.011  33.455  1.00  0.00     0.069 A 
ATOM     88  C   UNL A   1      39.264  33.105  32.741  1.00  0.00     0.184 A 
ATOM     89  C   UNL A   1      36.745  33.160  32.913  1.00  0.00    -0.028 A 
ATOM     90  N   UNL A   1      39.321  33.355  31.416  1.00  0.00    -0.222 NA
ATOM     91  C   UNL A   1      36.854  33.439  31.532  1.00  0.00     0.038 A 
ATOM     92  C   UNL A   1      38.097  33.530  30.835  1.00  0.00     0.147 A 
BRANCH  83  93
ATOM     93  C   UNL A   1      37.708  32.241  38.324  1.00  0.00     0.000 A 
ATOM     94  C   UNL A   1      37.771  33.216  39.323  1.00  0.00     0.012 A 
ATOM     95  C   UNL A   1      36.952  31.077  38.509  1.00  0.00     0.012 A 
ATOM     96  C   UNL A   1      37.044  33.041  40.502  1.00  0.00     0.021 A 
ATOM     97  C   UNL A   1      36.236  30.901  39.695  1.00  0.00     0.021 A 
ATOM     98  C   UNL A   1      36.277  31.888  40.682  1.00  0.00     0.041 A 
ATOM     99  Cl  UNL A   1      35.362  31.686  42.124  1.00  0.00    -0.084 Cl
ENDBRANCH  83  93
BRANCH  89 100
ATOM    100  C   UNL A   1      35.491  33.041  33.719  1.00  0.00     0.020 C 
ATOM    101  C   UNL A   1      34.705  34.245  34.184  1.00  0.00     0.009 C 
ATOM    102  C   UNL A   1      34.174  33.398  33.068  1.00  0.00     0.009 C 
ENDBRANCH  89 100
BRANCH  92 103
ATOM    103  C   UNL A   1      38.071  33.823  29.331  1.00  0.00     0.433 C 
ATOM    104  F   UNL A   1      39.130  34.555  28.903  1.00  0.00    -0.165 F 
ATOM    105  F   UNL A   1      38.024  32.690  28.576  1.00  0.00    -0.165 F 
ATOM    106  F   UNL A   1      36.961  34.536  28.962  1.00  0.00    -0.165 F 
ENDBRANCH  92 103
ENDBRANCH  77  80
ENDBRANCH  75  76
ENDBRANCH  74  75
ENDBRANCH  73  74
ENDBRANCH  72  73
ENDBRANCH   1  72
TORSDOF 19
ENDMDL
MODEL 2
REMARK VINA RESULT:     -10.6      4.339     11.687
REMARK SMILES O=C(NCCCCCCNC(=O)c1cc(-c2ccc(Cl)cc2)nc2c3c(C4CC4)cc(C(F)(F)F)nc3nn12)c1ccc(-c2c3nc(c(-c4cc(S(=O)(=O)[O-])ccc4F)c4ccc([nH]4)c(-c4cc(S(=O)(=O)[O-])ccc4F)c4nc(c(-c5cc(S(=O)(=O)[O-])ccc5F)c5ccc2[nH]5)C=C4)C=C3)cc1
REMARK SMILES IDX 5 1 4 2 3 3 1 4 2 5 40 7 41 8 102 9 42 10 101 11 43 12 44 13
REMARK SMILES IDX 45 14 95 15 46 16 100 17 94 18 96 19 47 20 99 21 93 22 92 23
REMARK SMILES IDX 48 25 80 26 60 27 79 28 61 29 64 30 78 31 97 32 62 33 63 34
REMARK SMILES IDX 77 36 98 37 65 38 49 39 50 40 58 41 51 42 57 43 59 44 56 45
REMARK SMILES IDX 52 46 53 47 54 48 55 49 81 50 82 51 90 52 83 53 89 54 91 55
REMARK SMILES IDX 88 56 84 57 85 58 86 59 87 60 66 61 67 62 75 63 68 64 74 65
REMARK SMILES IDX 76 66 73 67 69 68 70 69 71 70 72 71 6 72 7 73 8 74 9 75
REMARK SMILES IDX 10 76 11 77 12 79 13 80 14 81 39 82 15 83 24 84 38 85 23 86
REMARK SMILES IDX 25 87 37 88 26 89 36 90 30 91 31 92 16 93 17 94 22 95 18 96
REMARK SMILES IDX 21 97 19 98 20 99 27 100 28 101 29 102 32 103 33 104 34 105
REMARK SMILES IDX 35 106
REMARK H PARENT 3 6 96 24 64 35 10 78
REMARK Flexibility Score: inf
ROOT
ATOM      1  C   UNL A   1      45.937  35.250  26.924  1.00  0.00     0.021 C 
ENDROOT
BRANCH   1   2
ATOM      2  C   UNL A   1      44.589  35.629  26.321  1.00  0.00     0.116 C 
BRANCH   2   3
ATOM      3  N   UNL A   1      44.123  36.936  26.750  1.00  0.00    -0.352 N 
ATOM      4  O   UNL A   1      43.079  38.381  28.156  1.00  0.00    -0.269 OA
ATOM      5  C   UNL A   1      43.440  37.242  27.906  1.00  0.00     0.251 C 
ATOM      6  H   UNL A   1      44.319  37.689  26.146  1.00  0.00     0.163 HD
BRANCH   5   7
ATOM      7  C   UNL A   1      43.163  36.132  28.833  1.00  0.00     0.039 A 
ATOM      8  C   UNL A   1      42.000  35.375  28.660  1.00  0.00     0.014 A 
ATOM      9  C   UNL A   1      43.984  35.964  29.947  1.00  0.00     0.014 A 
ATOM     10  C   UNL A   1      41.613  34.489  29.658  1.00  0.00     0.010 A 
ATOM     11  C   UNL A   1      43.605  35.056  30.933  1.00  0.00     0.010 A 
ATOM     12  C   UNL A   1      42.413  34.333  30.800  1.00  0.00    -0.014 A 
BRANCH  12  13
ATOM     13  C   UNL A   1      41.985  33.345  31.801  1.00  0.00     0.031 A 
ATOM     14  C   UNL A   1      40.552  33.415  32.192  1.00  0.00     0.074 A 
ATOM     15  C   UNL A   1      42.618  32.168  31.969  1.00  0.00     0.049 A 
ATOM     16  N   UNL A   1      39.607  32.876  31.478  1.00  0.00    -0.248 NA
ATOM     17  C   UNL A   1      40.076  34.288  33.262  1.00  0.00     0.031 C 
ATOM     18  C   UNL A   1      43.365  31.476  30.911  1.00  0.00     0.029 A 
ATOM     19  N   UNL A   1      42.527  31.250  32.984  1.00  0.00    -0.354 N 
ATOM     20  C   UNL A   1      38.413  33.384  31.947  1.00  0.00     0.074 A 
ATOM     21  C   UNL A   1      38.750  34.238  33.068  1.00  0.00     0.031 C 
ATOM     22  C   UNL A   1      43.485  30.176  31.257  1.00  0.00     0.029 A 
ATOM     23  C   UNL A   1      42.996  29.992  32.618  1.00  0.00     0.049 A 
ATOM     24  H   UNL A   1      42.168  31.458  33.877  1.00  0.00     0.167 HD
ATOM     25  C   UNL A   1      37.209  33.105  31.384  1.00  0.00     0.034 A 
ATOM     26  C   UNL A   1      42.570  28.817  33.151  1.00  0.00     0.034 A 
ATOM     27  C   UNL A   1      37.224  32.194  30.281  1.00  0.00     0.049 A 
ATOM     28  C   UNL A   1      41.157  28.748  32.620  1.00  0.00     0.074 A 
ATOM     29  C   UNL A   1      37.282  32.275  28.906  1.00  0.00     0.029 A 
ATOM     30  N   UNL A   1      37.293  30.847  30.553  1.00  0.00    -0.354 N 
ATOM     31  N   UNL A   1      40.806  28.380  31.415  1.00  0.00    -0.248 NA
ATOM     32  C   UNL A   1      40.103  29.431  33.373  1.00  0.00     0.031 C 
ATOM     33  C   UNL A   1      37.813  31.020  28.466  1.00  0.00     0.029 A 
ATOM     34  C   UNL A   1      38.117  30.279  29.608  1.00  0.00     0.049 A 
ATOM     35  H   UNL A   1      36.838  30.376  31.287  1.00  0.00     0.167 HD
ATOM     36  C   UNL A   1      39.596  29.038  31.159  1.00  0.00     0.074 A 
ATOM     37  C   UNL A   1      39.203  29.630  32.421  1.00  0.00     0.031 C 
ATOM     38  C   UNL A   1      39.077  29.230  29.910  1.00  0.00     0.034 A 
BRANCH  25  39
ATOM     39  C   UNL A   1      35.943  33.582  31.968  1.00  0.00     0.023 A 
ATOM     40  C   UNL A   1      35.282  34.723  31.494  1.00  0.00     0.031 A 
ATOM     41  C   UNL A   1      35.345  32.815  32.981  1.00  0.00     0.131 A 
ATOM     42  C   UNL A   1      34.034  35.060  32.038  1.00  0.00     0.055 A 
ATOM     43  C   UNL A   1      34.107  33.152  33.516  1.00  0.00     0.041 A 
ATOM     44  F   UNL A   1      35.959  31.710  33.439  1.00  0.00    -0.206 F 
ATOM     45  C   UNL A   1      33.442  34.278  33.040  1.00  0.00     0.022 A 
BRANCH  42  46
ATOM     46  S   UNL A   1      33.108  36.504  31.449  1.00  0.00     0.124 S 
ATOM     47  O   UNL A   1      33.124  36.311  30.001  1.00  0.00    -0.237 OA
ATOM     48  O   UNL A   1      31.811  36.311  32.092  1.00  0.00    -0.237 OA
ATOM     49  O   UNL A   1      33.884  37.639  31.935  1.00  0.00    -0.744 OA
ENDBRANCH  42  46
ENDBRANCH  25  39
BRANCH  26  50
ATOM     50  C   UNL A   1      42.940  28.665  34.600  1.00  0.00     0.023 A 
ATOM     51  C   UNL A   1      43.618  29.617  35.373  1.00  0.00     0.031 A 
ATOM     52  C   UNL A   1      42.635  27.436  35.232  1.00  0.00     0.131 A 
ATOM     53  C   UNL A   1      44.123  29.270  36.639  1.00  0.00     0.055 A 
ATOM     54  C   UNL A   1      43.086  27.116  36.515  1.00  0.00     0.041 A 
ATOM     55  F   UNL A   1      41.900  26.508  34.597  1.00  0.00    -0.206 F 
ATOM     56  C   UNL A   1      43.864  28.026  37.215  1.00  0.00     0.022 A 
BRANCH  53  57
ATOM     57  S   UNL A   1      45.195  30.424  37.541  1.00  0.00     0.124 S 
ATOM     58  O   UNL A   1      46.485  29.739  37.524  1.00  0.00    -0.237 OA
ATOM     59  O   UNL A   1      45.102  31.615  36.702  1.00  0.00    -0.237 OA
ATOM     60  O   UNL A   1      44.557  30.519  38.848  1.00  0.00    -0.744 OA
ENDBRANCH  53  57
ENDBRANCH  26  50
BRANCH  38  61
ATOM     61  C   UNL A   1      39.735  28.478  28.789  1.00  0.00     0.023 A 
ATOM     62  C   UNL A   1      39.300  27.192  28.417  1.00  0.00     0.031 A 
ATOM     63  C   UNL A   1      40.869  29.003  28.150  1.00  0.00     0.131 A 
ATOM     64  C   UNL A   1      40.037  26.443  27.490  1.00  0.00     0.055 A 
ATOM     65  C   UNL A   1      41.563  28.278  27.178  1.00  0.00     0.041 A 
ATOM     66  F   UNL A   1      41.354  30.208  28.495  1.00  0.00    -0.206 F 
ATOM     67  C   UNL A   1      41.155  26.987  26.853  1.00  0.00     0.022 A 
BRANCH  64  68
ATOM     68  S   UNL A   1      39.603  24.717  27.139  1.00  0.00     0.124 S 
ATOM     69  O   UNL A   1      38.142  24.744  27.135  1.00  0.00    -0.237 OA
ATOM     70  O   UNL A   1      40.220  24.516  25.830  1.00  0.00    -0.237 OA
ATOM     71  O   UNL A   1      40.207  23.968  28.237  1.00  0.00    -0.744 OA
ENDBRANCH  64  68
ENDBRANCH  38  61
ENDBRANCH  12  13
ENDBRANCH   5   7
ENDBRANCH   2   3
ENDBRANCH   1   2
BRANCH   1  72
ATOM     72  C   UNL A   1      46.063  33.773  27.301  1.00  0.00     0.002 C 
BRANCH  72  73
ATOM     73  C   UNL A   1      44.761  33.088  27.736  1.00  0.00     0.002 C 
BRANCH  73  74
ATOM     74  C   UNL A   1      44.104  32.175  26.692  1.00  0.00     0.021 C 
BRANCH  74  75
ATOM     75  C   UNL A   1      44.326  30.682  26.915  1.00  0.00     0.116 C 
BRANCH  75  76
ATOM     76  N   UNL A   1      45.397  30.178  26.070  1.00  0.00    -0.351 N 
ATOM     77  C   UNL A   1      46.105  29.020  26.164  1.00  0.00     0.270 C 
ATOM     78  H   UNL A   1      45.645  30.761  25.316  1.00  0.00     0.163 HD
ATOM     79  O   UNL A   1      47.070  28.829  25.423  1.00  0.00    -0.268 OA
BRANCH  77  80
ATOM     80  C   UNL A   1      45.788  28.055  27.235  1.00  0.00     0.134 A 
ATOM     81  C   UNL A   1      45.223  26.909  26.829  1.00  0.00     0.063 A 
ATOM     82  N   UNL A   1      46.026  28.290  28.587  1.00  0.00    -0.207 N 
ATOM     83  C   UNL A   1      44.872  25.952  27.916  1.00  0.00     0.075 A 
ATOM     84  C   UNL A   1      45.734  27.296  29.544  1.00  0.00     0.166 A 
ATOM     85  N   UNL A   1      46.553  29.400  29.143  1.00  0.00    -0.145 NA
ATOM     86  N   UNL A   1      45.101  26.127  29.185  1.00  0.00    -0.228 NA
ATOM     87  C   UNL A   1      46.253  27.782  30.730  1.00  0.00     0.069 A 
ATOM     88  C   UNL A   1      46.748  29.082  30.415  1.00  0.00     0.184 A 
ATOM     89  C   UNL A   1      46.315  27.151  31.983  1.00  0.00    -0.028 A 
ATOM     90  N   UNL A   1      47.348  29.874  31.326  1.00  0.00    -0.222 NA
ATOM     91  C   UNL A   1      46.967  28.007  32.900  1.00  0.00     0.038 A 
ATOM     92  C   UNL A   1      47.457  29.306  32.564  1.00  0.00     0.147 A 
BRANCH  83  93
ATOM     93  C   UNL A   1      44.164  24.743  27.442  1.00  0.00     0.000 A 
ATOM     94  C   UNL A   1      43.936  24.589  26.072  1.00  0.00     0.012 A 
ATOM     95  C   UNL A   1      43.807  23.733  28.344  1.00  0.00     0.012 A 
ATOM     96  C   UNL A   1      43.378  23.400  25.597  1.00  0.00     0.021 A 
ATOM     97  C   UNL A   1      43.239  22.550  27.864  1.00  0.00     0.021 A 
ATOM     98  C   UNL A   1      43.037  22.385  26.493  1.00  0.00     0.041 A 
ATOM     99  Cl  UNL A   1      42.374  20.911  25.903  1.00  0.00    -0.084 Cl
ENDBRANCH  83  93
BRANCH  89 100
ATOM    100  C   UNL A   1      45.768  25.785  32.248  1.00  0.00     0.020 C 
ATOM    101  C   UNL A   1      45.336  25.333  33.625  1.00  0.00     0.009 C 
ATOM    102  C   UNL A   1      44.301  25.645  32.587  1.00  0.00     0.009 C 
ENDBRANCH  89 100
BRANCH  92 103
ATOM    103  C   UNL A   1      48.132  30.136  33.661  1.00  0.00     0.433 C 
ATOM    104  F   UNL A   1      49.083  29.455  34.348  1.00  0.00    -0.165 F 
ATOM    105  F   UNL A   1      48.710  31.272  33.178  1.00  0.00    -0.165 F 
ATOM    106  F   UNL A   1      47.240  30.571  34.605  1.00  0.00    -0.165 F 
ENDBRANCH  92 103
ENDBRANCH  77  80
ENDBRANCH  75  76
ENDBRANCH  74  75
ENDBRANCH  73  74
ENDBRANCH  72  73
ENDBRANCH   1  72
TORSDOF 19
ENDMDL
MODEL 3
REMARK VINA RESULT:     -10.5      1.728      2.216
REMARK SMILES O=C(NCCCCCCNC(=O)c1cc(-c2ccc(Cl)cc2)nc2c3c(C4CC4)cc(C(F)(F)F)nc3nn12)c1ccc(-c2c3nc(c(-c4cc(S(=O)(=O)[O-])ccc4F)c4ccc([nH]4)c(-c4cc(S(=O)(=O)[O-])ccc4F)c4nc(c(-c5cc(S(=O)(=O)[O-])ccc5F)c5ccc2[nH]5)C=C4)C=C3)cc1
REMARK SMILES IDX 5 1 4 2 3 3 1 4 2 5 40 7 41 8 102 9 42 10 101 11 43 12 44 13
REMARK SMILES IDX 45 14 95 15 46 16 100 17 94 18 96 19 47 20 99 21 93 22 92 23
REMARK SMILES IDX 48 25 80 26 60 27 79 28 61 29 64 30 78 31 97 32 62 33 63 34
REMARK SMILES IDX 77 36 98 37 65 38 49 39 50 40 58 41 51 42 57 43 59 44 56 45
REMARK SMILES IDX 52 46 53 47 54 48 55 49 81 50 82 51 90 52 83 53 89 54 91 55
REMARK SMILES IDX 88 56 84 57 85 58 86 59 87 60 66 61 67 62 75 63 68 64 74 65
REMARK SMILES IDX 76 66 73 67 69 68 70 69 71 70 72 71 6 72 7 73 8 74 9 75
REMARK SMILES IDX 10 76 11 77 12 79 13 80 14 81 39 82 15 83 24 84 38 85 23 86
REMARK SMILES IDX 25 87 37 88 26 89 36 90 30 91 31 92 16 93 17 94 22 95 18 96
REMARK SMILES IDX 21 97 19 98 20 99 27 100 28 101 29 102 32 103 33 104 34 105
REMARK SMILES IDX 35 106
REMARK H PARENT 3 6 96 24 64 35 10 78
REMARK Flexibility Score: inf
ROOT
ATOM      1  C   UNL A   1      42.121  25.856  35.847  1.00  0.00     0.021 C 
ENDROOT
BRANCH   1   2
ATOM      2  C   UNL A   1      42.154  24.390  35.428  1.00  0.00     0.116 C 
BRANCH   2   3
ATOM      3  N   UNL A   1      43.255  23.655  36.023  1.00  0.00    -0.352 N 
ATOM      4  O   UNL A   1      45.384  22.869  36.116  1.00  0.00    -0.269 OA
ATOM      5  C   UNL A   1      44.538  23.533  35.538  1.00  0.00     0.251 C 
ATOM      6  H   UNL A   1      43.063  23.191  36.871  1.00  0.00     0.163 HD
BRANCH   5   7
ATOM      7  C   UNL A   1      44.850  24.243  34.287  1.00  0.00     0.039 A 
ATOM      8  C   UNL A   1      45.503  25.480  34.351  1.00  0.00     0.014 A 
ATOM      9  C   UNL A   1      44.352  23.744  33.085  1.00  0.00     0.014 A 
ATOM     10  C   UNL A   1      45.589  26.261  33.206  1.00  0.00     0.010 A 
ATOM     11  C   UNL A   1      44.463  24.520  31.933  1.00  0.00     0.010 A 
ATOM     12  C   UNL A   1      45.063  25.785  31.996  1.00  0.00    -0.014 A 
BRANCH  12  13
ATOM     13  C   UNL A   1      45.227  26.629  30.803  1.00  0.00     0.031 A 
ATOM     14  C   UNL A   1      45.260  25.900  29.507  1.00  0.00     0.074 A 
ATOM     15  C   UNL A   1      44.854  27.923  30.778  1.00  0.00     0.049 A 
ATOM     16  N   UNL A   1      44.178  25.512  28.898  1.00  0.00    -0.248 NA
ATOM     17  C   UNL A   1      46.495  25.356  28.948  1.00  0.00     0.031 C 
ATOM     18  C   UNL A   1      43.789  28.490  31.615  1.00  0.00     0.029 A 
ATOM     19  N   UNL A   1      45.144  28.911  29.872  1.00  0.00    -0.354 N 
ATOM     20  C   UNL A   1      44.568  24.620  27.920  1.00  0.00     0.074 A 
ATOM     21  C   UNL A   1      46.015  24.571  27.972  1.00  0.00     0.031 C 
ATOM     22  C   UNL A   1      43.378  29.646  31.053  1.00  0.00     0.029 A 
ATOM     23  C   UNL A   1      44.260  29.984  29.943  1.00  0.00     0.049 A 
ATOM     24  H   UNL A   1      45.896  28.866  29.238  1.00  0.00     0.167 HD
ATOM     25  C   UNL A   1      43.693  23.945  27.131  1.00  0.00     0.034 A 
ATOM     26  C   UNL A   1      43.946  30.803  28.905  1.00  0.00     0.034 A 
ATOM     27  C   UNL A   1      42.307  24.242  27.328  1.00  0.00     0.049 A 
ATOM     28  C   UNL A   1      43.166  29.864  28.015  1.00  0.00     0.074 A 
ATOM     29  C   UNL A   1      41.259  23.731  28.063  1.00  0.00     0.029 A 
ATOM     30  N   UNL A   1      41.798  25.379  26.742  1.00  0.00    -0.354 N 
ATOM     31  N   UNL A   1      41.916  29.514  28.176  1.00  0.00    -0.248 NA
ATOM     32  C   UNL A   1      43.912  29.022  27.078  1.00  0.00     0.031 C 
ATOM     33  C   UNL A   1      40.333  24.811  28.220  1.00  0.00     0.029 A 
ATOM     34  C   UNL A   1      40.910  25.937  27.633  1.00  0.00     0.049 A 
ATOM     35  H   UNL A   1      42.027  25.729  25.851  1.00  0.00     0.167 HD
ATOM     36  C   UNL A   1      41.802  28.247  27.590  1.00  0.00     0.074 A 
ATOM     37  C   UNL A   1      43.055  28.028  26.897  1.00  0.00     0.031 C 
ATOM     38  C   UNL A   1      40.788  27.369  27.851  1.00  0.00     0.034 A 
BRANCH  25  39
ATOM     39  C   UNL A   1      44.143  23.076  26.030  1.00  0.00     0.023 A 
ATOM     40  C   UNL A   1      43.987  21.684  26.062  1.00  0.00     0.031 A 
ATOM     41  C   UNL A   1      44.669  23.680  24.877  1.00  0.00     0.131 A 
ATOM     42  C   UNL A   1      44.354  20.933  24.936  1.00  0.00     0.055 A 
ATOM     43  C   UNL A   1      45.030  22.931  23.761  1.00  0.00     0.041 A 
ATOM     44  F   UNL A   1      44.814  25.015  24.823  1.00  0.00    -0.206 F 
ATOM     45  C   UNL A   1      44.868  21.550  23.786  1.00  0.00     0.022 A 
BRANCH  42  46
ATOM     46  S   UNL A   1      44.150  19.131  24.897  1.00  0.00     0.124 S 
ATOM     47  O   UNL A   1      42.712  18.979  25.106  1.00  0.00    -0.237 OA
ATOM     48  O   UNL A   1      44.625  18.805  23.555  1.00  0.00    -0.237 OA
ATOM     49  O   UNL A   1      44.993  18.660  25.990  1.00  0.00    -0.744 OA
ENDBRANCH  42  46
ENDBRANCH  25  39
BRANCH  26  50
ATOM     50  C   UNL A   1      45.110  31.636  28.446  1.00  0.00     0.023 A 
ATOM     51  C   UNL A   1      46.329  31.778  29.121  1.00  0.00     0.031 A 
ATOM     52  C   UNL A   1      44.950  32.394  27.261  1.00  0.00     0.131 A 
ATOM     53  C   UNL A   1      47.246  32.768  28.725  1.00  0.00     0.055 A 
ATOM     54  C   UNL A   1      45.890  33.335  26.835  1.00  0.00     0.041 A 
ATOM     55  F   UNL A   1      43.853  32.243  26.499  1.00  0.00    -0.206 F 
ATOM     56  C   UNL A   1      47.034  33.550  27.589  1.00  0.00     0.022 A 
BRANCH  53  57
ATOM     57  S   UNL A   1      48.717  33.106  29.734  1.00  0.00     0.124 S 
ATOM     58  O   UNL A   1      48.688  32.019  30.710  1.00  0.00    -0.237 OA
ATOM     59  O   UNL A   1      49.774  33.026  28.731  1.00  0.00    -0.237 OA
ATOM     60  O   UNL A   1      48.454  34.435  30.273  1.00  0.00    -0.744 OA
ENDBRANCH  53  57
ENDBRANCH  26  50
BRANCH  38  61
ATOM     61  C   UNL A   1      39.620  27.907  28.625  1.00  0.00     0.023 A 
ATOM     62  C   UNL A   1      38.491  28.436  27.971  1.00  0.00     0.031 A 
ATOM     63  C   UNL A   1      39.671  27.988  30.025  1.00  0.00     0.131 A 
ATOM     64  C   UNL A   1      37.494  29.088  28.708  1.00  0.00     0.055 A 
ATOM     65  C   UNL A   1      38.643  28.582  30.762  1.00  0.00     0.041 A 
ATOM     66  F   UNL A   1      40.743  27.538  30.699  1.00  0.00    -0.206 F 
ATOM     67  C   UNL A   1      37.554  29.146  30.104  1.00  0.00     0.022 A 
BRANCH  64  68
ATOM     68  S   UNL A   1      36.129  29.940  27.872  1.00  0.00     0.124 S 
ATOM     69  O   UNL A   1      35.297  30.390  28.985  1.00  0.00    -0.237 OA
ATOM     70  O   UNL A   1      36.833  31.002  27.158  1.00  0.00    -0.237 OA
ATOM     71  O   UNL A   1      35.530  28.910  27.028  1.00  0.00    -0.744 OA
ENDBRANCH  64  68
ENDBRANCH  38  61
ENDBRANCH  12  13
ENDBRANCH   5   7
ENDBRANCH   2   3
ENDBRANCH   1   2
BRANCH   1  72
ATOM     72  C   UNL A   1      42.012  26.840  34.680  1.00  0.00     0.002 C 
BRANCH  72  73
ATOM     73  C   UNL A   1      42.358  28.297  35.009  1.00  0.00     0.002 C 
BRANCH  73  74
ATOM     74  C   UNL A   1      41.166  29.220  35.293  1.00  0.00     0.021 C 
BRANCH  74  75
ATOM     75  C   UNL A   1      40.462  29.759  34.052  1.00  0.00     0.116 C 
BRANCH  75  76
ATOM     76  N   UNL A   1      41.241  30.815  33.422  1.00  0.00    -0.351 N 
ATOM     77  C   UNL A   1      40.916  32.116  33.196  1.00  0.00     0.270 C 
ATOM     78  H   UNL A   1      42.138  30.546  33.114  1.00  0.00     0.163 HD
ATOM     79  O   UNL A   1      41.665  32.828  32.527  1.00  0.00    -0.268 OA
BRANCH  77  80
ATOM     80  C   UNL A   1      39.611  32.633  33.652  1.00  0.00     0.134 A 
ATOM     81  C   UNL A   1      39.518  32.886  34.966  1.00  0.00     0.063 A 
ATOM     82  N   UNL A   1      38.521  32.838  32.810  1.00  0.00    -0.207 N 
ATOM     83  C   UNL A   1      38.188  33.374  35.428  1.00  0.00     0.075 A 
ATOM     84  C   UNL A   1      37.321  33.377  33.319  1.00  0.00     0.166 A 
ATOM     85  N   UNL A   1      38.455  32.598  31.485  1.00  0.00    -0.145 NA
ATOM     86  N   UNL A   1      37.156  33.601  34.668  1.00  0.00    -0.228 NA
ATOM     87  C   UNL A   1      36.538  33.613  32.204  1.00  0.00     0.069 A 
ATOM     88  C   UNL A   1      37.295  33.114  31.104  1.00  0.00     0.184 A 
ATOM     89  C   UNL A   1      35.276  34.226  32.133  1.00  0.00    -0.028 A 
ATOM     90  N   UNL A   1      36.860  33.179  29.829  1.00  0.00    -0.222 NA
ATOM     91  C   UNL A   1      34.869  34.291  30.781  1.00  0.00     0.038 A 
ATOM     92  C   UNL A   1      35.644  33.786  29.693  1.00  0.00     0.147 A 
BRANCH  83  93
ATOM     93  C   UNL A   1      38.093  33.551  36.893  1.00  0.00     0.000 A 
ATOM     94  C   UNL A   1      37.200  32.753  37.612  1.00  0.00     0.012 A 
ATOM     95  C   UNL A   1      38.946  34.444  37.555  1.00  0.00     0.012 A 
ATOM     96  C   UNL A   1      37.184  32.823  39.007  1.00  0.00     0.021 A 
ATOM     97  C   UNL A   1      38.917  34.518  38.949  1.00  0.00     0.021 A 
ATOM     98  C   UNL A   1      38.045  33.700  39.669  1.00  0.00     0.041 A 
ATOM     99  Cl  UNL A   1      38.041  33.766  41.388  1.00  0.00    -0.084 Cl
ENDBRANCH  83  93
BRANCH  89 100
ATOM    100  C   UNL A   1      34.530  34.722  33.331  1.00  0.00     0.020 C 
ATOM    101  C   UNL A   1      34.456  36.187  33.696  1.00  0.00     0.009 C 
ATOM    102  C   UNL A   1      33.254  35.504  33.117  1.00  0.00     0.009 C 
ENDBRANCH  89 100
BRANCH  92 103
ATOM    103  C   UNL A   1      35.075  33.908  28.275  1.00  0.00     0.433 C 
ATOM    104  F   UNL A   1      35.946  33.524  27.307  1.00  0.00    -0.165 F 
ATOM    105  F   UNL A   1      33.931  33.190  28.105  1.00  0.00    -0.165 F 
ATOM    106  F   UNL A   1      34.730  35.197  27.964  1.00  0.00    -0.165 F 
ENDBRANCH  92 103
ENDBRANCH  77  80
ENDBRANCH  75  76
ENDBRANCH  74  75
ENDBRANCH  73  74
ENDBRANCH  72  73
ENDBRANCH   1  72
TORSDOF 19
ENDMDL
