MODEL 1
REMARK VINA RESULT:     -11.8      0.000      0.000
REMARK SMILES CC(C)(C)c1cc2c(cc1Cl)C=C(C(=O)NCCCCCCNC(=O)c1ccc(-c3c4nc(c(-c5cc(S(=O)(=O)[O-])ccc5F)c5ccc([nH]5)c(-c5cc(S(=O)(=O)[O-])ccc5F)c5nc(c(-c6cc(S(=O)(=O)[O-])ccc6F)c6ccc3[nH]6)C=C5)C=C4)cc1)[C@@H](C(F)(F)F)O2
REMARK SMILES IDX 20 1 19 2 18 3 17 4 16 5 14 6 15 7 13 9 5 10 6 11 10 12 7 13
REMARK SMILES IDX 9 14 11 15 8 16 94 17 12 18 89 19 2 20 1 21 3 22 4 23 90 24
REMARK SMILES IDX 91 25 92 26 93 27 21 28 22 29 23 30 24 31 25 33 26 34 27 35
REMARK SMILES IDX 88 36 28 37 87 38 29 39 30 40 31 41 81 42 32 43 86 44 80 45
REMARK SMILES IDX 82 46 33 47 85 48 79 49 78 50 34 52 66 53 46 54 65 55 47 56
REMARK SMILES IDX 50 57 64 58 83 59 48 60 49 61 63 63 84 64 51 65 35 66 36 67
REMARK SMILES IDX 44 68 37 69 43 70 45 71 42 72 38 73 39 74 40 75 41 76 67 77
REMARK SMILES IDX 68 78 76 79 69 80 75 81 77 82 74 83 70 84 71 85 72 86 73 87
REMARK SMILES IDX 52 88 53 89 61 90 54 91 60 92 62 93 59 94 55 95 56 96 57 97
REMARK SMILES IDX 58 98
REMARK H PARENT 16 8 23 32 82 51 50 62
REMARK Flexibility Score: inf
ROOT
ATOM      1  C   UNL A   1      38.402  22.579  25.742  1.00  0.00     0.002 C 
ENDROOT
BRANCH   1   2
ATOM      2  C   UNL A   1      36.893  22.615  25.461  1.00  0.00     0.002 C 
BRANCH   2   3
ATOM      3  C   UNL A   1      36.383  21.601  24.430  1.00  0.00     0.021 C 
BRANCH   3   4
ATOM      4  C   UNL A   1      35.642  20.412  25.034  1.00  0.00     0.116 C 
BRANCH   4   5
ATOM      5  N   UNL A   1      34.317  20.253  24.459  1.00  0.00    -0.352 N 
ATOM      6  C   UNL A   1      33.172  20.969  24.384  1.00  0.00     0.251 C 
ATOM      7  O   UNL A   1      32.258  20.426  23.754  1.00  0.00    -0.270 OA
ATOM      8  H   UNL A   1      34.229  19.388  23.996  1.00  0.00     0.163 HD
BRANCH   6   9
ATOM      9  C   UNL A   1      32.946  22.317  24.991  1.00  0.00     0.067 C 
ATOM     10  C   UNL A   1      32.775  27.350  25.810  1.00  0.00    -0.020 A 
ATOM     11  C   UNL A   1      32.228  26.192  26.414  1.00  0.00     0.053 A 
ATOM     12  C   UNL A   1      33.510  27.128  24.624  1.00  0.00     0.045 A 
ATOM     13  C   UNL A   1      32.447  24.907  25.918  1.00  0.00     0.128 A 
ATOM     14  C   UNL A   1      33.720  25.824  24.126  1.00  0.00     0.032 A 
ATOM     15  Cl  UNL A   1      34.169  28.370  23.619  1.00  0.00    -0.084 Cl
ATOM     16  C   UNL A   1      33.194  24.709  24.772  1.00  0.00     0.019 A 
ATOM     17  O   UNL A   1      31.840  23.890  26.591  1.00  0.00    -0.475 OA
ATOM     18  C   UNL A   1      33.353  23.361  24.245  1.00  0.00     0.025 C 
ATOM     19  C   UNL A   1      32.356  22.550  26.355  1.00  0.00     0.314 C 
BRANCH  10  20
ATOM     20  C   UNL A   1      32.445  28.713  26.472  1.00  0.00    -0.012 C 
ATOM     21  C   UNL A   1      31.738  29.759  25.583  1.00  0.00     0.016 C 
ATOM     22  C   UNL A   1      33.735  29.428  26.968  1.00  0.00     0.016 C 
ATOM     23  C   UNL A   1      31.543  28.435  27.693  1.00  0.00     0.016 C 
ENDBRANCH  10  20
BRANCH  19  24
ATOM     24  C   UNL A   1      33.328  22.183  27.491  1.00  0.00     0.429 C 
ATOM     25  F   UNL A   1      34.493  22.860  27.360  1.00  0.00    -0.167 F 
ATOM     26  F   UNL A   1      32.836  22.495  28.713  1.00  0.00    -0.167 F 
ATOM     27  F   UNL A   1      33.621  20.863  27.510  1.00  0.00    -0.167 F 
ENDBRANCH  19  24
ENDBRANCH   6   9
ENDBRANCH   4   5
ENDBRANCH   3   4
ENDBRANCH   2   3
ENDBRANCH   1   2
BRANCH   1  28
ATOM     28  C   UNL A   1      39.109  21.263  25.410  1.00  0.00     0.021 C 
BRANCH  28  29
ATOM     29  C   UNL A   1      39.663  20.509  26.613  1.00  0.00     0.116 C 
BRANCH  29  30
ATOM     30  N   UNL A   1      40.600  19.465  26.234  1.00  0.00    -0.352 N 
ATOM     31  C   UNL A   1      41.954  19.563  26.013  1.00  0.00     0.251 C 
ATOM     32  H   UNL A   1      40.215  18.566  26.119  1.00  0.00     0.163 HD
ATOM     33  O   UNL A   1      42.579  18.614  25.553  1.00  0.00    -0.269 OA
BRANCH  31  34
ATOM     34  C   UNL A   1      42.634  20.845  26.301  1.00  0.00     0.039 A 
ATOM     35  C   UNL A   1      42.886  21.227  27.621  1.00  0.00     0.014 A 
ATOM     36  C   UNL A   1      42.957  21.696  25.242  1.00  0.00     0.014 A 
ATOM     37  C   UNL A   1      43.308  22.524  27.890  1.00  0.00     0.010 A 
ATOM     38  C   UNL A   1      43.452  22.974  25.514  1.00  0.00     0.010 A 
ATOM     39  C   UNL A   1      43.582  23.416  26.840  1.00  0.00    -0.014 A 
BRANCH  39  40
ATOM     40  C   UNL A   1      43.994  24.811  27.146  1.00  0.00     0.031 A 
ATOM     41  C   UNL A   1      45.403  25.268  26.885  1.00  0.00     0.074 A 
ATOM     42  C   UNL A   1      43.078  25.677  27.622  1.00  0.00     0.049 A 
ATOM     43  N   UNL A   1      45.939  26.442  27.098  1.00  0.00    -0.248 NA
ATOM     44  C   UNL A   1      46.332  24.283  26.309  1.00  0.00     0.031 C 
ATOM     45  C   UNL A   1      41.679  25.345  27.891  1.00  0.00     0.029 A 
ATOM     46  N   UNL A   1      43.176  27.006  27.949  1.00  0.00    -0.354 N 
ATOM     47  C   UNL A   1      47.268  26.334  26.700  1.00  0.00     0.074 A 
ATOM     48  C   UNL A   1      47.466  24.971  26.260  1.00  0.00     0.031 C 
ATOM     49  C   UNL A   1      41.039  26.449  28.298  1.00  0.00     0.029 A 
ATOM     50  C   UNL A   1      41.993  27.551  28.392  1.00  0.00     0.049 A 
ATOM     51  H   UNL A   1      44.012  27.520  27.874  1.00  0.00     0.167 HD
ATOM     52  C   UNL A   1      48.228  27.291  26.694  1.00  0.00     0.034 A 
ATOM     53  C   UNL A   1      41.708  28.791  28.841  1.00  0.00     0.034 A 
ATOM     54  C   UNL A   1      48.008  28.649  27.118  1.00  0.00     0.049 A 
ATOM     55  C   UNL A   1      42.803  29.824  28.864  1.00  0.00     0.074 A 
ATOM     56  C   UNL A   1      48.913  29.695  27.133  1.00  0.00     0.029 A 
ATOM     57  N   UNL A   1      46.806  29.155  27.593  1.00  0.00    -0.354 N 
ATOM     58  N   UNL A   1      44.047  29.711  28.461  1.00  0.00    -0.248 NA
ATOM     59  C   UNL A   1      42.465  31.149  29.400  1.00  0.00     0.031 C 
ATOM     60  C   UNL A   1      48.276  30.817  27.665  1.00  0.00     0.029 A 
ATOM     61  C   UNL A   1      46.953  30.491  27.924  1.00  0.00     0.049 A 
ATOM     62  H   UNL A   1      45.972  28.638  27.682  1.00  0.00     0.167 HD
ATOM     63  C   UNL A   1      44.635  30.953  28.679  1.00  0.00     0.074 A 
ATOM     64  C   UNL A   1      43.604  31.809  29.227  1.00  0.00     0.031 C 
ATOM     65  C   UNL A   1      45.915  31.343  28.451  1.00  0.00     0.034 A 
BRANCH  52  66
ATOM     66  C   UNL A   1      49.607  26.929  26.204  1.00  0.00     0.023 A 
ATOM     67  C   UNL A   1      50.030  27.333  24.924  1.00  0.00     0.031 A 
ATOM     68  C   UNL A   1      50.447  26.078  26.944  1.00  0.00     0.131 A 
ATOM     69  C   UNL A   1      51.243  26.860  24.408  1.00  0.00     0.055 A 
ATOM     70  C   UNL A   1      51.672  25.637  26.440  1.00  0.00     0.041 A 
ATOM     71  F   UNL A   1      50.090  25.666  28.171  1.00  0.00    -0.206 F 
ATOM     72  C   UNL A   1      52.068  26.018  25.161  1.00  0.00     0.022 A 
BRANCH  69  73
ATOM     73  S   UNL A   1      51.772  27.269  22.722  1.00  0.00     0.124 S 
ATOM     74  O   UNL A   1      51.869  28.726  22.784  1.00  0.00    -0.237 OA
ATOM     75  O   UNL A   1      53.046  26.563  22.622  1.00  0.00    -0.237 OA
ATOM     76  O   UNL A   1      50.696  26.754  21.882  1.00  0.00    -0.744 OA
ENDBRANCH  69  73
ENDBRANCH  52  66
BRANCH  53  77
ATOM     77  C   UNL A   1      40.310  29.105  29.259  1.00  0.00     0.023 A 
ATOM     78  C   UNL A   1      39.930  29.046  30.612  1.00  0.00     0.031 A 
ATOM     79  C   UNL A   1      39.310  29.341  28.301  1.00  0.00     0.131 A 
ATOM     80  C   UNL A   1      38.576  29.138  30.962  1.00  0.00     0.055 A 
ATOM     81  C   UNL A   1      37.971  29.507  28.662  1.00  0.00     0.041 A 
ATOM     82  F   UNL A   1      39.622  29.394  26.997  1.00  0.00    -0.206 F 
ATOM     83  C   UNL A   1      37.596  29.383  29.996  1.00  0.00     0.022 A 
BRANCH  80  84
ATOM     84  S   UNL A   1      38.030  28.786  32.656  1.00  0.00     0.124 S 
ATOM     85  O   UNL A   1      36.679  29.337  32.659  1.00  0.00    -0.237 OA
ATOM     86  O   UNL A   1      38.118  27.327  32.701  1.00  0.00    -0.237 OA
ATOM     87  O   UNL A   1      39.002  29.490  33.484  1.00  0.00    -0.744 OA
ENDBRANCH  80  84
ENDBRANCH  53  77
BRANCH  65  88
ATOM     88  C   UNL A   1      46.306  32.762  28.777  1.00  0.00     0.023 A 
ATOM     89  C   UNL A   1      46.334  33.734  27.758  1.00  0.00     0.031 A 
ATOM     90  C   UNL A   1      46.809  33.107  30.042  1.00  0.00     0.131 A 
ATOM     91  C   UNL A   1      46.898  34.990  28.011  1.00  0.00     0.055 A 
ATOM     92  C   UNL A   1      47.331  34.376  30.301  1.00  0.00     0.041 A 
ATOM     93  F   UNL A   1      46.812  32.210  31.042  1.00  0.00    -0.206 F 
ATOM     94  C   UNL A   1      47.391  35.318  29.278  1.00  0.00     0.022 A 
BRANCH  91  95
ATOM     95  S   UNL A   1      47.095  36.211  26.683  1.00  0.00     0.124 S 
ATOM     96  O   UNL A   1      46.255  35.649  25.628  1.00  0.00    -0.237 OA
ATOM     97  O   UNL A   1      46.583  37.428  27.307  1.00  0.00    -0.237 OA
ATOM     98  O   UNL A   1      48.528  36.202  26.406  1.00  0.00    -0.744 OA
ENDBRANCH  91  95
ENDBRANCH  65  88
ENDBRANCH  39  40
ENDBRANCH  31  34
ENDBRANCH  29  30
ENDBRANCH  28  29
ENDBRANCH   1  28
TORSDOF 18
ENDMDL
MODEL 2
REMARK VINA RESULT:     -11.7      5.912      9.589
REMARK SMILES CC(C)(C)c1cc2c(cc1Cl)C=C(C(=O)NCCCCCCNC(=O)c1ccc(-c3c4nc(c(-c5cc(S(=O)(=O)[O-])ccc5F)c5ccc([nH]5)c(-c5cc(S(=O)(=O)[O-])ccc5F)c5nc(c(-c6cc(S(=O)(=O)[O-])ccc6F)c6ccc3[nH]6)C=C5)C=C4)cc1)[C@@H](C(F)(F)F)O2
REMARK SMILES IDX 20 1 19 2 18 3 17 4 16 5 14 6 15 7 13 9 5 10 6 11 10 12 7 13
REMARK SMILES IDX 9 14 11 15 8 16 94 17 12 18 89 19 2 20 1 21 3 22 4 23 90 24
REMARK SMILES IDX 91 25 92 26 93 27 21 28 22 29 23 30 24 31 25 33 26 34 27 35
REMARK SMILES IDX 88 36 28 37 87 38 29 39 30 40 31 41 81 42 32 43 86 44 80 45
REMARK SMILES IDX 82 46 33 47 85 48 79 49 78 50 34 52 66 53 46 54 65 55 47 56
REMARK SMILES IDX 50 57 64 58 83 59 48 60 49 61 63 63 84 64 51 65 35 66 36 67
REMARK SMILES IDX 44 68 37 69 43 70 45 71 42 72 38 73 39 74 40 75 41 76 67 77
REMARK SMILES IDX 68 78 76 79 69 80 75 81 77 82 74 83 70 84 71 85 72 86 73 87
REMARK SMILES IDX 52 88 53 89 61 90 54 91 60 92 62 93 59 94 55 95 56 96 57 97
REMARK SMILES IDX 58 98
REMARK H PARENT 16 8 23 32 82 51 50 62
REMARK Flexibility Score: inf
ROOT
ATOM      1  C   UNL A   1      31.255  29.495  24.751  1.00  0.00     0.002 C 
ENDROOT
BRANCH   1   2
ATOM      2  C   UNL A   1      32.328  28.630  25.429  1.00  0.00     0.002 C 
BRANCH   2   3
ATOM      3  C   UNL A   1      33.545  28.279  24.565  1.00  0.00     0.021 C 
BRANCH   3   4
ATOM      4  C   UNL A   1      33.527  26.861  24.003  1.00  0.00     0.116 C 
BRANCH   4   5
ATOM      5  N   UNL A   1      32.177  26.418  23.697  1.00  0.00    -0.352 N 
ATOM      6  C   UNL A   1      31.488  25.254  23.696  1.00  0.00     0.251 C 
ATOM      7  O   UNL A   1      30.301  25.352  23.362  1.00  0.00    -0.270 OA
ATOM      8  H   UNL A   1      31.609  27.171  23.414  1.00  0.00     0.163 HD
BRANCH   6   9
ATOM      9  C   UNL A   1      32.043  23.913  24.052  1.00  0.00     0.067 C 
ATOM     10  C   UNL A   1      33.385  18.991  23.965  1.00  0.00    -0.020 A 
ATOM     11  C   UNL A   1      33.687  20.124  24.758  1.00  0.00     0.053 A 
ATOM     12  C   UNL A   1      32.558  19.235  22.845  1.00  0.00     0.045 A 
ATOM     13  C   UNL A   1      33.159  21.389  24.500  1.00  0.00     0.128 A 
ATOM     14  C   UNL A   1      32.034  20.520  22.588  1.00  0.00     0.032 A 
ATOM     15  Cl  UNL A   1      32.145  18.063  21.644  1.00  0.00    -0.084 Cl
ATOM     16  C   UNL A   1      32.329  21.601  23.415  1.00  0.00     0.019 A 
ATOM     17  O   UNL A   1      33.556  22.390  25.335  1.00  0.00    -0.475 OA
ATOM     18  C   UNL A   1      31.843  22.945  23.137  1.00  0.00     0.025 C 
ATOM     19  C   UNL A   1      32.740  23.593  25.346  1.00  0.00     0.314 C 
BRANCH  10  20
ATOM     20  C   UNL A   1      34.047  17.649  24.371  1.00  0.00    -0.012 C 
ATOM     21  C   UNL A   1      34.092  16.546  23.291  1.00  0.00     0.016 C 
ATOM     22  C   UNL A   1      33.305  16.992  25.571  1.00  0.00     0.016 C 
ATOM     23  C   UNL A   1      35.496  17.953  24.805  1.00  0.00     0.016 C 
ENDBRANCH  10  20
BRANCH  19  24
ATOM     24  C   UNL A   1      31.771  23.528  26.540  1.00  0.00     0.429 C 
ATOM     25  F   UNL A   1      31.696  24.730  27.161  1.00  0.00    -0.167 F 
ATOM     26  F   UNL A   1      30.510  23.209  26.164  1.00  0.00    -0.167 F 
ATOM     27  F   UNL A   1      32.150  22.614  27.462  1.00  0.00    -0.167 F 
ENDBRANCH  19  24
ENDBRANCH   6   9
ENDBRANCH   4   5
ENDBRANCH   3   4
ENDBRANCH   2   3
ENDBRANCH   1   2
BRANCH   1  28
ATOM     28  C   UNL A   1      30.999  30.861  25.392  1.00  0.00     0.021 C 
BRANCH  28  29
ATOM     29  C   UNL A   1      31.957  31.233  26.518  1.00  0.00     0.116 C 
BRANCH  29  30
ATOM     30  N   UNL A   1      31.912  32.648  26.843  1.00  0.00    -0.352 N 
ATOM     31  C   UNL A   1      32.798  33.385  27.595  1.00  0.00     0.251 C 
ATOM     32  H   UNL A   1      31.147  33.147  26.478  1.00  0.00     0.163 HD
ATOM     33  O   UNL A   1      32.538  34.544  27.901  1.00  0.00    -0.269 OA
BRANCH  31  34
ATOM     34  C   UNL A   1      34.045  32.744  28.063  1.00  0.00     0.039 A 
ATOM     35  C   UNL A   1      34.055  31.389  28.405  1.00  0.00     0.014 A 
ATOM     36  C   UNL A   1      35.193  33.524  28.224  1.00  0.00     0.014 A 
ATOM     37  C   UNL A   1      35.159  30.856  29.059  1.00  0.00     0.010 A 
ATOM     38  C   UNL A   1      36.328  32.964  28.815  1.00  0.00     0.010 A 
ATOM     39  C   UNL A   1      36.303  31.641  29.284  1.00  0.00    -0.014 A 
BRANCH  39  40
ATOM     40  C   UNL A   1      37.459  31.067  30.021  1.00  0.00     0.031 A 
ATOM     41  C   UNL A   1      38.378  30.081  29.354  1.00  0.00     0.074 A 
ATOM     42  C   UNL A   1      37.699  31.471  31.283  1.00  0.00     0.049 A 
ATOM     43  N   UNL A   1      39.428  29.474  29.845  1.00  0.00    -0.248 NA
ATOM     44  C   UNL A   1      38.086  29.731  27.954  1.00  0.00     0.031 C 
ATOM     45  C   UNL A   1      36.885  32.439  32.017  1.00  0.00     0.029 A 
ATOM     46  N   UNL A   1      38.698  31.138  32.164  1.00  0.00    -0.354 N 
ATOM     47  C   UNL A   1      39.911  28.659  28.826  1.00  0.00     0.074 A 
ATOM     48  C   UNL A   1      39.023  28.827  27.697  1.00  0.00     0.031 C 
ATOM     49  C   UNL A   1      37.438  32.655  33.218  1.00  0.00     0.029 A 
ATOM     50  C   UNL A   1      38.605  31.790  33.372  1.00  0.00     0.049 A 
ATOM     51  H   UNL A   1      39.412  30.494  31.951  1.00  0.00     0.167 HD
ATOM     52  C   UNL A   1      41.002  27.856  28.832  1.00  0.00     0.034 A 
ATOM     53  C   UNL A   1      39.360  31.691  34.486  1.00  0.00     0.034 A 
ATOM     54  C   UNL A   1      41.886  27.715  29.960  1.00  0.00     0.049 A 
ATOM     55  C   UNL A   1      40.542  30.759  34.481  1.00  0.00     0.074 A 
ATOM     56  C   UNL A   1      43.027  26.939  30.057  1.00  0.00     0.029 A 
ATOM     57  N   UNL A   1      41.740  28.365  31.178  1.00  0.00    -0.354 N 
ATOM     58  N   UNL A   1      40.997  30.015  33.500  1.00  0.00    -0.248 NA
ATOM     59  C   UNL A   1      41.313  30.647  35.726  1.00  0.00     0.031 C 
ATOM     60  C   UNL A   1      43.541  27.077  31.348  1.00  0.00     0.029 A 
ATOM     61  C   UNL A   1      42.758  27.989  32.039  1.00  0.00     0.049 A 
ATOM     62  H   UNL A   1      41.019  28.999  31.397  1.00  0.00     0.167 HD
ATOM     63  C   UNL A   1      42.118  29.361  34.004  1.00  0.00     0.074 A 
ATOM     64  C   UNL A   1      42.284  29.815  35.369  1.00  0.00     0.031 C 
ATOM     65  C   UNL A   1      42.928  28.462  33.391  1.00  0.00     0.034 A 
BRANCH  52  66
ATOM     66  C   UNL A   1      41.328  27.068  27.589  1.00  0.00     0.023 A 
ATOM     67  C   UNL A   1      41.141  25.672  27.570  1.00  0.00     0.031 A 
ATOM     68  C   UNL A   1      41.943  27.672  26.478  1.00  0.00     0.131 A 
ATOM     69  C   UNL A   1      41.595  24.923  26.477  1.00  0.00     0.055 A 
ATOM     70  C   UNL A   1      42.363  26.925  25.376  1.00  0.00     0.041 A 
ATOM     71  F   UNL A   1      42.142  29.000  26.448  1.00  0.00    -0.206 F 
ATOM     72  C   UNL A   1      42.200  25.543  25.378  1.00  0.00     0.022 A 
BRANCH  69  73
ATOM     73  S   UNL A   1      41.473  23.114  26.462  1.00  0.00     0.124 S 
ATOM     74  O   UNL A   1      42.021  22.765  27.771  1.00  0.00    -0.237 OA
ATOM     75  O   UNL A   1      40.034  22.906  26.313  1.00  0.00    -0.237 OA
ATOM     76  O   UNL A   1      42.289  22.716  25.320  1.00  0.00    -0.744 OA
ENDBRANCH  69  73
ENDBRANCH  52  66
BRANCH  53  77
ATOM     77  C   UNL A   1      39.020  32.540  35.666  1.00  0.00     0.023 A 
ATOM     78  C   UNL A   1      39.472  33.869  35.754  1.00  0.00     0.031 A 
ATOM     79  C   UNL A   1      38.349  31.995  36.773  1.00  0.00     0.131 A 
ATOM     80  C   UNL A   1      39.323  34.580  36.952  1.00  0.00     0.055 A 
ATOM     81  C   UNL A   1      38.137  32.733  37.939  1.00  0.00     0.041 A 
ATOM     82  F   UNL A   1      37.909  30.728  36.741  1.00  0.00    -0.206 F 
ATOM     83  C   UNL A   1      38.644  34.025  38.040  1.00  0.00     0.022 A 
BRANCH  80  84
ATOM     84  S   UNL A   1      40.141  36.183  37.189  1.00  0.00     0.124 S 
ATOM     85  O   UNL A   1      39.921  36.828  35.899  1.00  0.00    -0.237 OA
ATOM     86  O   UNL A   1      39.388  36.739  38.311  1.00  0.00    -0.237 OA
ATOM     87  O   UNL A   1      41.522  35.822  37.489  1.00  0.00    -0.744 OA
ENDBRANCH  80  84
ENDBRANCH  53  77
BRANCH  65  88
ATOM     88  C   UNL A   1      44.089  27.891  34.165  1.00  0.00     0.023 A 
ATOM     89  C   UNL A   1      43.898  26.758  34.980  1.00  0.00     0.031 A 
ATOM     90  C   UNL A   1      45.322  28.560  34.230  1.00  0.00     0.131 A 
ATOM     91  C   UNL A   1      44.910  26.357  35.860  1.00  0.00     0.055 A 
ATOM     92  C   UNL A   1      46.344  28.129  35.078  1.00  0.00     0.041 A 
ATOM     93  F   UNL A   1      45.545  29.650  33.479  1.00  0.00    -0.206 F 
ATOM     94  C   UNL A   1      46.134  27.032  35.909  1.00  0.00     0.022 A 
BRANCH  91  95
ATOM     95  S   UNL A   1      44.644  25.000  37.036  1.00  0.00     0.124 S 
ATOM     96  O   UNL A   1      43.666  25.583  37.953  1.00  0.00    -0.237 OA
ATOM     97  O   UNL A   1      44.135  23.939  36.172  1.00  0.00    -0.237 OA
ATOM     98  O   UNL A   1      45.966  24.765  37.608  1.00  0.00    -0.744 OA
ENDBRANCH  91  95
ENDBRANCH  65  88
ENDBRANCH  39  40
ENDBRANCH  31  34
ENDBRANCH  29  30
ENDBRANCH  28  29
ENDBRANCH   1  28
TORSDOF 18
ENDMDL
MODEL 3
REMARK VINA RESULT:     -11.6      6.180     11.224
REMARK SMILES CC(C)(C)c1cc2c(cc1Cl)C=C(C(=O)NCCCCCCNC(=O)c1ccc(-c3c4nc(c(-c5cc(S(=O)(=O)[O-])ccc5F)c5ccc([nH]5)c(-c5cc(S(=O)(=O)[O-])ccc5F)c5nc(c(-c6cc(S(=O)(=O)[O-])ccc6F)c6ccc3[nH]6)C=C5)C=C4)cc1)[C@@H](C(F)(F)F)O2
REMARK SMILES IDX 20 1 19 2 18 3 17 4 16 5 14 6 15 7 13 9 5 10 6 11 10 12 7 13
REMARK SMILES IDX 9 14 11 15 8 16 94 17 12 18 89 19 2 20 1 21 3 22 4 23 90 24
REMARK SMILES IDX 91 25 92 26 93 27 21 28 22 29 23 30 24 31 25 33 26 34 27 35
REMARK SMILES IDX 88 36 28 37 87 38 29 39 30 40 31 41 81 42 32 43 86 44 80 45
REMARK SMILES IDX 82 46 33 47 85 48 79 49 78 50 34 52 66 53 46 54 65 55 47 56
REMARK SMILES IDX 50 57 64 58 83 59 48 60 49 61 63 63 84 64 51 65 35 66 36 67
REMARK SMILES IDX 44 68 37 69 43 70 45 71 42 72 38 73 39 74 40 75 41 76 67 77
REMARK SMILES IDX 68 78 76 79 69 80 75 81 77 82 74 83 70 84 71 85 72 86 73 87
REMARK SMILES IDX 52 88 53 89 61 90 54 91 60 92 62 93 59 94 55 95 56 96 57 97
REMARK SMILES IDX 58 98
REMARK H PARENT 16 8 23 32 82 51 50 62
REMARK Flexibility Score: inf
ROOT
ATOM      1  C   UNL A   1      32.055  29.319  26.220  1.00  0.00     0.002 C 
ENDROOT
BRANCH   1   2
ATOM      2  C   UNL A   1      32.275  28.941  24.748  1.00  0.00     0.002 C 
BRANCH   2   3
ATOM      3  C   UNL A   1      33.633  28.310  24.419  1.00  0.00     0.021 C 
BRANCH   3   4
ATOM      4  C   UNL A   1      33.560  26.839  24.017  1.00  0.00     0.116 C 
BRANCH   4   5
ATOM      5  N   UNL A   1      32.189  26.405  23.806  1.00  0.00    -0.352 N 
ATOM      6  C   UNL A   1      31.494  25.246  23.853  1.00  0.00     0.251 C 
ATOM      7  O   UNL A   1      30.288  25.351  23.603  1.00  0.00    -0.270 OA
ATOM      8  H   UNL A   1      31.607  27.162  23.563  1.00  0.00     0.163 HD
BRANCH   6   9
ATOM      9  C   UNL A   1      32.064  23.901  24.170  1.00  0.00     0.067 C 
ATOM     10  C   UNL A   1      33.395  18.979  23.975  1.00  0.00    -0.020 A 
ATOM     11  C   UNL A   1      33.736  20.104  24.763  1.00  0.00     0.053 A 
ATOM     12  C   UNL A   1      32.516  19.234  22.899  1.00  0.00     0.045 A 
ATOM     13  C   UNL A   1      33.198  21.372  24.542  1.00  0.00     0.128 A 
ATOM     14  C   UNL A   1      31.981  20.522  22.678  1.00  0.00     0.032 A 
ATOM     15  Cl  UNL A   1      32.044  18.073  21.708  1.00  0.00    -0.084 Cl
ATOM     16  C   UNL A   1      32.317  21.594  23.500  1.00  0.00     0.019 A 
ATOM     17  O   UNL A   1      33.635  22.365  25.366  1.00  0.00    -0.475 OA
ATOM     18  C   UNL A   1      31.819  22.941  23.257  1.00  0.00     0.025 C 
ATOM     19  C   UNL A   1      32.822  23.569  25.427  1.00  0.00     0.314 C 
BRANCH  10  20
ATOM     20  C   UNL A   1      34.074  17.633  24.337  1.00  0.00    -0.012 C 
ATOM     21  C   UNL A   1      34.156  16.576  23.214  1.00  0.00     0.016 C 
ATOM     22  C   UNL A   1      33.325  16.914  25.496  1.00  0.00     0.016 C 
ATOM     23  C   UNL A   1      35.511  17.944  24.807  1.00  0.00     0.016 C 
ENDBRANCH  10  20
BRANCH  19  24
ATOM     24  C   UNL A   1      31.911  23.494  26.665  1.00  0.00     0.429 C 
ATOM     25  F   UNL A   1      32.582  22.978  27.722  1.00  0.00    -0.167 F 
ATOM     26  F   UNL A   1      31.461  24.711  27.050  1.00  0.00    -0.167 F 
ATOM     27  F   UNL A   1      30.821  22.720  26.455  1.00  0.00    -0.167 F 
ENDBRANCH  19  24
ENDBRANCH   6   9
ENDBRANCH   4   5
ENDBRANCH   3   4
ENDBRANCH   2   3
ENDBRANCH   1   2
BRANCH   1  28
ATOM     28  C   UNL A   1      31.793  30.801  26.494  1.00  0.00     0.021 C 
BRANCH  28  29
ATOM     29  C   UNL A   1      32.952  31.552  27.138  1.00  0.00     0.116 C 
BRANCH  29  30
ATOM     30  N   UNL A   1      32.661  32.962  27.338  1.00  0.00    -0.352 N 
ATOM     31  C   UNL A   1      33.271  33.852  28.192  1.00  0.00     0.251 C 
ATOM     32  H   UNL A   1      31.931  33.330  26.791  1.00  0.00     0.163 HD
ATOM     33  O   UNL A   1      32.808  34.976  28.351  1.00  0.00    -0.269 OA
BRANCH  31  34
ATOM     34  C   UNL A   1      34.466  33.416  28.946  1.00  0.00     0.039 A 
ATOM     35  C   UNL A   1      35.745  33.674  28.447  1.00  0.00     0.014 A 
ATOM     36  C   UNL A   1      34.298  32.684  30.124  1.00  0.00     0.014 A 
ATOM     37  C   UNL A   1      36.846  33.062  29.036  1.00  0.00     0.010 A 
ATOM     38  C   UNL A   1      35.416  32.133  30.756  1.00  0.00     0.010 A 
ATOM     39  C   UNL A   1      36.692  32.274  30.188  1.00  0.00    -0.014 A 
BRANCH  39  40
ATOM     40  C   UNL A   1      37.873  31.594  30.781  1.00  0.00     0.031 A 
ATOM     41  C   UNL A   1      38.320  31.918  32.181  1.00  0.00     0.074 A 
ATOM     42  C   UNL A   1      38.519  30.653  30.065  1.00  0.00     0.049 A 
ATOM     43  N   UNL A   1      39.330  31.431  32.854  1.00  0.00    -0.248 NA
ATOM     44  C   UNL A   1      37.531  32.914  32.923  1.00  0.00     0.031 C 
ATOM     45  C   UNL A   1      38.156  30.246  28.707  1.00  0.00     0.029 A 
ATOM     46  N   UNL A   1      39.594  29.861  30.376  1.00  0.00    -0.354 N 
ATOM     47  C   UNL A   1      39.311  32.072  34.090  1.00  0.00     0.074 A 
ATOM     48  C   UNL A   1      38.205  33.004  34.063  1.00  0.00     0.031 C 
ATOM     49  C   UNL A   1      38.965  29.251  28.319  1.00  0.00     0.029 A 
ATOM     50  C   UNL A   1      39.951  28.997  29.366  1.00  0.00     0.049 A 
ATOM     51  H   UNL A   1      40.066  29.906  31.239  1.00  0.00     0.167 HD
ATOM     52  C   UNL A   1      40.134  31.886  35.150  1.00  0.00     0.034 A 
ATOM     53  C   UNL A   1      40.965  28.112  29.282  1.00  0.00     0.034 A 
ATOM     54  C   UNL A   1      41.219  30.940  35.165  1.00  0.00     0.049 A 
ATOM     55  C   UNL A   1      41.892  27.956  30.458  1.00  0.00     0.074 A 
ATOM     56  C   UNL A   1      42.098  30.667  36.198  1.00  0.00     0.029 A 
ATOM     57  N   UNL A   1      41.570  30.107  34.112  1.00  0.00    -0.354 N 
ATOM     58  N   UNL A   1      41.844  28.552  31.626  1.00  0.00    -0.248 NA
ATOM     59  C   UNL A   1      43.010  27.014  30.311  1.00  0.00     0.031 C 
ATOM     60  C   UNL A   1      43.012  29.711  35.753  1.00  0.00     0.029 A 
ATOM     61  C   UNL A   1      42.667  29.338  34.463  1.00  0.00     0.049 A 
ATOM     62  H   UNL A   1      41.108  30.070  33.243  1.00  0.00     0.167 HD
ATOM     63  C   UNL A   1      42.913  28.045  32.360  1.00  0.00     0.074 A 
ATOM     64  C   UNL A   1      43.575  27.077  31.511  1.00  0.00     0.031 C 
ATOM     65  C   UNL A   1      43.309  28.360  33.619  1.00  0.00     0.034 A 
BRANCH  52  66
ATOM     66  C   UNL A   1      39.905  32.704  36.396  1.00  0.00     0.023 A 
ATOM     67  C   UNL A   1      38.971  32.274  37.358  1.00  0.00     0.031 A 
ATOM     68  C   UNL A   1      40.506  33.963  36.567  1.00  0.00     0.131 A 
ATOM     69  C   UNL A   1      38.641  33.112  38.431  1.00  0.00     0.055 A 
ATOM     70  C   UNL A   1      40.200  34.780  37.656  1.00  0.00     0.041 A 
ATOM     71  F   UNL A   1      41.404  34.416  35.677  1.00  0.00    -0.206 F 
ATOM     72  C   UNL A   1      39.254  34.360  38.588  1.00  0.00     0.022 A 
BRANCH  69  73
ATOM     73  S   UNL A   1      37.364  32.644  39.632  1.00  0.00     0.124 S 
ATOM     74  O   UNL A   1      37.814  31.317  40.045  1.00  0.00    -0.237 OA
ATOM     75  O   UNL A   1      37.497  33.690  40.642  1.00  0.00    -0.237 OA
ATOM     76  O   UNL A   1      36.128  32.668  38.857  1.00  0.00    -0.744 OA
ENDBRANCH  69  73
ENDBRANCH  52  66
BRANCH  53  77
ATOM     77  C   UNL A   1      41.107  27.291  28.043  1.00  0.00     0.023 A 
ATOM     78  C   UNL A   1      40.794  25.919  28.046  1.00  0.00     0.031 A 
ATOM     79  C   UNL A   1      41.674  27.837  26.880  1.00  0.00     0.131 A 
ATOM     80  C   UNL A   1      41.128  25.125  26.941  1.00  0.00     0.055 A 
ATOM     81  C   UNL A   1      41.936  27.056  25.753  1.00  0.00     0.041 A 
ATOM     82  F   UNL A   1      42.000  29.138  26.833  1.00  0.00    -0.206 F 
ATOM     83  C   UNL A   1      41.683  25.688  25.789  1.00  0.00     0.022 A 
BRANCH  80  84
ATOM     84  S   UNL A   1      40.998  23.316  27.026  1.00  0.00     0.124 S 
ATOM     85  O   UNL A   1      39.554  23.115  26.988  1.00  0.00    -0.237 OA
ATOM     86  O   UNL A   1      41.725  22.909  25.825  1.00  0.00    -0.237 OA
ATOM     87  O   UNL A   1      41.651  22.984  28.287  1.00  0.00    -0.744 OA
ENDBRANCH  80  84
ENDBRANCH  53  77
BRANCH  65  88
ATOM     88  C   UNL A   1      44.516  27.661  34.192  1.00  0.00     0.023 A 
ATOM     89  C   UNL A   1      44.347  26.513  34.990  1.00  0.00     0.031 A 
ATOM     90  C   UNL A   1      45.799  28.222  34.092  1.00  0.00     0.131 A 
ATOM     91  C   UNL A   1      45.437  25.990  35.695  1.00  0.00     0.055 A 
ATOM     92  C   UNL A   1      46.892  27.670  34.763  1.00  0.00     0.041 A 
ATOM     93  F   UNL A   1      46.006  29.322  33.350  1.00  0.00    -0.206 F 
ATOM     94  C   UNL A   1      46.710  26.559  35.581  1.00  0.00     0.022 A 
BRANCH  91  95
ATOM     95  S   UNL A   1      45.228  24.609  36.854  1.00  0.00     0.124 S 
ATOM     96  O   UNL A   1      44.154  25.099  37.716  1.00  0.00    -0.237 OA
ATOM     97  O   UNL A   1      44.862  23.513  35.963  1.00  0.00    -0.237 OA
ATOM     98  O   UNL A   1      46.532  24.488  37.497  1.00  0.00    -0.744 OA
ENDBRANCH  91  95
ENDBRANCH  65  88
ENDBRANCH  39  40
ENDBRANCH  31  34
ENDBRANCH  29  30
ENDBRANCH  28  29
ENDBRANCH   1  28
TORSDOF 18
ENDMDL
