MODEL 1
REMARK VINA RESULT:     -10.4      0.000      0.000
REMARK SMILES CC(C)[C@@H](CO)Nc1ccc(C(=O)NCCCCCCNC(=O)c2ccc(-c3c4nc(c(-c5cc(S(=O)(=O)[O-])ccc5F)c5ccc([nH]5)c(-c5cc(S(=O)(=O)[O-])ccc5F)c5nc(c(-c6cc(S(=O)(=O)[O-])ccc6F)c6ccc3[nH]6)C=C5)C=C4)cc2)nn1
REMARK SMILES IDX 17 1 16 2 15 3 14 4 12 5 13 6 11 8 8 9 9 10 88 11 10 12
REMARK SMILES IDX 87 13 7 14 4 16 2 17 1 18 3 19 5 20 6 21 18 23 19 24 20 25
REMARK SMILES IDX 21 26 22 27 23 29 24 30 25 31 86 32 26 33 85 34 27 35 28 36
REMARK SMILES IDX 29 37 79 38 30 39 84 40 78 41 80 42 31 43 83 44 77 45 76 46
REMARK SMILES IDX 32 48 64 49 44 50 63 51 45 52 48 53 62 54 81 55 46 56 47 57
REMARK SMILES IDX 61 59 82 60 49 61 33 62 34 63 42 64 35 65 41 66 43 67 40 68
REMARK SMILES IDX 36 69 37 70 38 71 39 72 65 73 66 74 74 75 67 76 73 77 75 78
REMARK SMILES IDX 72 79 68 80 69 81 70 82 71 83 50 84 51 85 59 86 52 87 58 88
REMARK SMILES IDX 60 89 57 90 53 91 54 92 55 93 56 94
REMARK H PARENT 14 7 7 15 6 22 21 28 80 47 48 58
REMARK Flexibility Score: inf
ROOT
ATOM      1  C   UNL A   1      37.046  21.501  24.179  1.00  0.00     0.002 C 
ENDROOT
BRANCH   1   2
ATOM      2  C   UNL A   1      36.998  22.788  25.014  1.00  0.00     0.021 C 
BRANCH   2   3
ATOM      3  C   UNL A   1      36.124  23.877  24.387  1.00  0.00     0.116 C 
BRANCH   3   4
ATOM      4  N   UNL A   1      35.096  24.289  25.321  1.00  0.00    -0.351 N 
ATOM      5  C   UNL A   1      33.933  23.700  25.764  1.00  0.00     0.271 C 
ATOM      6  O   UNL A   1      33.272  24.353  26.575  1.00  0.00    -0.267 OA
ATOM      7  H   UNL A   1      35.264  25.172  25.722  1.00  0.00     0.163 HD
BRANCH   5   8
ATOM      8  C   UNL A   1      33.473  22.334  25.360  1.00  0.00     0.150 A 
ATOM      9  C   UNL A   1      32.864  19.688  24.867  1.00  0.00     0.148 A 
ATOM     10  C   UNL A   1      32.719  20.626  23.860  1.00  0.00     0.051 A 
ATOM     11  N   UNL A   1      33.233  20.087  26.096  1.00  0.00    -0.132 NA
ATOM     12  C   UNL A   1      32.986  21.973  24.117  1.00  0.00     0.040 A 
ATOM     13  N   UNL A   1      33.567  21.408  26.341  1.00  0.00    -0.143 NA
BRANCH   9  14
ATOM     14  N   UNL A   1      32.659  18.339  24.665  1.00  0.00    -0.363 N 
ATOM     15  H   UNL A   1      31.875  17.897  25.062  1.00  0.00     0.162 HD
BRANCH  14  16
ATOM     16  C   UNL A   1      33.609  17.563  23.860  1.00  0.00     0.108 C 
BRANCH  16  17
ATOM     17  C   UNL A   1      33.753  16.138  24.477  1.00  0.00     0.007 C 
ATOM     18  C   UNL A   1      35.069  15.979  25.246  1.00  0.00     0.009 C 
ATOM     19  C   UNL A   1      32.592  15.812  25.430  1.00  0.00     0.009 C 
ENDBRANCH  16  17
BRANCH  16  20
ATOM     20  C   UNL A   1      33.131  17.562  22.387  1.00  0.00     0.181 C 
BRANCH  20  21
ATOM     21  O   UNL A   1      31.712  17.630  22.256  1.00  0.00    -0.394 OA
ATOM     22  H   UNL A   1      31.298  17.448  23.114  1.00  0.00     0.210 HD
ENDBRANCH  20  21
ENDBRANCH  16  20
ENDBRANCH  14  16
ENDBRANCH   9  14
ENDBRANCH   5   8
ENDBRANCH   3   4
ENDBRANCH   2   3
ENDBRANCH   1   2
BRANCH   1  23
ATOM     23  C   UNL A   1      36.884  20.205  24.984  1.00  0.00     0.002 C 
BRANCH  23  24
ATOM     24  C   UNL A   1      38.157  19.364  25.115  1.00  0.00     0.021 C 
BRANCH  24  25
ATOM     25  C   UNL A   1      39.204  19.957  26.055  1.00  0.00     0.116 C 
BRANCH  25  26
ATOM     26  N   UNL A   1      40.437  19.184  26.031  1.00  0.00    -0.352 N 
ATOM     27  C   UNL A   1      41.737  19.624  26.030  1.00  0.00     0.251 C 
ATOM     28  H   UNL A   1      40.322  18.207  26.012  1.00  0.00     0.163 HD
ATOM     29  O   UNL A   1      42.641  18.853  25.728  1.00  0.00    -0.269 OA
BRANCH  27  30
ATOM     30  C   UNL A   1      42.036  21.029  26.381  1.00  0.00     0.039 A 
ATOM     31  C   UNL A   1      42.253  21.365  27.718  1.00  0.00     0.014 A 
ATOM     32  C   UNL A   1      42.091  22.014  25.390  1.00  0.00     0.014 A 
ATOM     33  C   UNL A   1      42.587  22.679  28.056  1.00  0.00     0.010 A 
ATOM     34  C   UNL A   1      42.493  23.305  25.718  1.00  0.00     0.010 A 
ATOM     35  C   UNL A   1      42.746  23.651  27.055  1.00  0.00    -0.014 A 
BRANCH  35  36
ATOM     36  C   UNL A   1      43.181  25.033  27.384  1.00  0.00     0.031 A 
ATOM     37  C   UNL A   1      42.225  25.991  28.041  1.00  0.00     0.074 A 
ATOM     38  C   UNL A   1      44.417  25.441  27.030  1.00  0.00     0.049 A 
ATOM     39  N   UNL A   1      42.389  27.257  28.327  1.00  0.00    -0.248 NA
ATOM     40  C   UNL A   1      40.901  25.460  28.396  1.00  0.00     0.031 C 
ATOM     41  C   UNL A   1      45.420  24.611  26.358  1.00  0.00     0.029 A 
ATOM     42  N   UNL A   1      45.039  26.656  27.175  1.00  0.00    -0.354 N 
ATOM     43  C   UNL A   1      41.187  27.678  28.887  1.00  0.00     0.074 A 
ATOM     44  C   UNL A   1      40.286  26.545  28.843  1.00  0.00     0.031 C 
ATOM     45  C   UNL A   1      46.534  25.334  26.168  1.00  0.00     0.029 A 
ATOM     46  C   UNL A   1      46.312  26.692  26.653  1.00  0.00     0.049 A 
ATOM     47  H   UNL A   1      44.613  27.429  27.610  1.00  0.00     0.167 HD
ATOM     48  C   UNL A   1      40.873  28.891  29.404  1.00  0.00     0.034 A 
ATOM     49  C   UNL A   1      47.194  27.708  26.559  1.00  0.00     0.034 A 
ATOM     50  C   UNL A   1      41.788  30.005  29.446  1.00  0.00     0.049 A 
ATOM     51  C   UNL A   1      46.807  29.058  27.110  1.00  0.00     0.074 A 
ATOM     52  C   UNL A   1      41.593  31.259  30.000  1.00  0.00     0.029 A 
ATOM     53  N   UNL A   1      43.067  30.007  28.903  1.00  0.00    -0.354 N 
ATOM     54  N   UNL A   1      45.683  29.425  27.684  1.00  0.00    -0.248 NA
ATOM     55  C   UNL A   1      47.808  30.126  27.010  1.00  0.00     0.031 C 
ATOM     56  C   UNL A   1      42.719  32.041  29.723  1.00  0.00     0.029 A 
ATOM     57  C   UNL A   1      43.656  31.252  29.074  1.00  0.00     0.049 A 
ATOM     58  H   UNL A   1      43.494  29.237  28.463  1.00  0.00     0.167 HD
ATOM     59  C   UNL A   1      45.858  30.759  28.041  1.00  0.00     0.074 A 
ATOM     60  C   UNL A   1      47.200  31.124  27.633  1.00  0.00     0.031 C 
ATOM     61  C   UNL A   1      44.990  31.607  28.651  1.00  0.00     0.034 A 
BRANCH  48  62
ATOM     62  C   UNL A   1      39.472  29.081  29.939  1.00  0.00     0.023 A 
ATOM     63  C   UNL A   1      38.481  29.752  29.200  1.00  0.00     0.031 A 
ATOM     64  C   UNL A   1      39.125  28.596  31.213  1.00  0.00     0.131 A 
ATOM     65  C   UNL A   1      37.217  29.980  29.766  1.00  0.00     0.055 A 
ATOM     66  C   UNL A   1      37.840  28.753  31.737  1.00  0.00     0.041 A 
ATOM     67  F   UNL A   1      40.033  27.968  31.976  1.00  0.00    -0.206 F 
ATOM     68  C   UNL A   1      36.882  29.461  31.018  1.00  0.00     0.022 A 
BRANCH  65  69
ATOM     69  S   UNL A   1      36.068  31.083  28.902  1.00  0.00     0.124 S 
ATOM     70  O   UNL A   1      35.231  31.557  30.003  1.00  0.00    -0.237 OA
ATOM     71  O   UNL A   1      36.962  32.071  28.309  1.00  0.00    -0.237 OA
ATOM     72  O   UNL A   1      35.393  30.201  27.952  1.00  0.00    -0.744 OA
ENDBRANCH  65  69
ENDBRANCH  48  62
BRANCH  49  73
ATOM     73  C   UNL A   1      48.516  27.504  25.898  1.00  0.00     0.023 A 
ATOM     74  C   UNL A   1      48.659  27.645  24.508  1.00  0.00     0.031 A 
ATOM     75  C   UNL A   1      49.645  27.115  26.640  1.00  0.00     0.131 A 
ATOM     76  C   UNL A   1      49.889  27.345  23.898  1.00  0.00     0.055 A 
ATOM     77  C   UNL A   1      50.881  26.878  26.036  1.00  0.00     0.041 A 
ATOM     78  F   UNL A   1      49.565  26.968  27.972  1.00  0.00    -0.206 F 
ATOM     79  C   UNL A   1      51.003  26.977  24.653  1.00  0.00     0.022 A 
BRANCH  76  80
ATOM     80  S   UNL A   1      49.980  27.345  22.087  1.00  0.00     0.124 S 
ATOM     81  O   UNL A   1      48.796  26.570  21.731  1.00  0.00    -0.237 OA
ATOM     82  O   UNL A   1      49.930  28.771  21.781  1.00  0.00    -0.237 OA
ATOM     83  O   UNL A   1      51.259  26.695  21.812  1.00  0.00    -0.744 OA
ENDBRANCH  76  80
ENDBRANCH  49  73
BRANCH  61  84
ATOM     84  C   UNL A   1      45.488  33.000  28.951  1.00  0.00     0.023 A 
ATOM     85  C   UNL A   1      45.314  34.060  28.044  1.00  0.00     0.031 A 
ATOM     86  C   UNL A   1      46.159  33.267  30.157  1.00  0.00     0.131 A 
ATOM     87  C   UNL A   1      45.857  35.321  28.330  1.00  0.00     0.055 A 
ATOM     88  C   UNL A   1      46.637  34.541  30.467  1.00  0.00     0.041 A 
ATOM     89  F   UNL A   1      46.358  32.293  31.060  1.00  0.00    -0.206 F 
ATOM     90  C   UNL A   1      46.499  35.574  29.545  1.00  0.00     0.022 A 
BRANCH  87  91
ATOM     91  S   UNL A   1      45.800  36.605  27.049  1.00  0.00     0.124 S 
ATOM     92  O   UNL A   1      44.370  36.881  26.961  1.00  0.00    -0.237 OA
ATOM     93  O   UNL A   1      46.618  37.664  27.631  1.00  0.00    -0.237 OA
ATOM     94  O   UNL A   1      46.378  35.947  25.879  1.00  0.00    -0.744 OA
ENDBRANCH  87  91
ENDBRANCH  61  84
ENDBRANCH  35  36
ENDBRANCH  27  30
ENDBRANCH  25  26
ENDBRANCH  24  25
ENDBRANCH  23  24
ENDBRANCH   1  23
TORSDOF 21
ENDMDL
MODEL 2
REMARK VINA RESULT:      -9.8      6.513     10.333
REMARK SMILES CC(C)[C@@H](CO)Nc1ccc(C(=O)NCCCCCCNC(=O)c2ccc(-c3c4nc(c(-c5cc(S(=O)(=O)[O-])ccc5F)c5ccc([nH]5)c(-c5cc(S(=O)(=O)[O-])ccc5F)c5nc(c(-c6cc(S(=O)(=O)[O-])ccc6F)c6ccc3[nH]6)C=C5)C=C4)cc2)nn1
REMARK SMILES IDX 17 1 16 2 15 3 14 4 12 5 13 6 11 8 8 9 9 10 88 11 10 12
REMARK SMILES IDX 87 13 7 14 4 16 2 17 1 18 3 19 5 20 6 21 18 23 19 24 20 25
REMARK SMILES IDX 21 26 22 27 23 29 24 30 25 31 86 32 26 33 85 34 27 35 28 36
REMARK SMILES IDX 29 37 79 38 30 39 84 40 78 41 80 42 31 43 83 44 77 45 76 46
REMARK SMILES IDX 32 48 64 49 44 50 63 51 45 52 48 53 62 54 81 55 46 56 47 57
REMARK SMILES IDX 61 59 82 60 49 61 33 62 34 63 42 64 35 65 41 66 43 67 40 68
REMARK SMILES IDX 36 69 37 70 38 71 39 72 65 73 66 74 74 75 67 76 73 77 75 78
REMARK SMILES IDX 72 79 68 80 69 81 70 82 71 83 50 84 51 85 59 86 52 87 58 88
REMARK SMILES IDX 60 89 57 90 53 91 54 92 55 93 56 94
REMARK H PARENT 14 7 7 15 6 22 21 28 80 47 48 58
REMARK Flexibility Score: inf
ROOT
ATOM      1  C   UNL A   1      34.237  31.719  28.339  1.00  0.00     0.002 C 
ENDROOT
BRANCH   1   2
ATOM      2  C   UNL A   1      35.338  30.715  27.973  1.00  0.00     0.021 C 
BRANCH   2   3
ATOM      3  C   UNL A   1      34.826  29.547  27.125  1.00  0.00     0.116 C 
BRANCH   3   4
ATOM      4  N   UNL A   1      33.463  29.799  26.702  1.00  0.00    -0.351 N 
ATOM      5  C   UNL A   1      32.446  28.983  26.263  1.00  0.00     0.271 C 
ATOM      6  O   UNL A   1      31.390  29.548  25.967  1.00  0.00    -0.267 OA
ATOM      7  H   UNL A   1      33.214  30.751  26.738  1.00  0.00     0.163 HD
BRANCH   5   8
ATOM      8  C   UNL A   1      32.540  27.491  26.172  1.00  0.00     0.150 A 
ATOM      9  C   UNL A   1      32.502  24.736  26.312  1.00  0.00     0.148 A 
ATOM     10  C   UNL A   1      33.580  25.381  25.730  1.00  0.00     0.051 A 
ATOM     11  N   UNL A   1      31.452  25.457  26.740  1.00  0.00    -0.132 NA
ATOM     12  C   UNL A   1      33.583  26.773  25.620  1.00  0.00     0.040 A 
ATOM     13  N   UNL A   1      31.478  26.840  26.698  1.00  0.00    -0.143 NA
BRANCH   9  14
ATOM     14  N   UNL A   1      32.457  23.369  26.490  1.00  0.00    -0.363 N 
ATOM     15  H   UNL A   1      31.997  22.990  27.273  1.00  0.00     0.162 HD
BRANCH  14  16
ATOM     16  C   UNL A   1      33.096  22.480  25.514  1.00  0.00     0.108 C 
BRANCH  16  17
ATOM     17  C   UNL A   1      34.169  21.613  26.242  1.00  0.00     0.007 C 
ATOM     18  C   UNL A   1      35.572  21.841  25.668  1.00  0.00     0.009 C 
ATOM     19  C   UNL A   1      34.209  21.906  27.750  1.00  0.00     0.009 C 
ENDBRANCH  16  17
BRANCH  16  20
ATOM     20  C   UNL A   1      31.998  21.649  24.803  1.00  0.00     0.181 C 
BRANCH  20  21
ATOM     21  O   UNL A   1      31.692  20.429  25.475  1.00  0.00    -0.394 OA
ATOM     22  H   UNL A   1      31.455  19.751  24.825  1.00  0.00     0.210 HD
ENDBRANCH  20  21
ENDBRANCH  16  20
ENDBRANCH  14  16
ENDBRANCH   9  14
ENDBRANCH   5   8
ENDBRANCH   3   4
ENDBRANCH   2   3
ENDBRANCH   1   2
BRANCH   1  23
ATOM     23  C   UNL A   1      34.572  33.183  28.025  1.00  0.00     0.002 C 
BRANCH  23  24
ATOM     24  C   UNL A   1      33.415  34.167  28.224  1.00  0.00     0.021 C 
BRANCH  24  25
ATOM     25  C   UNL A   1      33.827  35.498  28.845  1.00  0.00     0.116 C 
BRANCH  25  26
ATOM     26  N   UNL A   1      33.109  35.749  30.086  1.00  0.00    -0.352 N 
ATOM     27  C   UNL A   1      33.254  35.147  31.310  1.00  0.00     0.251 C 
ATOM     28  H   UNL A   1      32.421  36.451  30.040  1.00  0.00     0.163 HD
ATOM     29  O   UNL A   1      32.385  35.284  32.164  1.00  0.00    -0.269 OA
BRANCH  27  30
ATOM     30  C   UNL A   1      34.452  34.325  31.586  1.00  0.00     0.039 A 
ATOM     31  C   UNL A   1      35.718  34.882  31.395  1.00  0.00     0.014 A 
ATOM     32  C   UNL A   1      34.323  33.003  32.022  1.00  0.00     0.014 A 
ATOM     33  C   UNL A   1      36.856  34.133  31.701  1.00  0.00     0.010 A 
ATOM     34  C   UNL A   1      35.454  32.283  32.395  1.00  0.00     0.010 A 
ATOM     35  C   UNL A   1      36.733  32.841  32.239  1.00  0.00    -0.014 A 
BRANCH  35  36
ATOM     36  C   UNL A   1      37.928  32.058  32.648  1.00  0.00     0.031 A 
ATOM     37  C   UNL A   1      38.645  32.389  33.929  1.00  0.00     0.074 A 
ATOM     38  C   UNL A   1      38.403  31.096  31.831  1.00  0.00     0.049 A 
ATOM     39  N   UNL A   1      39.750  31.881  34.413  1.00  0.00    -0.248 NA
ATOM     40  C   UNL A   1      38.055  33.448  34.760  1.00  0.00     0.031 C 
ATOM     41  C   UNL A   1      37.811  30.712  30.547  1.00  0.00     0.029 A 
ATOM     42  N   UNL A   1      39.496  30.274  31.951  1.00  0.00    -0.354 N 
ATOM     43  C   UNL A   1      39.993  32.565  35.600  1.00  0.00     0.074 A 
ATOM     44  C   UNL A   1      38.953  33.563  35.728  1.00  0.00     0.031 C 
ATOM     45  C   UNL A   1      38.535  29.717  30.010  1.00  0.00     0.029 A 
ATOM     46  C   UNL A   1      39.670  29.428  30.879  1.00  0.00     0.049 A 
ATOM     47  H   UNL A   1      40.097  30.289  32.729  1.00  0.00     0.167 HD
ATOM     48  C   UNL A   1      40.983  32.365  36.504  1.00  0.00     0.034 A 
ATOM     49  C   UNL A   1      40.645  28.534  30.617  1.00  0.00     0.034 A 
ATOM     50  C   UNL A   1      42.008  31.359  36.361  1.00  0.00     0.049 A 
ATOM     51  C   UNL A   1      41.756  28.356  31.622  1.00  0.00     0.074 A 
ATOM     52  C   UNL A   1      43.023  31.032  37.244  1.00  0.00     0.029 A 
ATOM     53  N   UNL A   1      42.158  30.524  35.261  1.00  0.00    -0.354 N 
ATOM     54  N   UNL A   1      41.942  28.975  32.766  1.00  0.00    -0.248 NA
ATOM     55  C   UNL A   1      42.780  27.352  31.307  1.00  0.00     0.031 C 
ATOM     56  C   UNL A   1      43.829  30.059  36.645  1.00  0.00     0.029 A 
ATOM     57  C   UNL A   1      43.270  29.712  35.425  1.00  0.00     0.049 A 
ATOM     58  H   UNL A   1      41.560  30.510  34.478  1.00  0.00     0.167 HD
ATOM     59  C   UNL A   1      43.089  28.412  33.319  1.00  0.00     0.074 A 
ATOM     60  C   UNL A   1      43.538  27.393  32.393  1.00  0.00     0.031 C 
ATOM     61  C   UNL A   1      43.715  28.709  34.487  1.00  0.00     0.034 A 
BRANCH  48  62
ATOM     62  C   UNL A   1      41.021  33.273  37.711  1.00  0.00     0.023 A 
ATOM     63  C   UNL A   1      40.278  32.994  38.873  1.00  0.00     0.031 A 
ATOM     64  C   UNL A   1      41.803  34.443  37.698  1.00  0.00     0.131 A 
ATOM     65  C   UNL A   1      40.277  33.905  39.940  1.00  0.00     0.055 A 
ATOM     66  C   UNL A   1      41.862  35.302  38.796  1.00  0.00     0.041 A 
ATOM     67  F   UNL A   1      42.516  34.775  36.611  1.00  0.00    -0.206 F 
ATOM     68  C   UNL A   1      41.085  35.043  39.921  1.00  0.00     0.022 A 
BRANCH  65  69
ATOM     69  S   UNL A   1      39.097  33.651  41.293  1.00  0.00     0.124 S 
ATOM     70  O   UNL A   1      38.211  32.637  40.725  1.00  0.00    -0.237 OA
ATOM     71  O   UNL A   1      39.957  33.209  42.384  1.00  0.00    -0.237 OA
ATOM     72  O   UNL A   1      38.490  34.968  41.470  1.00  0.00    -0.744 OA
ENDBRANCH  65  69
ENDBRANCH  48  62
BRANCH  49  73
ATOM     73  C   UNL A   1      40.637  27.757  29.343  1.00  0.00     0.023 A 
ATOM     74  C   UNL A   1      41.544  28.048  28.311  1.00  0.00     0.031 A 
ATOM     75  C   UNL A   1      39.688  26.743  29.119  1.00  0.00     0.131 A 
ATOM     76  C   UNL A   1      41.447  27.373  27.083  1.00  0.00     0.055 A 
ATOM     77  C   UNL A   1      39.636  26.033  27.918  1.00  0.00     0.041 A 
ATOM     78  F   UNL A   1      38.799  26.421  30.072  1.00  0.00    -0.206 F 
ATOM     79  C   UNL A   1      40.509  26.358  26.885  1.00  0.00     0.022 A 
BRANCH  76  80
ATOM     80  S   UNL A   1      42.501  27.915  25.711  1.00  0.00     0.124 S 
ATOM     81  O   UNL A   1      42.406  26.781  24.799  1.00  0.00    -0.237 OA
ATOM     82  O   UNL A   1      41.836  29.141  25.285  1.00  0.00    -0.237 OA
ATOM     83  O   UNL A   1      43.807  28.103  26.341  1.00  0.00    -0.744 OA
ENDBRANCH  76  80
ENDBRANCH  49  73
BRANCH  61  84
ATOM     84  C   UNL A   1      44.929  27.885  34.844  1.00  0.00     0.023 A 
ATOM     85  C   UNL A   1      44.822  26.678  35.556  1.00  0.00     0.031 A 
ATOM     86  C   UNL A   1      46.214  28.322  34.475  1.00  0.00     0.131 A 
ATOM     87  C   UNL A   1      45.981  25.982  35.930  1.00  0.00     0.055 A 
ATOM     88  C   UNL A   1      47.359  27.591  34.792  1.00  0.00     0.041 A 
ATOM     89  F   UNL A   1      46.377  29.470  33.798  1.00  0.00    -0.206 F 
ATOM     90  C   UNL A   1      47.248  26.420  35.535  1.00  0.00     0.022 A 
BRANCH  87  91
ATOM     91  S   UNL A   1      45.818  24.546  37.028  1.00  0.00     0.124 S 
ATOM     92  O   UNL A   1      45.628  23.457  36.076  1.00  0.00    -0.237 OA
ATOM     93  O   UNL A   1      47.090  24.554  37.742  1.00  0.00    -0.237 OA
ATOM     94  O   UNL A   1      44.648  24.869  37.843  1.00  0.00    -0.744 OA
ENDBRANCH  87  91
ENDBRANCH  61  84
ENDBRANCH  35  36
ENDBRANCH  27  30
ENDBRANCH  25  26
ENDBRANCH  24  25
ENDBRANCH  23  24
ENDBRANCH   1  23
TORSDOF 21
ENDMDL
MODEL 3
REMARK VINA RESULT:      -9.7      2.453      3.537
REMARK SMILES CC(C)[C@@H](CO)Nc1ccc(C(=O)NCCCCCCNC(=O)c2ccc(-c3c4nc(c(-c5cc(S(=O)(=O)[O-])ccc5F)c5ccc([nH]5)c(-c5cc(S(=O)(=O)[O-])ccc5F)c5nc(c(-c6cc(S(=O)(=O)[O-])ccc6F)c6ccc3[nH]6)C=C5)C=C4)cc2)nn1
REMARK SMILES IDX 17 1 16 2 15 3 14 4 12 5 13 6 11 8 8 9 9 10 88 11 10 12
REMARK SMILES IDX 87 13 7 14 4 16 2 17 1 18 3 19 5 20 6 21 18 23 19 24 20 25
REMARK SMILES IDX 21 26 22 27 23 29 24 30 25 31 86 32 26 33 85 34 27 35 28 36
REMARK SMILES IDX 29 37 79 38 30 39 84 40 78 41 80 42 31 43 83 44 77 45 76 46
REMARK SMILES IDX 32 48 64 49 44 50 63 51 45 52 48 53 62 54 81 55 46 56 47 57
REMARK SMILES IDX 61 59 82 60 49 61 33 62 34 63 42 64 35 65 41 66 43 67 40 68
REMARK SMILES IDX 36 69 37 70 38 71 39 72 65 73 66 74 74 75 67 76 73 77 75 78
REMARK SMILES IDX 72 79 68 80 69 81 70 82 71 83 50 84 51 85 59 86 52 87 58 88
REMARK SMILES IDX 60 89 57 90 53 91 54 92 55 93 56 94
REMARK H PARENT 14 7 7 15 6 22 21 28 80 47 48 58
REMARK Flexibility Score: inf
ROOT
ATOM      1  C   UNL A   1      39.960  23.259  26.583  1.00  0.00     0.002 C 
ENDROOT
BRANCH   1   2
ATOM      2  C   UNL A   1      38.647  24.020  26.815  1.00  0.00     0.021 C 
BRANCH   2   3
ATOM      3  C   UNL A   1      37.577  23.704  25.767  1.00  0.00     0.116 C 
BRANCH   3   4
ATOM      4  N   UNL A   1      37.483  22.271  25.569  1.00  0.00    -0.351 N 
ATOM      5  C   UNL A   1      36.554  21.462  24.956  1.00  0.00     0.271 C 
ATOM      6  O   UNL A   1      36.789  20.252  24.983  1.00  0.00    -0.267 OA
ATOM      7  H   UNL A   1      38.241  21.775  25.953  1.00  0.00     0.163 HD
BRANCH   5   8
ATOM      8  C   UNL A   1      35.337  21.966  24.242  1.00  0.00     0.150 A 
ATOM      9  C   UNL A   1      33.288  23.209  22.875  1.00  0.00     0.148 A 
ATOM     10  C   UNL A   1      32.997  22.236  23.815  1.00  0.00     0.051 A 
ATOM     11  N   UNL A   1      34.570  23.489  22.587  1.00  0.00    -0.132 NA
ATOM     12  C   UNL A   1      34.033  21.575  24.478  1.00  0.00     0.040 A 
ATOM     13  N   UNL A   1      35.601  22.889  23.289  1.00  0.00    -0.143 NA
BRANCH   9  14
ATOM     14  N   UNL A   1      32.311  23.928  22.218  1.00  0.00    -0.363 N 
ATOM     15  H   UNL A   1      31.907  23.569  21.396  1.00  0.00     0.162 HD
BRANCH  14  16
ATOM     16  C   UNL A   1      31.874  25.226  22.744  1.00  0.00     0.108 C 
BRANCH  16  17
ATOM     17  C   UNL A   1      32.647  25.525  24.065  1.00  0.00     0.007 C 
ATOM     18  C   UNL A   1      33.469  26.814  23.966  1.00  0.00     0.009 C 
ATOM     19  C   UNL A   1      31.695  25.648  25.266  1.00  0.00     0.009 C 
ENDBRANCH  16  17
BRANCH  16  20
ATOM     20  C   UNL A   1      32.073  26.300  21.646  1.00  0.00     0.181 C 
BRANCH  20  21
ATOM     21  O   UNL A   1      31.718  25.845  20.342  1.00  0.00    -0.394 OA
ATOM     22  H   UNL A   1      32.339  25.157  20.059  1.00  0.00     0.210 HD
ENDBRANCH  20  21
ENDBRANCH  16  20
ENDBRANCH  14  16
ENDBRANCH   9  14
ENDBRANCH   5   8
ENDBRANCH   3   4
ENDBRANCH   2   3
ENDBRANCH   1   2
BRANCH   1  23
ATOM     23  C   UNL A   1      40.526  22.560  27.826  1.00  0.00     0.002 C 
BRANCH  23  24
ATOM     24  C   UNL A   1      40.835  21.071  27.643  1.00  0.00     0.021 C 
BRANCH  24  25
ATOM     25  C   UNL A   1      40.608  20.556  26.225  1.00  0.00     0.116 C 
BRANCH  25  26
ATOM     26  N   UNL A   1      41.730  19.750  25.767  1.00  0.00    -0.352 N 
ATOM     27  C   UNL A   1      42.996  20.145  25.415  1.00  0.00     0.251 C 
ATOM     28  H   UNL A   1      41.555  18.784  25.701  1.00  0.00     0.163 HD
ATOM     29  O   UNL A   1      43.723  19.378  24.792  1.00  0.00    -0.269 OA
BRANCH  27  30
ATOM     30  C   UNL A   1      43.471  21.497  25.779  1.00  0.00     0.039 A 
ATOM     31  C   UNL A   1      43.246  22.557  24.898  1.00  0.00     0.014 A 
ATOM     32  C   UNL A   1      44.147  21.714  26.983  1.00  0.00     0.014 A 
ATOM     33  C   UNL A   1      43.644  23.847  25.254  1.00  0.00     0.010 A 
ATOM     34  C   UNL A   1      44.479  23.009  27.368  1.00  0.00     0.010 A 
ATOM     35  C   UNL A   1      44.231  24.090  26.507  1.00  0.00    -0.014 A 
BRANCH  35  36
ATOM     36  C   UNL A   1      44.586  25.467  26.939  1.00  0.00     0.031 A 
ATOM     37  C   UNL A   1      43.542  26.360  27.552  1.00  0.00     0.074 A 
ATOM     38  C   UNL A   1      45.833  25.931  26.716  1.00  0.00     0.049 A 
ATOM     39  N   UNL A   1      43.635  27.615  27.911  1.00  0.00    -0.248 NA
ATOM     40  C   UNL A   1      42.212  25.771  27.763  1.00  0.00     0.031 C 
ATOM     41  C   UNL A   1      46.919  25.167  26.096  1.00  0.00     0.029 A 
ATOM     42  N   UNL A   1      46.395  27.156  26.972  1.00  0.00    -0.354 N 
ATOM     43  C   UNL A   1      42.375  27.969  28.381  1.00  0.00     0.074 A 
ATOM     44  C   UNL A   1      41.522  26.812  28.204  1.00  0.00     0.031 C 
ATOM     45  C   UNL A   1      48.019  25.934  26.040  1.00  0.00     0.029 A 
ATOM     46  C   UNL A   1      47.707  27.257  26.567  1.00  0.00     0.049 A 
ATOM     47  H   UNL A   1      45.906  27.893  27.404  1.00  0.00     0.167 HD
ATOM     48  C   UNL A   1      41.974  29.144  28.926  1.00  0.00     0.034 A 
ATOM     49  C   UNL A   1      48.557  28.304  26.600  1.00  0.00     0.034 A 
ATOM     50  C   UNL A   1      42.841  30.283  29.101  1.00  0.00     0.049 A 
ATOM     51  C   UNL A   1      48.075  29.612  27.178  1.00  0.00     0.074 A 
ATOM     52  C   UNL A   1      42.554  31.502  29.693  1.00  0.00     0.029 A 
ATOM     53  N   UNL A   1      44.162  30.353  28.674  1.00  0.00    -0.354 N 
ATOM     54  N   UNL A   1      46.893  29.914  27.667  1.00  0.00    -0.248 NA
ATOM     55  C   UNL A   1      49.043  30.715  27.217  1.00  0.00     0.031 C 
ATOM     56  C   UNL A   1      43.671  32.331  29.555  1.00  0.00     0.029 A 
ATOM     57  C   UNL A   1      44.689  31.605  28.955  1.00  0.00     0.049 A 
ATOM     58  H   UNL A   1      44.653  29.619  28.238  1.00  0.00     0.167 HD
ATOM     59  C   UNL A   1      46.989  31.234  28.100  1.00  0.00     0.074 A 
ATOM     60  C   UNL A   1      48.347  31.661  27.830  1.00  0.00     0.031 C 
ATOM     61  C   UNL A   1      46.041  32.022  28.669  1.00  0.00     0.034 A 
BRANCH  48  62
ATOM     62  C   UNL A   1      40.526  29.264  29.342  1.00  0.00     0.023 A 
ATOM     63  C   UNL A   1      40.142  29.277  30.695  1.00  0.00     0.031 A 
ATOM     64  C   UNL A   1      39.511  29.353  28.372  1.00  0.00     0.131 A 
ATOM     65  C   UNL A   1      38.782  29.306  31.039  1.00  0.00     0.055 A 
ATOM     66  C   UNL A   1      38.165  29.467  28.721  1.00  0.00     0.041 A 
ATOM     67  F   UNL A   1      39.812  29.323  27.064  1.00  0.00    -0.206 F 
ATOM     68  C   UNL A   1      37.792  29.429  30.061  1.00  0.00     0.022 A 
BRANCH  65  69
ATOM     69  S   UNL A   1      38.320  29.041  32.772  1.00  0.00     0.124 S 
ATOM     70  O   UNL A   1      37.488  30.213  33.038  1.00  0.00    -0.237 OA
ATOM     71  O   UNL A   1      37.623  27.762  32.720  1.00  0.00    -0.237 OA
ATOM     72  O   UNL A   1      39.603  29.026  33.470  1.00  0.00    -0.744 OA
ENDBRANCH  65  69
ENDBRANCH  48  62
BRANCH  49  73
ATOM     73  C   UNL A   1      49.938  28.176  26.050  1.00  0.00     0.023 A 
ATOM     74  C   UNL A   1      50.197  28.393  24.687  1.00  0.00     0.031 A 
ATOM     75  C   UNL A   1      51.010  27.782  26.870  1.00  0.00     0.131 A 
ATOM     76  C   UNL A   1      51.485  28.164  24.175  1.00  0.00     0.055 A 
ATOM     77  C   UNL A   1      52.302  27.615  26.367  1.00  0.00     0.041 A 
ATOM     78  F   UNL A   1      50.820  27.563  28.181  1.00  0.00    -0.206 F 
ATOM     79  C   UNL A   1      52.542  27.790  25.008  1.00  0.00     0.022 A 
BRANCH  76  80
ATOM     80  S   UNL A   1      51.734  28.261  22.382  1.00  0.00     0.124 S 
ATOM     81  O   UNL A   1      53.184  28.141  22.277  1.00  0.00    -0.237 OA
ATOM     82  O   UNL A   1      50.958  27.120  21.907  1.00  0.00    -0.237 OA
ATOM     83  O   UNL A   1      51.189  29.571  22.034  1.00  0.00    -0.744 OA
ENDBRANCH  76  80
ENDBRANCH  49  73
BRANCH  61  84
ATOM     84  C   UNL A   1      46.461  33.414  29.077  1.00  0.00     0.023 A 
ATOM     85  C   UNL A   1      46.283  34.520  28.229  1.00  0.00     0.031 A 
ATOM     86  C   UNL A   1      47.061  33.633  30.330  1.00  0.00     0.131 A 
ATOM     87  C   UNL A   1      46.754  35.783  28.618  1.00  0.00     0.055 A 
ATOM     88  C   UNL A   1      47.466  34.904  30.740  1.00  0.00     0.041 A 
ATOM     89  F   UNL A   1      47.261  32.613  31.181  1.00  0.00    -0.206 F 
ATOM     90  C   UNL A   1      47.326  35.986  29.877  1.00  0.00     0.022 A 
BRANCH  87  91
ATOM     91  S   UNL A   1      46.700  37.141  27.416  1.00  0.00     0.124 S 
ATOM     92  O   UNL A   1      45.400  36.935  26.785  1.00  0.00    -0.237 OA
ATOM     93  O   UNL A   1      46.814  38.319  28.269  1.00  0.00    -0.237 OA
ATOM     94  O   UNL A   1      47.854  36.884  26.557  1.00  0.00    -0.744 OA
ENDBRANCH  87  91
ENDBRANCH  61  84
ENDBRANCH  35  36
ENDBRANCH  27  30
ENDBRANCH  25  26
ENDBRANCH  24  25
ENDBRANCH  23  24
ENDBRANCH   1  23
TORSDOF 21
ENDMDL
