MODEL 1
REMARK VINA RESULT:     -12.4      0.000      0.000
REMARK SMILES CCc1ccc(C[N@H+]2CC[C@@H](C(=O)NCCCCCCNC(=O)c3ccc(-c4c5nc(c(-c6cc(S(=O)(=O)[O-])ccc6F)c6ccc([nH]6)c(-c6cc(S(=O)(=O)[O-])ccc6F)c6nc(c(-c7cc(S(=O)(=O)[O-])ccc7F)c7ccc4[nH]7)C=C6)C=C5)cc3)[C@@H]2C)s1
REMARK SMILES IDX 17 1 16 2 15 3 14 4 12 5 13 6 11 8 8 9 9 10 87 11 10 13
REMARK SMILES IDX 88 14 7 15 6 16 3 17 4 18 89 19 5 20 2 21 1 22 18 23 19 24
REMARK SMILES IDX 20 25 21 26 22 27 23 29 24 30 25 31 86 32 26 33 85 34 27 35
REMARK SMILES IDX 28 36 29 37 79 38 30 39 84 40 78 41 80 42 31 43 83 44 77 45
REMARK SMILES IDX 76 46 32 48 64 49 44 50 63 51 45 52 48 53 62 54 81 55 46 56
REMARK SMILES IDX 47 57 61 59 82 60 49 61 33 62 34 63 42 64 35 65 41 66 43 67
REMARK SMILES IDX 40 68 36 69 37 70 38 71 39 72 65 73 66 74 74 75 67 76 73 77
REMARK SMILES IDX 75 78 72 79 68 80 69 81 70 82 71 83 50 84 51 85 59 86 52 87
REMARK SMILES IDX 58 88 60 89 57 90 53 91 54 92 55 93 56 94
REMARK H PARENT 14 7 8 12 21 28 80 47 48 58
REMARK Flexibility Score: inf
ROOT
ATOM      1  C   UNL A   1      32.277  29.721  27.175  1.00  0.00     0.002 C 
ENDROOT
BRANCH   1   2
ATOM      2  C   UNL A   1      31.467  28.191  27.357  1.00  0.00     0.021 C 
BRANCH   2   3
ATOM      3  C   UNL A   1      32.035  26.101  26.801  1.00  0.00     0.116 C 
BRANCH   3   4
ATOM      4  N   UNL A   1      31.227  24.717  26.771  1.00  0.00    -0.356 N 
ATOM      5  C   UNL A   1      31.553  23.454  26.391  1.00  0.00     0.229 C 
ATOM      6  O   UNL A   1      30.653  22.607  26.453  1.00  0.00    -0.275 OA
ATOM      7  H   UNL A   1      30.302  24.799  27.097  1.00  0.00     0.163 HD
BRANCH   5   8
ATOM      8  C   UNL A   1      32.929  23.052  25.873  1.00  0.00     0.142 C 
ATOM      9  N   UNL A   1      33.776  23.547  23.668  1.00  0.00    -0.328 N 
ATOM     10  C   UNL A   1      34.546  24.360  24.609  1.00  0.00     0.263 C 
ATOM     11  C   UNL A   1      32.945  22.598  24.414  1.00  0.00     0.194 C 
ATOM     12  H   UNL A   1      34.456  23.027  23.112  1.00  0.00     0.348 HD
ATOM     13  C   UNL A   1      34.001  24.119  26.013  1.00  0.00     0.081 C 
ATOM     14  C   UNL A   1      33.573  21.211  24.251  1.00  0.00     0.076 C 
BRANCH   9  15
ATOM     15  C   UNL A   1      33.063  24.272  22.608  1.00  0.00     0.310 C 
BRANCH  15  16
ATOM     16  C   UNL A   1      31.967  25.175  23.105  1.00  0.00     0.059 A 
ATOM     17  C   UNL A   1      30.207  27.924  23.555  1.00  0.00     0.005 A 
ATOM     18  C   UNL A   1      29.256  26.457  23.763  1.00  0.00     0.016 A 
ATOM     19  S   UNL A   1      32.458  27.439  23.194  1.00  0.00    -0.139 S 
ATOM     20  C   UNL A   1      30.273  24.862  23.436  1.00  0.00     0.021 A 
BRANCH  17  21
ATOM     21  C   UNL A   1      29.846  29.381  23.395  1.00  0.00     0.043 C 
ATOM     22  C   UNL A   1      29.816  29.865  21.958  1.00  0.00     0.010 C 
ENDBRANCH  17  21
ENDBRANCH  15  16
ENDBRANCH   9  15
ENDBRANCH   5   8
ENDBRANCH   3   4
ENDBRANCH   2   3
ENDBRANCH   1   2
BRANCH   1  23
ATOM     23  C   UNL A   1      31.632  30.653  26.132  1.00  0.00     0.002 C 
BRANCH  23  24
ATOM     24  C   UNL A   1      31.537  32.109  26.565  1.00  0.00     0.021 C 
BRANCH  24  25
ATOM     25  C   UNL A   1      32.699  32.495  27.461  1.00  0.00     0.116 C 
BRANCH  25  26
ATOM     26  N   UNL A   1      32.727  33.948  27.615  1.00  0.00    -0.352 N 
ATOM     27  C   UNL A   1      33.262  34.625  28.689  1.00  0.00     0.251 C 
ATOM     28  H   UNL A   1      32.331  34.487  26.892  1.00  0.00     0.163 HD
ATOM     29  O   UNL A   1      32.836  35.718  29.036  1.00  0.00    -0.269 OA
BRANCH  27  30
ATOM     30  C   UNL A   1      34.365  33.952  29.397  1.00  0.00     0.039 A 
ATOM     31  C   UNL A   1      34.118  33.086  30.460  1.00  0.00     0.014 A 
ATOM     32  C   UNL A   1      35.653  34.115  28.881  1.00  0.00     0.014 A 
ATOM     33  C   UNL A   1      35.182  32.348  30.981  1.00  0.00     0.010 A 
ATOM     34  C   UNL A   1      36.657  33.261  29.284  1.00  0.00     0.010 A 
ATOM     35  C   UNL A   1      36.451  32.412  30.379  1.00  0.00    -0.014 A 
BRANCH  35  36
ATOM     36  C   UNL A   1      37.625  31.688  30.917  1.00  0.00     0.031 A 
ATOM     37  C   UNL A   1      38.110  32.034  32.304  1.00  0.00     0.074 A 
ATOM     38  C   UNL A   1      38.286  30.801  30.150  1.00  0.00     0.049 A 
ATOM     39  N   UNL A   1      39.180  31.626  32.933  1.00  0.00    -0.248 NA
ATOM     40  C   UNL A   1      37.316  33.019  33.060  1.00  0.00     0.031 C 
ATOM     41  C   UNL A   1      37.934  30.440  28.774  1.00  0.00     0.029 A 
ATOM     42  N   UNL A   1      39.394  30.041  30.418  1.00  0.00    -0.354 N 
ATOM     43  C   UNL A   1      39.196  32.328  34.135  1.00  0.00     0.074 A 
ATOM     44  C   UNL A   1      38.094  33.259  34.100  1.00  0.00     0.031 C 
ATOM     45  C   UNL A   1      38.782  29.493  28.338  1.00  0.00     0.029 A 
ATOM     46  C   UNL A   1      39.766  29.221  29.380  1.00  0.00     0.049 A 
ATOM     47  H   UNL A   1      39.878  30.079  31.274  1.00  0.00     0.167 HD
ATOM     48  C   UNL A   1      40.025  32.175  35.194  1.00  0.00     0.034 A 
ATOM     49  C   UNL A   1      40.793  28.352  29.284  1.00  0.00     0.034 A 
ATOM     50  C   UNL A   1      41.089  31.206  35.218  1.00  0.00     0.049 A 
ATOM     51  C   UNL A   1      41.710  28.201  30.473  1.00  0.00     0.074 A 
ATOM     52  C   UNL A   1      41.957  30.904  36.250  1.00  0.00     0.029 A 
ATOM     53  N   UNL A   1      41.429  30.381  34.153  1.00  0.00    -0.354 N 
ATOM     54  N   UNL A   1      41.677  28.825  31.629  1.00  0.00    -0.248 NA
ATOM     55  C   UNL A   1      42.795  27.220  30.349  1.00  0.00     0.031 C 
ATOM     56  C   UNL A   1      42.868  29.953  35.784  1.00  0.00     0.029 A 
ATOM     57  C   UNL A   1      42.516  29.594  34.492  1.00  0.00     0.049 A 
ATOM     58  H   UNL A   1      40.964  30.358  33.286  1.00  0.00     0.167 HD
ATOM     59  C   UNL A   1      42.718  28.289  32.381  1.00  0.00     0.074 A 
ATOM     60  C   UNL A   1      43.344  27.277  31.554  1.00  0.00     0.031 C 
ATOM     61  C   UNL A   1      43.124  28.598  33.640  1.00  0.00     0.034 A 
BRANCH  48  62
ATOM     62  C   UNL A   1      39.811  33.078  36.386  1.00  0.00     0.023 A 
ATOM     63  C   UNL A   1      40.596  34.227  36.597  1.00  0.00     0.031 A 
ATOM     64  C   UNL A   1      38.838  32.765  37.350  1.00  0.00     0.131 A 
ATOM     65  C   UNL A   1      40.456  34.966  37.782  1.00  0.00     0.055 A 
ATOM     66  C   UNL A   1      38.639  33.559  38.482  1.00  0.00     0.041 A 
ATOM     67  F   UNL A   1      38.076  31.667  37.221  1.00  0.00    -0.206 F 
ATOM     68  C   UNL A   1      39.461  34.658  38.712  1.00  0.00     0.022 A 
BRANCH  65  69
ATOM     69  S   UNL A   1      41.697  36.232  38.164  1.00  0.00     0.124 S 
ATOM     70  O   UNL A   1      40.958  37.104  39.073  1.00  0.00    -0.237 OA
ATOM     71  O   UNL A   1      42.773  35.449  38.761  1.00  0.00    -0.237 OA
ATOM     72  O   UNL A   1      42.002  36.818  36.860  1.00  0.00    -0.744 OA
ENDBRANCH  65  69
ENDBRANCH  48  62
BRANCH  49  73
ATOM     73  C   UNL A   1      41.008  27.562  28.037  1.00  0.00     0.023 A 
ATOM     74  C   UNL A   1      40.708  26.192  27.989  1.00  0.00     0.031 A 
ATOM     75  C   UNL A   1      41.555  28.155  26.885  1.00  0.00     0.131 A 
ATOM     76  C   UNL A   1      41.004  25.449  26.835  1.00  0.00     0.055 A 
ATOM     77  C   UNL A   1      41.791  27.425  25.718  1.00  0.00     0.041 A 
ATOM     78  F   UNL A   1      41.858  29.463  26.871  1.00  0.00    -0.206 F 
ATOM     79  C   UNL A   1      41.529  26.059  25.694  1.00  0.00     0.022 A 
BRANCH  76  80
ATOM     80  S   UNL A   1      40.785  23.648  26.882  1.00  0.00     0.124 S 
ATOM     81  O   UNL A   1      41.137  23.344  28.264  1.00  0.00    -0.237 OA
ATOM     82  O   UNL A   1      39.376  23.506  26.532  1.00  0.00    -0.237 OA
ATOM     83  O   UNL A   1      41.727  23.165  25.875  1.00  0.00    -0.744 OA
ENDBRANCH  76  80
ENDBRANCH  49  73
BRANCH  61  84
ATOM     84  C   UNL A   1      44.272  27.801  34.205  1.00  0.00     0.023 A 
ATOM     85  C   UNL A   1      44.065  26.589  34.885  1.00  0.00     0.031 A 
ATOM     86  C   UNL A   1      45.592  28.262  34.056  1.00  0.00     0.131 A 
ATOM     87  C   UNL A   1      45.156  25.911  35.444  1.00  0.00     0.055 A 
ATOM     88  C   UNL A   1      46.681  27.544  34.551  1.00  0.00     0.041 A 
ATOM     89  F   UNL A   1      45.847  29.416  33.416  1.00  0.00    -0.206 F 
ATOM     90  C   UNL A   1      46.464  26.368  35.263  1.00  0.00     0.022 A 
BRANCH  87  91
ATOM     91  S   UNL A   1      44.832  24.477  36.505  1.00  0.00     0.124 S 
ATOM     92  O   UNL A   1      44.050  23.618  35.621  1.00  0.00    -0.237 OA
ATOM     93  O   UNL A   1      46.179  24.011  36.819  1.00  0.00    -0.237 OA
ATOM     94  O   UNL A   1      44.095  25.045  37.633  1.00  0.00    -0.744 OA
ENDBRANCH  87  91
ENDBRANCH  61  84
ENDBRANCH  35  36
ENDBRANCH  27  30
ENDBRANCH  25  26
ENDBRANCH  24  25
ENDBRANCH  23  24
ENDBRANCH   1  23
TORSDOF 19
ENDMDL
MODEL 2
REMARK VINA RESULT:     -12.4      1.654      7.782
REMARK SMILES CCc1ccc(C[N@H+]2CC[C@@H](C(=O)NCCCCCCNC(=O)c3ccc(-c4c5nc(c(-c6cc(S(=O)(=O)[O-])ccc6F)c6ccc([nH]6)c(-c6cc(S(=O)(=O)[O-])ccc6F)c6nc(c(-c7cc(S(=O)(=O)[O-])ccc7F)c7ccc4[nH]7)C=C6)C=C5)cc3)[C@@H]2C)s1
REMARK SMILES IDX 17 1 16 2 15 3 14 4 12 5 13 6 11 8 8 9 9 10 87 11 10 13
REMARK SMILES IDX 88 14 7 15 6 16 3 17 4 18 89 19 5 20 2 21 1 22 18 23 19 24
REMARK SMILES IDX 20 25 21 26 22 27 23 29 24 30 25 31 86 32 26 33 85 34 27 35
REMARK SMILES IDX 28 36 29 37 79 38 30 39 84 40 78 41 80 42 31 43 83 44 77 45
REMARK SMILES IDX 76 46 32 48 64 49 44 50 63 51 45 52 48 53 62 54 81 55 46 56
REMARK SMILES IDX 47 57 61 59 82 60 49 61 33 62 34 63 42 64 35 65 41 66 43 67
REMARK SMILES IDX 40 68 36 69 37 70 38 71 39 72 65 73 66 74 74 75 67 76 73 77
REMARK SMILES IDX 75 78 72 79 68 80 69 81 70 82 71 83 50 84 51 85 59 86 52 87
REMARK SMILES IDX 58 88 60 89 57 90 53 91 54 92 55 93 56 94
REMARK H PARENT 14 7 8 12 21 28 80 47 48 58
REMARK Flexibility Score: inf
ROOT
ATOM      1  C   UNL A   1      33.273  29.851  26.400  1.00  0.00     0.002 C 
ENDROOT
BRANCH   1   2
ATOM      2  C   UNL A   1      33.543  28.223  26.952  1.00  0.00     0.021 C 
BRANCH   2   3
ATOM      3  C   UNL A   1      32.841  26.235  26.205  1.00  0.00     0.116 C 
BRANCH   3   4
ATOM      4  N   UNL A   1      31.822  25.143  26.788  1.00  0.00    -0.356 N 
ATOM      5  C   UNL A   1      31.883  23.794  26.933  1.00  0.00     0.229 C 
ATOM      6  O   UNL A   1      30.874  23.239  27.387  1.00  0.00    -0.275 OA
ATOM      7  H   UNL A   1      30.976  25.532  27.107  1.00  0.00     0.163 HD
BRANCH   5   8
ATOM      8  C   UNL A   1      33.091  22.952  26.541  1.00  0.00     0.142 C 
ATOM      9  N   UNL A   1      33.632  22.273  24.289  1.00  0.00    -0.328 N 
ATOM     10  C   UNL A   1      34.645  23.248  24.691  1.00  0.00     0.263 C 
ATOM     11  C   UNL A   1      32.811  21.918  25.450  1.00  0.00     0.194 C 
ATOM     12  H   UNL A   1      34.137  21.443  23.974  1.00  0.00     0.348 HD
ATOM     13  C   UNL A   1      34.305  23.746  26.091  1.00  0.00     0.081 C 
ATOM     14  C   UNL A   1      33.212  20.505  25.882  1.00  0.00     0.076 C 
BRANCH   9  15
ATOM     15  C   UNL A   1      32.861  22.590  23.079  1.00  0.00     0.310 C 
BRANCH  15  16
ATOM     16  C   UNL A   1      32.586  24.057  22.888  1.00  0.00     0.059 A 
ATOM     17  C   UNL A   1      31.187  27.010  23.311  1.00  0.00     0.005 A 
ATOM     18  C   UNL A   1      32.821  27.110  22.665  1.00  0.00     0.016 A 
ATOM     19  S   UNL A   1      30.476  24.798  23.497  1.00  0.00    -0.139 S 
ATOM     20  C   UNL A   1      33.653  25.389  22.482  1.00  0.00     0.021 A 
BRANCH  17  21
ATOM     21  C   UNL A   1      30.245  28.024  23.912  1.00  0.00     0.043 C 
ATOM     22  C   UNL A   1      30.333  29.406  23.293  1.00  0.00     0.010 C 
ENDBRANCH  17  21
ENDBRANCH  15  16
ENDBRANCH   9  15
ENDBRANCH   5   8
ENDBRANCH   3   4
ENDBRANCH   2   3
ENDBRANCH   1   2
BRANCH   1  23
ATOM     23  C   UNL A   1      31.896  30.423  26.781  1.00  0.00     0.002 C 
BRANCH  23  24
ATOM     24  C   UNL A   1      31.846  31.943  26.852  1.00  0.00     0.021 C 
BRANCH  24  25
ATOM     25  C   UNL A   1      33.084  32.506  27.522  1.00  0.00     0.116 C 
BRANCH  25  26
ATOM     26  N   UNL A   1      32.965  33.959  27.615  1.00  0.00    -0.352 N 
ATOM     27  C   UNL A   1      33.294  34.717  28.717  1.00  0.00     0.251 C 
ATOM     28  H   UNL A   1      32.621  34.436  26.824  1.00  0.00     0.163 HD
ATOM     29  O   UNL A   1      32.732  35.777  28.960  1.00  0.00    -0.269 OA
BRANCH  27  30
ATOM     30  C   UNL A   1      34.349  34.172  29.589  1.00  0.00     0.039 A 
ATOM     31  C   UNL A   1      34.041  33.332  30.656  1.00  0.00     0.014 A 
ATOM     32  C   UNL A   1      35.675  34.425  29.227  1.00  0.00     0.014 A 
ATOM     33  C   UNL A   1      35.087  32.711  31.341  1.00  0.00     0.010 A 
ATOM     34  C   UNL A   1      36.685  33.679  29.793  1.00  0.00     0.010 A 
ATOM     35  C   UNL A   1      36.412  32.861  30.897  1.00  0.00    -0.014 A 
BRANCH  35  36
ATOM     36  C   UNL A   1      37.564  32.263  31.611  1.00  0.00     0.031 A 
ATOM     37  C   UNL A   1      38.341  31.163  30.930  1.00  0.00     0.074 A 
ATOM     38  C   UNL A   1      37.854  32.644  32.869  1.00  0.00     0.049 A 
ATOM     39  N   UNL A   1      39.300  30.412  31.402  1.00  0.00    -0.248 NA
ATOM     40  C   UNL A   1      37.941  30.821  29.553  1.00  0.00     0.031 C 
ATOM     41  C   UNL A   1      37.126  33.656  33.640  1.00  0.00     0.029 A 
ATOM     42  N   UNL A   1      38.837  32.222  33.724  1.00  0.00    -0.354 N 
ATOM     43  C   UNL A   1      39.590  29.499  30.392  1.00  0.00     0.074 A 
ATOM     44  C   UNL A   1      38.637  29.720  29.331  1.00  0.00     0.031 C 
ATOM     45  C   UNL A   1      37.721  33.810  34.835  1.00  0.00     0.029 A 
ATOM     46  C   UNL A   1      38.833  32.872  34.936  1.00  0.00     0.049 A 
ATOM     47  H   UNL A   1      39.487  31.520  33.493  1.00  0.00     0.167 HD
ATOM     48  C   UNL A   1      40.591  28.590  30.335  1.00  0.00     0.034 A 
ATOM     49  C   UNL A   1      39.637  32.717  36.008  1.00  0.00     0.034 A 
ATOM     50  C   UNL A   1      41.554  28.422  31.390  1.00  0.00     0.049 A 
ATOM     51  C   UNL A   1      40.743  31.694  35.926  1.00  0.00     0.074 A 
ATOM     52  C   UNL A   1      42.654  27.587  31.429  1.00  0.00     0.029 A 
ATOM     53  N   UNL A   1      41.528  29.108  32.599  1.00  0.00    -0.354 N 
ATOM     54  N   UNL A   1      41.046  30.880  34.939  1.00  0.00    -0.248 NA
ATOM     55  C   UNL A   1      41.623  31.578  37.094  1.00  0.00     0.031 C 
ATOM     56  C   UNL A   1      43.247  27.711  32.688  1.00  0.00     0.029 A 
ATOM     57  C   UNL A   1      42.573  28.688  33.404  1.00  0.00     0.049 A 
ATOM     58  H   UNL A   1      40.865  29.792  32.845  1.00  0.00     0.167 HD
ATOM     59  C   UNL A   1      42.172  30.177  35.359  1.00  0.00     0.074 A 
ATOM     60  C   UNL A   1      42.503  30.680  36.678  1.00  0.00     0.031 C 
ATOM     61  C   UNL A   1      42.872  29.204  34.719  1.00  0.00     0.034 A 
BRANCH  48  62
ATOM     62  C   UNL A   1      40.675  27.719  29.102  1.00  0.00     0.023 A 
ATOM     63  C   UNL A   1      41.628  27.951  28.093  1.00  0.00     0.031 A 
ATOM     64  C   UNL A   1      39.762  26.669  28.911  1.00  0.00     0.131 A 
ATOM     65  C   UNL A   1      41.589  27.206  26.905  1.00  0.00     0.055 A 
ATOM     66  C   UNL A   1      39.789  25.868  27.767  1.00  0.00     0.041 A 
ATOM     67  F   UNL A   1      38.811  26.414  29.824  1.00  0.00    -0.206 F 
ATOM     68  C   UNL A   1      40.695  26.145  26.747  1.00  0.00     0.022 A 
BRANCH  65  69
ATOM     69  S   UNL A   1      42.612  27.748  25.509  1.00  0.00     0.124 S 
ATOM     70  O   UNL A   1      42.596  26.564  24.655  1.00  0.00    -0.237 OA
ATOM     71  O   UNL A   1      41.878  28.906  25.011  1.00  0.00    -0.237 OA
ATOM     72  O   UNL A   1      43.903  28.047  26.125  1.00  0.00    -0.744 OA
ENDBRANCH  65  69
ENDBRANCH  48  62
BRANCH  49  73
ATOM     73  C   UNL A   1      39.436  33.541  37.235  1.00  0.00     0.023 A 
ATOM     74  C   UNL A   1      40.181  34.711  37.449  1.00  0.00     0.031 A 
ATOM     75  C   UNL A   1      38.524  33.151  38.232  1.00  0.00     0.131 A 
ATOM     76  C   UNL A   1      40.043  35.421  38.653  1.00  0.00     0.055 A 
ATOM     77  C   UNL A   1      38.345  33.895  39.401  1.00  0.00     0.041 A 
ATOM     78  F   UNL A   1      37.781  32.044  38.080  1.00  0.00    -0.206 F 
ATOM     79  C   UNL A   1      39.118  35.029  39.623  1.00  0.00     0.022 A 
BRANCH  76  80
ATOM     80  S   UNL A   1      41.163  36.812  38.975  1.00  0.00     0.124 S 
ATOM     81  O   UNL A   1      41.894  36.899  37.717  1.00  0.00    -0.237 OA
ATOM     82  O   UNL A   1      40.227  37.896  39.251  1.00  0.00    -0.237 OA
ATOM     83  O   UNL A   1      41.945  36.358  40.123  1.00  0.00    -0.744 OA
ENDBRANCH  76  80
ENDBRANCH  49  73
BRANCH  61  84
ATOM     84  C   UNL A   1      44.087  28.658  35.426  1.00  0.00     0.023 A 
ATOM     85  C   UNL A   1      43.984  27.641  36.390  1.00  0.00     0.031 A 
ATOM     86  C   UNL A   1      45.365  29.162  35.125  1.00  0.00     0.131 A 
ATOM     87  C   UNL A   1      45.132  27.204  37.065  1.00  0.00     0.055 A 
ATOM     88  C   UNL A   1      46.512  28.670  35.748  1.00  0.00     0.041 A 
ATOM     89  F   UNL A   1      45.520  30.135  34.213  1.00  0.00    -0.206 F 
ATOM     90  C   UNL A   1      46.397  27.695  36.735  1.00  0.00     0.022 A 
BRANCH  87  91
ATOM     91  S   UNL A   1      44.935  26.059  38.457  1.00  0.00     0.124 S 
ATOM     92  O   UNL A   1      46.053  26.434  39.317  1.00  0.00    -0.237 OA
ATOM     93  O   UNL A   1      43.605  26.399  38.954  1.00  0.00    -0.237 OA
ATOM     94  O   UNL A   1      45.045  24.741  37.833  1.00  0.00    -0.744 OA
ENDBRANCH  87  91
ENDBRANCH  61  84
ENDBRANCH  35  36
ENDBRANCH  27  30
ENDBRANCH  25  26
ENDBRANCH  24  25
ENDBRANCH  23  24
ENDBRANCH   1  23
TORSDOF 19
ENDMDL
MODEL 3
REMARK VINA RESULT:     -12.3      1.587      7.660
REMARK SMILES CCc1ccc(C[N@H+]2CC[C@@H](C(=O)NCCCCCCNC(=O)c3ccc(-c4c5nc(c(-c6cc(S(=O)(=O)[O-])ccc6F)c6ccc([nH]6)c(-c6cc(S(=O)(=O)[O-])ccc6F)c6nc(c(-c7cc(S(=O)(=O)[O-])ccc7F)c7ccc4[nH]7)C=C6)C=C5)cc3)[C@@H]2C)s1
REMARK SMILES IDX 17 1 16 2 15 3 14 4 12 5 13 6 11 8 8 9 9 10 87 11 10 13
REMARK SMILES IDX 88 14 7 15 6 16 3 17 4 18 89 19 5 20 2 21 1 22 18 23 19 24
REMARK SMILES IDX 20 25 21 26 22 27 23 29 24 30 25 31 86 32 26 33 85 34 27 35
REMARK SMILES IDX 28 36 29 37 79 38 30 39 84 40 78 41 80 42 31 43 83 44 77 45
REMARK SMILES IDX 76 46 32 48 64 49 44 50 63 51 45 52 48 53 62 54 81 55 46 56
REMARK SMILES IDX 47 57 61 59 82 60 49 61 33 62 34 63 42 64 35 65 41 66 43 67
REMARK SMILES IDX 40 68 36 69 37 70 38 71 39 72 65 73 66 74 74 75 67 76 73 77
REMARK SMILES IDX 75 78 72 79 68 80 69 81 70 82 71 83 50 84 51 85 59 86 52 87
REMARK SMILES IDX 58 88 60 89 57 90 53 91 54 92 55 93 56 94
REMARK H PARENT 14 7 8 12 21 28 80 47 48 58
REMARK Flexibility Score: inf
ROOT
ATOM      1  C   UNL A   1      32.986  29.795  25.858  1.00  0.00     0.002 C 
ENDROOT
BRANCH   1   2
ATOM      2  C   UNL A   1      33.461  28.316  26.643  1.00  0.00     0.021 C 
BRANCH   2   3
ATOM      3  C   UNL A   1      32.964  26.170  26.255  1.00  0.00     0.116 C 
BRANCH   3   4
ATOM      4  N   UNL A   1      31.806  25.199  26.790  1.00  0.00    -0.356 N 
ATOM      5  C   UNL A   1      31.642  23.850  26.784  1.00  0.00     0.229 C 
ATOM      6  O   UNL A   1      30.580  23.419  27.249  1.00  0.00    -0.275 OA
ATOM      7  H   UNL A   1      31.058  25.681  27.210  1.00  0.00     0.163 HD
BRANCH   5   8
ATOM      8  C   UNL A   1      32.666  22.873  26.217  1.00  0.00     0.142 C 
ATOM      9  N   UNL A   1      33.138  22.574  23.869  1.00  0.00    -0.328 N 
ATOM     10  C   UNL A   1      34.314  23.212  24.458  1.00  0.00     0.263 C 
ATOM     11  C   UNL A   1      32.220  22.167  24.937  1.00  0.00     0.194 C 
ATOM     12  H   UNL A   1      33.473  21.740  23.385  1.00  0.00     0.348 HD
ATOM     13  C   UNL A   1      34.032  23.473  25.935  1.00  0.00     0.081 C 
ATOM     14  C   UNL A   1      32.307  20.644  25.062  1.00  0.00     0.076 C 
BRANCH   9  15
ATOM     15  C   UNL A   1      32.494  23.286  22.758  1.00  0.00     0.310 C 
BRANCH  15  16
ATOM     16  C   UNL A   1      31.792  24.555  23.159  1.00  0.00     0.059 A 
ATOM     17  C   UNL A   1      30.949  27.740  23.165  1.00  0.00     0.005 A 
ATOM     18  C   UNL A   1      29.694  26.696  23.824  1.00  0.00     0.016 A 
ATOM     19  S   UNL A   1      32.881  26.539  22.657  1.00  0.00    -0.139 S 
ATOM     20  C   UNL A   1      30.167  24.836  23.758  1.00  0.00     0.021 A 
BRANCH  17  21
ATOM     21  C   UNL A   1      30.970  29.180  22.714  1.00  0.00     0.043 C 
ATOM     22  C   UNL A   1      29.730  29.618  21.957  1.00  0.00     0.010 C 
ENDBRANCH  17  21
ENDBRANCH  15  16
ENDBRANCH   9  15
ENDBRANCH   5   8
ENDBRANCH   3   4
ENDBRANCH   2   3
ENDBRANCH   1   2
BRANCH   1  23
ATOM     23  C   UNL A   1      31.626  30.346  26.326  1.00  0.00     0.002 C 
BRANCH  23  24
ATOM     24  C   UNL A   1      31.596  31.855  26.525  1.00  0.00     0.021 C 
BRANCH  24  25
ATOM     25  C   UNL A   1      32.848  32.345  27.226  1.00  0.00     0.116 C 
BRANCH  25  26
ATOM     26  N   UNL A   1      32.792  33.799  27.355  1.00  0.00    -0.352 N 
ATOM     27  C   UNL A   1      33.200  34.518  28.456  1.00  0.00     0.251 C 
ATOM     28  H   UNL A   1      32.432  34.307  26.591  1.00  0.00     0.163 HD
ATOM     29  O   UNL A   1      32.694  35.594  28.746  1.00  0.00    -0.269 OA
BRANCH  27  30
ATOM     30  C   UNL A   1      34.272  33.913  29.267  1.00  0.00     0.039 A 
ATOM     31  C   UNL A   1      34.019  32.825  30.098  1.00  0.00     0.014 A 
ATOM     32  C   UNL A   1      35.571  34.388  29.071  1.00  0.00     0.014 A 
ATOM     33  C   UNL A   1      35.100  32.187  30.710  1.00  0.00     0.010 A 
ATOM     34  C   UNL A   1      36.638  33.652  29.537  1.00  0.00     0.010 A 
ATOM     35  C   UNL A   1      36.416  32.580  30.412  1.00  0.00    -0.014 A 
BRANCH  35  36
ATOM     36  C   UNL A   1      37.597  31.971  31.065  1.00  0.00     0.031 A 
ATOM     37  C   UNL A   1      38.400  30.952  30.294  1.00  0.00     0.074 A 
ATOM     38  C   UNL A   1      37.891  32.264  32.346  1.00  0.00     0.049 A 
ATOM     39  N   UNL A   1      39.391  30.202  30.695  1.00  0.00    -0.248 NA
ATOM     40  C   UNL A   1      37.994  30.703  28.899  1.00  0.00     0.031 C 
ATOM     41  C   UNL A   1      37.141  33.188  33.199  1.00  0.00     0.029 A 
ATOM     42  N   UNL A   1      38.900  31.812  33.155  1.00  0.00    -0.354 N 
ATOM     43  C   UNL A   1      39.697  29.378  29.615  1.00  0.00     0.074 A 
ATOM     44  C   UNL A   1      38.723  29.647  28.585  1.00  0.00     0.031 C 
ATOM     45  C   UNL A   1      37.746  33.271  34.396  1.00  0.00     0.029 A 
ATOM     46  C   UNL A   1      38.891  32.367  34.413  1.00  0.00     0.049 A 
ATOM     47  H   UNL A   1      39.569  31.152  32.863  1.00  0.00     0.167 HD
ATOM     48  C   UNL A   1      40.727  28.511  29.477  1.00  0.00     0.034 A 
ATOM     49  C   UNL A   1      39.714  32.159  35.460  1.00  0.00     0.034 A 
ATOM     50  C   UNL A   1      41.710  28.297  30.506  1.00  0.00     0.049 A 
ATOM     51  C   UNL A   1      40.853  31.184  35.287  1.00  0.00     0.074 A 
ATOM     52  C   UNL A   1      42.838  27.499  30.468  1.00  0.00     0.029 A 
ATOM     53  N   UNL A   1      41.677  28.887  31.764  1.00  0.00    -0.354 N 
ATOM     54  N   UNL A   1      41.169  30.458  34.238  1.00  0.00    -0.248 NA
ATOM     55  C   UNL A   1      41.752  31.010  36.434  1.00  0.00     0.031 C 
ATOM     56  C   UNL A   1      43.444  27.547  31.726  1.00  0.00     0.029 A 
ATOM     57  C   UNL A   1      42.747  28.443  32.522  1.00  0.00     0.049 A 
ATOM     58  H   UNL A   1      40.995  29.527  32.069  1.00  0.00     0.167 HD
ATOM     59  C   UNL A   1      42.323  29.764  34.590  1.00  0.00     0.074 A 
ATOM     60  C   UNL A   1      42.656  30.176  35.939  1.00  0.00     0.031 C 
ATOM     61  C   UNL A   1      43.047  28.868  33.870  1.00  0.00     0.034 A 
BRANCH  48  62
ATOM     62  C   UNL A   1      40.823  27.740  28.181  1.00  0.00     0.023 A 
ATOM     63  C   UNL A   1      40.320  26.432  28.057  1.00  0.00     0.031 A 
ATOM     64  C   UNL A   1      41.465  28.303  27.065  1.00  0.00     0.131 A 
ATOM     65  C   UNL A   1      40.544  25.702  26.880  1.00  0.00     0.055 A 
ATOM     66  C   UNL A   1      41.602  27.604  25.863  1.00  0.00     0.041 A 
ATOM     67  F   UNL A   1      41.991  29.537  27.128  1.00  0.00    -0.206 F 
ATOM     68  C   UNL A   1      41.156  26.289  25.771  1.00  0.00     0.022 A 
BRANCH  65  69
ATOM     69  S   UNL A   1      40.174  23.926  26.880  1.00  0.00     0.124 S 
ATOM     70  O   UNL A   1      40.202  23.619  28.308  1.00  0.00    -0.237 OA
ATOM     71  O   UNL A   1      38.863  23.878  26.241  1.00  0.00    -0.237 OA
ATOM     72  O   UNL A   1      41.268  23.347  26.103  1.00  0.00    -0.744 OA
ENDBRANCH  65  69
ENDBRANCH  48  62
BRANCH  49  73
ATOM     73  C   UNL A   1      39.503  32.880  36.749  1.00  0.00     0.023 A 
ATOM     74  C   UNL A   1      38.640  32.369  37.730  1.00  0.00     0.031 A 
ATOM     75  C   UNL A   1      40.132  34.113  37.004  1.00  0.00     0.131 A 
ATOM     76  C   UNL A   1      38.386  33.109  38.896  1.00  0.00     0.055 A 
ATOM     77  C   UNL A   1      39.923  34.816  38.193  1.00  0.00     0.041 A 
ATOM     78  F   UNL A   1      40.972  34.648  36.104  1.00  0.00    -0.206 F 
ATOM     79  C   UNL A   1      39.033  34.322  39.141  1.00  0.00     0.022 A 
BRANCH  76  80
ATOM     80  S   UNL A   1      37.116  32.510  40.045  1.00  0.00     0.124 S 
ATOM     81  O   UNL A   1      37.212  33.484  41.126  1.00  0.00    -0.237 OA
ATOM     82  O   UNL A   1      35.911  32.575  39.226  1.00  0.00    -0.237 OA
ATOM     83  O   UNL A   1      37.570  31.161  40.378  1.00  0.00    -0.744 OA
ENDBRANCH  76  80
ENDBRANCH  49  73
BRANCH  61  84
ATOM     84  C   UNL A   1      44.289  28.311  34.519  1.00  0.00     0.023 A 
ATOM     85  C   UNL A   1      44.262  27.119  35.261  1.00  0.00     0.031 A 
ATOM     86  C   UNL A   1      45.516  28.985  34.388  1.00  0.00     0.131 A 
ATOM     87  C   UNL A   1      45.427  26.669  35.896  1.00  0.00     0.055 A 
ATOM     88  C   UNL A   1      46.688  28.492  34.962  1.00  0.00     0.041 A 
ATOM     89  F   UNL A   1      45.599  30.130  33.691  1.00  0.00    -0.206 F 
ATOM     90  C   UNL A   1      46.644  27.334  35.733  1.00  0.00     0.022 A 
BRANCH  87  91
ATOM     91  S   UNL A   1      45.306  25.257  37.027  1.00  0.00     0.124 S 
ATOM     92  O   UNL A   1      46.561  24.557  36.772  1.00  0.00    -0.237 OA
ATOM     93  O   UNL A   1      45.193  25.909  38.328  1.00  0.00    -0.237 OA
ATOM     94  O   UNL A   1      44.103  24.560  36.577  1.00  0.00    -0.744 OA
ENDBRANCH  87  91
ENDBRANCH  61  84
ENDBRANCH  35  36
ENDBRANCH  27  30
ENDBRANCH  25  26
ENDBRANCH  24  25
ENDBRANCH  23  24
ENDBRANCH   1  23
TORSDOF 19
ENDMDL
