MODEL 1
REMARK VINA RESULT:     -13.0      0.000      0.000
REMARK SMILES O=C(Cn1c(-c2nc(-c3ccc(C(F)(F)F)cc3)no2)cc2ccccc21)NCCCCCCNC(=O)c1ccc(-c2c3nc(c(-c4cc(S(=O)(=O)[O-])ccc4F)c4ccc([nH]4)c(-c4cc(S(=O)(=O)[O-])ccc4F)c4nc(c(-c5cc(S(=O)(=O)[O-])ccc5F)c5ccc2[nH]5)C=C4)C=C3)cc1
REMARK SMILES IDX 31 1 30 2 29 3 28 4 1 5 2 6 3 8 4 9 5 10 27 11 21 12 22 13
REMARK SMILES IDX 26 14 23 15 25 16 24 17 6 18 7 19 20 20 8 21 19 22 9 23
REMARK SMILES IDX 10 24 18 25 11 26 17 27 12 28 13 29 14 30 15 31 16 32 32 33
REMARK SMILES IDX 33 34 34 35 35 36 36 37 37 39 38 40 39 41 100 42 40 43 99 44
REMARK SMILES IDX 41 45 42 46 43 47 93 48 44 49 98 50 92 51 94 52 45 53 97 54
REMARK SMILES IDX 91 55 90 56 46 58 78 59 58 60 77 61 59 62 62 63 76 64 95 65
REMARK SMILES IDX 60 66 61 67 75 69 96 70 63 71 47 72 48 73 56 74 49 75 55 76
REMARK SMILES IDX 57 77 54 78 50 79 51 80 52 81 53 82 79 83 80 84 88 85 81 86
REMARK SMILES IDX 87 87 89 88 86 89 82 90 83 91 84 92 85 93 64 94 65 95 73 96
REMARK SMILES IDX 66 97 72 98 74 99 71 100 67 101 68 102 69 103 70 104
REMARK H PARENT 28 7 35 38 94 57 62 68
REMARK Flexibility Score: inf
ROOT
ATOM      1  C   UNL A   1      35.021  23.448  25.959  1.00  0.00     0.002 C 
ENDROOT
BRANCH   1   2
ATOM      2  C   UNL A   1      34.782  24.759  25.190  1.00  0.00     0.021 C 
BRANCH   2   3
ATOM      3  C   UNL A   1      33.821  25.766  25.826  1.00  0.00     0.116 C 
BRANCH   3   4
ATOM      4  N   UNL A   1      33.357  26.784  24.902  1.00  0.00    -0.355 N 
ATOM      5  O   UNL A   1      31.998  27.877  26.409  1.00  0.00    -0.273 OA
ATOM      6  C   UNL A   1      32.529  27.817  25.304  1.00  0.00     0.239 C 
ATOM      7  H   UNL A   1      33.642  26.738  23.960  1.00  0.00     0.163 HD
BRANCH   6   8
ATOM      8  C   UNL A   1      32.261  28.849  24.232  1.00  0.00     0.222 C 
BRANCH   8   9
ATOM      9  N   UNL A   1      30.984  28.736  23.524  1.00  0.00    -0.327 N 
ATOM     10  C   UNL A   1      30.439  27.620  22.915  1.00  0.00     0.109 A 
ATOM     11  C   UNL A   1      30.004  29.734  23.605  1.00  0.00     0.049 A 
ATOM     12  C   UNL A   1      29.137  27.921  22.573  1.00  0.00     0.042 A 
ATOM     13  C   UNL A   1      28.840  29.222  23.026  1.00  0.00     0.000 A 
ATOM     14  C   UNL A   1      30.018  31.029  24.161  1.00  0.00     0.027 A 
ATOM     15  C   UNL A   1      27.663  29.993  23.012  1.00  0.00     0.010 A 
ATOM     16  C   UNL A   1      28.837  31.782  24.130  1.00  0.00     0.002 A 
ATOM     17  C   UNL A   1      27.671  31.271  23.570  1.00  0.00     0.001 A 
BRANCH  10  18
ATOM     18  C   UNL A   1      30.999  26.315  22.755  1.00  0.00     0.274 A 
ATOM     19  N   UNL A   1      30.690  25.252  23.466  1.00  0.00    -0.185 NA
ATOM     20  O   UNL A   1      32.092  26.111  21.959  1.00  0.00    -0.332 OA
ATOM     21  C   UNL A   1      31.697  24.357  23.140  1.00  0.00     0.202 A 
ATOM     22  N   UNL A   1      32.547  24.829  22.212  1.00  0.00    -0.057 NA
BRANCH  21  23
ATOM     23  C   UNL A   1      31.730  22.961  23.587  1.00  0.00     0.023 A 
ATOM     24  C   UNL A   1      31.553  22.639  24.944  1.00  0.00     0.013 A 
ATOM     25  C   UNL A   1      32.100  21.941  22.702  1.00  0.00     0.013 A 
ATOM     26  C   UNL A   1      31.831  21.350  25.420  1.00  0.00     0.014 A 
ATOM     27  C   UNL A   1      32.408  20.661  23.180  1.00  0.00     0.014 A 
ATOM     28  C   UNL A   1      32.311  20.361  24.547  1.00  0.00     0.056 A 
BRANCH  28  29
ATOM     29  C   UNL A   1      32.860  19.058  25.080  1.00  0.00     0.416 C 
ATOM     30  F   UNL A   1      34.118  18.827  24.592  1.00  0.00    -0.166 F 
ATOM     31  F   UNL A   1      32.971  19.013  26.429  1.00  0.00    -0.166 F 
ATOM     32  F   UNL A   1      32.135  17.968  24.710  1.00  0.00    -0.166 F 
ENDBRANCH  28  29
ENDBRANCH  21  23
ENDBRANCH  10  18
ENDBRANCH   8   9
ENDBRANCH   6   8
ENDBRANCH   3   4
ENDBRANCH   2   3
ENDBRANCH   1   2
BRANCH   1  33
ATOM     33  C   UNL A   1      35.386  22.218  25.125  1.00  0.00     0.002 C 
BRANCH  33  34
ATOM     34  C   UNL A   1      36.842  21.728  25.174  1.00  0.00     0.021 C 
BRANCH  34  35
ATOM     35  C   UNL A   1      37.879  22.677  25.782  1.00  0.00     0.116 C 
BRANCH  35  36
ATOM     36  N   UNL A   1      39.184  22.066  25.952  1.00  0.00    -0.352 N 
ATOM     37  C   UNL A   1      40.407  22.395  26.463  1.00  0.00     0.251 C 
ATOM     38  H   UNL A   1      39.191  21.149  25.594  1.00  0.00     0.163 HD
ATOM     39  O   UNL A   1      41.218  21.460  26.472  1.00  0.00    -0.269 OA
BRANCH  37  40
ATOM     40  C   UNL A   1      40.872  23.727  26.945  1.00  0.00     0.039 A 
ATOM     41  C   UNL A   1      41.635  23.983  28.080  1.00  0.00     0.014 A 
ATOM     42  C   UNL A   1      40.393  24.834  26.219  1.00  0.00     0.014 A 
ATOM     43  C   UNL A   1      41.746  25.293  28.571  1.00  0.00     0.010 A 
ATOM     44  C   UNL A   1      40.555  26.139  26.677  1.00  0.00     0.010 A 
ATOM     45  C   UNL A   1      41.118  26.370  27.925  1.00  0.00    -0.014 A 
BRANCH  45  46
ATOM     46  C   UNL A   1      41.031  27.686  28.597  1.00  0.00     0.031 A 
ATOM     47  C   UNL A   1      41.990  28.740  28.129  1.00  0.00     0.074 A 
ATOM     48  C   UNL A   1      40.120  27.992  29.555  1.00  0.00     0.049 A 
ATOM     49  N   UNL A   1      42.925  29.339  28.801  1.00  0.00    -0.248 NA
ATOM     50  C   UNL A   1      41.968  29.092  26.702  1.00  0.00     0.031 C 
ATOM     51  C   UNL A   1      38.958  27.213  30.007  1.00  0.00     0.029 A 
ATOM     52  N   UNL A   1      39.994  29.140  30.287  1.00  0.00    -0.354 N 
ATOM     53  C   UNL A   1      43.515  30.254  27.926  1.00  0.00     0.074 A 
ATOM     54  C   UNL A   1      42.971  29.968  26.622  1.00  0.00     0.031 C 
ATOM     55  C   UNL A   1      38.118  28.007  30.710  1.00  0.00     0.029 A 
ATOM     56  C   UNL A   1      38.766  29.286  30.922  1.00  0.00     0.049 A 
ATOM     57  H   UNL A   1      40.713  29.808  30.358  1.00  0.00     0.167 HD
ATOM     58  C   UNL A   1      44.305  31.287  28.344  1.00  0.00     0.034 A 
ATOM     59  C   UNL A   1      38.279  30.384  31.554  1.00  0.00     0.034 A 
ATOM     60  C   UNL A   1      44.753  31.109  29.695  1.00  0.00     0.049 A 
ATOM     61  C   UNL A   1      39.423  31.256  31.895  1.00  0.00     0.074 A 
ATOM     62  C   UNL A   1      45.596  30.225  30.334  1.00  0.00     0.029 A 
ATOM     63  N   UNL A   1      44.062  31.748  30.693  1.00  0.00    -0.354 N 
ATOM     64  N   UNL A   1      40.321  30.961  32.792  1.00  0.00    -0.248 NA
ATOM     65  C   UNL A   1      39.813  32.256  30.914  1.00  0.00     0.031 C 
ATOM     66  C   UNL A   1      45.015  30.026  31.619  1.00  0.00     0.029 A 
ATOM     67  C   UNL A   1      43.884  30.839  31.705  1.00  0.00     0.049 A 
ATOM     68  H   UNL A   1      43.750  32.682  30.685  1.00  0.00     0.167 HD
ATOM     69  C   UNL A   1      41.516  31.374  32.226  1.00  0.00     0.074 A 
ATOM     70  C   UNL A   1      41.132  32.239  31.111  1.00  0.00     0.031 C 
ATOM     71  C   UNL A   1      42.699  30.766  32.534  1.00  0.00     0.034 A 
BRANCH  58  72
ATOM     72  C   UNL A   1      44.450  32.599  27.610  1.00  0.00     0.023 A 
ATOM     73  C   UNL A   1      43.667  33.724  27.927  1.00  0.00     0.031 A 
ATOM     74  C   UNL A   1      45.527  32.830  26.728  1.00  0.00     0.131 A 
ATOM     75  C   UNL A   1      43.926  34.984  27.370  1.00  0.00     0.055 A 
ATOM     76  C   UNL A   1      45.829  34.103  26.224  1.00  0.00     0.041 A 
ATOM     77  F   UNL A   1      46.351  31.833  26.367  1.00  0.00    -0.206 F 
ATOM     78  C   UNL A   1      45.024  35.189  26.543  1.00  0.00     0.022 A 
BRANCH  75  79
ATOM     79  S   UNL A   1      42.825  36.381  27.724  1.00  0.00     0.124 S 
ATOM     80  O   UNL A   1      43.325  36.832  29.023  1.00  0.00    -0.237 OA
ATOM     81  O   UNL A   1      43.105  37.270  26.599  1.00  0.00    -0.237 OA
ATOM     82  O   UNL A   1      41.500  35.780  27.723  1.00  0.00    -0.744 OA
ENDBRANCH  75  79
ENDBRANCH  58  72
BRANCH  59  83
ATOM     83  C   UNL A   1      36.923  30.952  31.338  1.00  0.00     0.023 A 
ATOM     84  C   UNL A   1      36.441  31.096  30.023  1.00  0.00     0.031 A 
ATOM     85  C   UNL A   1      36.249  31.652  32.354  1.00  0.00     0.131 A 
ATOM     86  C   UNL A   1      35.366  31.951  29.746  1.00  0.00     0.055 A 
ATOM     87  C   UNL A   1      35.159  32.489  32.079  1.00  0.00     0.041 A 
ATOM     88  F   UNL A   1      36.681  31.592  33.623  1.00  0.00    -0.206 F 
ATOM     89  C   UNL A   1      34.723  32.655  30.766  1.00  0.00     0.022 A 
BRANCH  86  90
ATOM     90  S   UNL A   1      34.849  32.247  28.033  1.00  0.00     0.124 S 
ATOM     91  O   UNL A   1      33.462  32.673  28.201  1.00  0.00    -0.237 OA
ATOM     92  O   UNL A   1      35.781  33.289  27.619  1.00  0.00    -0.237 OA
ATOM     93  O   UNL A   1      35.022  30.945  27.394  1.00  0.00    -0.744 OA
ENDBRANCH  86  90
ENDBRANCH  59  83
BRANCH  71  94
ATOM     94  C   UNL A   1      42.730  29.753  33.657  1.00  0.00     0.023 A 
ATOM     95  C   UNL A   1      43.229  30.181  34.899  1.00  0.00     0.031 A 
ATOM     96  C   UNL A   1      42.516  28.371  33.487  1.00  0.00     0.131 A 
ATOM     97  C   UNL A   1      43.539  29.251  35.898  1.00  0.00     0.055 A 
ATOM     98  C   UNL A   1      42.761  27.450  34.512  1.00  0.00     0.041 A 
ATOM     99  F   UNL A   1      42.149  27.859  32.306  1.00  0.00    -0.206 F 
ATOM    100  C   UNL A   1      43.292  27.887  35.720  1.00  0.00     0.022 A 
BRANCH  97 101
ATOM    101  S   UNL A   1      44.417  29.777  37.391  1.00  0.00     0.124 S 
ATOM    102  O   UNL A   1      44.617  28.514  38.093  1.00  0.00    -0.237 OA
ATOM    103  O   UNL A   1      45.627  30.386  36.840  1.00  0.00    -0.237 OA
ATOM    104  O   UNL A   1      43.497  30.711  38.033  1.00  0.00    -0.744 OA
ENDBRANCH  97 101
ENDBRANCH  71  94
ENDBRANCH  45  46
ENDBRANCH  37  40
ENDBRANCH  35  36
ENDBRANCH  34  35
ENDBRANCH  33  34
ENDBRANCH   1  33
TORSDOF 20
ENDMDL
MODEL 2
REMARK VINA RESULT:     -12.9      3.823      9.078
REMARK SMILES O=C(Cn1c(-c2nc(-c3ccc(C(F)(F)F)cc3)no2)cc2ccccc21)NCCCCCCNC(=O)c1ccc(-c2c3nc(c(-c4cc(S(=O)(=O)[O-])ccc4F)c4ccc([nH]4)c(-c4cc(S(=O)(=O)[O-])ccc4F)c4nc(c(-c5cc(S(=O)(=O)[O-])ccc5F)c5ccc2[nH]5)C=C4)C=C3)cc1
REMARK SMILES IDX 31 1 30 2 29 3 28 4 1 5 2 6 3 8 4 9 5 10 27 11 21 12 22 13
REMARK SMILES IDX 26 14 23 15 25 16 24 17 6 18 7 19 20 20 8 21 19 22 9 23
REMARK SMILES IDX 10 24 18 25 11 26 17 27 12 28 13 29 14 30 15 31 16 32 32 33
REMARK SMILES IDX 33 34 34 35 35 36 36 37 37 39 38 40 39 41 100 42 40 43 99 44
REMARK SMILES IDX 41 45 42 46 43 47 93 48 44 49 98 50 92 51 94 52 45 53 97 54
REMARK SMILES IDX 91 55 90 56 46 58 78 59 58 60 77 61 59 62 62 63 76 64 95 65
REMARK SMILES IDX 60 66 61 67 75 69 96 70 63 71 47 72 48 73 56 74 49 75 55 76
REMARK SMILES IDX 57 77 54 78 50 79 51 80 52 81 53 82 79 83 80 84 88 85 81 86
REMARK SMILES IDX 87 87 89 88 86 89 82 90 83 91 84 92 85 93 64 94 65 95 73 96
REMARK SMILES IDX 66 97 72 98 74 99 71 100 67 101 68 102 69 103 70 104
REMARK H PARENT 28 7 35 38 94 57 62 68
REMARK Flexibility Score: inf
ROOT
ATOM      1  C   UNL A   1      32.719  28.050  25.608  1.00  0.00     0.002 C 
ENDROOT
BRANCH   1   2
ATOM      2  C   UNL A   1      32.343  26.683  26.204  1.00  0.00     0.021 C 
BRANCH   2   3
ATOM      3  C   UNL A   1      33.393  25.574  26.104  1.00  0.00     0.116 C 
BRANCH   3   4
ATOM      4  N   UNL A   1      32.823  24.241  26.051  1.00  0.00    -0.355 N 
ATOM      5  O   UNL A   1      34.792  23.155  25.545  1.00  0.00    -0.273 OA
ATOM      6  C   UNL A   1      33.603  23.117  25.848  1.00  0.00     0.239 C 
ATOM      7  H   UNL A   1      31.850  24.134  26.163  1.00  0.00     0.163 HD
BRANCH   6   8
ATOM      8  C   UNL A   1      32.848  21.812  25.954  1.00  0.00     0.222 C 
BRANCH   8   9
ATOM      9  N   UNL A   1      32.453  21.182  24.692  1.00  0.00    -0.327 N 
ATOM     10  C   UNL A   1      32.156  21.795  23.488  1.00  0.00     0.109 A 
ATOM     11  C   UNL A   1      32.583  19.803  24.481  1.00  0.00     0.049 A 
ATOM     12  C   UNL A   1      32.055  20.808  22.528  1.00  0.00     0.042 A 
ATOM     13  C   UNL A   1      32.351  19.566  23.124  1.00  0.00     0.000 A 
ATOM     14  C   UNL A   1      32.914  18.743  25.348  1.00  0.00     0.027 A 
ATOM     15  C   UNL A   1      32.466  18.262  22.608  1.00  0.00     0.010 A 
ATOM     16  C   UNL A   1      33.017  17.451  24.814  1.00  0.00     0.002 A 
ATOM     17  C   UNL A   1      32.804  17.212  23.461  1.00  0.00     0.001 A 
BRANCH  10  18
ATOM     18  C   UNL A   1      32.086  23.187  23.175  1.00  0.00     0.274 A 
ATOM     19  N   UNL A   1      31.164  24.026  23.595  1.00  0.00    -0.185 NA
ATOM     20  O   UNL A   1      32.885  23.732  22.209  1.00  0.00    -0.332 OA
ATOM     21  C   UNL A   1      31.362  25.136  22.789  1.00  0.00     0.202 A 
ATOM     22  N   UNL A   1      32.410  25.007  21.957  1.00  0.00    -0.057 NA
BRANCH  21  23
ATOM     23  C   UNL A   1      30.651  26.407  22.954  1.00  0.00     0.023 A 
ATOM     24  C   UNL A   1      29.392  26.448  23.577  1.00  0.00     0.013 A 
ATOM     25  C   UNL A   1      31.136  27.574  22.351  1.00  0.00     0.013 A 
ATOM     26  C   UNL A   1      28.597  27.601  23.516  1.00  0.00     0.014 A 
ATOM     27  C   UNL A   1      30.331  28.717  22.262  1.00  0.00     0.014 A 
ATOM     28  C   UNL A   1      29.040  28.732  22.812  1.00  0.00     0.056 A 
BRANCH  28  29
ATOM     29  C   UNL A   1      28.101  29.877  22.515  1.00  0.00     0.416 C 
ATOM     30  F   UNL A   1      27.901  30.002  21.166  1.00  0.00    -0.166 F 
ATOM     31  F   UNL A   1      26.869  29.741  23.061  1.00  0.00    -0.166 F 
ATOM     32  F   UNL A   1      28.574  31.089  22.913  1.00  0.00    -0.166 F 
ENDBRANCH  28  29
ENDBRANCH  21  23
ENDBRANCH  10  18
ENDBRANCH   8   9
ENDBRANCH   6   8
ENDBRANCH   3   4
ENDBRANCH   2   3
ENDBRANCH   1   2
BRANCH   1  33
ATOM     33  C   UNL A   1      31.654  29.147  25.674  1.00  0.00     0.002 C 
BRANCH  33  34
ATOM     34  C   UNL A   1      32.026  30.463  26.376  1.00  0.00     0.021 C 
BRANCH  34  35
ATOM     35  C   UNL A   1      33.253  30.445  27.291  1.00  0.00     0.116 C 
BRANCH  35  36
ATOM     36  N   UNL A   1      33.896  31.740  27.414  1.00  0.00    -0.352 N 
ATOM     37  C   UNL A   1      35.090  32.252  27.833  1.00  0.00     0.251 C 
ATOM     38  H   UNL A   1      33.297  32.459  27.106  1.00  0.00     0.163 HD
ATOM     39  O   UNL A   1      35.213  33.469  27.642  1.00  0.00    -0.269 OA
BRANCH  37  40
ATOM     40  C   UNL A   1      36.203  31.539  28.524  1.00  0.00     0.039 A 
ATOM     41  C   UNL A   1      37.337  32.113  29.088  1.00  0.00     0.014 A 
ATOM     42  C   UNL A   1      36.126  30.133  28.502  1.00  0.00     0.014 A 
ATOM     43  C   UNL A   1      38.433  31.306  29.436  1.00  0.00     0.010 A 
ATOM     44  C   UNL A   1      37.192  29.332  28.903  1.00  0.00     0.010 A 
ATOM     45  C   UNL A   1      38.404  29.915  29.249  1.00  0.00    -0.014 A 
BRANCH  45  46
ATOM     46  C   UNL A   1      39.649  29.126  29.377  1.00  0.00     0.031 A 
ATOM     47  C   UNL A   1      40.072  28.764  30.770  1.00  0.00     0.074 A 
ATOM     48  C   UNL A   1      40.381  28.685  28.323  1.00  0.00     0.049 A 
ATOM     49  N   UNL A   1      41.153  29.104  31.401  1.00  0.00    -0.248 NA
ATOM     50  C   UNL A   1      39.115  28.013  31.595  1.00  0.00     0.031 C 
ATOM     51  C   UNL A   1      40.051  28.720  26.890  1.00  0.00     0.029 A 
ATOM     52  N   UNL A   1      41.573  28.015  28.323  1.00  0.00    -0.354 N 
ATOM     53  C   UNL A   1      41.088  28.489  32.654  1.00  0.00     0.074 A 
ATOM     54  C   UNL A   1      39.760  27.938  32.760  1.00  0.00     0.031 C 
ATOM     55  C   UNL A   1      40.863  27.878  26.211  1.00  0.00     0.029 A 
ATOM     56  C   UNL A   1      41.886  27.396  27.118  1.00  0.00     0.049 A 
ATOM     57  H   UNL A   1      42.162  27.977  29.110  1.00  0.00     0.167 HD
ATOM     58  C   UNL A   1      42.173  28.340  33.470  1.00  0.00     0.034 A 
ATOM     59  C   UNL A   1      42.888  26.516  26.868  1.00  0.00     0.034 A 
ATOM     60  C   UNL A   1      43.261  29.190  33.081  1.00  0.00     0.049 A 
ATOM     61  C   UNL A   1      43.902  26.669  27.934  1.00  0.00     0.074 A 
ATOM     62  C   UNL A   1      43.477  30.552  33.067  1.00  0.00     0.029 A 
ATOM     63  N   UNL A   1      44.258  28.649  32.310  1.00  0.00    -0.354 N 
ATOM     64  N   UNL A   1      44.663  27.718  28.069  1.00  0.00    -0.248 NA
ATOM     65  C   UNL A   1      43.754  25.837  29.117  1.00  0.00     0.031 C 
ATOM     66  C   UNL A   1      44.267  30.786  31.906  1.00  0.00     0.029 A 
ATOM     67  C   UNL A   1      44.529  29.551  31.312  1.00  0.00     0.049 A 
ATOM     68  H   UNL A   1      44.696  27.778  32.446  1.00  0.00     0.167 HD
ATOM     69  C   UNL A   1      44.707  27.932  29.437  1.00  0.00     0.074 A 
ATOM     70  C   UNL A   1      44.201  26.696  30.034  1.00  0.00     0.031 C 
ATOM     71  C   UNL A   1      44.886  29.181  29.959  1.00  0.00     0.034 A 
BRANCH  58  72
ATOM     72  C   UNL A   1      42.340  27.218  34.468  1.00  0.00     0.023 A 
ATOM     73  C   UNL A   1      43.113  26.077  34.187  1.00  0.00     0.031 A 
ATOM     74  C   UNL A   1      41.918  27.359  35.808  1.00  0.00     0.131 A 
ATOM     75  C   UNL A   1      43.411  25.127  35.173  1.00  0.00     0.055 A 
ATOM     76  C   UNL A   1      42.275  26.445  36.810  1.00  0.00     0.041 A 
ATOM     77  F   UNL A   1      41.189  28.418  36.195  1.00  0.00    -0.206 F 
ATOM     78  C   UNL A   1      43.024  25.319  36.494  1.00  0.00     0.022 A 
BRANCH  75  79
ATOM     79  S   UNL A   1      44.319  23.618  34.739  1.00  0.00     0.124 S 
ATOM     80  O   UNL A   1      44.664  23.088  36.059  1.00  0.00    -0.237 OA
ATOM     81  O   UNL A   1      43.305  22.864  34.004  1.00  0.00    -0.237 OA
ATOM     82  O   UNL A   1      45.430  24.106  33.937  1.00  0.00    -0.744 OA
ENDBRANCH  75  79
ENDBRANCH  58  72
BRANCH  59  83
ATOM     83  C   UNL A   1      42.721  25.225  26.153  1.00  0.00     0.023 A 
ATOM     84  C   UNL A   1      41.718  24.331  26.573  1.00  0.00     0.031 A 
ATOM     85  C   UNL A   1      43.723  24.720  25.305  1.00  0.00     0.131 A 
ATOM     86  C   UNL A   1      41.761  22.981  26.200  1.00  0.00     0.055 A 
ATOM     87  C   UNL A   1      43.752  23.374  24.913  1.00  0.00     0.041 A 
ATOM     88  F   UNL A   1      44.732  25.506  24.900  1.00  0.00    -0.206 F 
ATOM     89  C   UNL A   1      42.776  22.494  25.375  1.00  0.00     0.022 A 
BRANCH  86  90
ATOM     90  S   UNL A   1      40.551  21.807  26.869  1.00  0.00     0.124 S 
ATOM     91  O   UNL A   1      39.284  22.421  26.482  1.00  0.00    -0.237 OA
ATOM     92  O   UNL A   1      40.902  20.584  26.156  1.00  0.00    -0.237 OA
ATOM     93  O   UNL A   1      40.827  21.812  28.302  1.00  0.00    -0.744 OA
ENDBRANCH  86  90
ENDBRANCH  59  83
BRANCH  71  94
ATOM     94  C   UNL A   1      45.236  30.320  29.026  1.00  0.00     0.023 A 
ATOM     95  C   UNL A   1      46.596  30.640  28.880  1.00  0.00     0.031 A 
ATOM     96  C   UNL A   1      44.297  31.218  28.481  1.00  0.00     0.131 A 
ATOM     97  C   UNL A   1      46.982  31.833  28.257  1.00  0.00     0.055 A 
ATOM     98  C   UNL A   1      44.688  32.375  27.796  1.00  0.00     0.041 A 
ATOM     99  F   UNL A   1      42.982  31.054  28.665  1.00  0.00    -0.206 F 
ATOM    100  C   UNL A   1      46.036  32.696  27.697  1.00  0.00     0.022 A 
BRANCH  97 101
ATOM    101  S   UNL A   1      48.712  32.365  28.300  1.00  0.00     0.124 S 
ATOM    102  O   UNL A   1      49.400  31.228  27.696  1.00  0.00    -0.237 OA
ATOM    103  O   UNL A   1      48.681  33.581  27.489  1.00  0.00    -0.237 OA
ATOM    104  O   UNL A   1      48.982  32.578  29.718  1.00  0.00    -0.744 OA
ENDBRANCH  97 101
ENDBRANCH  71  94
ENDBRANCH  45  46
ENDBRANCH  37  40
ENDBRANCH  35  36
ENDBRANCH  34  35
ENDBRANCH  33  34
ENDBRANCH   1  33
TORSDOF 20
ENDMDL
MODEL 3
REMARK VINA RESULT:     -12.2      3.571      5.939
REMARK SMILES O=C(Cn1c(-c2nc(-c3ccc(C(F)(F)F)cc3)no2)cc2ccccc21)NCCCCCCNC(=O)c1ccc(-c2c3nc(c(-c4cc(S(=O)(=O)[O-])ccc4F)c4ccc([nH]4)c(-c4cc(S(=O)(=O)[O-])ccc4F)c4nc(c(-c5cc(S(=O)(=O)[O-])ccc5F)c5ccc2[nH]5)C=C4)C=C3)cc1
REMARK SMILES IDX 31 1 30 2 29 3 28 4 1 5 2 6 3 8 4 9 5 10 27 11 21 12 22 13
REMARK SMILES IDX 26 14 23 15 25 16 24 17 6 18 7 19 20 20 8 21 19 22 9 23
REMARK SMILES IDX 10 24 18 25 11 26 17 27 12 28 13 29 14 30 15 31 16 32 32 33
REMARK SMILES IDX 33 34 34 35 35 36 36 37 37 39 38 40 39 41 100 42 40 43 99 44
REMARK SMILES IDX 41 45 42 46 43 47 93 48 44 49 98 50 92 51 94 52 45 53 97 54
REMARK SMILES IDX 91 55 90 56 46 58 78 59 58 60 77 61 59 62 62 63 76 64 95 65
REMARK SMILES IDX 60 66 61 67 75 69 96 70 63 71 47 72 48 73 56 74 49 75 55 76
REMARK SMILES IDX 57 77 54 78 50 79 51 80 52 81 53 82 79 83 80 84 88 85 81 86
REMARK SMILES IDX 87 87 89 88 86 89 82 90 83 91 84 92 85 93 64 94 65 95 73 96
REMARK SMILES IDX 66 97 72 98 74 99 71 100 67 101 68 102 69 103 70 104
REMARK H PARENT 28 7 35 38 94 57 62 68
REMARK Flexibility Score: inf
ROOT
ATOM      1  C   UNL A   1      39.608  22.396  26.579  1.00  0.00     0.002 C 
ENDROOT
BRANCH   1   2
ATOM      2  C   UNL A   1      38.809  23.711  26.584  1.00  0.00     0.021 C 
BRANCH   2   3
ATOM      3  C   UNL A   1      37.611  23.794  25.636  1.00  0.00     0.116 C 
BRANCH   3   4
ATOM      4  N   UNL A   1      36.491  22.968  26.046  1.00  0.00    -0.355 N 
ATOM      5  O   UNL A   1      36.551  21.556  24.226  1.00  0.00    -0.273 OA
ATOM      6  C   UNL A   1      36.100  21.851  25.329  1.00  0.00     0.239 C 
ATOM      7  H   UNL A   1      35.995  23.210  26.862  1.00  0.00     0.163 HD
BRANCH   6   8
ATOM      8  C   UNL A   1      35.000  21.048  25.984  1.00  0.00     0.222 C 
BRANCH   8   9
ATOM      9  N   UNL A   1      33.943  20.550  25.102  1.00  0.00    -0.327 N 
ATOM     10  C   UNL A   1      32.964  21.276  24.447  1.00  0.00     0.109 A 
ATOM     11  C   UNL A   1      33.956  19.244  24.594  1.00  0.00     0.049 A 
ATOM     12  C   UNL A   1      32.332  20.428  23.562  1.00  0.00     0.042 A 
ATOM     13  C   UNL A   1      32.960  19.168  23.617  1.00  0.00     0.000 A 
ATOM     14  C   UNL A   1      34.770  18.130  24.877  1.00  0.00     0.027 A 
ATOM     15  C   UNL A   1      32.776  17.975  22.893  1.00  0.00     0.010 A 
ATOM     16  C   UNL A   1      34.566  16.951  24.149  1.00  0.00     0.002 A 
ATOM     17  C   UNL A   1      33.587  16.874  23.164  1.00  0.00     0.001 A 
BRANCH  10  18
ATOM     18  C   UNL A   1      32.683  22.676  24.510  1.00  0.00     0.274 A 
ATOM     19  N   UNL A   1      33.147  23.515  25.411  1.00  0.00    -0.185 NA
ATOM     20  O   UNL A   1      31.707  23.234  23.732  1.00  0.00    -0.332 OA
ATOM     21  C   UNL A   1      32.359  24.640  25.223  1.00  0.00     0.202 A 
ATOM     22  N   UNL A   1      31.496  24.519  24.200  1.00  0.00    -0.057 NA
BRANCH  21  23
ATOM     23  C   UNL A   1      32.571  25.914  25.916  1.00  0.00     0.023 A 
ATOM     24  C   UNL A   1      31.531  26.514  26.647  1.00  0.00     0.013 A 
ATOM     25  C   UNL A   1      33.756  26.636  25.727  1.00  0.00     0.013 A 
ATOM     26  C   UNL A   1      31.638  27.837  27.098  1.00  0.00     0.014 A 
ATOM     27  C   UNL A   1      33.853  27.968  26.149  1.00  0.00     0.014 A 
ATOM     28  C   UNL A   1      32.783  28.594  26.807  1.00  0.00     0.056 A 
BRANCH  28  29
ATOM     29  C   UNL A   1      32.810  30.085  27.052  1.00  0.00     0.416 C 
ATOM     30  F   UNL A   1      33.516  30.724  26.069  1.00  0.00    -0.166 F 
ATOM     31  F   UNL A   1      31.587  30.667  27.068  1.00  0.00    -0.166 F 
ATOM     32  F   UNL A   1      33.427  30.437  28.212  1.00  0.00    -0.166 F 
ENDBRANCH  28  29
ENDBRANCH  21  23
ENDBRANCH  10  18
ENDBRANCH   8   9
ENDBRANCH   6   8
ENDBRANCH   3   4
ENDBRANCH   2   3
ENDBRANCH   1   2
BRANCH   1  33
ATOM     33  C   UNL A   1      40.573  22.173  27.745  1.00  0.00     0.002 C 
BRANCH  33  34
ATOM     34  C   UNL A   1      41.545  20.985  27.651  1.00  0.00     0.021 C 
BRANCH  34  35
ATOM     35  C   UNL A   1      41.280  19.951  26.553  1.00  0.00     0.116 C 
BRANCH  35  36
ATOM     36  N   UNL A   1      42.378  19.819  25.614  1.00  0.00    -0.352 N 
ATOM     37  C   UNL A   1      43.482  20.522  25.228  1.00  0.00     0.251 C 
ATOM     38  H   UNL A   1      42.304  18.978  25.105  1.00  0.00     0.163 HD
ATOM     39  O   UNL A   1      44.205  19.924  24.421  1.00  0.00    -0.269 OA
BRANCH  37  40
ATOM     40  C   UNL A   1      43.870  21.908  25.619  1.00  0.00     0.039 A 
ATOM     41  C   UNL A   1      44.847  22.270  26.541  1.00  0.00     0.014 A 
ATOM     42  C   UNL A   1      43.086  22.935  25.062  1.00  0.00     0.014 A 
ATOM     43  C   UNL A   1      44.900  23.587  27.027  1.00  0.00     0.010 A 
ATOM     44  C   UNL A   1      43.181  24.253  25.502  1.00  0.00     0.010 A 
ATOM     45  C   UNL A   1      43.996  24.565  26.582  1.00  0.00    -0.014 A 
BRANCH  45  46
ATOM     46  C   UNL A   1      43.903  25.861  27.291  1.00  0.00     0.031 A 
ATOM     47  C   UNL A   1      45.060  26.800  27.122  1.00  0.00     0.074 A 
ATOM     48  C   UNL A   1      42.831  26.251  28.025  1.00  0.00     0.049 A 
ATOM     49  N   UNL A   1      45.870  27.258  28.027  1.00  0.00    -0.248 NA
ATOM     50  C   UNL A   1      45.419  27.194  25.751  1.00  0.00     0.031 C 
ATOM     51  C   UNL A   1      41.514  25.610  28.148  1.00  0.00     0.029 A 
ATOM     52  N   UNL A   1      42.666  27.383  28.773  1.00  0.00    -0.354 N 
ATOM     53  C   UNL A   1      46.753  28.117  27.367  1.00  0.00     0.074 A 
ATOM     54  C   UNL A   1      46.506  27.939  25.958  1.00  0.00     0.031 C 
ATOM     55  C   UNL A   1      40.627  26.482  28.681  1.00  0.00     0.029 A 
ATOM     56  C   UNL A   1      41.347  27.663  29.113  1.00  0.00     0.049 A 
ATOM     57  H   UNL A   1      43.420  27.953  29.050  1.00  0.00     0.167 HD
ATOM     58  C   UNL A   1      47.533  29.030  28.018  1.00  0.00     0.034 A 
ATOM     59  C   UNL A   1      40.852  28.794  29.676  1.00  0.00     0.034 A 
ATOM     60  C   UNL A   1      47.622  28.758  29.423  1.00  0.00     0.049 A 
ATOM     61  C   UNL A   1      41.974  29.506  30.324  1.00  0.00     0.074 A 
ATOM     62  C   UNL A   1      48.182  27.757  30.189  1.00  0.00     0.029 A 
ATOM     63  N   UNL A   1      46.791  29.449  30.268  1.00  0.00    -0.354 N 
ATOM     64  N   UNL A   1      42.592  29.075  31.387  1.00  0.00    -0.248 NA
ATOM     65  C   UNL A   1      42.699  30.477  29.521  1.00  0.00     0.031 C 
ATOM     66  C   UNL A   1      47.292  27.595  31.289  1.00  0.00     0.029 A 
ATOM     67  C   UNL A   1      46.274  28.540  31.156  1.00  0.00     0.049 A 
ATOM     68  H   UNL A   1      46.599  30.414  30.242  1.00  0.00     0.167 HD
ATOM     69  C   UNL A   1      43.927  29.352  31.141  1.00  0.00     0.074 A 
ATOM     70  C   UNL A   1      43.922  30.290  30.019  1.00  0.00     0.031 C 
ATOM     71  C   UNL A   1      44.925  28.592  31.680  1.00  0.00     0.034 A 
BRANCH  58  72
ATOM     72  C   UNL A   1      47.998  30.335  27.415  1.00  0.00     0.023 A 
ATOM     73  C   UNL A   1      47.101  31.365  27.077  1.00  0.00     0.031 A 
ATOM     74  C   UNL A   1      49.368  30.675  27.371  1.00  0.00     0.131 A 
ATOM     75  C   UNL A   1      47.549  32.634  26.688  1.00  0.00     0.055 A 
ATOM     76  C   UNL A   1      49.814  31.965  27.049  1.00  0.00     0.041 A 
ATOM     77  F   UNL A   1      50.313  29.776  27.689  1.00  0.00    -0.206 F 
ATOM     78  C   UNL A   1      48.902  32.953  26.702  1.00  0.00     0.022 A 
BRANCH  75  79
ATOM     79  S   UNL A   1      46.359  33.897  26.156  1.00  0.00     0.124 S 
ATOM     80  O   UNL A   1      46.093  34.601  27.411  1.00  0.00    -0.237 OA
ATOM     81  O   UNL A   1      47.140  34.641  25.170  1.00  0.00    -0.237 OA
ATOM     82  O   UNL A   1      45.256  33.119  25.613  1.00  0.00    -0.744 OA
ENDBRANCH  75  79
ENDBRANCH  58  72
BRANCH  59  83
ATOM     83  C   UNL A   1      39.662  29.533  29.183  1.00  0.00     0.023 A 
ATOM     84  C   UNL A   1      38.814  30.167  30.110  1.00  0.00     0.031 A 
ATOM     85  C   UNL A   1      39.169  29.346  27.879  1.00  0.00     0.131 A 
ATOM     86  C   UNL A   1      37.512  30.539  29.750  1.00  0.00     0.055 A 
ATOM     87  C   UNL A   1      37.875  29.739  27.513  1.00  0.00     0.041 A 
ATOM     88  F   UNL A   1      39.909  28.711  26.956  1.00  0.00    -0.206 F 
ATOM     89  C   UNL A   1      37.033  30.324  28.456  1.00  0.00     0.022 A 
BRANCH  86  90
ATOM     90  S   UNL A   1      36.376  31.216  30.992  1.00  0.00     0.124 S 
ATOM     91  O   UNL A   1      35.296  31.745  30.163  1.00  0.00    -0.237 OA
ATOM     92  O   UNL A   1      36.048  30.027  31.770  1.00  0.00    -0.237 OA
ATOM     93  O   UNL A   1      37.180  32.225  31.676  1.00  0.00    -0.744 OA
ENDBRANCH  86  90
ENDBRANCH  59  83
BRANCH  71  94
ATOM     94  C   UNL A   1      44.571  27.550  32.718  1.00  0.00     0.023 A 
ATOM     95  C   UNL A   1      44.639  27.935  34.068  1.00  0.00     0.031 A 
ATOM     96  C   UNL A   1      44.407  26.178  32.444  1.00  0.00     0.131 A 
ATOM     97  C   UNL A   1      44.591  26.973  35.084  1.00  0.00     0.055 A 
ATOM     98  C   UNL A   1      44.287  25.226  33.464  1.00  0.00     0.041 A 
ATOM     99  F   UNL A   1      44.442  25.704  31.193  1.00  0.00    -0.206 F 
ATOM    100  C   UNL A   1      44.397  25.620  34.792  1.00  0.00     0.022 A 
BRANCH  97 101
ATOM    101  S   UNL A   1      44.936  27.441  36.798  1.00  0.00     0.124 S 
ATOM    102  O   UNL A   1      44.772  26.174  37.503  1.00  0.00    -0.237 OA
ATOM    103  O   UNL A   1      46.309  27.937  36.713  1.00  0.00    -0.237 OA
ATOM    104  O   UNL A   1      43.933  28.457  37.098  1.00  0.00    -0.744 OA
ENDBRANCH  97 101
ENDBRANCH  71  94
ENDBRANCH  45  46
ENDBRANCH  37  40
ENDBRANCH  35  36
ENDBRANCH  34  35
ENDBRANCH  33  34
ENDBRANCH   1  33
TORSDOF 20
ENDMDL
