MODEL 1
REMARK VINA RESULT:     -12.6      0.000      0.000
REMARK SMILES CS(=O)(=O)c1ccc(/C=C(/C(=O)NCCCCCCNC(=O)c2ccc(-c3c4nc(c(-c5cc(S(=O)(=O)[O-])ccc5F)c5ccc([nH]5)c(-c5cc(S(=O)(=O)[O-])ccc5F)c5nc(c(-c6cc(S(=O)(=O)[O-])ccc6F)c6ccc3[nH]6)C=C5)C=C4)cc2)c2ccc(-c3ccc(F)cc3F)cc2)cc1
REMARK SMILES IDX 17 1 16 2 15 3 14 4 13 5 11 6 12 7 10 9 9 10 8 11 5 12 6 13
REMARK SMILES IDX 101 14 7 15 100 16 2 17 1 18 3 19 4 20 86 21 87 22 99 23
REMARK SMILES IDX 88 24 98 25 89 26 90 27 91 28 96 29 92 30 95 31 97 32 93 33
REMARK SMILES IDX 94 34 18 35 19 36 20 37 21 38 22 40 23 41 24 42 85 43 25 44
REMARK SMILES IDX 84 45 26 46 27 47 28 48 78 49 29 50 83 51 77 52 79 53 30 54
REMARK SMILES IDX 82 55 76 56 75 57 31 59 63 60 43 61 62 62 44 63 47 64 61 65
REMARK SMILES IDX 80 66 45 67 46 68 60 70 81 71 48 72 32 73 33 74 41 75 34 76
REMARK SMILES IDX 40 77 42 78 39 79 35 80 36 81 37 82 38 83 64 84 65 85 73 86
REMARK SMILES IDX 66 87 72 88 74 89 71 90 67 91 68 92 69 93 70 94 49 95 50 96
REMARK SMILES IDX 58 97 51 98 57 99 59 100 56 101 52 102 53 103 54 104 55 105
REMARK H PARENT 13 8 20 39 79 58 47 69
REMARK Flexibility Score: inf
ROOT
ATOM      1  C   UNL A   1      32.080  27.903  26.681  1.00  0.00     0.002 C 
ENDROOT
BRANCH   1   2
ATOM      2  C   UNL A   1      30.888  26.950  26.526  1.00  0.00     0.002 C 
BRANCH   2   3
ATOM      3  C   UNL A   1      31.215  25.598  25.869  1.00  0.00     0.021 C 
BRANCH   3   4
ATOM      4  C   UNL A   1      30.343  25.281  24.650  1.00  0.00     0.116 C 
BRANCH   4   5
ATOM      5  N   UNL A   1      31.083  25.551  23.434  1.00  0.00    -0.352 N 
ATOM      6  C   UNL A   1      32.136  24.963  22.812  1.00  0.00     0.251 C 
ATOM      7  O   UNL A   1      32.563  25.546  21.811  1.00  0.00    -0.269 OA
ATOM      8  H   UNL A   1      30.747  26.341  22.950  1.00  0.00     0.163 HD
BRANCH   6   9
ATOM      9  C   UNL A   1      32.725  23.632  23.223  1.00  0.00     0.047 C 
ATOM     10  C   UNL A   1      32.001  22.490  23.291  1.00  0.00     0.022 C 
BRANCH  10  11
ATOM     11  C   UNL A   1      32.457  21.110  23.577  1.00  0.00    -0.025 A 
ATOM     12  C   UNL A   1      33.363  18.472  23.924  1.00  0.00     0.067 A 
ATOM     13  C   UNL A   1      33.627  19.432  24.901  1.00  0.00     0.021 A 
ATOM     14  C   UNL A   1      32.602  18.797  22.802  1.00  0.00     0.021 A 
ATOM     15  C   UNL A   1      33.158  20.739  24.734  1.00  0.00     0.009 A 
ATOM     16  C   UNL A   1      32.157  20.113  22.633  1.00  0.00     0.009 A 
BRANCH  12  17
ATOM     17  S   UNL A   1      33.972  16.817  24.143  1.00  0.00     0.175 S 
ATOM     18  C   UNL A   1      32.684  16.014  25.063  1.00  0.00     0.163 C 
ATOM     19  O   UNL A   1      35.143  16.876  24.989  1.00  0.00    -0.224 OA
ATOM     20  O   UNL A   1      34.026  16.206  22.825  1.00  0.00    -0.224 OA
ENDBRANCH  12  17
ENDBRANCH  10  11
BRANCH   9  21
ATOM     21  C   UNL A   1      34.108  23.662  23.761  1.00  0.00    -0.013 A 
ATOM     22  C   UNL A   1      34.283  24.055  25.095  1.00  0.00     0.009 A 
ATOM     23  C   UNL A   1      35.217  23.211  23.040  1.00  0.00     0.009 A 
ATOM     24  C   UNL A   1      35.521  23.921  25.720  1.00  0.00     0.009 A 
ATOM     25  C   UNL A   1      36.457  23.063  23.678  1.00  0.00     0.009 A 
ATOM     26  C   UNL A   1      36.620  23.374  25.040  1.00  0.00    -0.015 A 
BRANCH  26  27
ATOM     27  C   UNL A   1      37.866  23.073  25.772  1.00  0.00     0.018 A 
ATOM     28  C   UNL A   1      38.479  24.074  26.556  1.00  0.00     0.015 A 
ATOM     29  C   UNL A   1      38.481  21.812  25.742  1.00  0.00     0.133 A 
ATOM     30  C   UNL A   1      39.656  23.823  27.263  1.00  0.00     0.040 A 
ATOM     31  C   UNL A   1      39.655  21.552  26.446  1.00  0.00     0.079 A 
ATOM     32  F   UNL A   1      37.950  20.814  25.018  1.00  0.00    -0.206 F 
ATOM     33  C   UNL A   1      40.233  22.563  27.199  1.00  0.00     0.126 A 
ATOM     34  F   UNL A   1      41.361  22.320  27.878  1.00  0.00    -0.207 F 
ENDBRANCH  26  27
ENDBRANCH   9  21
ENDBRANCH   6   9
ENDBRANCH   4   5
ENDBRANCH   3   4
ENDBRANCH   2   3
ENDBRANCH   1   2
BRANCH   1  35
ATOM     35  C   UNL A   1      33.225  27.676  25.692  1.00  0.00     0.021 C 
BRANCH  35  36
ATOM     36  C   UNL A   1      34.246  28.808  25.633  1.00  0.00     0.116 C 
BRANCH  36  37
ATOM     37  N   UNL A   1      33.680  30.071  26.079  1.00  0.00    -0.352 N 
ATOM     38  C   UNL A   1      34.000  30.818  27.186  1.00  0.00     0.251 C 
ATOM     39  H   UNL A   1      32.969  30.441  25.508  1.00  0.00     0.163 HD
ATOM     40  O   UNL A   1      33.274  31.747  27.525  1.00  0.00    -0.269 OA
BRANCH  38  41
ATOM     41  C   UNL A   1      35.207  30.485  27.975  1.00  0.00     0.039 A 
ATOM     42  C   UNL A   1      36.412  31.123  27.670  1.00  0.00     0.014 A 
ATOM     43  C   UNL A   1      35.154  29.537  29.001  1.00  0.00     0.014 A 
ATOM     44  C   UNL A   1      37.554  30.848  28.428  1.00  0.00     0.010 A 
ATOM     45  C   UNL A   1      36.278  29.308  29.794  1.00  0.00     0.010 A 
ATOM     46  C   UNL A   1      37.489  29.957  29.511  1.00  0.00    -0.014 A 
BRANCH  46  47
ATOM     47  C   UNL A   1      38.684  29.675  30.349  1.00  0.00     0.031 A 
ATOM     48  C   UNL A   1      38.822  30.320  31.701  1.00  0.00     0.074 A 
ATOM     49  C   UNL A   1      39.670  28.893  29.867  1.00  0.00     0.049 A 
ATOM     50  N   UNL A   1      39.820  30.271  32.546  1.00  0.00    -0.248 NA
ATOM     51  C   UNL A   1      37.698  31.158  32.145  1.00  0.00     0.031 C 
ATOM     52  C   UNL A   1      39.668  28.243  28.555  1.00  0.00     0.029 A 
ATOM     53  N   UNL A   1      40.869  28.520  30.419  1.00  0.00    -0.354 N 
ATOM     54  C   UNL A   1      39.453  31.082  33.615  1.00  0.00     0.074 A 
ATOM     55  C   UNL A   1      38.165  31.654  33.280  1.00  0.00     0.031 C 
ATOM     56  C   UNL A   1      40.803  27.542  28.409  1.00  0.00     0.029 A 
ATOM     57  C   UNL A   1      41.631  27.720  29.599  1.00  0.00     0.049 A 
ATOM     58  H   UNL A   1      41.159  28.800  31.317  1.00  0.00     0.167 HD
ATOM     59  C   UNL A   1      40.118  31.312  34.774  1.00  0.00     0.034 A 
ATOM     60  C   UNL A   1      42.860  27.199  29.781  1.00  0.00     0.034 A 
ATOM     61  C   UNL A   1      41.393  30.720  35.099  1.00  0.00     0.049 A 
ATOM     62  C   UNL A   1      43.584  27.470  31.075  1.00  0.00     0.074 A 
ATOM     63  C   UNL A   1      42.130  30.837  36.265  1.00  0.00     0.029 A 
ATOM     64  N   UNL A   1      42.127  29.900  34.250  1.00  0.00    -0.354 N 
ATOM     65  N   UNL A   1      43.202  28.202  32.096  1.00  0.00    -0.248 NA
ATOM     66  C   UNL A   1      44.896  26.835  31.246  1.00  0.00     0.031 C 
ATOM     67  C   UNL A   1      43.330  30.136  36.101  1.00  0.00     0.029 A 
ATOM     68  C   UNL A   1      43.315  29.526  34.857  1.00  0.00     0.049 A 
ATOM     69  H   UNL A   1      41.843  29.624  33.348  1.00  0.00     0.167 HD
ATOM     70  C   UNL A   1      44.217  28.091  33.042  1.00  0.00     0.074 A 
ATOM     71  C   UNL A   1      45.219  27.213  32.473  1.00  0.00     0.031 C 
ATOM     72  C   UNL A   1      44.310  28.658  34.271  1.00  0.00     0.034 A 
BRANCH  59  73
ATOM     73  C   UNL A   1      39.483  32.264  35.759  1.00  0.00     0.023 A 
ATOM     74  C   UNL A   1      39.879  33.610  35.846  1.00  0.00     0.031 A 
ATOM     75  C   UNL A   1      38.493  31.812  36.651  1.00  0.00     0.131 A 
ATOM     76  C   UNL A   1      39.352  34.433  36.852  1.00  0.00     0.055 A 
ATOM     77  C   UNL A   1      37.912  32.659  37.597  1.00  0.00     0.041 A 
ATOM     78  F   UNL A   1      38.086  30.533  36.629  1.00  0.00    -0.206 F 
ATOM     79  C   UNL A   1      38.353  33.975  37.712  1.00  0.00     0.022 A 
BRANCH  76  80
ATOM     80  S   UNL A   1      40.097  36.067  37.112  1.00  0.00     0.124 S 
ATOM     81  O   UNL A   1      39.910  36.687  35.803  1.00  0.00    -0.237 OA
ATOM     82  O   UNL A   1      39.293  36.611  38.200  1.00  0.00    -0.237 OA
ATOM     83  O   UNL A   1      41.484  35.759  37.455  1.00  0.00    -0.744 OA
ENDBRANCH  76  80
ENDBRANCH  59  73
BRANCH  60  84
ATOM     84  C   UNL A   1      43.493  26.373  28.714  1.00  0.00     0.023 A 
ATOM     85  C   UNL A   1      44.344  26.953  27.762  1.00  0.00     0.031 A 
ATOM     86  C   UNL A   1      43.227  24.997  28.614  1.00  0.00     0.131 A 
ATOM     87  C   UNL A   1      44.867  26.168  26.722  1.00  0.00     0.055 A 
ATOM     88  C   UNL A   1      43.786  24.211  27.605  1.00  0.00     0.041 A 
ATOM     89  F   UNL A   1      42.428  24.392  29.507  1.00  0.00    -0.206 F 
ATOM     90  C   UNL A   1      44.603  24.799  26.644  1.00  0.00     0.022 A 
BRANCH  87  91
ATOM     91  S   UNL A   1      45.845  26.980  25.429  1.00  0.00     0.124 S 
ATOM     92  O   UNL A   1      44.846  27.827  24.787  1.00  0.00    -0.237 OA
ATOM     93  O   UNL A   1      46.866  27.670  26.211  1.00  0.00    -0.237 OA
ATOM     94  O   UNL A   1      46.331  25.864  24.620  1.00  0.00    -0.744 OA
ENDBRANCH  87  91
ENDBRANCH  60  84
BRANCH  72  95
ATOM     95  C   UNL A   1      45.520  28.302  35.097  1.00  0.00     0.023 A 
ATOM     96  C   UNL A   1      45.579  27.117  35.851  1.00  0.00     0.031 A 
ATOM     97  C   UNL A   1      46.626  29.171  35.138  1.00  0.00     0.131 A 
ATOM     98  C   UNL A   1      46.700  26.857  36.653  1.00  0.00     0.055 A 
ATOM     99  C   UNL A   1      47.759  28.881  35.898  1.00  0.00     0.041 A 
ATOM    100  F   UNL A   1      46.620  30.316  34.437  1.00  0.00    -0.206 F 
ATOM    101  C   UNL A   1      47.796  27.723  36.671  1.00  0.00     0.022 A 
BRANCH  98 102
ATOM    102  S   UNL A   1      46.675  25.406  37.742  1.00  0.00     0.124 S 
ATOM    103  O   UNL A   1      46.954  25.999  39.046  1.00  0.00    -0.237 OA
ATOM    104  O   UNL A   1      45.320  24.895  37.551  1.00  0.00    -0.237 OA
ATOM    105  O   UNL A   1      47.736  24.555  37.207  1.00  0.00    -0.744 OA
ENDBRANCH  98 102
ENDBRANCH  72  95
ENDBRANCH  46  47
ENDBRANCH  38  41
ENDBRANCH  36  37
ENDBRANCH  35  36
ENDBRANCH   1  35
TORSDOF 20
ENDMDL
MODEL 2
REMARK VINA RESULT:     -12.6      1.823      2.141
REMARK SMILES CS(=O)(=O)c1ccc(/C=C(/C(=O)NCCCCCCNC(=O)c2ccc(-c3c4nc(c(-c5cc(S(=O)(=O)[O-])ccc5F)c5ccc([nH]5)c(-c5cc(S(=O)(=O)[O-])ccc5F)c5nc(c(-c6cc(S(=O)(=O)[O-])ccc6F)c6ccc3[nH]6)C=C5)C=C4)cc2)c2ccc(-c3ccc(F)cc3F)cc2)cc1
REMARK SMILES IDX 17 1 16 2 15 3 14 4 13 5 11 6 12 7 10 9 9 10 8 11 5 12 6 13
REMARK SMILES IDX 101 14 7 15 100 16 2 17 1 18 3 19 4 20 86 21 87 22 99 23
REMARK SMILES IDX 88 24 98 25 89 26 90 27 91 28 96 29 92 30 95 31 97 32 93 33
REMARK SMILES IDX 94 34 18 35 19 36 20 37 21 38 22 40 23 41 24 42 85 43 25 44
REMARK SMILES IDX 84 45 26 46 27 47 28 48 78 49 29 50 83 51 77 52 79 53 30 54
REMARK SMILES IDX 82 55 76 56 75 57 31 59 63 60 43 61 62 62 44 63 47 64 61 65
REMARK SMILES IDX 80 66 45 67 46 68 60 70 81 71 48 72 32 73 33 74 41 75 34 76
REMARK SMILES IDX 40 77 42 78 39 79 35 80 36 81 37 82 38 83 64 84 65 85 73 86
REMARK SMILES IDX 66 87 72 88 74 89 71 90 67 91 68 92 69 93 70 94 49 95 50 96
REMARK SMILES IDX 58 97 51 98 57 99 59 100 56 101 52 102 53 103 54 104 55 105
REMARK H PARENT 13 8 20 39 79 58 47 69
REMARK Flexibility Score: inf
ROOT
ATOM      1  C   UNL A   1      32.211  27.684  26.692  1.00  0.00     0.002 C 
ENDROOT
BRANCH   1   2
ATOM      2  C   UNL A   1      31.015  27.123  25.912  1.00  0.00     0.002 C 
BRANCH   2   3
ATOM      3  C   UNL A   1      31.099  25.624  25.580  1.00  0.00     0.021 C 
BRANCH   3   4
ATOM      4  C   UNL A   1      30.343  25.234  24.306  1.00  0.00     0.116 C 
BRANCH   4   5
ATOM      5  N   UNL A   1      31.164  25.512  23.144  1.00  0.00    -0.352 N 
ATOM      6  C   UNL A   1      32.271  24.942  22.605  1.00  0.00     0.251 C 
ATOM      7  O   UNL A   1      32.757  25.527  21.633  1.00  0.00    -0.269 OA
ATOM      8  H   UNL A   1      30.847  26.290  22.630  1.00  0.00     0.163 HD
BRANCH   6   9
ATOM      9  C   UNL A   1      32.857  23.627  23.070  1.00  0.00     0.047 C 
ATOM     10  C   UNL A   1      32.138  22.482  23.149  1.00  0.00     0.022 C 
BRANCH  10  11
ATOM     11  C   UNL A   1      32.596  21.114  23.486  1.00  0.00    -0.025 A 
ATOM     12  C   UNL A   1      33.477  18.482  23.928  1.00  0.00     0.067 A 
ATOM     13  C   UNL A   1      33.885  19.505  24.784  1.00  0.00     0.021 A 
ATOM     14  C   UNL A   1      32.587  18.744  22.887  1.00  0.00     0.021 A 
ATOM     15  C   UNL A   1      33.429  20.810  24.572  1.00  0.00     0.009 A 
ATOM     16  C   UNL A   1      32.154  20.058  22.670  1.00  0.00     0.009 A 
BRANCH  12  17
ATOM     17  S   UNL A   1      34.070  16.830  24.202  1.00  0.00     0.175 S 
ATOM     18  C   UNL A   1      32.797  16.084  25.189  1.00  0.00     0.163 C 
ATOM     19  O   UNL A   1      35.264  16.908  25.014  1.00  0.00    -0.224 OA
ATOM     20  O   UNL A   1      34.081  16.162  22.910  1.00  0.00    -0.224 OA
ENDBRANCH  12  17
ENDBRANCH  10  11
BRANCH   9  21
ATOM     21  C   UNL A   1      34.224  23.682  23.646  1.00  0.00    -0.013 A 
ATOM     22  C   UNL A   1      34.362  24.149  24.960  1.00  0.00     0.009 A 
ATOM     23  C   UNL A   1      35.351  23.186  22.985  1.00  0.00     0.009 A 
ATOM     24  C   UNL A   1      35.580  24.046  25.629  1.00  0.00     0.009 A 
ATOM     25  C   UNL A   1      36.571  23.070  23.667  1.00  0.00     0.009 A 
ATOM     26  C   UNL A   1      36.695  23.457  25.013  1.00  0.00    -0.015 A 
BRANCH  26  27
ATOM     27  C   UNL A   1      37.917  23.192  25.797  1.00  0.00     0.018 A 
ATOM     28  C   UNL A   1      38.492  24.224  26.571  1.00  0.00     0.015 A 
ATOM     29  C   UNL A   1      38.546  21.938  25.829  1.00  0.00     0.133 A 
ATOM     30  C   UNL A   1      39.646  24.009  27.326  1.00  0.00     0.040 A 
ATOM     31  C   UNL A   1      39.697  21.713  26.583  1.00  0.00     0.079 A 
ATOM     32  F   UNL A   1      38.051  20.912  25.119  1.00  0.00    -0.206 F 
ATOM     33  C   UNL A   1      40.237  22.754  27.322  1.00  0.00     0.126 A 
ATOM     34  F   UNL A   1      41.343  22.546  28.048  1.00  0.00    -0.207 F 
ENDBRANCH  26  27
ENDBRANCH   9  21
ENDBRANCH   6   9
ENDBRANCH   4   5
ENDBRANCH   3   4
ENDBRANCH   2   3
ENDBRANCH   1   2
BRANCH   1  35
ATOM     35  C   UNL A   1      33.561  27.572  25.979  1.00  0.00     0.021 C 
BRANCH  35  36
ATOM     36  C   UNL A   1      34.082  28.882  25.397  1.00  0.00     0.116 C 
BRANCH  36  37
ATOM     37  N   UNL A   1      33.413  30.035  25.977  1.00  0.00    -0.352 N 
ATOM     38  C   UNL A   1      33.759  30.764  27.089  1.00  0.00     0.251 C 
ATOM     39  H   UNL A   1      32.601  30.334  25.509  1.00  0.00     0.163 HD
ATOM     40  O   UNL A   1      32.963  31.571  27.560  1.00  0.00    -0.269 OA
BRANCH  38  41
ATOM     41  C   UNL A   1      35.079  30.557  27.724  1.00  0.00     0.039 A 
ATOM     42  C   UNL A   1      36.007  31.602  27.713  1.00  0.00     0.014 A 
ATOM     43  C   UNL A   1      35.407  29.334  28.315  1.00  0.00     0.014 A 
ATOM     44  C   UNL A   1      37.245  31.438  28.339  1.00  0.00     0.010 A 
ATOM     45  C   UNL A   1      36.618  29.191  28.991  1.00  0.00     0.010 A 
ATOM     46  C   UNL A   1      37.551  30.239  29.004  1.00  0.00    -0.014 A 
BRANCH  46  47
ATOM     47  C   UNL A   1      38.849  30.056  29.704  1.00  0.00     0.031 A 
ATOM     48  C   UNL A   1      39.066  30.673  31.058  1.00  0.00     0.074 A 
ATOM     49  C   UNL A   1      39.850  29.391  29.094  1.00  0.00     0.049 A 
ATOM     50  N   UNL A   1      40.147  30.701  31.794  1.00  0.00    -0.248 NA
ATOM     51  C   UNL A   1      37.919  31.380  31.647  1.00  0.00     0.031 C 
ATOM     52  C   UNL A   1      39.772  28.781  27.764  1.00  0.00     0.029 A 
ATOM     53  N   UNL A   1      41.131  29.125  29.505  1.00  0.00    -0.354 N 
ATOM     54  C   UNL A   1      39.819  31.440  32.925  1.00  0.00     0.074 A 
ATOM     55  C   UNL A   1      38.453  31.889  32.747  1.00  0.00     0.031 C 
ATOM     56  C   UNL A   1      40.948  28.202  27.476  1.00  0.00     0.029 A 
ATOM     57  C   UNL A   1      41.876  28.429  28.581  1.00  0.00     0.049 A 
ATOM     58  H   UNL A   1      41.485  29.407  30.379  1.00  0.00     0.167 HD
ATOM     59  C   UNL A   1      40.577  31.703  34.018  1.00  0.00     0.034 A 
ATOM     60  C   UNL A   1      43.162  28.029  28.616  1.00  0.00     0.034 A 
ATOM     61  C   UNL A   1      41.931  31.234  34.187  1.00  0.00     0.049 A 
ATOM     62  C   UNL A   1      43.989  28.336  29.838  1.00  0.00     0.074 A 
ATOM     63  C   UNL A   1      42.772  31.392  35.276  1.00  0.00     0.029 A 
ATOM     64  N   UNL A   1      42.647  30.516  33.237  1.00  0.00    -0.354 N 
ATOM     65  N   UNL A   1      43.648  28.997  30.920  1.00  0.00    -0.248 NA
ATOM     66  C   UNL A   1      45.367  27.831  29.849  1.00  0.00     0.031 C 
ATOM     67  C   UNL A   1      44.011  30.820  34.963  1.00  0.00     0.029 A 
ATOM     68  C   UNL A   1      43.924  30.247  33.704  1.00  0.00     0.049 A 
ATOM     69  H   UNL A   1      42.297  30.238  32.359  1.00  0.00     0.167 HD
ATOM     70  C   UNL A   1      44.764  28.961  31.753  1.00  0.00     0.074 A 
ATOM     71  C   UNL A   1      45.780  28.205  31.051  1.00  0.00     0.031 C 
ATOM     72  C   UNL A   1      44.930  29.500  32.987  1.00  0.00     0.034 A 
BRANCH  59  73
ATOM     73  C   UNL A   1      39.960  32.559  35.099  1.00  0.00     0.023 A 
ATOM     74  C   UNL A   1      39.284  31.991  36.194  1.00  0.00     0.031 A 
ATOM     75  C   UNL A   1      40.015  33.962  35.017  1.00  0.00     0.131 A 
ATOM     76  C   UNL A   1      38.621  32.816  37.113  1.00  0.00     0.055 A 
ATOM     77  C   UNL A   1      39.424  34.779  35.982  1.00  0.00     0.041 A 
ATOM     78  F   UNL A   1      40.631  34.562  33.987  1.00  0.00    -0.206 F 
ATOM     79  C   UNL A   1      38.707  34.207  37.030  1.00  0.00     0.022 A 
BRANCH  76  80
ATOM     80  S   UNL A   1      37.525  32.044  38.335  1.00  0.00     0.124 S 
ATOM     81  O   UNL A   1      38.324  32.146  39.553  1.00  0.00    -0.237 OA
ATOM     82  O   UNL A   1      36.339  32.891  38.276  1.00  0.00    -0.237 OA
ATOM     83  O   UNL A   1      37.348  30.686  37.826  1.00  0.00    -0.744 OA
ENDBRANCH  76  80
ENDBRANCH  59  73
BRANCH  60  84
ATOM     84  C   UNL A   1      43.756  27.301  27.459  1.00  0.00     0.023 A 
ATOM     85  C   UNL A   1      43.750  25.899  27.409  1.00  0.00     0.031 A 
ATOM     86  C   UNL A   1      44.367  27.999  26.404  1.00  0.00     0.131 A 
ATOM     87  C   UNL A   1      44.383  25.236  26.346  1.00  0.00     0.055 A 
ATOM     88  C   UNL A   1      44.955  27.336  25.325  1.00  0.00     0.041 A 
ATOM     89  F   UNL A   1      44.390  29.341  26.400  1.00  0.00    -0.206 F 
ATOM     90  C   UNL A   1      44.976  25.944  25.299  1.00  0.00     0.022 A 
BRANCH  87  91
ATOM     91  S   UNL A   1      44.481  23.426  26.388  1.00  0.00     0.124 S 
ATOM     92  O   UNL A   1      45.797  23.184  25.805  1.00  0.00    -0.237 OA
ATOM     93  O   UNL A   1      44.350  23.149  27.815  1.00  0.00    -0.237 OA
ATOM     94  O   UNL A   1      43.348  23.004  25.567  1.00  0.00    -0.744 OA
ENDBRANCH  87  91
ENDBRANCH  60  84
BRANCH  72  95
ATOM     95  C   UNL A   1      46.250  29.245  33.670  1.00  0.00     0.023 A 
ATOM     96  C   UNL A   1      46.450  28.126  34.497  1.00  0.00     0.031 A 
ATOM     97  C   UNL A   1      47.318  30.144  33.498  1.00  0.00     0.131 A 
ATOM     98  C   UNL A   1      47.675  27.962  35.162  1.00  0.00     0.055 A 
ATOM     99  C   UNL A   1      48.550  29.947  34.121  1.00  0.00     0.041 A 
ATOM    100  F   UNL A   1      47.178  31.228  32.719  1.00  0.00    -0.206 F 
ATOM    101  C   UNL A   1      48.730  28.857  34.969  1.00  0.00     0.022 A 
BRANCH  98 102
ATOM    102  S   UNL A   1      47.845  26.603  36.352  1.00  0.00     0.124 S 
ATOM    103  O   UNL A   1      46.948  25.596  35.794  1.00  0.00    -0.237 OA
ATOM    104  O   UNL A   1      49.271  26.298  36.275  1.00  0.00    -0.237 OA
ATOM    105  O   UNL A   1      47.407  27.193  37.614  1.00  0.00    -0.744 OA
ENDBRANCH  98 102
ENDBRANCH  72  95
ENDBRANCH  46  47
ENDBRANCH  38  41
ENDBRANCH  36  37
ENDBRANCH  35  36
ENDBRANCH   1  35
TORSDOF 20
ENDMDL
MODEL 3
REMARK VINA RESULT:     -12.2      1.481      7.179
REMARK SMILES CS(=O)(=O)c1ccc(/C=C(/C(=O)NCCCCCCNC(=O)c2ccc(-c3c4nc(c(-c5cc(S(=O)(=O)[O-])ccc5F)c5ccc([nH]5)c(-c5cc(S(=O)(=O)[O-])ccc5F)c5nc(c(-c6cc(S(=O)(=O)[O-])ccc6F)c6ccc3[nH]6)C=C5)C=C4)cc2)c2ccc(-c3ccc(F)cc3F)cc2)cc1
REMARK SMILES IDX 17 1 16 2 15 3 14 4 13 5 11 6 12 7 10 9 9 10 8 11 5 12 6 13
REMARK SMILES IDX 101 14 7 15 100 16 2 17 1 18 3 19 4 20 86 21 87 22 99 23
REMARK SMILES IDX 88 24 98 25 89 26 90 27 91 28 96 29 92 30 95 31 97 32 93 33
REMARK SMILES IDX 94 34 18 35 19 36 20 37 21 38 22 40 23 41 24 42 85 43 25 44
REMARK SMILES IDX 84 45 26 46 27 47 28 48 78 49 29 50 83 51 77 52 79 53 30 54
REMARK SMILES IDX 82 55 76 56 75 57 31 59 63 60 43 61 62 62 44 63 47 64 61 65
REMARK SMILES IDX 80 66 45 67 46 68 60 70 81 71 48 72 32 73 33 74 41 75 34 76
REMARK SMILES IDX 40 77 42 78 39 79 35 80 36 81 37 82 38 83 64 84 65 85 73 86
REMARK SMILES IDX 66 87 72 88 74 89 71 90 67 91 68 92 69 93 70 94 49 95 50 96
REMARK SMILES IDX 58 97 51 98 57 99 59 100 56 101 52 102 53 103 54 104 55 105
REMARK H PARENT 13 8 20 39 79 58 47 69
REMARK Flexibility Score: inf
ROOT
ATOM      1  C   UNL A   1      32.282  27.904  26.902  1.00  0.00     0.002 C 
ENDROOT
BRANCH   1   2
ATOM      2  C   UNL A   1      31.036  27.138  26.438  1.00  0.00     0.002 C 
BRANCH   2   3
ATOM      3  C   UNL A   1      31.295  25.697  25.967  1.00  0.00     0.021 C 
BRANCH   3   4
ATOM      4  C   UNL A   1      30.430  25.277  24.775  1.00  0.00     0.116 C 
BRANCH   4   5
ATOM      5  N   UNL A   1      31.134  25.548  23.538  1.00  0.00    -0.352 N 
ATOM      6  C   UNL A   1      32.148  24.944  22.870  1.00  0.00     0.251 C 
ATOM      7  O   UNL A   1      32.555  25.534  21.864  1.00  0.00    -0.269 OA
ATOM      8  H   UNL A   1      30.802  26.354  23.079  1.00  0.00     0.163 HD
BRANCH   6   9
ATOM      9  C   UNL A   1      32.716  23.592  23.238  1.00  0.00     0.047 C 
ATOM     10  C   UNL A   1      31.968  22.465  23.297  1.00  0.00     0.022 C 
BRANCH  10  11
ATOM     11  C   UNL A   1      32.399  21.069  23.543  1.00  0.00    -0.025 A 
ATOM     12  C   UNL A   1      33.258  18.406  23.811  1.00  0.00     0.067 A 
ATOM     13  C   UNL A   1      33.536  19.331  24.818  1.00  0.00     0.021 A 
ATOM     14  C   UNL A   1      32.506  18.778  22.697  1.00  0.00     0.021 A 
ATOM     15  C   UNL A   1      33.090  20.651  24.689  1.00  0.00     0.009 A 
ATOM     16  C   UNL A   1      32.084  20.107  22.567  1.00  0.00     0.009 A 
BRANCH  12  17
ATOM     17  S   UNL A   1      33.837  16.735  23.981  1.00  0.00     0.175 S 
ATOM     18  C   UNL A   1      35.277  16.891  25.007  1.00  0.00     0.163 C 
ATOM     19  O   UNL A   1      34.272  16.274  22.682  1.00  0.00    -0.224 OA
ATOM     20  O   UNL A   1      32.828  16.010  24.737  1.00  0.00    -0.224 OA
ENDBRANCH  12  17
ENDBRANCH  10  11
BRANCH   9  21
ATOM     21  C   UNL A   1      34.111  23.579  23.745  1.00  0.00    -0.013 A 
ATOM     22  C   UNL A   1      34.337  24.023  25.054  1.00  0.00     0.009 A 
ATOM     23  C   UNL A   1      35.181  23.042  23.021  1.00  0.00     0.009 A 
ATOM     24  C   UNL A   1      35.581  23.857  25.659  1.00  0.00     0.009 A 
ATOM     25  C   UNL A   1      36.427  22.863  23.639  1.00  0.00     0.009 A 
ATOM     26  C   UNL A   1      36.636  23.227  24.982  1.00  0.00    -0.015 A 
BRANCH  26  27
ATOM     27  C   UNL A   1      37.883  22.899  25.700  1.00  0.00     0.018 A 
ATOM     28  C   UNL A   1      38.516  23.882  26.492  1.00  0.00     0.015 A 
ATOM     29  C   UNL A   1      38.480  21.630  25.650  1.00  0.00     0.133 A 
ATOM     30  C   UNL A   1      39.695  23.605  27.187  1.00  0.00     0.040 A 
ATOM     31  C   UNL A   1      39.656  21.344  26.342  1.00  0.00     0.079 A 
ATOM     32  F   UNL A   1      37.929  20.649  24.918  1.00  0.00    -0.206 F 
ATOM     33  C   UNL A   1      40.253  22.338  27.102  1.00  0.00     0.126 A 
ATOM     34  F   UNL A   1      41.383  22.071  27.770  1.00  0.00    -0.207 F 
ENDBRANCH  26  27
ENDBRANCH   9  21
ENDBRANCH   6   9
ENDBRANCH   4   5
ENDBRANCH   3   4
ENDBRANCH   2   3
ENDBRANCH   1   2
BRANCH   1  35
ATOM     35  C   UNL A   1      33.577  27.538  26.174  1.00  0.00     0.021 C 
BRANCH  35  36
ATOM     36  C   UNL A   1      34.534  28.706  25.957  1.00  0.00     0.116 C 
BRANCH  36  37
ATOM     37  N   UNL A   1      33.878  29.988  26.159  1.00  0.00    -0.352 N 
ATOM     38  C   UNL A   1      34.093  30.922  27.143  1.00  0.00     0.251 C 
ATOM     39  H   UNL A   1      33.184  30.217  25.500  1.00  0.00     0.163 HD
ATOM     40  O   UNL A   1      33.301  31.849  27.286  1.00  0.00    -0.269 OA
BRANCH  38  41
ATOM     41  C   UNL A   1      35.266  30.795  28.036  1.00  0.00     0.039 A 
ATOM     42  C   UNL A   1      35.398  29.646  28.821  1.00  0.00     0.014 A 
ATOM     43  C   UNL A   1      36.224  31.810  28.110  1.00  0.00     0.014 A 
ATOM     44  C   UNL A   1      36.518  29.492  29.643  1.00  0.00     0.010 A 
ATOM     45  C   UNL A   1      37.369  31.629  28.884  1.00  0.00     0.010 A 
ATOM     46  C   UNL A   1      37.524  30.471  29.662  1.00  0.00    -0.014 A 
BRANCH  46  47
ATOM     47  C   UNL A   1      38.738  30.311  30.505  1.00  0.00     0.031 A 
ATOM     48  C   UNL A   1      39.885  29.469  30.017  1.00  0.00     0.074 A 
ATOM     49  C   UNL A   1      38.780  30.870  31.730  1.00  0.00     0.049 A 
ATOM     50  N   UNL A   1      40.991  29.138  30.632  1.00  0.00    -0.248 NA
ATOM     51  C   UNL A   1      39.752  28.899  28.668  1.00  0.00     0.031 C 
ATOM     52  C   UNL A   1      37.713  31.677  32.328  1.00  0.00     0.029 A 
ATOM     53  N   UNL A   1      39.752  30.837  32.698  1.00  0.00    -0.354 N 
ATOM     54  C   UNL A   1      41.680  28.308  29.754  1.00  0.00     0.074 A 
ATOM     55  C   UNL A   1      40.836  28.143  28.588  1.00  0.00     0.031 C 
ATOM     56  C   UNL A   1      38.095  32.072  33.553  1.00  0.00     0.029 A 
ATOM     57  C   UNL A   1      39.415  31.519  33.844  1.00  0.00     0.049 A 
ATOM     58  H   UNL A   1      40.609  30.368  32.583  1.00  0.00     0.167 HD
ATOM     59  C   UNL A   1      42.909  27.752  29.898  1.00  0.00     0.034 A 
ATOM     60  C   UNL A   1      40.088  31.671  35.002  1.00  0.00     0.034 A 
ATOM     61  C   UNL A   1      43.743  27.940  31.059  1.00  0.00     0.049 A 
ATOM     62  C   UNL A   1      41.450  31.042  35.142  1.00  0.00     0.074 A 
ATOM     63  C   UNL A   1      45.027  27.472  31.287  1.00  0.00     0.029 A 
ATOM     64  N   UNL A   1      43.376  28.652  32.195  1.00  0.00    -0.354 N 
ATOM     65  N   UNL A   1      42.108  30.298  34.283  1.00  0.00    -0.248 NA
ATOM     66  C   UNL A   1      42.165  31.283  36.401  1.00  0.00     0.031 C 
ATOM     67  C   UNL A   1      45.411  27.853  32.579  1.00  0.00     0.029 A 
ATOM     68  C   UNL A   1      44.395  28.615  33.133  1.00  0.00     0.049 A 
ATOM     69  H   UNL A   1      42.515  29.117  32.315  1.00  0.00     0.167 HD
ATOM     70  C   UNL A   1      43.327  30.007  34.890  1.00  0.00     0.074 A 
ATOM     71  C   UNL A   1      43.315  30.665  36.180  1.00  0.00     0.031 C 
ATOM     72  C   UNL A   1      44.364  29.268  34.420  1.00  0.00     0.034 A 
BRANCH  59  73
ATOM     73  C   UNL A   1      43.404  26.869  28.777  1.00  0.00     0.023 A 
ATOM     74  C   UNL A   1      44.438  27.278  27.917  1.00  0.00     0.031 A 
ATOM     75  C   UNL A   1      42.811  25.616  28.541  1.00  0.00     0.131 A 
ATOM     76  C   UNL A   1      44.790  26.484  26.816  1.00  0.00     0.055 A 
ATOM     77  C   UNL A   1      43.223  24.792  27.491  1.00  0.00     0.041 A 
ATOM     78  F   UNL A   1      41.807  25.178  29.317  1.00  0.00    -0.206 F 
ATOM     79  C   UNL A   1      44.207  25.232  26.610  1.00  0.00     0.022 A 
BRANCH  76  80
ATOM     80  S   UNL A   1      45.916  27.178  25.574  1.00  0.00     0.124 S 
ATOM     81  O   UNL A   1      45.827  26.183  24.508  1.00  0.00    -0.237 OA
ATOM     82  O   UNL A   1      45.314  28.475  25.290  1.00  0.00    -0.237 OA
ATOM     83  O   UNL A   1      47.202  27.225  26.266  1.00  0.00    -0.744 OA
ENDBRANCH  76  80
ENDBRANCH  59  73
BRANCH  60  84
ATOM     84  C   UNL A   1      39.488  32.446  36.124  1.00  0.00     0.023 A 
ATOM     85  C   UNL A   1      38.681  31.818  37.085  1.00  0.00     0.031 A 
ATOM     86  C   UNL A   1      39.688  33.833  36.232  1.00  0.00     0.131 A 
ATOM     87  C   UNL A   1      38.067  32.582  38.089  1.00  0.00     0.055 A 
ATOM     88  C   UNL A   1      39.111  34.582  37.259  1.00  0.00     0.041 A 
ATOM     89  F   UNL A   1      40.460  34.479  35.344  1.00  0.00    -0.206 F 
ATOM     90  C   UNL A   1      38.285  33.958  38.189  1.00  0.00     0.022 A 
BRANCH  87  91
ATOM     91  S   UNL A   1      36.918  31.760  39.226  1.00  0.00     0.124 S 
ATOM     92  O   UNL A   1      37.601  31.916  40.506  1.00  0.00    -0.237 OA
ATOM     93  O   UNL A   1      35.702  32.547  39.047  1.00  0.00    -0.237 OA
ATOM     94  O   UNL A   1      36.854  30.393  38.715  1.00  0.00    -0.744 OA
ENDBRANCH  87  91
ENDBRANCH  60  84
BRANCH  72  95
ATOM     95  C   UNL A   1      45.587  29.177  35.296  1.00  0.00     0.023 A 
ATOM     96  C   UNL A   1      45.738  28.158  36.252  1.00  0.00     0.031 A 
ATOM     97  C   UNL A   1      46.611  30.135  35.180  1.00  0.00     0.131 A 
ATOM     98  C   UNL A   1      46.864  28.147  37.089  1.00  0.00     0.055 A 
ATOM     99  C   UNL A   1      47.753  30.089  35.979  1.00  0.00     0.041 A 
ATOM    100  F   UNL A   1      46.516  31.130  34.283  1.00  0.00    -0.206 F 
ATOM    101  C   UNL A   1      47.879  29.097  36.949  1.00  0.00     0.022 A 
BRANCH  98 102
ATOM    102  S   UNL A   1      46.949  26.920  38.422  1.00  0.00     0.124 S 
ATOM    103  O   UNL A   1      45.565  26.874  38.882  1.00  0.00    -0.237 OA
ATOM    104  O   UNL A   1      47.427  25.731  37.722  1.00  0.00    -0.237 OA
ATOM    105  O   UNL A   1      47.899  27.503  39.367  1.00  0.00    -0.744 OA
ENDBRANCH  98 102
ENDBRANCH  72  95
ENDBRANCH  46  47
ENDBRANCH  38  41
ENDBRANCH  36  37
ENDBRANCH  35  36
ENDBRANCH   1  35
TORSDOF 20
ENDMDL
