MODEL 1
REMARK VINA RESULT:      -9.5      0.000      0.000
REMARK SMILES CC[C@H]1CCC[C@@H]([NH2+][C@@](C)(CC)C(=O)NCCCCCCNC(=O)c2ccc(-c3c4nc(c(-c5cc(S(=O)(=O)[O-])ccc5F)c5ccc([nH]5)c(-c5cc(S(=O)(=O)[O-])ccc5F)c5nc(c(-c6cc(S(=O)(=O)[O-])ccc6F)c6ccc3[nH]6)C=C5)C=C4)cc2)C1
REMARK SMILES IDX 18 1 17 2 16 3 15 4 13 5 14 6 9 8 10 9 8 10 7 13 3 14 4 15
REMARK SMILES IDX 88 16 5 17 6 18 2 19 1 20 11 21 12 22 19 23 20 24 21 25
REMARK SMILES IDX 22 26 23 27 24 29 25 30 26 31 87 32 27 33 86 34 28 35 29 36
REMARK SMILES IDX 30 37 80 38 31 39 85 40 79 41 81 42 32 43 84 44 78 45 77 46
REMARK SMILES IDX 33 48 65 49 45 50 64 51 46 52 49 53 63 54 82 55 47 56 48 57
REMARK SMILES IDX 62 59 83 60 50 61 34 62 35 63 43 64 36 65 42 66 44 67 41 68
REMARK SMILES IDX 37 69 38 70 39 71 40 72 66 73 67 74 75 75 68 76 74 77 76 78
REMARK SMILES IDX 73 79 69 80 70 81 71 82 72 83 51 84 52 85 60 86 53 87 59 88
REMARK SMILES IDX 61 89 58 90 54 91 55 92 56 93 57 94
REMARK H PARENT 15 7 8 11 8 12 22 28 81 47 49 58
REMARK Flexibility Score: inf
ROOT
ATOM      1  C   UNL A   1      37.421  23.351  25.689  1.00  0.00     0.002 C 
ENDROOT
BRANCH   1   2
ATOM      2  C   UNL A   1      36.885  22.676  24.434  1.00  0.00     0.021 C 
BRANCH   2   3
ATOM      3  C   UNL A   1      35.911  21.527  24.691  1.00  0.00     0.116 C 
BRANCH   3   4
ATOM      4  N   UNL A   1      35.416  21.530  26.061  1.00  0.00    -0.351 N 
ATOM      5  C   UNL A   1      34.179  21.757  26.614  1.00  0.00     0.281 C 
ATOM      6  O   UNL A   1      34.140  21.725  27.849  1.00  0.00    -0.268 OA
ATOM      7  H   UNL A   1      36.111  21.326  26.728  1.00  0.00     0.163 HD
BRANCH   5   8
ATOM      8  C   UNL A   1      32.906  22.001  25.726  1.00  0.00     0.172 C 
ATOM      9  C   UNL A   1      31.830  22.614  26.672  1.00  0.00     0.090 C 
BRANCH   8  10
ATOM     10  N   UNL A   1      33.058  23.126  24.751  1.00  0.00    -0.331 N 
ATOM     11  H   UNL A   1      32.652  23.937  25.218  1.00  0.00     0.347 HD
ATOM     12  H   UNL A   1      34.054  23.040  24.548  1.00  0.00     0.347 HD
BRANCH  10  13
ATOM     13  C   UNL A   1      32.539  23.170  23.393  1.00  0.00     0.183 C 
ATOM     14  C   UNL A   1      30.701  25.066  23.491  1.00  0.00    -0.006 C 
ATOM     15  C   UNL A   1      31.550  25.909  22.527  1.00  0.00     0.004 C 
ATOM     16  C   UNL A   1      31.077  23.591  23.188  1.00  0.00     0.068 C 
ATOM     17  C   UNL A   1      33.044  25.639  22.724  1.00  0.00     0.006 C 
ATOM     18  C   UNL A   1      33.404  24.155  22.550  1.00  0.00     0.065 C 
BRANCH  14  19
ATOM     19  C   UNL A   1      30.883  25.641  24.920  1.00  0.00     0.000 C 
ATOM     20  C   UNL A   1      30.971  27.158  25.040  1.00  0.00     0.004 C 
ENDBRANCH  14  19
ENDBRANCH  10  13
ENDBRANCH   8  10
BRANCH   8  21
ATOM     21  C   UNL A   1      32.327  20.690  25.134  1.00  0.00     0.075 C 
ATOM     22  C   UNL A   1      32.989  19.357  25.477  1.00  0.00     0.011 C 
ENDBRANCH   8  21
ENDBRANCH   5   8
ENDBRANCH   3   4
ENDBRANCH   2   3
ENDBRANCH   1   2
BRANCH   1  23
ATOM     23  C   UNL A   1      38.814  22.885  26.106  1.00  0.00     0.002 C 
BRANCH  23  24
ATOM     24  C   UNL A   1      39.159  21.450  25.696  1.00  0.00     0.021 C 
BRANCH  24  25
ATOM     25  C   UNL A   1      39.785  20.613  26.809  1.00  0.00     0.116 C 
BRANCH  25  26
ATOM     26  N   UNL A   1      40.950  19.884  26.328  1.00  0.00    -0.352 N 
ATOM     27  C   UNL A   1      42.156  20.379  25.912  1.00  0.00     0.251 C 
ATOM     28  H   UNL A   1      40.857  18.904  26.297  1.00  0.00     0.163 HD
ATOM     29  O   UNL A   1      42.912  19.679  25.231  1.00  0.00    -0.269 OA
BRANCH  27  30
ATOM     30  C   UNL A   1      42.537  21.755  26.278  1.00  0.00     0.039 A 
ATOM     31  C   UNL A   1      42.641  22.730  25.285  1.00  0.00     0.014 A 
ATOM     32  C   UNL A   1      42.776  22.078  27.619  1.00  0.00     0.014 A 
ATOM     33  C   UNL A   1      42.921  24.049  25.644  1.00  0.00     0.010 A 
ATOM     34  C   UNL A   1      42.983  23.404  27.980  1.00  0.00     0.010 A 
ATOM     35  C   UNL A   1      43.055  24.403  26.997  1.00  0.00    -0.014 A 
BRANCH  35  36
ATOM     36  C   UNL A   1      43.255  25.814  27.410  1.00  0.00     0.031 A 
ATOM     37  C   UNL A   1      44.628  26.424  27.369  1.00  0.00     0.074 A 
ATOM     38  C   UNL A   1      42.212  26.518  27.892  1.00  0.00     0.049 A 
ATOM     39  N   UNL A   1      45.024  27.601  27.779  1.00  0.00    -0.248 NA
ATOM     40  C   UNL A   1      45.703  25.583  26.821  1.00  0.00     0.031 C 
ATOM     41  C   UNL A   1      40.842  26.016  28.017  1.00  0.00     0.029 A 
ATOM     42  N   UNL A   1      42.141  27.798  28.383  1.00  0.00    -0.354 N 
ATOM     43  C   UNL A   1      46.394  27.643  27.541  1.00  0.00     0.074 A 
ATOM     44  C   UNL A   1      46.767  26.345  27.019  1.00  0.00     0.031 C 
ATOM     45  C   UNL A   1      40.067  26.979  28.536  1.00  0.00     0.029 A 
ATOM     46  C   UNL A   1      40.889  28.147  28.831  1.00  0.00     0.049 A 
ATOM     47  H   UNL A   1      42.914  28.406  28.412  1.00  0.00     0.167 HD
ATOM     48  C   UNL A   1      47.253  28.678  27.719  1.00  0.00     0.034 A 
ATOM     49  C   UNL A   1      40.456  29.272  29.435  1.00  0.00     0.034 A 
ATOM     50  C   UNL A   1      46.859  29.961  28.249  1.00  0.00     0.049 A 
ATOM     51  C   UNL A   1      41.437  30.392  29.672  1.00  0.00     0.074 A 
ATOM     52  C   UNL A   1      47.634  31.094  28.431  1.00  0.00     0.029 A 
ATOM     53  N   UNL A   1      45.583  30.279  28.697  1.00  0.00    -0.354 N 
ATOM     54  N   UNL A   1      42.720  30.437  29.393  1.00  0.00    -0.248 NA
ATOM     55  C   UNL A   1      40.913  31.612  30.296  1.00  0.00     0.031 C 
ATOM     56  C   UNL A   1      46.848  32.066  29.058  1.00  0.00     0.029 A 
ATOM     57  C   UNL A   1      45.560  31.575  29.192  1.00  0.00     0.049 A 
ATOM     58  H   UNL A   1      44.808  29.673  28.669  1.00  0.00     0.167 HD
ATOM     59  C   UNL A   1      43.151  31.700  29.788  1.00  0.00     0.074 A 
ATOM     60  C   UNL A   1      41.987  32.390  30.307  1.00  0.00     0.031 C 
ATOM     61  C   UNL A   1      44.394  32.243  29.725  1.00  0.00     0.034 A 
BRANCH  48  62
ATOM     62  C   UNL A   1      48.702  28.443  27.359  1.00  0.00     0.023 A 
ATOM     63  C   UNL A   1      49.154  28.532  26.029  1.00  0.00     0.031 A 
ATOM     64  C   UNL A   1      49.638  28.088  28.345  1.00  0.00     0.131 A 
ATOM     65  C   UNL A   1      50.475  28.184  25.712  1.00  0.00     0.055 A 
ATOM     66  C   UNL A   1      50.975  27.830  28.034  1.00  0.00     0.041 A 
ATOM     67  F   UNL A   1      49.265  27.964  29.629  1.00  0.00    -0.206 F 
ATOM     68  C   UNL A   1      51.397  27.860  26.709  1.00  0.00     0.022 A 
BRANCH  65  69
ATOM     69  S   UNL A   1      50.922  27.997  23.963  1.00  0.00     0.124 S 
ATOM     70  O   UNL A   1      51.660  26.737  23.981  1.00  0.00    -0.237 OA
ATOM     71  O   UNL A   1      49.619  27.967  23.307  1.00  0.00    -0.237 OA
ATOM     72  O   UNL A   1      51.733  29.181  23.688  1.00  0.00    -0.744 OA
ENDBRANCH  65  69
ENDBRANCH  48  62
BRANCH  49  73
ATOM     73  C   UNL A   1      39.039  29.385  29.884  1.00  0.00     0.023 A 
ATOM     74  C   UNL A   1      38.077  30.042  29.102  1.00  0.00     0.031 A 
ATOM     75  C   UNL A   1      38.631  28.854  31.122  1.00  0.00     0.131 A 
ATOM     76  C   UNL A   1      36.767  30.189  29.582  1.00  0.00     0.055 A 
ATOM     77  C   UNL A   1      37.313  28.953  31.570  1.00  0.00     0.041 A 
ATOM     78  F   UNL A   1      39.509  28.211  31.908  1.00  0.00    -0.206 F 
ATOM     79  C   UNL A   1      36.374  29.636  30.804  1.00  0.00     0.022 A 
BRANCH  76  80
ATOM     80  S   UNL A   1      35.595  31.187  28.622  1.00  0.00     0.124 S 
ATOM     81  O   UNL A   1      36.493  32.012  27.823  1.00  0.00    -0.237 OA
ATOM     82  O   UNL A   1      34.847  30.164  27.900  1.00  0.00    -0.237 OA
ATOM     83  O   UNL A   1      34.837  31.901  29.648  1.00  0.00    -0.744 OA
ENDBRANCH  76  80
ENDBRANCH  49  73
BRANCH  61  84
ATOM     84  C   UNL A   1      44.546  33.667  30.203  1.00  0.00     0.023 A 
ATOM     85  C   UNL A   1      44.290  34.763  29.361  1.00  0.00     0.031 A 
ATOM     86  C   UNL A   1      44.953  33.929  31.524  1.00  0.00     0.131 A 
ATOM     87  C   UNL A   1      44.490  36.068  29.833  1.00  0.00     0.055 A 
ATOM     88  C   UNL A   1      45.090  35.231  32.007  1.00  0.00     0.041 A 
ATOM     89  F   UNL A   1      45.216  32.920  32.371  1.00  0.00    -0.206 F 
ATOM     90  C   UNL A   1      44.869  36.310  31.156  1.00  0.00     0.022 A 
BRANCH  87  91
ATOM     91  S   UNL A   1      44.330  37.450  28.669  1.00  0.00     0.124 S 
ATOM     92  O   UNL A   1      43.873  38.528  29.540  1.00  0.00    -0.237 OA
ATOM     93  O   UNL A   1      45.687  37.582  28.151  1.00  0.00    -0.237 OA
ATOM     94  O   UNL A   1      43.342  36.974  27.703  1.00  0.00    -0.744 OA
ENDBRANCH  87  91
ENDBRANCH  61  84
ENDBRANCH  35  36
ENDBRANCH  27  30
ENDBRANCH  25  26
ENDBRANCH  24  25
ENDBRANCH  23  24
ENDBRANCH   1  23
TORSDOF 20
ENDMDL
MODEL 2
REMARK VINA RESULT:      -9.5      5.700      9.089
REMARK SMILES CC[C@H]1CCC[C@@H]([NH2+][C@@](C)(CC)C(=O)NCCCCCCNC(=O)c2ccc(-c3c4nc(c(-c5cc(S(=O)(=O)[O-])ccc5F)c5ccc([nH]5)c(-c5cc(S(=O)(=O)[O-])ccc5F)c5nc(c(-c6cc(S(=O)(=O)[O-])ccc6F)c6ccc3[nH]6)C=C5)C=C4)cc2)C1
REMARK SMILES IDX 18 1 17 2 16 3 15 4 13 5 14 6 9 8 10 9 8 10 7 13 3 14 4 15
REMARK SMILES IDX 88 16 5 17 6 18 2 19 1 20 11 21 12 22 19 23 20 24 21 25
REMARK SMILES IDX 22 26 23 27 24 29 25 30 26 31 87 32 27 33 86 34 28 35 29 36
REMARK SMILES IDX 30 37 80 38 31 39 85 40 79 41 81 42 32 43 84 44 78 45 77 46
REMARK SMILES IDX 33 48 65 49 45 50 64 51 46 52 49 53 63 54 82 55 47 56 48 57
REMARK SMILES IDX 62 59 83 60 50 61 34 62 35 63 43 64 36 65 42 66 44 67 41 68
REMARK SMILES IDX 37 69 38 70 39 71 40 72 66 73 67 74 75 75 68 76 74 77 76 78
REMARK SMILES IDX 73 79 69 80 70 81 71 82 72 83 51 84 52 85 60 86 53 87 59 88
REMARK SMILES IDX 61 89 58 90 54 91 55 92 56 93 57 94
REMARK H PARENT 15 7 8 11 8 12 22 28 81 47 49 58
REMARK Flexibility Score: inf
ROOT
ATOM      1  C   UNL A   1      30.693  29.531  24.943  1.00  0.00     0.002 C 
ENDROOT
BRANCH   1   2
ATOM      2  C   UNL A   1      30.660  29.293  23.439  1.00  0.00     0.021 C 
BRANCH   2   3
ATOM      3  C   UNL A   1      31.751  28.361  22.914  1.00  0.00     0.116 C 
BRANCH   3   4
ATOM      4  N   UNL A   1      31.246  27.016  22.670  1.00  0.00    -0.351 N 
ATOM      5  C   UNL A   1      31.437  25.812  23.302  1.00  0.00     0.281 C 
ATOM      6  O   UNL A   1      30.876  24.845  22.774  1.00  0.00    -0.268 OA
ATOM      7  H   UNL A   1      30.645  26.959  21.892  1.00  0.00     0.163 HD
BRANCH   5   8
ATOM      8  C   UNL A   1      32.279  25.692  24.624  1.00  0.00     0.172 C 
ATOM      9  C   UNL A   1      31.294  25.997  25.793  1.00  0.00     0.090 C 
BRANCH   8  10
ATOM     10  N   UNL A   1      32.659  24.287  24.971  1.00  0.00    -0.331 N 
ATOM     11  H   UNL A   1      32.449  23.742  24.134  1.00  0.00     0.347 HD
ATOM     12  H   UNL A   1      33.607  24.448  25.309  1.00  0.00     0.347 HD
BRANCH  10  13
ATOM     13  C   UNL A   1      32.139  23.499  26.077  1.00  0.00     0.183 C 
ATOM     14  C   UNL A   1      32.273  21.015  25.188  1.00  0.00    -0.006 C 
ATOM     15  C   UNL A   1      33.314  20.704  26.273  1.00  0.00     0.004 C 
ATOM     16  C   UNL A   1      31.421  22.181  25.756  1.00  0.00     0.068 C 
ATOM     17  C   UNL A   1      34.162  21.937  26.597  1.00  0.00     0.006 C 
ATOM     18  C   UNL A   1      33.312  23.139  27.039  1.00  0.00     0.065 C 
BRANCH  14  19
ATOM     19  C   UNL A   1      33.019  21.177  23.838  1.00  0.00     0.000 C 
ATOM     20  C   UNL A   1      32.194  21.676  22.657  1.00  0.00     0.004 C 
ENDBRANCH  14  19
ENDBRANCH  10  13
ENDBRANCH   8  10
BRANCH   8  21
ATOM     21  C   UNL A   1      33.435  26.724  24.695  1.00  0.00     0.075 C 
ATOM     22  C   UNL A   1      33.841  27.300  26.049  1.00  0.00     0.011 C 
ENDBRANCH   8  21
ENDBRANCH   5   8
ENDBRANCH   3   4
ENDBRANCH   2   3
ENDBRANCH   1   2
BRANCH   1  23
ATOM     23  C   UNL A   1      31.883  30.357  25.421  1.00  0.00     0.002 C 
BRANCH  23  24
ATOM     24  C   UNL A   1      31.515  31.586  26.259  1.00  0.00     0.021 C 
BRANCH  24  25
ATOM     25  C   UNL A   1      32.548  31.953  27.321  1.00  0.00     0.116 C 
BRANCH  25  26
ATOM     26  N   UNL A   1      32.651  33.398  27.479  1.00  0.00    -0.352 N 
ATOM     27  C   UNL A   1      33.468  34.109  28.316  1.00  0.00     0.251 C 
ATOM     28  H   UNL A   1      32.053  33.933  26.909  1.00  0.00     0.163 HD
ATOM     29  O   UNL A   1      33.214  35.289  28.574  1.00  0.00    -0.269 OA
BRANCH  27  30
ATOM     30  C   UNL A   1      34.647  33.450  28.907  1.00  0.00     0.039 A 
ATOM     31  C   UNL A   1      35.924  33.931  28.616  1.00  0.00     0.014 A 
ATOM     32  C   UNL A   1      34.477  32.358  29.766  1.00  0.00     0.014 A 
ATOM     33  C   UNL A   1      37.032  33.358  29.241  1.00  0.00     0.010 A 
ATOM     34  C   UNL A   1      35.574  31.837  30.441  1.00  0.00     0.010 A 
ATOM     35  C   UNL A   1      36.862  32.333  30.188  1.00  0.00    -0.014 A 
BRANCH  35  36
ATOM     36  C   UNL A   1      38.015  31.775  30.938  1.00  0.00     0.031 A 
ATOM     37  C   UNL A   1      38.836  30.667  30.341  1.00  0.00     0.074 A 
ATOM     38  C   UNL A   1      38.271  32.217  32.184  1.00  0.00     0.049 A 
ATOM     39  N   UNL A   1      39.816  29.983  30.874  1.00  0.00    -0.248 NA
ATOM     40  C   UNL A   1      38.488  30.255  28.973  1.00  0.00     0.031 C 
ATOM     41  C   UNL A   1      37.515  33.261  32.881  1.00  0.00     0.029 A 
ATOM     42  N   UNL A   1      39.225  31.836  33.095  1.00  0.00    -0.354 N 
ATOM     43  C   UNL A   1      40.199  29.057  29.910  1.00  0.00     0.074 A 
ATOM     44  C   UNL A   1      39.297  29.224  28.789  1.00  0.00     0.031 C 
ATOM     45  C   UNL A   1      38.041  33.444  34.101  1.00  0.00     0.029 A 
ATOM     46  C   UNL A   1      39.136  32.499  34.296  1.00  0.00     0.049 A 
ATOM     47  H   UNL A   1      39.907  31.153  32.905  1.00  0.00     0.167 HD
ATOM     48  C   UNL A   1      41.226  28.170  29.947  1.00  0.00     0.034 A 
ATOM     49  C   UNL A   1      39.839  32.347  35.437  1.00  0.00     0.034 A 
ATOM     50  C   UNL A   1      42.107  28.016  31.079  1.00  0.00     0.049 A 
ATOM     51  C   UNL A   1      40.941  31.319  35.477  1.00  0.00     0.074 A 
ATOM     52  C   UNL A   1      43.204  27.182  31.211  1.00  0.00     0.029 A 
ATOM     53  N   UNL A   1      41.984  28.702  32.282  1.00  0.00    -0.354 N 
ATOM     54  N   UNL A   1      41.328  30.487  34.537  1.00  0.00    -0.248 NA
ATOM     55  C   UNL A   1      41.705  31.215  36.725  1.00  0.00     0.031 C 
ATOM     56  C   UNL A   1      43.695  27.306  32.515  1.00  0.00     0.029 A 
ATOM     57  C   UNL A   1      42.960  28.280  33.173  1.00  0.00     0.049 A 
ATOM     58  H   UNL A   1      41.303  29.386  32.475  1.00  0.00     0.167 HD
ATOM     59  C   UNL A   1      42.396  29.776  35.075  1.00  0.00     0.074 A 
ATOM     60  C   UNL A   1      42.603  30.291  36.414  1.00  0.00     0.031 C 
ATOM     61  C   UNL A   1      43.141  28.789  34.513  1.00  0.00     0.034 A 
BRANCH  48  62
ATOM     62  C   UNL A   1      41.421  27.287  28.736  1.00  0.00     0.023 A 
ATOM     63  C   UNL A   1      42.451  27.529  27.808  1.00  0.00     0.031 A 
ATOM     64  C   UNL A   1      40.548  26.216  28.481  1.00  0.00     0.131 A 
ATOM     65  C   UNL A   1      42.526  26.771  26.630  1.00  0.00     0.055 A 
ATOM     66  C   UNL A   1      40.685  25.407  27.350  1.00  0.00     0.041 A 
ATOM     67  F   UNL A   1      39.533  25.947  29.316  1.00  0.00    -0.206 F 
ATOM     68  C   UNL A   1      41.667  25.693  26.407  1.00  0.00     0.022 A 
BRANCH  65  69
ATOM     69  S   UNL A   1      43.654  27.323  25.320  1.00  0.00     0.124 S 
ATOM     70  O   UNL A   1      44.388  28.391  25.993  1.00  0.00    -0.237 OA
ATOM     71  O   UNL A   1      44.412  26.111  25.027  1.00  0.00    -0.237 OA
ATOM     72  O   UNL A   1      42.754  27.769  24.259  1.00  0.00    -0.744 OA
ENDBRANCH  65  69
ENDBRANCH  48  62
BRANCH  49  73
ATOM     73  C   UNL A   1      39.504  33.163  36.639  1.00  0.00     0.023 A 
ATOM     74  C   UNL A   1      38.710  32.644  37.672  1.00  0.00     0.031 A 
ATOM     75  C   UNL A   1      39.956  34.490  36.757  1.00  0.00     0.131 A 
ATOM     76  C   UNL A   1      38.358  33.459  38.759  1.00  0.00     0.055 A 
ATOM     77  C   UNL A   1      39.650  35.279  37.867  1.00  0.00     0.041 A 
ATOM     78  F   UNL A   1      40.723  35.035  35.799  1.00  0.00    -0.206 F 
ATOM     79  C   UNL A   1      38.834  34.767  38.871  1.00  0.00     0.022 A 
BRANCH  76  80
ATOM     80  S   UNL A   1      37.196  32.810  39.992  1.00  0.00     0.124 S 
ATOM     81  O   UNL A   1      37.833  31.554  40.368  1.00  0.00    -0.237 OA
ATOM     82  O   UNL A   1      37.205  33.863  41.001  1.00  0.00    -0.237 OA
ATOM     83  O   UNL A   1      35.947  32.678  39.245  1.00  0.00    -0.744 OA
ENDBRANCH  76  80
ENDBRANCH  49  73
BRANCH  61  84
ATOM     84  C   UNL A   1      44.272  28.227  35.342  1.00  0.00     0.023 A 
ATOM     85  C   UNL A   1      45.563  28.782  35.308  1.00  0.00     0.031 A 
ATOM     86  C   UNL A   1      44.050  27.119  36.180  1.00  0.00     0.131 A 
ATOM     87  C   UNL A   1      46.594  28.198  36.057  1.00  0.00     0.055 A 
ATOM     88  C   UNL A   1      45.065  26.581  36.972  1.00  0.00     0.041 A 
ATOM     89  F   UNL A   1      42.838  26.546  36.249  1.00  0.00    -0.206 F 
ATOM     90  C   UNL A   1      46.350  27.114  36.904  1.00  0.00     0.022 A 
BRANCH  87  91
ATOM     91  S   UNL A   1      48.285  28.821  35.848  1.00  0.00     0.124 S 
ATOM     92  O   UNL A   1      48.509  28.616  34.421  1.00  0.00    -0.237 OA
ATOM     93  O   UNL A   1      48.162  30.209  36.280  1.00  0.00    -0.237 OA
ATOM     94  O   UNL A   1      49.078  27.966  36.729  1.00  0.00    -0.744 OA
ENDBRANCH  87  91
ENDBRANCH  61  84
ENDBRANCH  35  36
ENDBRANCH  27  30
ENDBRANCH  25  26
ENDBRANCH  24  25
ENDBRANCH  23  24
ENDBRANCH   1  23
TORSDOF 20
ENDMDL
MODEL 3
REMARK VINA RESULT:      -9.5      2.298      8.053
REMARK SMILES CC[C@H]1CCC[C@@H]([NH2+][C@@](C)(CC)C(=O)NCCCCCCNC(=O)c2ccc(-c3c4nc(c(-c5cc(S(=O)(=O)[O-])ccc5F)c5ccc([nH]5)c(-c5cc(S(=O)(=O)[O-])ccc5F)c5nc(c(-c6cc(S(=O)(=O)[O-])ccc6F)c6ccc3[nH]6)C=C5)C=C4)cc2)C1
REMARK SMILES IDX 18 1 17 2 16 3 15 4 13 5 14 6 9 8 10 9 8 10 7 13 3 14 4 15
REMARK SMILES IDX 88 16 5 17 6 18 2 19 1 20 11 21 12 22 19 23 20 24 21 25
REMARK SMILES IDX 22 26 23 27 24 29 25 30 26 31 87 32 27 33 86 34 28 35 29 36
REMARK SMILES IDX 30 37 80 38 31 39 85 40 79 41 81 42 32 43 84 44 78 45 77 46
REMARK SMILES IDX 33 48 65 49 45 50 64 51 46 52 49 53 63 54 82 55 47 56 48 57
REMARK SMILES IDX 62 59 83 60 50 61 34 62 35 63 43 64 36 65 42 66 44 67 41 68
REMARK SMILES IDX 37 69 38 70 39 71 40 72 66 73 67 74 75 75 68 76 74 77 76 78
REMARK SMILES IDX 73 79 69 80 70 81 71 82 72 83 51 84 52 85 60 86 53 87 59 88
REMARK SMILES IDX 61 89 58 90 54 91 55 92 56 93 57 94
REMARK H PARENT 15 7 8 11 8 12 22 28 81 47 49 58
REMARK Flexibility Score: inf
ROOT
ATOM      1  C   UNL A   1      36.170  20.473  25.033  1.00  0.00     0.002 C 
ENDROOT
BRANCH   1   2
ATOM      2  C   UNL A   1      34.783  19.846  25.079  1.00  0.00     0.021 C 
BRANCH   2   3
ATOM      3  C   UNL A   1      33.630  20.846  25.148  1.00  0.00     0.116 C 
BRANCH   3   4
ATOM      4  N   UNL A   1      32.974  21.010  23.857  1.00  0.00    -0.351 N 
ATOM      5  C   UNL A   1      32.762  22.096  23.042  1.00  0.00     0.281 C 
ATOM      6  O   UNL A   1      32.108  21.866  22.020  1.00  0.00    -0.268 OA
ATOM      7  H   UNL A   1      32.609  20.171  23.495  1.00  0.00     0.163 HD
BRANCH   5   8
ATOM      8  C   UNL A   1      33.348  23.514  23.379  1.00  0.00     0.172 C 
ATOM      9  C   UNL A   1      33.281  24.335  22.057  1.00  0.00     0.090 C 
BRANCH   8  10
ATOM     10  N   UNL A   1      32.453  24.346  24.242  1.00  0.00    -0.331 N 
ATOM     11  H   UNL A   1      32.340  25.225  23.736  1.00  0.00     0.347 HD
ATOM     12  H   UNL A   1      31.692  23.683  24.384  1.00  0.00     0.347 HD
BRANCH  10  13
ATOM     13  C   UNL A   1      32.697  24.733  25.622  1.00  0.00     0.183 C 
ATOM     14  C   UNL A   1      32.529  27.369  25.569  1.00  0.00    -0.006 C 
ATOM     15  C   UNL A   1      31.286  27.287  26.468  1.00  0.00     0.004 C 
ATOM     16  C   UNL A   1      33.354  26.094  25.891  1.00  0.00     0.068 C 
ATOM     17  C   UNL A   1      30.494  26.003  26.203  1.00  0.00     0.006 C 
ATOM     18  C   UNL A   1      31.344  24.736  26.396  1.00  0.00     0.065 C 
BRANCH  14  19
ATOM     19  C   UNL A   1      32.057  27.650  24.119  1.00  0.00     0.000 C 
ATOM     20  C   UNL A   1      33.143  27.963  23.096  1.00  0.00     0.004 C 
ENDBRANCH  14  19
ENDBRANCH  10  13
ENDBRANCH   8  10
BRANCH   8  21
ATOM     21  C   UNL A   1      34.832  23.459  23.829  1.00  0.00     0.075 C 
ATOM     22  C   UNL A   1      35.918  23.183  22.793  1.00  0.00     0.011 C 
ENDBRANCH   8  21
ENDBRANCH   5   8
ENDBRANCH   3   4
ENDBRANCH   2   3
ENDBRANCH   1   2
BRANCH   1  23
ATOM     23  C   UNL A   1      37.313  19.463  24.982  1.00  0.00     0.002 C 
BRANCH  23  24
ATOM     24  C   UNL A   1      38.712  20.082  24.896  1.00  0.00     0.021 C 
BRANCH  24  25
ATOM     25  C   UNL A   1      39.480  20.082  26.215  1.00  0.00     0.116 C 
BRANCH  25  26
ATOM     26  N   UNL A   1      40.679  19.259  26.127  1.00  0.00    -0.352 N 
ATOM     27  C   UNL A   1      41.984  19.660  26.029  1.00  0.00     0.251 C 
ATOM     28  H   UNL A   1      40.531  18.286  26.138  1.00  0.00     0.163 HD
ATOM     29  O   UNL A   1      42.847  18.869  25.634  1.00  0.00    -0.269 OA
BRANCH  27  30
ATOM     30  C   UNL A   1      42.345  21.042  26.393  1.00  0.00     0.039 A 
ATOM     31  C   UNL A   1      42.618  21.355  27.725  1.00  0.00     0.014 A 
ATOM     32  C   UNL A   1      42.426  22.024  25.400  1.00  0.00     0.014 A 
ATOM     33  C   UNL A   1      43.039  22.644  28.055  1.00  0.00     0.010 A 
ATOM     34  C   UNL A   1      42.914  23.286  25.720  1.00  0.00     0.010 A 
ATOM     35  C   UNL A   1      43.228  23.608  27.050  1.00  0.00    -0.014 A 
BRANCH  35  36
ATOM     36  C   UNL A   1      43.768  24.954  27.363  1.00  0.00     0.031 A 
ATOM     37  C   UNL A   1      42.864  26.018  27.917  1.00  0.00     0.074 A 
ATOM     38  C   UNL A   1      45.054  25.236  27.075  1.00  0.00     0.049 A 
ATOM     39  N   UNL A   1      43.120  27.278  28.162  1.00  0.00    -0.248 NA
ATOM     40  C   UNL A   1      41.479  25.617  28.207  1.00  0.00     0.031 C 
ATOM     41  C   UNL A   1      46.014  24.293  26.495  1.00  0.00     0.029 A 
ATOM     42  N   UNL A   1      45.772  26.397  27.212  1.00  0.00    -0.354 N 
ATOM     43  C   UNL A   1      41.929  27.821  28.631  1.00  0.00     0.074 A 
ATOM     44  C   UNL A   1      40.936  26.769  28.567  1.00  0.00     0.031 C 
ATOM     45  C   UNL A   1      47.195  24.909  26.340  1.00  0.00     0.029 A 
ATOM     46  C   UNL A   1      47.067  26.301  26.756  1.00  0.00     0.049 A 
ATOM     47  H   UNL A   1      45.396  27.219  27.599  1.00  0.00     0.167 HD
ATOM     48  C   UNL A   1      41.695  29.074  29.097  1.00  0.00     0.034 A 
ATOM     49  C   UNL A   1      48.034  27.235  26.661  1.00  0.00     0.034 A 
ATOM     50  C   UNL A   1      42.699  30.109  29.144  1.00  0.00     0.049 A 
ATOM     51  C   UNL A   1      47.739  28.636  27.133  1.00  0.00     0.074 A 
ATOM     52  C   UNL A   1      42.586  31.399  29.634  1.00  0.00     0.029 A 
ATOM     53  N   UNL A   1      43.999  29.979  28.669  1.00  0.00    -0.354 N 
ATOM     54  N   UNL A   1      46.622  29.122  27.626  1.00  0.00    -0.248 NA
ATOM     55  C   UNL A   1      48.833  29.610  27.047  1.00  0.00     0.031 C 
ATOM     56  C   UNL A   1      43.789  32.069  29.387  1.00  0.00     0.029 A 
ATOM     57  C   UNL A   1      44.684  31.176  28.819  1.00  0.00     0.049 A 
ATOM     58  H   UNL A   1      44.379  29.157  28.282  1.00  0.00     0.167 HD
ATOM     59  C   UNL A   1      46.888  30.455  27.927  1.00  0.00     0.074 A 
ATOM     60  C   UNL A   1      48.276  30.688  27.580  1.00  0.00     0.031 C 
ATOM     61  C   UNL A   1      46.063  31.399  28.449  1.00  0.00     0.034 A 
BRANCH  48  62
ATOM     62  C   UNL A   1      40.291  29.388  29.562  1.00  0.00     0.023 A 
ATOM     63  C   UNL A   1      39.972  29.475  30.929  1.00  0.00     0.031 A 
ATOM     64  C   UNL A   1      39.251  29.564  28.634  1.00  0.00     0.131 A 
ATOM     65  C   UNL A   1      38.638  29.640  31.330  1.00  0.00     0.055 A 
ATOM     66  C   UNL A   1      37.938  29.819  29.039  1.00  0.00     0.041 A 
ATOM     67  F   UNL A   1      39.487  29.471  27.316  1.00  0.00    -0.206 F 
ATOM     68  C   UNL A   1      37.622  29.841  30.393  1.00  0.00     0.022 A 
BRANCH  65  69
ATOM     69  S   UNL A   1      38.229  29.420  33.083  1.00  0.00     0.124 S 
ATOM     70  O   UNL A   1      37.375  28.236  33.040  1.00  0.00    -0.237 OA
ATOM     71  O   UNL A   1      39.542  29.240  33.692  1.00  0.00    -0.237 OA
ATOM     72  O   UNL A   1      37.542  30.661  33.434  1.00  0.00    -0.744 OA
ENDBRANCH  65  69
ENDBRANCH  48  62
BRANCH  49  73
ATOM     73  C   UNL A   1      49.357  26.887  26.068  1.00  0.00     0.023 A 
ATOM     74  C   UNL A   1      49.707  27.302  24.774  1.00  0.00     0.031 A 
ATOM     75  C   UNL A   1      50.285  26.107  26.784  1.00  0.00     0.131 A 
ATOM     76  C   UNL A   1      50.932  26.902  24.220  1.00  0.00     0.055 A 
ATOM     77  C   UNL A   1      51.526  25.759  26.249  1.00  0.00     0.041 A 
ATOM     78  F   UNL A   1      50.003  25.687  28.028  1.00  0.00    -0.206 F 
ATOM     79  C   UNL A   1      51.850  26.147  24.953  1.00  0.00     0.022 A 
BRANCH  76  80
ATOM     80  S   UNL A   1      51.279  27.316  22.487  1.00  0.00     0.124 S 
ATOM     81  O   UNL A   1      52.183  26.238  22.100  1.00  0.00    -0.237 OA
ATOM     82  O   UNL A   1      49.947  27.281  21.895  1.00  0.00    -0.237 OA
ATOM     83  O   UNL A   1      51.888  28.642  22.570  1.00  0.00    -0.744 OA
ENDBRANCH  76  80
ENDBRANCH  49  73
BRANCH  61  84
ATOM     84  C   UNL A   1      46.656  32.764  28.702  1.00  0.00     0.023 A 
ATOM     85  C   UNL A   1      46.717  33.743  27.695  1.00  0.00     0.031 A 
ATOM     86  C   UNL A   1      47.167  33.089  29.972  1.00  0.00     0.131 A 
ATOM     87  C   UNL A   1      47.319  34.982  27.960  1.00  0.00     0.055 A 
ATOM     88  C   UNL A   1      47.708  34.345  30.247  1.00  0.00     0.041 A 
ATOM     89  F   UNL A   1      47.139  32.190  30.970  1.00  0.00    -0.206 F 
ATOM     90  C   UNL A   1      47.797  35.296  29.235  1.00  0.00     0.022 A 
BRANCH  87  91
ATOM     91  S   UNL A   1      47.548  36.151  26.593  1.00  0.00     0.124 S 
ATOM     92  O   UNL A   1      48.652  35.544  25.857  1.00  0.00    -0.237 OA
ATOM     93  O   UNL A   1      46.247  36.119  25.933  1.00  0.00    -0.237 OA
ATOM     94  O   UNL A   1      47.869  37.409  27.266  1.00  0.00    -0.744 OA
ENDBRANCH  87  91
ENDBRANCH  61  84
ENDBRANCH  35  36
ENDBRANCH  27  30
ENDBRANCH  25  26
ENDBRANCH  24  25
ENDBRANCH  23  24
ENDBRANCH   1  23
TORSDOF 20
ENDMDL
