MODEL 1
REMARK VINA RESULT:     -11.8      0.000      0.000
REMARK SMILES CC1(C)C(NC(=O)[C@@H]2CCC[C@@H](C(=O)NCCCCCCNC(=O)c3ccc(-c4c5nc(c(-c6cc(S(=O)(=O)[O-])ccc6F)c6ccc([nH]6)c(-c6cc(S(=O)(=O)[O-])ccc6F)c6nc(c(-c7cc(S(=O)(=O)[O-])ccc7F)c7ccc4[nH]7)C=C6)C=C5)cc3)C2)C1(C)C
REMARK SMILES IDX 19 1 18 2 17 3 16 4 15 5 13 6 14 7 12 9 8 10 9 11 88 12
REMARK SMILES IDX 10 13 11 14 6 15 5 16 7 18 4 19 1 20 2 21 3 22 89 23 90 24
REMARK SMILES IDX 91 25 20 26 21 27 22 28 23 29 24 31 25 32 26 33 87 34 27 35
REMARK SMILES IDX 86 36 28 37 29 38 30 39 80 40 31 41 85 42 79 43 81 44 32 45
REMARK SMILES IDX 84 46 78 47 77 48 33 50 65 51 45 52 64 53 46 54 49 55 63 56
REMARK SMILES IDX 82 57 47 58 48 59 62 61 83 62 50 63 34 64 35 65 43 66 36 67
REMARK SMILES IDX 42 68 44 69 41 70 37 71 38 72 39 73 40 74 66 75 67 76 75 77
REMARK SMILES IDX 68 78 74 79 76 80 73 81 69 82 70 83 71 84 72 85 51 86 52 87
REMARK SMILES IDX 60 88 53 89 59 90 61 91 58 92 54 93 55 94 56 95 57 96
REMARK H PARENT 15 8 5 17 22 30 81 49 49 60
REMARK Flexibility Score: inf
ROOT
ATOM      1  C   UNL A   1      31.412  30.664  25.770  1.00  0.00     0.002 C 
ENDROOT
BRANCH   1   2
ATOM      2  C   UNL A   1      30.410  30.435  24.635  1.00  0.00     0.002 C 
BRANCH   2   3
ATOM      3  C   UNL A   1      30.928  29.661  23.422  1.00  0.00     0.021 C 
BRANCH   3   4
ATOM      4  C   UNL A   1      29.941  28.690  22.790  1.00  0.00     0.116 C 
BRANCH   4   5
ATOM      5  N   UNL A   1      30.461  27.345  22.650  1.00  0.00    -0.356 N 
ATOM      6  C   UNL A   1      30.573  26.294  23.502  1.00  0.00     0.223 C 
ATOM      7  O   UNL A   1      30.916  25.229  22.969  1.00  0.00    -0.275 OA
ATOM      8  H   UNL A   1      30.804  27.151  21.748  1.00  0.00     0.163 HD
BRANCH   6   9
ATOM      9  C   UNL A   1      30.409  26.353  25.038  1.00  0.00     0.079 C 
ATOM     10  C   UNL A   1      31.225  24.087  25.756  1.00  0.00     0.079 C 
ATOM     11  C   UNL A   1      32.405  24.689  26.517  1.00  0.00     0.013 C 
ATOM     12  C   UNL A   1      30.070  25.094  25.835  1.00  0.00     0.027 C 
ATOM     13  C   UNL A   1      32.835  25.986  25.826  1.00  0.00     0.002 C 
ATOM     14  C   UNL A   1      31.675  26.982  25.678  1.00  0.00     0.013 C 
BRANCH  10  15
ATOM     15  C   UNL A   1      30.805  22.691  26.195  1.00  0.00     0.223 C 
ATOM     16  N   UNL A   1      31.623  21.634  25.886  1.00  0.00    -0.352 N 
ATOM     17  H   UNL A   1      31.249  20.740  26.059  1.00  0.00     0.163 HD
ATOM     18  O   UNL A   1      29.724  22.472  26.740  1.00  0.00    -0.275 OA
BRANCH  16  19
ATOM     19  C   UNL A   1      32.949  21.660  25.345  1.00  0.00     0.094 C 
ATOM     20  C   UNL A   1      34.920  20.020  24.851  1.00  0.00     0.014 C 
ATOM     21  C   UNL A   1      33.495  20.458  24.583  1.00  0.00    -0.007 C 
ATOM     22  C   UNL A   1      32.571  19.267  24.409  1.00  0.00     0.014 C 
ATOM     23  C   UNL A   1      33.229  21.799  23.862  1.00  0.00    -0.007 C 
ATOM     24  C   UNL A   1      34.369  22.736  23.509  1.00  0.00     0.014 C 
ATOM     25  C   UNL A   1      32.099  21.905  22.864  1.00  0.00     0.014 C 
ENDBRANCH  16  19
ENDBRANCH  10  15
ENDBRANCH   6   9
ENDBRANCH   4   5
ENDBRANCH   3   4
ENDBRANCH   2   3
ENDBRANCH   1   2
BRANCH   1  26
ATOM     26  C   UNL A   1      31.326  32.011  26.492  1.00  0.00     0.021 C 
BRANCH  26  27
ATOM     27  C   UNL A   1      32.631  32.520  27.094  1.00  0.00     0.116 C 
BRANCH  27  28
ATOM     28  N   UNL A   1      32.540  33.901  27.526  1.00  0.00    -0.352 N 
ATOM     29  C   UNL A   1      33.214  34.541  28.532  1.00  0.00     0.251 C 
ATOM     30  H   UNL A   1      31.903  34.459  27.025  1.00  0.00     0.163 HD
ATOM     31  O   UNL A   1      32.862  35.676  28.863  1.00  0.00    -0.269 OA
BRANCH  29  32
ATOM     32  C   UNL A   1      34.336  33.877  29.231  1.00  0.00     0.039 A 
ATOM     33  C   UNL A   1      34.045  32.913  30.201  1.00  0.00     0.014 A 
ATOM     34  C   UNL A   1      35.665  34.221  28.968  1.00  0.00     0.014 A 
ATOM     35  C   UNL A   1      35.084  32.283  30.888  1.00  0.00     0.010 A 
ATOM     36  C   UNL A   1      36.703  33.533  29.595  1.00  0.00     0.010 A 
ATOM     37  C   UNL A   1      36.423  32.578  30.583  1.00  0.00    -0.014 A 
BRANCH  37  38
ATOM     38  C   UNL A   1      37.535  31.945  31.340  1.00  0.00     0.031 A 
ATOM     39  C   UNL A   1      38.343  30.845  30.701  1.00  0.00     0.074 A 
ATOM     40  C   UNL A   1      37.802  32.341  32.599  1.00  0.00     0.049 A 
ATOM     41  N   UNL A   1      39.330  30.145  31.198  1.00  0.00    -0.248 NA
ATOM     42  C   UNL A   1      37.967  30.460  29.332  1.00  0.00     0.031 C 
ATOM     43  C   UNL A   1      37.066  33.372  33.335  1.00  0.00     0.029 A 
ATOM     44  N   UNL A   1      38.766  31.929  33.484  1.00  0.00    -0.354 N 
ATOM     45  C   UNL A   1      39.684  29.232  30.208  1.00  0.00     0.074 A 
ATOM     46  C   UNL A   1      38.755  29.419  29.116  1.00  0.00     0.031 C 
ATOM     47  C   UNL A   1      37.626  33.533  34.545  1.00  0.00     0.029 A 
ATOM     48  C   UNL A   1      38.733  32.593  34.689  1.00  0.00     0.049 A 
ATOM     49  H   UNL A   1      39.421  31.224  33.276  1.00  0.00     0.167 HD
ATOM     50  C   UNL A   1      40.707  28.341  30.199  1.00  0.00     0.034 A 
ATOM     51  C   UNL A   1      39.506  32.456  35.784  1.00  0.00     0.034 A 
ATOM     52  C   UNL A   1      41.632  28.176  31.294  1.00  0.00     0.049 A 
ATOM     53  C   UNL A   1      40.633  31.453  35.753  1.00  0.00     0.074 A 
ATOM     54  C   UNL A   1      42.723  27.330  31.383  1.00  0.00     0.029 A 
ATOM     55  N   UNL A   1      41.573  28.872  32.496  1.00  0.00    -0.354 N 
ATOM     56  N   UNL A   1      40.981  30.625  34.794  1.00  0.00    -0.248 NA
ATOM     57  C   UNL A   1      41.484  31.383  36.946  1.00  0.00     0.031 C 
ATOM     58  C   UNL A   1      43.282  27.466  32.660  1.00  0.00     0.029 A 
ATOM     59  C   UNL A   1      42.594  28.461  33.338  1.00  0.00     0.049 A 
ATOM     60  H   UNL A   1      40.902  29.559  32.716  1.00  0.00     0.167 HD
ATOM     61  C   UNL A   1      42.119  29.968  35.255  1.00  0.00     0.074 A 
ATOM     62  C   UNL A   1      42.404  30.511  36.567  1.00  0.00     0.031 C 
ATOM     63  C   UNL A   1      42.865  29.007  34.648  1.00  0.00     0.034 A 
BRANCH  50  64
ATOM     64  C   UNL A   1      40.853  27.466  28.973  1.00  0.00     0.023 A 
ATOM     65  C   UNL A   1      41.821  27.729  27.987  1.00  0.00     0.031 A 
ATOM     66  C   UNL A   1      39.988  26.376  28.766  1.00  0.00     0.131 A 
ATOM     67  C   UNL A   1      41.843  26.972  26.805  1.00  0.00     0.055 A 
ATOM     68  C   UNL A   1      40.076  25.570  27.629  1.00  0.00     0.041 A 
ATOM     69  F   UNL A   1      39.028  26.085  29.659  1.00  0.00    -0.206 F 
ATOM     70  C   UNL A   1      40.996  25.877  26.631  1.00  0.00     0.022 A 
BRANCH  67  71
ATOM     71  S   UNL A   1      42.885  27.541  25.432  1.00  0.00     0.124 S 
ATOM     72  O   UNL A   1      43.022  26.321  24.641  1.00  0.00    -0.237 OA
ATOM     73  O   UNL A   1      42.077  28.601  24.840  1.00  0.00    -0.237 OA
ATOM     74  O   UNL A   1      44.111  27.986  26.094  1.00  0.00    -0.744 OA
ENDBRANCH  67  71
ENDBRANCH  50  64
BRANCH  51  75
ATOM     75  C   UNL A   1      39.258  33.287  36.997  1.00  0.00     0.023 A 
ATOM     76  C   UNL A   1      39.925  34.509  37.188  1.00  0.00     0.031 A 
ATOM     77  C   UNL A   1      38.389  32.848  38.012  1.00  0.00     0.131 A 
ATOM     78  C   UNL A   1      39.757  35.219  38.387  1.00  0.00     0.055 A 
ATOM     79  C   UNL A   1      38.180  33.587  39.176  1.00  0.00     0.041 A 
ATOM     80  F   UNL A   1      37.720  31.691  37.877  1.00  0.00    -0.206 F 
ATOM     81  C   UNL A   1      38.879  34.774  39.377  1.00  0.00     0.022 A 
BRANCH  78  82
ATOM     82  S   UNL A   1      40.779  36.689  38.677  1.00  0.00     0.124 S 
ATOM     83  O   UNL A   1      41.551  36.763  37.442  1.00  0.00    -0.237 OA
ATOM     84  O   UNL A   1      39.770  37.726  38.865  1.00  0.00    -0.237 OA
ATOM     85  O   UNL A   1      41.543  36.343  39.873  1.00  0.00    -0.744 OA
ENDBRANCH  78  82
ENDBRANCH  51  75
BRANCH  63  86
ATOM     86  C   UNL A   1      44.099  28.533  35.383  1.00  0.00     0.023 A 
ATOM     87  C   UNL A   1      44.054  27.476  36.309  1.00  0.00     0.031 A 
ATOM     88  C   UNL A   1      45.330  29.182  35.183  1.00  0.00     0.131 A 
ATOM     89  C   UNL A   1      45.194  27.157  37.060  1.00  0.00     0.055 A 
ATOM     90  C   UNL A   1      46.481  28.809  35.877  1.00  0.00     0.041 A 
ATOM     91  F   UNL A   1      45.434  30.200  34.313  1.00  0.00    -0.206 F 
ATOM     92  C   UNL A   1      46.412  27.804  36.838  1.00  0.00     0.022 A 
BRANCH  89  93
ATOM     93  S   UNL A   1      45.028  25.983  38.434  1.00  0.00     0.124 S 
ATOM     94  O   UNL A   1      44.231  24.920  37.830  1.00  0.00    -0.237 OA
ATOM     95  O   UNL A   1      46.419  25.648  38.726  1.00  0.00    -0.237 OA
ATOM     96  O   UNL A   1      44.347  26.759  39.468  1.00  0.00    -0.744 OA
ENDBRANCH  89  93
ENDBRANCH  63  86
ENDBRANCH  37  38
ENDBRANCH  29  32
ENDBRANCH  27  28
ENDBRANCH  26  27
ENDBRANCH   1  26
TORSDOF 18
ENDMDL
MODEL 2
REMARK VINA RESULT:     -11.8      2.008      7.873
REMARK SMILES CC1(C)C(NC(=O)[C@@H]2CCC[C@@H](C(=O)NCCCCCCNC(=O)c3ccc(-c4c5nc(c(-c6cc(S(=O)(=O)[O-])ccc6F)c6ccc([nH]6)c(-c6cc(S(=O)(=O)[O-])ccc6F)c6nc(c(-c7cc(S(=O)(=O)[O-])ccc7F)c7ccc4[nH]7)C=C6)C=C5)cc3)C2)C1(C)C
REMARK SMILES IDX 19 1 18 2 17 3 16 4 15 5 13 6 14 7 12 9 8 10 9 11 88 12
REMARK SMILES IDX 10 13 11 14 6 15 5 16 7 18 4 19 1 20 2 21 3 22 89 23 90 24
REMARK SMILES IDX 91 25 20 26 21 27 22 28 23 29 24 31 25 32 26 33 87 34 27 35
REMARK SMILES IDX 86 36 28 37 29 38 30 39 80 40 31 41 85 42 79 43 81 44 32 45
REMARK SMILES IDX 84 46 78 47 77 48 33 50 65 51 45 52 64 53 46 54 49 55 63 56
REMARK SMILES IDX 82 57 47 58 48 59 62 61 83 62 50 63 34 64 35 65 43 66 36 67
REMARK SMILES IDX 42 68 44 69 41 70 37 71 38 72 39 73 40 74 66 75 67 76 75 77
REMARK SMILES IDX 68 78 74 79 76 80 73 81 69 82 70 83 71 84 72 85 51 86 52 87
REMARK SMILES IDX 60 88 53 89 59 90 61 91 58 92 54 93 55 94 56 95 57 96
REMARK H PARENT 15 8 5 17 22 30 81 49 49 60
REMARK Flexibility Score: inf
ROOT
ATOM      1  C   UNL A   1      35.609  32.973  27.992  1.00  0.00     0.002 C 
ENDROOT
BRANCH   1   2
ATOM      2  C   UNL A   1      35.153  31.686  28.687  1.00  0.00     0.002 C 
BRANCH   2   3
ATOM      3  C   UNL A   1      34.871  30.490  27.777  1.00  0.00     0.021 C 
BRANCH   3   4
ATOM      4  C   UNL A   1      33.548  30.532  27.027  1.00  0.00     0.116 C 
BRANCH   4   5
ATOM      5  N   UNL A   1      32.567  29.590  27.527  1.00  0.00    -0.356 N 
ATOM      6  C   UNL A   1      32.281  28.296  27.231  1.00  0.00     0.223 C 
ATOM      7  O   UNL A   1      31.474  27.755  28.000  1.00  0.00    -0.275 OA
ATOM      8  H   UNL A   1      31.988  29.965  28.229  1.00  0.00     0.163 HD
BRANCH   6   9
ATOM      9  C   UNL A   1      32.790  27.516  25.998  1.00  0.00     0.079 C 
ATOM     10  C   UNL A   1      31.639  25.295  26.250  1.00  0.00     0.079 C 
ATOM     11  C   UNL A   1      30.835  25.502  24.968  1.00  0.00     0.013 C 
ATOM     12  C   UNL A   1      32.988  26.002  26.060  1.00  0.00     0.027 C 
ATOM     13  C   UNL A   1      30.582  26.999  24.772  1.00  0.00     0.002 C 
ATOM     14  C   UNL A   1      31.883  27.816  24.774  1.00  0.00     0.013 C 
BRANCH  10  15
ATOM     15  C   UNL A   1      31.803  23.849  26.697  1.00  0.00     0.223 C 
ATOM     16  N   UNL A   1      32.641  23.034  25.980  1.00  0.00    -0.352 N 
ATOM     17  H   UNL A   1      32.608  22.078  26.212  1.00  0.00     0.163 HD
ATOM     18  O   UNL A   1      31.149  23.371  27.623  1.00  0.00    -0.275 OA
BRANCH  16  19
ATOM     19  C   UNL A   1      33.556  23.389  24.938  1.00  0.00     0.094 C 
ATOM     20  C   UNL A   1      35.821  22.573  23.923  1.00  0.00     0.014 C 
ATOM     21  C   UNL A   1      34.356  22.314  24.211  1.00  0.00    -0.007 C 
ATOM     22  C   UNL A   1      34.119  20.873  24.625  1.00  0.00     0.014 C 
ATOM     23  C   UNL A   1      33.273  23.131  23.471  1.00  0.00    -0.007 C 
ATOM     24  C   UNL A   1      33.653  24.263  22.534  1.00  0.00     0.014 C 
ATOM     25  C   UNL A   1      31.993  22.458  23.033  1.00  0.00     0.014 C 
ENDBRANCH  16  19
ENDBRANCH  10  15
ENDBRANCH   6   9
ENDBRANCH   4   5
ENDBRANCH   3   4
ENDBRANCH   2   3
ENDBRANCH   1   2
BRANCH   1  26
ATOM     26  C   UNL A   1      34.636  34.154  28.040  1.00  0.00     0.021 C 
BRANCH  26  27
ATOM     27  C   UNL A   1      33.301  33.879  28.722  1.00  0.00     0.116 C 
BRANCH  27  28
ATOM     28  N   UNL A   1      32.986  34.863  29.739  1.00  0.00    -0.352 N 
ATOM     29  C   UNL A   1      33.525  35.023  30.988  1.00  0.00     0.251 C 
ATOM     30  H   UNL A   1      32.283  35.508  29.498  1.00  0.00     0.163 HD
ATOM     31  O   UNL A   1      32.993  35.809  31.776  1.00  0.00    -0.269 OA
BRANCH  29  32
ATOM     32  C   UNL A   1      34.718  34.250  31.399  1.00  0.00     0.039 A 
ATOM     33  C   UNL A   1      35.984  34.787  31.150  1.00  0.00     0.014 A 
ATOM     34  C   UNL A   1      34.601  32.987  31.989  1.00  0.00     0.014 A 
ATOM     35  C   UNL A   1      37.126  34.071  31.512  1.00  0.00     0.010 A 
ATOM     36  C   UNL A   1      35.739  32.311  32.423  1.00  0.00     0.010 A 
ATOM     37  C   UNL A   1      37.015  32.832  32.163  1.00  0.00    -0.014 A 
BRANCH  37  38
ATOM     38  C   UNL A   1      38.225  32.042  32.511  1.00  0.00     0.031 A 
ATOM     39  C   UNL A   1      38.946  32.310  33.807  1.00  0.00     0.074 A 
ATOM     40  C   UNL A   1      38.685  31.106  31.659  1.00  0.00     0.049 A 
ATOM     41  N   UNL A   1      40.032  31.757  34.283  1.00  0.00    -0.248 NA
ATOM     42  C   UNL A   1      38.387  33.366  34.666  1.00  0.00     0.031 C 
ATOM     43  C   UNL A   1      38.092  30.781  30.359  1.00  0.00     0.029 A 
ATOM     44  N   UNL A   1      39.754  30.252  31.757  1.00  0.00    -0.354 N 
ATOM     45  C   UNL A   1      40.290  32.405  35.488  1.00  0.00     0.074 A 
ATOM     46  C   UNL A   1      39.291  33.441  35.629  1.00  0.00     0.031 C 
ATOM     47  C   UNL A   1      38.786  29.778  29.798  1.00  0.00     0.029 A 
ATOM     48  C   UNL A   1      39.896  29.414  30.674  1.00  0.00     0.049 A 
ATOM     49  H   UNL A   1      40.364  30.240  32.529  1.00  0.00     0.167 HD
ATOM     50  C   UNL A   1      41.253  32.140  36.407  1.00  0.00     0.034 A 
ATOM     51  C   UNL A   1      40.815  28.464  30.418  1.00  0.00     0.034 A 
ATOM     52  C   UNL A   1      42.235  31.093  36.255  1.00  0.00     0.049 A 
ATOM     53  C   UNL A   1      41.882  28.192  31.451  1.00  0.00     0.074 A 
ATOM     54  C   UNL A   1      43.235  30.713  37.132  1.00  0.00     0.029 A 
ATOM     55  N   UNL A   1      42.342  30.259  35.149  1.00  0.00    -0.354 N 
ATOM     56  N   UNL A   1      42.089  28.785  32.605  1.00  0.00    -0.248 NA
ATOM     57  C   UNL A   1      42.824  27.107  31.154  1.00  0.00     0.031 C 
ATOM     58  C   UNL A   1      43.986  29.696  36.529  1.00  0.00     0.029 A 
ATOM     59  C   UNL A   1      43.401  29.380  35.312  1.00  0.00     0.049 A 
ATOM     60  H   UNL A   1      41.749  30.287  34.362  1.00  0.00     0.167 HD
ATOM     61  C   UNL A   1      43.160  28.113  33.189  1.00  0.00     0.074 A 
ATOM     62  C   UNL A   1      43.538  27.062  32.267  1.00  0.00     0.031 C 
ATOM     63  C   UNL A   1      43.773  28.339  34.381  1.00  0.00     0.034 A 
BRANCH  50  64
ATOM     64  C   UNL A   1      41.297  33.018  37.638  1.00  0.00     0.023 A 
ATOM     65  C   UNL A   1      40.560  32.707  38.796  1.00  0.00     0.031 A 
ATOM     66  C   UNL A   1      42.054  34.203  37.645  1.00  0.00     0.131 A 
ATOM     67  C   UNL A   1      40.526  33.609  39.870  1.00  0.00     0.055 A 
ATOM     68  C   UNL A   1      42.088  35.051  38.754  1.00  0.00     0.041 A 
ATOM     69  F   UNL A   1      42.763  34.568  36.564  1.00  0.00    -0.206 F 
ATOM     70  C   UNL A   1      41.306  34.766  39.869  1.00  0.00     0.022 A 
BRANCH  67  71
ATOM     71  S   UNL A   1      39.321  33.328  41.198  1.00  0.00     0.124 S 
ATOM     72  O   UNL A   1      38.283  34.300  40.863  1.00  0.00    -0.237 OA
ATOM     73  O   UNL A   1      38.968  31.925  41.013  1.00  0.00    -0.237 OA
ATOM     74  O   UNL A   1      40.074  33.628  42.414  1.00  0.00    -0.744 OA
ENDBRANCH  67  71
ENDBRANCH  50  64
BRANCH  51  75
ATOM     75  C   UNL A   1      40.773  27.689  29.145  1.00  0.00     0.023 A 
ATOM     76  C   UNL A   1      41.674  27.957  28.102  1.00  0.00     0.031 A 
ATOM     77  C   UNL A   1      39.794  26.702  28.929  1.00  0.00     0.131 A 
ATOM     78  C   UNL A   1      41.544  27.289  26.874  1.00  0.00     0.055 A 
ATOM     79  C   UNL A   1      39.706  25.999  27.727  1.00  0.00     0.041 A 
ATOM     80  F   UNL A   1      38.911  26.400  29.896  1.00  0.00    -0.206 F 
ATOM     81  C   UNL A   1      40.574  26.303  26.683  1.00  0.00     0.022 A 
BRANCH  78  82
ATOM     82  S   UNL A   1      42.603  27.799  25.491  1.00  0.00     0.124 S 
ATOM     83  O   UNL A   1      42.552  26.624  24.629  1.00  0.00    -0.237 OA
ATOM     84  O   UNL A   1      41.908  28.985  25.001  1.00  0.00    -0.237 OA
ATOM     85  O   UNL A   1      43.893  28.054  26.127  1.00  0.00    -0.744 OA
ENDBRANCH  78  82
ENDBRANCH  51  75
BRANCH  63  86
ATOM     86  C   UNL A   1      44.877  27.384  34.775  1.00  0.00     0.023 A 
ATOM     87  C   UNL A   1      44.609  26.155  35.403  1.00  0.00     0.031 A 
ATOM     88  C   UNL A   1      46.222  27.732  34.555  1.00  0.00     0.131 A 
ATOM     89  C   UNL A   1      45.669  25.361  35.865  1.00  0.00     0.055 A 
ATOM     90  C   UNL A   1      47.271  26.901  34.947  1.00  0.00     0.041 A 
ATOM     91  F   UNL A   1      46.539  28.893  33.961  1.00  0.00    -0.206 F 
ATOM     92  C   UNL A   1      46.998  25.717  35.626  1.00  0.00     0.022 A 
BRANCH  89  93
ATOM     93  S   UNL A   1      45.288  23.928  36.911  1.00  0.00     0.124 S 
ATOM     94  O   UNL A   1      44.474  24.527  37.964  1.00  0.00    -0.237 OA
ATOM     95  O   UNL A   1      44.582  23.047  35.985  1.00  0.00    -0.237 OA
ATOM     96  O   UNL A   1      46.603  23.455  37.336  1.00  0.00    -0.744 OA
ENDBRANCH  89  93
ENDBRANCH  63  86
ENDBRANCH  37  38
ENDBRANCH  29  32
ENDBRANCH  27  28
ENDBRANCH  26  27
ENDBRANCH   1  26
TORSDOF 18
ENDMDL
MODEL 3
REMARK VINA RESULT:     -11.7      1.794      2.482
REMARK SMILES CC1(C)C(NC(=O)[C@@H]2CCC[C@@H](C(=O)NCCCCCCNC(=O)c3ccc(-c4c5nc(c(-c6cc(S(=O)(=O)[O-])ccc6F)c6ccc([nH]6)c(-c6cc(S(=O)(=O)[O-])ccc6F)c6nc(c(-c7cc(S(=O)(=O)[O-])ccc7F)c7ccc4[nH]7)C=C6)C=C5)cc3)C2)C1(C)C
REMARK SMILES IDX 19 1 18 2 17 3 16 4 15 5 13 6 14 7 12 9 8 10 9 11 88 12
REMARK SMILES IDX 10 13 11 14 6 15 5 16 7 18 4 19 1 20 2 21 3 22 89 23 90 24
REMARK SMILES IDX 91 25 20 26 21 27 22 28 23 29 24 31 25 32 26 33 87 34 27 35
REMARK SMILES IDX 86 36 28 37 29 38 30 39 80 40 31 41 85 42 79 43 81 44 32 45
REMARK SMILES IDX 84 46 78 47 77 48 33 50 65 51 45 52 64 53 46 54 49 55 63 56
REMARK SMILES IDX 82 57 47 58 48 59 62 61 83 62 50 63 34 64 35 65 43 66 36 67
REMARK SMILES IDX 42 68 44 69 41 70 37 71 38 72 39 73 40 74 66 75 67 76 75 77
REMARK SMILES IDX 68 78 74 79 76 80 73 81 69 82 70 83 71 84 72 85 51 86 52 87
REMARK SMILES IDX 60 88 53 89 59 90 61 91 58 92 54 93 55 94 56 95 57 96
REMARK H PARENT 15 8 5 17 22 30 81 49 49 60
REMARK Flexibility Score: inf
ROOT
ATOM      1  C   UNL A   1      34.363  30.787  28.000  1.00  0.00     0.002 C 
ENDROOT
BRANCH   1   2
ATOM      2  C   UNL A   1      34.770  29.629  27.085  1.00  0.00     0.002 C 
BRANCH   2   3
ATOM      3  C   UNL A   1      33.795  28.453  27.008  1.00  0.00     0.021 C 
BRANCH   3   4
ATOM      4  C   UNL A   1      32.358  28.764  27.402  1.00  0.00     0.116 C 
BRANCH   4   5
ATOM      5  N   UNL A   1      31.470  27.624  27.299  1.00  0.00    -0.356 N 
ATOM      6  C   UNL A   1      30.954  26.935  26.249  1.00  0.00     0.223 C 
ATOM      7  O   UNL A   1      30.359  25.893  26.556  1.00  0.00    -0.275 OA
ATOM      8  H   UNL A   1      31.180  27.275  28.172  1.00  0.00     0.163 HD
BRANCH   6   9
ATOM      9  C   UNL A   1      30.966  27.392  24.773  1.00  0.00     0.079 C 
ATOM     10  C   UNL A   1      32.186  25.512  23.635  1.00  0.00     0.079 C 
ATOM     11  C   UNL A   1      30.952  25.128  22.820  1.00  0.00     0.013 C 
ATOM     12  C   UNL A   1      32.132  27.030  23.854  1.00  0.00     0.027 C 
ATOM     13  C   UNL A   1      29.695  25.463  23.628  1.00  0.00     0.002 C 
ATOM     14  C   UNL A   1      29.660  26.934  24.069  1.00  0.00     0.013 C 
BRANCH  10  15
ATOM     15  C   UNL A   1      33.520  25.059  23.058  1.00  0.00     0.223 C 
ATOM     16  N   UNL A   1      34.238  24.110  23.740  1.00  0.00    -0.352 N 
ATOM     17  H   UNL A   1      35.154  23.950  23.414  1.00  0.00     0.163 HD
ATOM     18  O   UNL A   1      34.009  25.573  22.053  1.00  0.00    -0.275 OA
BRANCH  16  19
ATOM     19  C   UNL A   1      33.834  23.320  24.864  1.00  0.00     0.094 C 
ATOM     20  C   UNL A   1      31.934  21.660  25.541  1.00  0.00     0.014 C 
ATOM     21  C   UNL A   1      33.120  21.989  24.657  1.00  0.00    -0.007 C 
ATOM     22  C   UNL A   1      32.886  21.542  23.226  1.00  0.00     0.014 C 
ATOM     23  C   UNL A   1      34.539  22.040  25.266  1.00  0.00    -0.007 C 
ATOM     24  C   UNL A   1      34.755  21.867  26.759  1.00  0.00     0.014 C 
ATOM     25  C   UNL A   1      35.716  21.518  24.475  1.00  0.00     0.014 C 
ENDBRANCH  16  19
ENDBRANCH  10  15
ENDBRANCH   6   9
ENDBRANCH   4   5
ENDBRANCH   3   4
ENDBRANCH   2   3
ENDBRANCH   1   2
BRANCH   1  26
ATOM     26  C   UNL A   1      34.013  32.109  27.311  1.00  0.00     0.021 C 
BRANCH  26  27
ATOM     27  C   UNL A   1      32.652  32.696  27.667  1.00  0.00     0.116 C 
BRANCH  27  28
ATOM     28  N   UNL A   1      32.699  34.135  27.842  1.00  0.00    -0.352 N 
ATOM     29  C   UNL A   1      33.460  34.880  28.705  1.00  0.00     0.251 C 
ATOM     30  H   UNL A   1      32.099  34.651  27.257  1.00  0.00     0.163 HD
ATOM     31  O   UNL A   1      33.222  36.084  28.828  1.00  0.00    -0.269 OA
BRANCH  29  32
ATOM     32  C   UNL A   1      34.539  34.249  29.495  1.00  0.00     0.039 A 
ATOM     33  C   UNL A   1      35.863  34.427  29.083  1.00  0.00     0.014 A 
ATOM     34  C   UNL A   1      34.258  33.455  30.610  1.00  0.00     0.014 A 
ATOM     35  C   UNL A   1      36.901  33.829  29.801  1.00  0.00     0.010 A 
ATOM     36  C   UNL A   1      35.298  32.927  31.373  1.00  0.00     0.010 A 
ATOM     37  C   UNL A   1      36.628  33.083  30.960  1.00  0.00    -0.014 A 
BRANCH  37  38
ATOM     38  C   UNL A   1      37.722  32.405  31.704  1.00  0.00     0.031 A 
ATOM     39  C   UNL A   1      38.460  31.256  31.066  1.00  0.00     0.074 A 
ATOM     40  C   UNL A   1      38.036  32.805  32.951  1.00  0.00     0.049 A 
ATOM     41  N   UNL A   1      39.421  30.513  31.553  1.00  0.00    -0.248 NA
ATOM     42  C   UNL A   1      38.036  30.872  29.710  1.00  0.00     0.031 C 
ATOM     43  C   UNL A   1      37.368  33.882  33.686  1.00  0.00     0.029 A 
ATOM     44  N   UNL A   1      38.996  32.356  33.822  1.00  0.00    -0.354 N 
ATOM     45  C   UNL A   1      39.707  29.570  30.570  1.00  0.00     0.074 A 
ATOM     46  C   UNL A   1      38.765  29.789  29.493  1.00  0.00     0.031 C 
ATOM     47  C   UNL A   1      37.961  34.030  34.882  1.00  0.00     0.029 A 
ATOM     48  C   UNL A   1      39.022  33.037  35.018  1.00  0.00     0.049 A 
ATOM     49  H   UNL A   1      39.609  31.616  33.612  1.00  0.00     0.167 HD
ATOM     50  C   UNL A   1      40.683  28.628  30.553  1.00  0.00     0.034 A 
ATOM     51  C   UNL A   1      39.810  32.877  36.098  1.00  0.00     0.034 A 
ATOM     52  C   UNL A   1      41.621  28.431  31.631  1.00  0.00     0.049 A 
ATOM     53  C   UNL A   1      40.884  31.817  36.060  1.00  0.00     0.074 A 
ATOM     54  C   UNL A   1      42.670  27.532  31.712  1.00  0.00     0.029 A 
ATOM     55  N   UNL A   1      41.622  29.146  32.823  1.00  0.00    -0.354 N 
ATOM     56  N   UNL A   1      41.169  30.959  35.106  1.00  0.00    -0.248 NA
ATOM     57  C   UNL A   1      41.755  31.721  37.237  1.00  0.00     0.031 C 
ATOM     58  C   UNL A   1      43.261  27.657  32.974  1.00  0.00     0.029 A 
ATOM     59  C   UNL A   1      42.639  28.695  33.651  1.00  0.00     0.049 A 
ATOM     60  H   UNL A   1      40.992  29.870  33.047  1.00  0.00     0.167 HD
ATOM     61  C   UNL A   1      42.282  30.252  35.554  1.00  0.00     0.074 A 
ATOM     62  C   UNL A   1      42.622  30.798  36.852  1.00  0.00     0.031 C 
ATOM     63  C   UNL A   1      42.965  29.245  34.947  1.00  0.00     0.034 A 
BRANCH  50  64
ATOM     64  C   UNL A   1      40.758  27.729  29.338  1.00  0.00     0.023 A 
ATOM     65  C   UNL A   1      41.694  27.950  28.311  1.00  0.00     0.031 A 
ATOM     66  C   UNL A   1      39.858  26.660  29.183  1.00  0.00     0.131 A 
ATOM     67  C   UNL A   1      41.650  27.174  27.142  1.00  0.00     0.055 A 
ATOM     68  C   UNL A   1      39.881  25.833  28.057  1.00  0.00     0.041 A 
ATOM     69  F   UNL A   1      38.927  26.409  30.117  1.00  0.00    -0.206 F 
ATOM     70  C   UNL A   1      40.769  26.099  27.020  1.00  0.00     0.022 A 
BRANCH  67  71
ATOM     71  S   UNL A   1      42.653  27.693  25.721  1.00  0.00     0.124 S 
ATOM     72  O   UNL A   1      42.354  26.642  24.751  1.00  0.00    -0.237 OA
ATOM     73  O   UNL A   1      42.114  29.014  25.420  1.00  0.00    -0.237 OA
ATOM     74  O   UNL A   1      44.019  27.679  26.241  1.00  0.00    -0.744 OA
ENDBRANCH  67  71
ENDBRANCH  50  64
BRANCH  51  75
ATOM     75  C   UNL A   1      39.630  33.737  37.303  1.00  0.00     0.023 A 
ATOM     76  C   UNL A   1      38.926  33.274  38.427  1.00  0.00     0.031 A 
ATOM     77  C   UNL A   1      40.115  35.057  37.330  1.00  0.00     0.131 A 
ATOM     78  C   UNL A   1      38.678  34.139  39.504  1.00  0.00     0.055 A 
ATOM     79  C   UNL A   1      39.916  35.894  38.428  1.00  0.00     0.041 A 
ATOM     80  F   UNL A   1      40.802  35.549  36.286  1.00  0.00    -0.206 F 
ATOM     81  C   UNL A   1      39.179  35.442  39.519  1.00  0.00     0.022 A 
BRANCH  78  82
ATOM     82  S   UNL A   1      37.604  33.566  40.849  1.00  0.00     0.124 S 
ATOM     83  O   UNL A   1      37.286  34.815  41.529  1.00  0.00    -0.237 OA
ATOM     84  O   UNL A   1      36.509  32.939  40.115  1.00  0.00    -0.237 OA
ATOM     85  O   UNL A   1      38.457  32.645  41.597  1.00  0.00    -0.744 OA
ENDBRANCH  78  82
ENDBRANCH  51  75
BRANCH  63  86
ATOM     86  C   UNL A   1      44.188  28.719  35.664  1.00  0.00     0.023 A 
ATOM     87  C   UNL A   1      44.113  27.662  36.588  1.00  0.00     0.031 A 
ATOM     88  C   UNL A   1      45.442  29.318  35.448  1.00  0.00     0.131 A 
ATOM     89  C   UNL A   1      45.250  27.295  37.323  1.00  0.00     0.055 A 
ATOM     90  C   UNL A   1      46.586  28.896  36.125  1.00  0.00     0.041 A 
ATOM     91  F   UNL A   1      45.575  30.333  34.579  1.00  0.00    -0.206 F 
ATOM     92  C   UNL A   1      46.490  27.893  37.085  1.00  0.00     0.022 A 
BRANCH  89  93
ATOM     93  S   UNL A   1      45.055  26.125  38.696  1.00  0.00     0.124 S 
ATOM     94  O   UNL A   1      44.558  24.935  38.013  1.00  0.00    -0.237 OA
ATOM     95  O   UNL A   1      46.413  26.036  39.223  1.00  0.00    -0.237 OA
ATOM     96  O   UNL A   1      44.091  26.785  39.574  1.00  0.00    -0.744 OA
ENDBRANCH  89  93
ENDBRANCH  63  86
ENDBRANCH  37  38
ENDBRANCH  29  32
ENDBRANCH  27  28
ENDBRANCH  26  27
ENDBRANCH   1  26
TORSDOF 18
ENDMDL
