MODEL 1
REMARK VINA RESULT:     -11.6      0.000      0.000
REMARK SMILES COc1cccc(/C=C(/CC(=O)NCCCCCCNC(=O)c2ccc(-c3c4nc(c(-c5cc(S(=O)(=O)[O-])ccc5F)c5ccc([nH]5)c(-c5cc(S(=O)(=O)[O-])ccc5F)c5nc(c(-c6cc(S(=O)(=O)[O-])ccc6F)c6ccc3[nH]6)C=C5)C=C4)cc2)c2nc3ccccc3o2)c1
REMARK SMILES IDX 16 1 15 2 14 3 13 4 11 5 12 6 10 8 9 9 8 10 7 11 3 12 4 13
REMARK SMILES IDX 95 14 5 15 6 16 2 17 1 18 86 19 87 20 94 21 88 22 93 23
REMARK SMILES IDX 89 24 92 25 90 26 91 27 17 28 18 29 19 30 20 31 21 32 22 34
REMARK SMILES IDX 23 35 24 36 85 37 25 38 84 39 26 40 27 41 28 42 78 43 29 44
REMARK SMILES IDX 83 45 77 46 79 47 30 48 82 49 76 50 75 51 31 53 63 54 43 55
REMARK SMILES IDX 62 56 44 57 47 58 61 59 80 60 45 61 46 62 60 64 81 65 48 66
REMARK SMILES IDX 32 67 33 68 41 69 34 70 40 71 42 72 39 73 35 74 36 75 37 76
REMARK SMILES IDX 38 77 64 78 65 79 73 80 66 81 72 82 74 83 71 84 67 85 68 86
REMARK SMILES IDX 69 87 70 88 49 89 50 90 58 91 51 92 57 93 59 94 56 95 52 96
REMARK SMILES IDX 53 97 54 98 55 99
REMARK H PARENT 13 7 20 33 79 52 47 63
REMARK Flexibility Score: inf
ROOT
ATOM      1  C   UNL A   1      33.988  22.065  24.292  1.00  0.00     0.002 C 
ENDROOT
BRANCH   1   2
ATOM      2  C   UNL A   1      33.955  23.216  23.277  1.00  0.00     0.021 C 
BRANCH   2   3
ATOM      3  C   UNL A   1      32.565  23.795  23.015  1.00  0.00     0.116 C 
BRANCH   3   4
ATOM      4  N   UNL A   1      32.424  24.305  21.665  1.00  0.00    -0.356 N 
ATOM      5  C   UNL A   1      32.765  25.524  21.155  1.00  0.00     0.224 C 
ATOM      6  O   UNL A   1      32.620  25.714  19.945  1.00  0.00    -0.275 OA
ATOM      7  H   UNL A   1      32.022  23.678  21.021  1.00  0.00     0.163 HD
BRANCH   5   8
ATOM      8  C   UNL A   1      33.399  26.586  22.052  1.00  0.00     0.141 C 
BRANCH   8   9
ATOM      9  C   UNL A   1      32.383  27.478  22.765  1.00  0.00     0.025 C 
ATOM     10  C   UNL A   1      31.137  27.549  22.232  1.00  0.00     0.018 C 
BRANCH  10  11
ATOM     11  C   UNL A   1      29.906  28.355  22.443  1.00  0.00    -0.021 A 
ATOM     12  C   UNL A   1      28.844  30.554  22.157  1.00  0.00     0.119 A 
ATOM     13  C   UNL A   1      27.719  30.098  22.834  1.00  0.00     0.046 A 
ATOM     14  C   UNL A   1      29.926  29.687  21.964  1.00  0.00     0.054 A 
ATOM     15  C   UNL A   1      27.667  28.790  23.299  1.00  0.00     0.004 A 
ATOM     16  C   UNL A   1      28.757  27.932  23.114  1.00  0.00     0.008 A 
BRANCH  12  17
ATOM     17  O   UNL A   1      28.794  31.867  21.785  1.00  0.00    -0.497 OA
ATOM     18  C   UNL A   1      28.953  32.835  22.815  1.00  0.00     0.278 C 
ENDBRANCH  12  17
ENDBRANCH  10  11
BRANCH   9  19
ATOM     19  C   UNL A   1      32.795  28.219  23.921  1.00  0.00     0.223 A 
ATOM     20  N   UNL A   1      33.905  27.970  24.608  1.00  0.00    -0.210 NA
ATOM     21  O   UNL A   1      32.016  29.188  24.539  1.00  0.00    -0.436 OA
ATOM     22  C   UNL A   1      33.869  28.805  25.687  1.00  0.00     0.110 A 
ATOM     23  C   UNL A   1      32.727  29.576  25.634  1.00  0.00     0.155 A 
ATOM     24  C   UNL A   1      34.759  28.969  26.755  1.00  0.00     0.032 A 
ATOM     25  C   UNL A   1      32.396  30.561  26.556  1.00  0.00     0.049 A 
ATOM     26  C   UNL A   1      34.458  29.946  27.717  1.00  0.00     0.003 A 
ATOM     27  C   UNL A   1      33.304  30.733  27.610  1.00  0.00     0.004 A 
ENDBRANCH   9  19
ENDBRANCH   8   9
ENDBRANCH   5   8
ENDBRANCH   3   4
ENDBRANCH   2   3
ENDBRANCH   1   2
BRANCH   1  28
ATOM     28  C   UNL A   1      35.304  21.893  25.059  1.00  0.00     0.002 C 
BRANCH  28  29
ATOM     29  C   UNL A   1      36.420  22.870  24.681  1.00  0.00     0.021 C 
BRANCH  29  30
ATOM     30  C   UNL A   1      37.331  23.277  25.834  1.00  0.00     0.116 C 
BRANCH  30  31
ATOM     31  N   UNL A   1      38.318  22.255  26.145  1.00  0.00    -0.352 N 
ATOM     32  C   UNL A   1      39.618  22.412  26.566  1.00  0.00     0.251 C 
ATOM     33  H   UNL A   1      38.013  21.324  26.041  1.00  0.00     0.163 HD
ATOM     34  O   UNL A   1      40.372  21.444  26.610  1.00  0.00    -0.269 OA
BRANCH  32  35
ATOM     35  C   UNL A   1      40.104  23.759  26.935  1.00  0.00     0.039 A 
ATOM     36  C   UNL A   1      40.279  24.721  25.936  1.00  0.00     0.014 A 
ATOM     37  C   UNL A   1      40.365  24.074  28.271  1.00  0.00     0.014 A 
ATOM     38  C   UNL A   1      40.648  26.025  26.287  1.00  0.00     0.010 A 
ATOM     39  C   UNL A   1      40.668  25.386  28.623  1.00  0.00     0.010 A 
ATOM     40  C   UNL A   1      40.810  26.376  27.636  1.00  0.00    -0.014 A 
BRANCH  40  41
ATOM     41  C   UNL A   1      41.155  27.760  28.058  1.00  0.00     0.031 A 
ATOM     42  C   UNL A   1      42.601  28.147  28.203  1.00  0.00     0.074 A 
ATOM     43  C   UNL A   1      40.183  28.625  28.406  1.00  0.00     0.049 A 
ATOM     44  N   UNL A   1      43.125  29.216  28.742  1.00  0.00    -0.248 NA
ATOM     45  C   UNL A   1      43.587  27.176  27.707  1.00  0.00     0.031 C 
ATOM     46  C   UNL A   1      38.745  28.364  28.323  1.00  0.00     0.029 A 
ATOM     47  N   UNL A   1      40.259  29.894  28.927  1.00  0.00    -0.354 N 
ATOM     48  C   UNL A   1      44.503  29.035  28.678  1.00  0.00     0.074 A 
ATOM     49  C   UNL A   1      44.726  27.729  28.093  1.00  0.00     0.031 C 
ATOM     50  C   UNL A   1      38.076  29.438  28.772  1.00  0.00     0.029 A 
ATOM     51  C   UNL A   1      39.032  30.443  29.227  1.00  0.00     0.049 A 
ATOM     52  H   UNL A   1      41.109  30.367  29.072  1.00  0.00     0.167 HD
ATOM     53  C   UNL A   1      45.490  29.884  29.060  1.00  0.00     0.034 A 
ATOM     54  C   UNL A   1      38.716  31.609  29.827  1.00  0.00     0.034 A 
ATOM     55  C   UNL A   1      45.246  31.189  29.624  1.00  0.00     0.049 A 
ATOM     56  C   UNL A   1      39.829  32.530  30.266  1.00  0.00     0.074 A 
ATOM     57  C   UNL A   1      46.168  32.149  30.008  1.00  0.00     0.029 A 
ATOM     58  N   UNL A   1      43.990  31.720  29.887  1.00  0.00    -0.354 N 
ATOM     59  N   UNL A   1      41.127  32.352  30.186  1.00  0.00    -0.248 NA
ATOM     60  C   UNL A   1      39.434  33.809  30.870  1.00  0.00     0.031 C 
ATOM     61  C   UNL A   1      45.472  33.231  30.556  1.00  0.00     0.029 A 
ATOM     62  C   UNL A   1      44.113  32.982  30.445  1.00  0.00     0.049 A 
ATOM     63  H   UNL A   1      43.136  31.265  29.704  1.00  0.00     0.167 HD
ATOM     64  C   UNL A   1      41.701  33.517  30.689  1.00  0.00     0.074 A 
ATOM     65  C   UNL A   1      40.609  34.387  31.073  1.00  0.00     0.031 C 
ATOM     66  C   UNL A   1      43.013  33.841  30.813  1.00  0.00     0.034 A 
BRANCH  53  67
ATOM     67  C   UNL A   1      46.914  29.406  28.908  1.00  0.00     0.023 A 
ATOM     68  C   UNL A   1      47.505  29.234  27.645  1.00  0.00     0.031 A 
ATOM     69  C   UNL A   1      47.680  29.081  30.042  1.00  0.00     0.131 A 
ATOM     70  C   UNL A   1      48.786  28.673  27.541  1.00  0.00     0.055 A 
ATOM     71  C   UNL A   1      48.989  28.605  29.935  1.00  0.00     0.041 A 
ATOM     72  F   UNL A   1      47.165  29.205  31.275  1.00  0.00    -0.206 F 
ATOM     73  C   UNL A   1      49.544  28.381  28.678  1.00  0.00     0.022 A 
BRANCH  70  74
ATOM     74  S   UNL A   1      49.386  28.186  25.900  1.00  0.00     0.124 S 
ATOM     75  O   UNL A   1      50.411  29.197  25.651  1.00  0.00    -0.237 OA
ATOM     76  O   UNL A   1      49.871  26.829  26.130  1.00  0.00    -0.237 OA
ATOM     77  O   UNL A   1      48.199  28.290  25.055  1.00  0.00    -0.744 OA
ENDBRANCH  70  74
ENDBRANCH  53  67
BRANCH  54  78
ATOM     78  C   UNL A   1      37.290  31.971  30.072  1.00  0.00     0.023 A 
ATOM     79  C   UNL A   1      36.585  32.777  29.164  1.00  0.00     0.031 A 
ATOM     80  C   UNL A   1      36.623  31.552  31.237  1.00  0.00     0.131 A 
ATOM     81  C   UNL A   1      35.273  33.179  29.458  1.00  0.00     0.055 A 
ATOM     82  C   UNL A   1      35.300  31.910  31.499  1.00  0.00     0.041 A 
ATOM     83  F   UNL A   1      37.249  30.775  32.136  1.00  0.00    -0.206 F 
ATOM     84  C   UNL A   1      34.621  32.741  30.613  1.00  0.00     0.022 A 
BRANCH  81  85
ATOM     85  S   UNL A   1      34.457  34.358  28.346  1.00  0.00     0.124 S 
ATOM     86  O   UNL A   1      34.549  35.597  29.111  1.00  0.00    -0.237 OA
ATOM     87  O   UNL A   1      35.292  34.275  27.153  1.00  0.00    -0.237 OA
ATOM     88  O   UNL A   1      33.110  33.812  28.202  1.00  0.00    -0.744 OA
ENDBRANCH  81  85
ENDBRANCH  54  78
BRANCH  66  89
ATOM     89  C   UNL A   1      43.339  35.226  31.314  1.00  0.00     0.023 A 
ATOM     90  C   UNL A   1      43.537  36.309  30.442  1.00  0.00     0.031 A 
ATOM     91  C   UNL A   1      43.432  35.461  32.698  1.00  0.00     0.131 A 
ATOM     92  C   UNL A   1      43.856  37.573  30.963  1.00  0.00     0.055 A 
ATOM     93  C   UNL A   1      43.699  36.730  33.212  1.00  0.00     0.041 A 
ATOM     94  F   UNL A   1      43.253  34.459  33.574  1.00  0.00    -0.206 F 
ATOM     95  C   UNL A   1      43.921  37.794  32.343  1.00  0.00     0.022 A 
BRANCH  92  96
ATOM     96  S   UNL A   1      44.245  38.921  29.813  1.00  0.00     0.124 S 
ATOM     97  O   UNL A   1      43.515  38.518  28.616  1.00  0.00    -0.237 OA
ATOM     98  O   UNL A   1      43.725  40.090  30.514  1.00  0.00    -0.237 OA
ATOM     99  O   UNL A   1      45.701  38.866  29.699  1.00  0.00    -0.744 OA
ENDBRANCH  92  96
ENDBRANCH  66  89
ENDBRANCH  40  41
ENDBRANCH  32  35
ENDBRANCH  30  31
ENDBRANCH  29  30
ENDBRANCH  28  29
ENDBRANCH   1  28
TORSDOF 20
ENDMDL
MODEL 2
REMARK VINA RESULT:     -11.3      6.010     10.444
REMARK SMILES COc1cccc(/C=C(/CC(=O)NCCCCCCNC(=O)c2ccc(-c3c4nc(c(-c5cc(S(=O)(=O)[O-])ccc5F)c5ccc([nH]5)c(-c5cc(S(=O)(=O)[O-])ccc5F)c5nc(c(-c6cc(S(=O)(=O)[O-])ccc6F)c6ccc3[nH]6)C=C5)C=C4)cc2)c2nc3ccccc3o2)c1
REMARK SMILES IDX 16 1 15 2 14 3 13 4 11 5 12 6 10 8 9 9 8 10 7 11 3 12 4 13
REMARK SMILES IDX 95 14 5 15 6 16 2 17 1 18 86 19 87 20 94 21 88 22 93 23
REMARK SMILES IDX 89 24 92 25 90 26 91 27 17 28 18 29 19 30 20 31 21 32 22 34
REMARK SMILES IDX 23 35 24 36 85 37 25 38 84 39 26 40 27 41 28 42 78 43 29 44
REMARK SMILES IDX 83 45 77 46 79 47 30 48 82 49 76 50 75 51 31 53 63 54 43 55
REMARK SMILES IDX 62 56 44 57 47 58 61 59 80 60 45 61 46 62 60 64 81 65 48 66
REMARK SMILES IDX 32 67 33 68 41 69 34 70 40 71 42 72 39 73 35 74 36 75 37 76
REMARK SMILES IDX 38 77 64 78 65 79 73 80 66 81 72 82 74 83 71 84 67 85 68 86
REMARK SMILES IDX 69 87 70 88 49 89 50 90 58 91 51 92 57 93 59 94 56 95 52 96
REMARK SMILES IDX 53 97 54 98 55 99
REMARK H PARENT 13 7 20 33 79 52 47 63
REMARK Flexibility Score: inf
ROOT
ATOM      1  C   UNL A   1      34.848  33.446  29.393  1.00  0.00     0.002 C 
ENDROOT
BRANCH   1   2
ATOM      2  C   UNL A   1      34.610  31.953  29.132  1.00  0.00     0.021 C 
BRANCH   2   3
ATOM      3  C   UNL A   1      34.052  31.628  27.747  1.00  0.00     0.116 C 
BRANCH   3   4
ATOM      4  N   UNL A   1      34.749  30.527  27.114  1.00  0.00    -0.356 N 
ATOM      5  C   UNL A   1      34.328  29.250  26.878  1.00  0.00     0.224 C 
ATOM      6  O   UNL A   1      35.073  28.494  26.249  1.00  0.00    -0.275 OA
ATOM      7  H   UNL A   1      35.663  30.731  26.808  1.00  0.00     0.163 HD
BRANCH   5   8
ATOM      8  C   UNL A   1      32.929  28.808  27.303  1.00  0.00     0.141 C 
BRANCH   8   9
ATOM      9  C   UNL A   1      32.048  28.348  26.141  1.00  0.00     0.025 C 
ATOM     10  C   UNL A   1      31.478  29.312  25.375  1.00  0.00     0.018 C 
BRANCH  10  11
ATOM     11  C   UNL A   1      30.466  29.383  24.289  1.00  0.00    -0.021 A 
ATOM     12  C   UNL A   1      28.804  30.793  23.152  1.00  0.00     0.119 A 
ATOM     13  C   UNL A   1      28.430  29.714  22.360  1.00  0.00     0.046 A 
ATOM     14  C   UNL A   1      29.813  30.626  24.106  1.00  0.00     0.054 A 
ATOM     15  C   UNL A   1      29.066  28.487  22.508  1.00  0.00     0.004 A 
ATOM     16  C   UNL A   1      30.067  28.323  23.472  1.00  0.00     0.008 A 
BRANCH  12  17
ATOM     17  O   UNL A   1      28.079  31.932  22.943  1.00  0.00    -0.497 OA
ATOM     18  C   UNL A   1      28.811  33.129  22.714  1.00  0.00     0.278 C 
ENDBRANCH  12  17
ENDBRANCH  10  11
BRANCH   9  19
ATOM     19  C   UNL A   1      31.836  26.944  25.940  1.00  0.00     0.223 A 
ATOM     20  N   UNL A   1      30.872  26.246  26.531  1.00  0.00    -0.210 NA
ATOM     21  O   UNL A   1      32.694  26.126  25.218  1.00  0.00    -0.436 OA
ATOM     22  C   UNL A   1      31.085  24.945  26.174  1.00  0.00     0.110 A 
ATOM     23  C   UNL A   1      32.183  24.869  25.344  1.00  0.00     0.155 A 
ATOM     24  C   UNL A   1      30.398  23.773  26.512  1.00  0.00     0.032 A 
ATOM     25  C   UNL A   1      32.655  23.699  24.764  1.00  0.00     0.049 A 
ATOM     26  C   UNL A   1      30.848  22.565  25.957  1.00  0.00     0.003 A 
ATOM     27  C   UNL A   1      31.948  22.534  25.090  1.00  0.00     0.004 A 
ENDBRANCH   9  19
ENDBRANCH   8   9
ENDBRANCH   5   8
ENDBRANCH   3   4
ENDBRANCH   2   3
ENDBRANCH   1   2
BRANCH   1  28
ATOM     28  C   UNL A   1      34.204  34.408  28.387  1.00  0.00     0.002 C 
BRANCH  28  29
ATOM     29  C   UNL A   1      33.004  35.202  28.909  1.00  0.00     0.021 C 
BRANCH  29  30
ATOM     30  C   UNL A   1      33.360  36.384  29.804  1.00  0.00     0.116 C 
BRANCH  30  31
ATOM     31  N   UNL A   1      32.469  36.498  30.948  1.00  0.00    -0.352 N 
ATOM     32  C   UNL A   1      32.529  35.843  32.156  1.00  0.00     0.251 C 
ATOM     33  H   UNL A   1      31.720  37.129  30.843  1.00  0.00     0.163 HD
ATOM     34  O   UNL A   1      31.593  35.920  32.946  1.00  0.00    -0.269 OA
BRANCH  32  35
ATOM     35  C   UNL A   1      33.718  35.025  32.480  1.00  0.00     0.039 A 
ATOM     36  C   UNL A   1      34.990  35.599  32.390  1.00  0.00     0.014 A 
ATOM     37  C   UNL A   1      33.571  33.698  32.892  1.00  0.00     0.014 A 
ATOM     38  C   UNL A   1      36.112  34.862  32.784  1.00  0.00     0.010 A 
ATOM     39  C   UNL A   1      34.681  32.990  33.345  1.00  0.00     0.010 A 
ATOM     40  C   UNL A   1      35.962  33.565  33.298  1.00  0.00    -0.014 A 
BRANCH  40  41
ATOM     41  C   UNL A   1      37.121  32.762  33.773  1.00  0.00     0.031 A 
ATOM     42  C   UNL A   1      37.817  33.156  35.047  1.00  0.00     0.074 A 
ATOM     43  C   UNL A   1      37.606  31.758  33.017  1.00  0.00     0.049 A 
ATOM     44  N   UNL A   1      38.952  32.732  35.540  1.00  0.00    -0.248 NA
ATOM     45  C   UNL A   1      37.160  34.196  35.852  1.00  0.00     0.031 C 
ATOM     46  C   UNL A   1      37.028  31.289  31.757  1.00  0.00     0.029 A 
ATOM     47  N   UNL A   1      38.715  30.965  33.188  1.00  0.00    -0.354 N 
ATOM     48  C   UNL A   1      39.162  33.476  36.697  1.00  0.00     0.074 A 
ATOM     49  C   UNL A   1      38.059  34.408  36.801  1.00  0.00     0.031 C 
ATOM     50  C   UNL A   1      37.784  30.291  31.271  1.00  0.00     0.029 A 
ATOM     51  C   UNL A   1      38.929  30.083  32.153  1.00  0.00     0.049 A 
ATOM     52  H   UNL A   1      39.301  31.021  33.976  1.00  0.00     0.167 HD
ATOM     53  C   UNL A   1      40.173  33.378  37.596  1.00  0.00     0.034 A 
ATOM     54  C   UNL A   1      39.946  29.226  31.925  1.00  0.00     0.034 A 
ATOM     55  C   UNL A   1      41.253  32.429  37.484  1.00  0.00     0.049 A 
ATOM     56  C   UNL A   1      41.074  29.150  32.925  1.00  0.00     0.074 A 
ATOM     57  C   UNL A   1      42.307  32.214  38.356  1.00  0.00     0.029 A 
ATOM     58  N   UNL A   1      41.419  31.534  36.434  1.00  0.00    -0.354 N 
ATOM     59  N   UNL A   1      41.252  29.848  34.023  1.00  0.00    -0.248 NA
ATOM     60  C   UNL A   1      42.133  28.168  32.660  1.00  0.00     0.031 C 
ATOM     61  C   UNL A   1      43.140  31.234  37.805  1.00  0.00     0.029 A 
ATOM     62  C   UNL A   1      42.567  30.782  36.626  1.00  0.00     0.049 A 
ATOM     63  H   UNL A   1      40.811  31.448  35.666  1.00  0.00     0.167 HD
ATOM     64  C   UNL A   1      42.420  29.357  34.600  1.00  0.00     0.074 A 
ATOM     65  C   UNL A   1      42.906  28.307  33.727  1.00  0.00     0.031 C 
ATOM     66  C   UNL A   1      43.031  29.732  35.752  1.00  0.00     0.034 A 
BRANCH  53  67
ATOM     67  C   UNL A   1      40.168  34.348  38.753  1.00  0.00     0.023 A 
ATOM     68  C   UNL A   1      39.495  34.063  39.954  1.00  0.00     0.031 A 
ATOM     69  C   UNL A   1      40.814  35.593  38.642  1.00  0.00     0.131 A 
ATOM     70  C   UNL A   1      39.410  35.038  40.958  1.00  0.00     0.055 A 
ATOM     71  C   UNL A   1      40.800  36.525  39.681  1.00  0.00     0.041 A 
ATOM     72  F   UNL A   1      41.457  35.932  37.514  1.00  0.00    -0.206 F 
ATOM     73  C   UNL A   1      40.080  36.258  40.842  1.00  0.00     0.022 A 
BRANCH  70  74
ATOM     74  S   UNL A   1      38.284  34.748  42.350  1.00  0.00     0.124 S 
ATOM     75  O   UNL A   1      38.803  33.495  42.892  1.00  0.00    -0.237 OA
ATOM     76  O   UNL A   1      38.490  35.934  43.175  1.00  0.00    -0.237 OA
ATOM     77  O   UNL A   1      36.971  34.649  41.716  1.00  0.00    -0.744 OA
ENDBRANCH  70  74
ENDBRANCH  53  67
BRANCH  54  78
ATOM     78  C   UNL A   1      39.964  28.385  30.694  1.00  0.00     0.023 A 
ATOM     79  C   UNL A   1      40.753  28.742  29.589  1.00  0.00     0.031 A 
ATOM     80  C   UNL A   1      39.162  27.235  30.587  1.00  0.00     0.131 A 
ATOM     81  C   UNL A   1      40.687  27.986  28.408  1.00  0.00     0.055 A 
ATOM     82  C   UNL A   1      39.140  26.456  29.430  1.00  0.00     0.041 A 
ATOM     83  F   UNL A   1      38.392  26.845  31.616  1.00  0.00    -0.206 F 
ATOM     84  C   UNL A   1      39.895  26.838  28.326  1.00  0.00     0.022 A 
BRANCH  81  85
ATOM     85  S   UNL A   1      41.587  28.576  26.948  1.00  0.00     0.124 S 
ATOM     86  O   UNL A   1      40.501  29.082  26.116  1.00  0.00    -0.237 OA
ATOM     87  O   UNL A   1      42.476  29.578  27.526  1.00  0.00    -0.237 OA
ATOM     88  O   UNL A   1      42.248  27.373  26.448  1.00  0.00    -0.744 OA
ENDBRANCH  81  85
ENDBRANCH  54  78
BRANCH  66  89
ATOM     89  C   UNL A   1      44.250  28.950  36.176  1.00  0.00     0.023 A 
ATOM     90  C   UNL A   1      44.180  27.909  37.116  1.00  0.00     0.031 A 
ATOM     91  C   UNL A   1      45.501  29.249  35.605  1.00  0.00     0.131 A 
ATOM     92  C   UNL A   1      45.350  27.227  37.487  1.00  0.00     0.055 A 
ATOM     93  C   UNL A   1      46.651  28.534  35.940  1.00  0.00     0.041 A 
ATOM     94  F   UNL A   1      45.622  30.236  34.703  1.00  0.00    -0.206 F 
ATOM     95  C   UNL A   1      46.581  27.521  36.892  1.00  0.00     0.022 A 
BRANCH  92  96
ATOM     96  S   UNL A   1      45.257  25.984  38.805  1.00  0.00     0.124 S 
ATOM     97  O   UNL A   1      44.000  26.331  39.460  1.00  0.00    -0.237 OA
ATOM     98  O   UNL A   1      45.260  24.732  38.055  1.00  0.00    -0.237 OA
ATOM     99  O   UNL A   1      46.459  26.232  39.597  1.00  0.00    -0.744 OA
ENDBRANCH  92  96
ENDBRANCH  66  89
ENDBRANCH  40  41
ENDBRANCH  32  35
ENDBRANCH  30  31
ENDBRANCH  29  30
ENDBRANCH  28  29
ENDBRANCH   1  28
TORSDOF 20
ENDMDL
MODEL 3
REMARK VINA RESULT:     -11.0      3.842      6.156
REMARK SMILES COc1cccc(/C=C(/CC(=O)NCCCCCCNC(=O)c2ccc(-c3c4nc(c(-c5cc(S(=O)(=O)[O-])ccc5F)c5ccc([nH]5)c(-c5cc(S(=O)(=O)[O-])ccc5F)c5nc(c(-c6cc(S(=O)(=O)[O-])ccc6F)c6ccc3[nH]6)C=C5)C=C4)cc2)c2nc3ccccc3o2)c1
REMARK SMILES IDX 16 1 15 2 14 3 13 4 11 5 12 6 10 8 9 9 8 10 7 11 3 12 4 13
REMARK SMILES IDX 95 14 5 15 6 16 2 17 1 18 86 19 87 20 94 21 88 22 93 23
REMARK SMILES IDX 89 24 92 25 90 26 91 27 17 28 18 29 19 30 20 31 21 32 22 34
REMARK SMILES IDX 23 35 24 36 85 37 25 38 84 39 26 40 27 41 28 42 78 43 29 44
REMARK SMILES IDX 83 45 77 46 79 47 30 48 82 49 76 50 75 51 31 53 63 54 43 55
REMARK SMILES IDX 62 56 44 57 47 58 61 59 80 60 45 61 46 62 60 64 81 65 48 66
REMARK SMILES IDX 32 67 33 68 41 69 34 70 40 71 42 72 39 73 35 74 36 75 37 76
REMARK SMILES IDX 38 77 64 78 65 79 73 80 66 81 72 82 74 83 71 84 67 85 68 86
REMARK SMILES IDX 69 87 70 88 49 89 50 90 58 91 51 92 57 93 59 94 56 95 52 96
REMARK SMILES IDX 53 97 54 98 55 99
REMARK H PARENT 13 7 20 33 79 52 47 63
REMARK Flexibility Score: inf
ROOT
ATOM      1  C   UNL A   1      41.375  21.862  27.602  1.00  0.00     0.002 C 
ENDROOT
BRANCH   1   2
ATOM      2  C   UNL A   1      40.692  22.621  26.457  1.00  0.00     0.021 C 
BRANCH   2   3
ATOM      3  C   UNL A   1      39.174  22.746  26.591  1.00  0.00     0.116 C 
BRANCH   3   4
ATOM      4  N   UNL A   1      38.499  22.699  25.309  1.00  0.00    -0.356 N 
ATOM      5  C   UNL A   1      37.230  23.076  24.979  1.00  0.00     0.224 C 
ATOM      6  O   UNL A   1      36.890  23.016  23.794  1.00  0.00    -0.275 OA
ATOM      7  H   UNL A   1      39.038  22.342  24.566  1.00  0.00     0.163 HD
BRANCH   5   8
ATOM      8  C   UNL A   1      36.294  23.649  26.042  1.00  0.00     0.141 C 
BRANCH   8   9
ATOM      9  C   UNL A   1      34.818  23.612  25.647  1.00  0.00     0.025 C 
ATOM     10  C   UNL A   1      34.102  24.754  25.809  1.00  0.00     0.018 C 
BRANCH  10  11
ATOM     11  C   UNL A   1      32.677  25.167  25.730  1.00  0.00    -0.021 A 
ATOM     12  C   UNL A   1      30.391  24.737  26.528  1.00  0.00     0.119 A 
ATOM     13  C   UNL A   1      29.906  25.710  25.662  1.00  0.00     0.046 A 
ATOM     14  C   UNL A   1      31.765  24.470  26.560  1.00  0.00     0.054 A 
ATOM     15  C   UNL A   1      30.782  26.419  24.850  1.00  0.00     0.004 A 
ATOM     16  C   UNL A   1      32.153  26.140  24.878  1.00  0.00     0.008 A 
BRANCH  12  17
ATOM     17  O   UNL A   1      29.431  24.080  27.244  1.00  0.00    -0.497 OA
ATOM     18  C   UNL A   1      29.444  22.660  27.189  1.00  0.00     0.278 C 
ENDBRANCH  12  17
ENDBRANCH  10  11
BRANCH   9  19
ATOM     19  C   UNL A   1      34.254  22.383  25.170  1.00  0.00     0.223 A 
ATOM     20  N   UNL A   1      33.609  22.259  24.015  1.00  0.00    -0.210 NA
ATOM     21  O   UNL A   1      34.194  21.215  25.919  1.00  0.00    -0.436 OA
ATOM     22  C   UNL A   1      33.133  20.980  23.991  1.00  0.00     0.110 A 
ATOM     23  C   UNL A   1      33.515  20.325  25.143  1.00  0.00     0.155 A 
ATOM     24  C   UNL A   1      32.368  20.298  23.036  1.00  0.00     0.032 A 
ATOM     25  C   UNL A   1      33.234  18.994  25.425  1.00  0.00     0.049 A 
ATOM     26  C   UNL A   1      32.051  18.954  23.286  1.00  0.00     0.003 A 
ATOM     27  C   UNL A   1      32.487  18.314  24.453  1.00  0.00     0.004 A 
ENDBRANCH   9  19
ENDBRANCH   8   9
ENDBRANCH   5   8
ENDBRANCH   3   4
ENDBRANCH   2   3
ENDBRANCH   1   2
BRANCH   1  28
ATOM     28  C   UNL A   1      41.162  20.344  27.615  1.00  0.00     0.002 C 
BRANCH  28  29
ATOM     29  C   UNL A   1      41.698  19.594  26.393  1.00  0.00     0.021 C 
BRANCH  29  30
ATOM     30  C   UNL A   1      43.086  18.988  26.573  1.00  0.00     0.116 C 
BRANCH  30  31
ATOM     31  N   UNL A   1      43.777  18.806  25.306  1.00  0.00    -0.352 N 
ATOM     32  C   UNL A   1      44.314  19.760  24.473  1.00  0.00     0.251 C 
ATOM     33  H   UNL A   1      43.873  17.874  25.004  1.00  0.00     0.163 HD
ATOM     34  O   UNL A   1      44.703  19.448  23.351  1.00  0.00    -0.269 OA
BRANCH  32  35
ATOM     35  C   UNL A   1      44.390  21.164  24.930  1.00  0.00     0.039 A 
ATOM     36  C   UNL A   1      45.091  21.465  26.102  1.00  0.00     0.014 A 
ATOM     37  C   UNL A   1      43.786  22.182  24.188  1.00  0.00     0.014 A 
ATOM     38  C   UNL A   1      45.247  22.800  26.491  1.00  0.00     0.010 A 
ATOM     39  C   UNL A   1      43.998  23.512  24.541  1.00  0.00     0.010 A 
ATOM     40  C   UNL A   1      44.733  23.835  25.695  1.00  0.00    -0.014 A 
BRANCH  40  41
ATOM     41  C   UNL A   1      44.917  25.269  26.044  1.00  0.00     0.031 A 
ATOM     42  C   UNL A   1      46.294  25.871  25.989  1.00  0.00     0.074 A 
ATOM     43  C   UNL A   1      43.878  25.993  26.504  1.00  0.00     0.049 A 
ATOM     44  N   UNL A   1      46.715  27.025  26.435  1.00  0.00    -0.248 NA
ATOM     45  C   UNL A   1      47.343  25.039  25.382  1.00  0.00     0.031 C 
ATOM     46  C   UNL A   1      42.497  25.520  26.617  1.00  0.00     0.029 A 
ATOM     47  N   UNL A   1      43.828  27.277  26.989  1.00  0.00    -0.354 N 
ATOM     48  C   UNL A   1      48.085  27.047  26.191  1.00  0.00     0.074 A 
ATOM     49  C   UNL A   1      48.425  25.768  25.603  1.00  0.00     0.031 C 
ATOM     50  C   UNL A   1      41.737  26.499  27.134  1.00  0.00     0.029 A 
ATOM     51  C   UNL A   1      42.581  27.650  27.441  1.00  0.00     0.049 A 
ATOM     52  H   UNL A   1      44.608  27.876  27.011  1.00  0.00     0.167 HD
ATOM     53  C   UNL A   1      48.972  28.046  26.424  1.00  0.00     0.034 A 
ATOM     54  C   UNL A   1      42.172  28.778  28.058  1.00  0.00     0.034 A 
ATOM     55  C   UNL A   1      48.609  29.321  26.993  1.00  0.00     0.049 A 
ATOM     56  C   UNL A   1      43.180  29.868  28.330  1.00  0.00     0.074 A 
ATOM     57  C   UNL A   1      49.417  30.419  27.235  1.00  0.00     0.029 A 
ATOM     58  N   UNL A   1      47.331  29.669  27.413  1.00  0.00    -0.354 N 
ATOM     59  N   UNL A   1      44.469  29.882  28.080  1.00  0.00    -0.248 NA
ATOM     60  C   UNL A   1      42.678  31.096  28.959  1.00  0.00     0.031 C 
ATOM     61  C   UNL A   1      48.642  31.406  27.853  1.00  0.00     0.029 A 
ATOM     62  C   UNL A   1      47.333  30.955  27.929  1.00  0.00     0.049 A 
ATOM     63  H   UNL A   1      46.540  29.086  27.353  1.00  0.00     0.167 HD
ATOM     64  C   UNL A   1      44.921  31.136  28.483  1.00  0.00     0.074 A 
ATOM     65  C   UNL A   1      43.768  31.849  28.994  1.00  0.00     0.031 C 
ATOM     66  C   UNL A   1      46.173  31.655  28.425  1.00  0.00     0.034 A 
BRANCH  53  67
ATOM     67  C   UNL A   1      50.421  27.779  26.092  1.00  0.00     0.023 A 
ATOM     68  C   UNL A   1      50.914  27.907  24.782  1.00  0.00     0.031 A 
ATOM     69  C   UNL A   1      51.314  27.353  27.091  1.00  0.00     0.131 A 
ATOM     70  C   UNL A   1      52.234  27.532  24.491  1.00  0.00     0.055 A 
ATOM     71  C   UNL A   1      52.651  27.066  26.811  1.00  0.00     0.041 A 
ATOM     72  F   UNL A   1      50.898  27.193  28.358  1.00  0.00    -0.206 F 
ATOM     73  C   UNL A   1      53.115  27.138  25.500  1.00  0.00     0.022 A 
BRANCH  70  74
ATOM     74  S   UNL A   1      52.737  27.421  22.751  1.00  0.00     0.124 S 
ATOM     75  O   UNL A   1      53.156  28.793  22.479  1.00  0.00    -0.237 OA
ATOM     76  O   UNL A   1      53.803  26.425  22.794  1.00  0.00    -0.237 OA
ATOM     77  O   UNL A   1      51.516  27.000  22.067  1.00  0.00    -0.744 OA
ENDBRANCH  70  74
ENDBRANCH  53  67
BRANCH  54  78
ATOM     78  C   UNL A   1      40.752  28.933  28.485  1.00  0.00     0.023 A 
ATOM     79  C   UNL A   1      40.384  28.793  29.832  1.00  0.00     0.031 A 
ATOM     80  C   UNL A   1      39.734  29.181  27.546  1.00  0.00     0.131 A 
ATOM     81  C   UNL A   1      39.031  28.854  30.198  1.00  0.00     0.055 A 
ATOM     82  C   UNL A   1      38.395  29.295  27.923  1.00  0.00     0.041 A 
ATOM     83  F   UNL A   1      40.031  29.329  26.245  1.00  0.00    -0.206 F 
ATOM     84  C   UNL A   1      38.035  29.116  29.255  1.00  0.00     0.022 A 
BRANCH  81  85
ATOM     85  S   UNL A   1      38.580  28.498  31.919  1.00  0.00     0.124 S 
ATOM     86  O   UNL A   1      37.254  29.098  32.008  1.00  0.00    -0.237 OA
ATOM     87  O   UNL A   1      38.631  27.041  31.949  1.00  0.00    -0.237 OA
ATOM     88  O   UNL A   1      39.623  29.173  32.689  1.00  0.00    -0.744 OA
ENDBRANCH  81  85
ENDBRANCH  54  78
BRANCH  66  89
ATOM     89  C   UNL A   1      46.348  33.090  28.856  1.00  0.00     0.023 A 
ATOM     90  C   UNL A   1      46.198  34.162  27.961  1.00  0.00     0.031 A 
ATOM     91  C   UNL A   1      46.651  33.382  30.198  1.00  0.00     0.131 A 
ATOM     92  C   UNL A   1      46.390  35.478  28.412  1.00  0.00     0.055 A 
ATOM     93  C   UNL A   1      46.790  34.694  30.652  1.00  0.00     0.041 A 
ATOM     94  F   UNL A   1      46.806  32.393  31.093  1.00  0.00    -0.206 F 
ATOM     95  C   UNL A   1      46.668  35.751  29.755  1.00  0.00     0.022 A 
BRANCH  92  96
ATOM     96  S   UNL A   1      46.331  36.833  27.208  1.00  0.00     0.124 S 
ATOM     97  O   UNL A   1      44.981  37.353  27.402  1.00  0.00    -0.237 OA
ATOM     98  O   UNL A   1      47.417  37.698  27.657  1.00  0.00    -0.237 OA
ATOM     99  O   UNL A   1      46.561  36.167  25.928  1.00  0.00    -0.744 OA
ENDBRANCH  92  96
ENDBRANCH  66  89
ENDBRANCH  40  41
ENDBRANCH  32  35
ENDBRANCH  30  31
ENDBRANCH  29  30
ENDBRANCH  28  29
ENDBRANCH   1  28
TORSDOF 20
ENDMDL
