MODEL 1
REMARK VINA RESULT:     -10.0      0.000      0.000
REMARK SMILES CC(C)[NH2+][C@]1(C(=O)NCCCCCCNC(=O)c2ccc(-c3c4nc(c(-c5cc(S(=O)(=O)[O-])ccc5F)c5ccc([nH]5)c(-c5cc(S(=O)(=O)[O-])ccc5F)c5nc(c(-c6cc(S(=O)(=O)[O-])ccc6F)c6ccc3[nH]6)C=C5)C=C4)cc2)CC[C@@H]([N@@H+](C)[C@@H](C)C(C)C)C1
REMARK SMILES IDX 11 1 10 2 9 3 8 4 6 5 7 6 5 8 81 9 91 10 82 11 83 12 4 13
REMARK SMILES IDX 2 16 1 17 3 18 84 19 85 20 86 22 87 23 88 24 89 25 90 26
REMARK SMILES IDX 12 27 13 28 14 29 15 30 16 31 17 33 18 34 19 35 80 36 20 37
REMARK SMILES IDX 79 38 21 39 22 40 23 41 73 42 24 43 78 44 72 45 74 46 25 47
REMARK SMILES IDX 77 48 71 49 70 50 26 52 58 53 38 54 57 55 39 56 42 57 56 58
REMARK SMILES IDX 75 59 40 60 41 61 55 63 76 64 43 65 27 66 28 67 36 68 29 69
REMARK SMILES IDX 35 70 37 71 34 72 30 73 31 74 32 75 33 76 59 77 60 78 68 79
REMARK SMILES IDX 61 80 67 81 69 82 66 83 62 84 63 85 64 86 65 87 44 88 45 89
REMARK SMILES IDX 53 90 46 91 52 92 54 93 51 94 47 95 48 96 49 97 50 98
REMARK H PARENT 8 7 4 14 4 15 84 21 15 32 74 51 42 62
REMARK Flexibility Score: inf
ROOT
ATOM      1  C   UNL A   1      33.185  30.248  27.514  1.00  0.00     0.002 C 
ENDROOT
BRANCH   1   2
ATOM      2  C   UNL A   1      34.238  29.805  26.496  1.00  0.00     0.021 C 
BRANCH   2   3
ATOM      3  C   UNL A   1      33.992  28.439  25.848  1.00  0.00     0.116 C 
BRANCH   3   4
ATOM      4  N   UNL A   1      34.163  28.504  24.414  1.00  0.00    -0.351 N 
ATOM      5  C   UNL A   1      33.583  27.962  23.329  1.00  0.00     0.281 C 
ATOM      6  O   UNL A   1      34.068  28.395  22.261  1.00  0.00    -0.268 OA
ATOM      7  H   UNL A   1      34.902  29.105  24.165  1.00  0.00     0.163 HD
BRANCH   5   8
ATOM      8  C   UNL A   1      32.444  26.862  23.200  1.00  0.00     0.181 C 
ATOM      9  C   UNL A   1      32.967  25.834  22.182  1.00  0.00     0.085 C 
ATOM     10  C   UNL A   1      32.052  25.949  24.384  1.00  0.00     0.144 C 
ATOM     11  C   UNL A   1      32.060  24.621  22.316  1.00  0.00     0.072 C 
ATOM     12  C   UNL A   1      31.738  24.533  23.805  1.00  0.00     0.191 C 
BRANCH   8  13
ATOM     13  N   UNL A   1      31.266  27.692  22.782  1.00  0.00    -0.331 N 
ATOM     14  H   UNL A   1      31.659  28.548  22.389  1.00  0.00     0.347 HD
ATOM     15  H   UNL A   1      30.763  27.024  22.196  1.00  0.00     0.347 HD
BRANCH  13  16
ATOM     16  C   UNL A   1      30.201  28.123  23.678  1.00  0.00     0.176 C 
ATOM     17  C   UNL A   1      30.024  29.632  23.438  1.00  0.00     0.075 C 
ATOM     18  C   UNL A   1      28.843  27.463  23.399  1.00  0.00     0.075 C 
ENDBRANCH  13  16
ENDBRANCH   8  13
BRANCH  12  19
ATOM     19  N   UNL A   1      32.242  23.383  24.591  1.00  0.00    -0.332 N 
ATOM     20  C   UNL A   1      31.271  22.996  25.625  1.00  0.00     0.333 C 
ATOM     21  H   UNL A   1      33.097  23.817  24.937  1.00  0.00     0.348 HD
BRANCH  19  22
ATOM     22  C   UNL A   1      32.849  22.168  23.976  1.00  0.00     0.183 C 
ATOM     23  C   UNL A   1      32.430  21.824  22.539  1.00  0.00     0.075 C 
BRANCH  22  24
ATOM     24  C   UNL A   1      34.384  22.094  24.189  1.00  0.00     0.041 C 
ATOM     25  C   UNL A   1      35.085  23.173  23.349  1.00  0.00     0.013 C 
ATOM     26  C   UNL A   1      34.813  22.259  25.654  1.00  0.00     0.013 C 
ENDBRANCH  22  24
ENDBRANCH  19  22
ENDBRANCH  12  19
ENDBRANCH   5   8
ENDBRANCH   3   4
ENDBRANCH   2   3
ENDBRANCH   1   2
BRANCH   1  27
ATOM     27  C   UNL A   1      31.845  30.731  26.943  1.00  0.00     0.002 C 
BRANCH  27  28
ATOM     28  C   UNL A   1      31.597  32.242  26.951  1.00  0.00     0.021 C 
BRANCH  28  29
ATOM     29  C   UNL A   1      32.840  33.122  26.844  1.00  0.00     0.116 C 
BRANCH  29  30
ATOM     30  N   UNL A   1      32.698  34.342  27.620  1.00  0.00    -0.352 N 
ATOM     31  C   UNL A   1      33.239  34.667  28.838  1.00  0.00     0.251 C 
ATOM     32  H   UNL A   1      32.131  35.036  27.213  1.00  0.00     0.163 HD
ATOM     33  O   UNL A   1      32.789  35.632  29.461  1.00  0.00    -0.269 OA
BRANCH  31  34
ATOM     34  C   UNL A   1      34.346  33.870  29.409  1.00  0.00     0.039 A 
ATOM     35  C   UNL A   1      35.666  34.212  29.100  1.00  0.00     0.014 A 
ATOM     36  C   UNL A   1      34.085  32.751  30.205  1.00  0.00     0.014 A 
ATOM     37  C   UNL A   1      36.726  33.464  29.626  1.00  0.00     0.010 A 
ATOM     38  C   UNL A   1      35.142  32.039  30.772  1.00  0.00     0.010 A 
ATOM     39  C   UNL A   1      36.473  32.383  30.484  1.00  0.00    -0.014 A 
BRANCH  39  40
ATOM     40  C   UNL A   1      37.570  31.562  31.065  1.00  0.00     0.031 A 
ATOM     41  C   UNL A   1      38.053  31.855  32.461  1.00  0.00     0.074 A 
ATOM     42  C   UNL A   1      38.187  30.625  30.321  1.00  0.00     0.049 A 
ATOM     43  N   UNL A   1      39.111  31.406  33.086  1.00  0.00    -0.248 NA
ATOM     44  C   UNL A   1      37.247  32.804  33.242  1.00  0.00     0.031 C 
ATOM     45  C   UNL A   1      37.811  30.243  28.959  1.00  0.00     0.029 A 
ATOM     46  N   UNL A   1      39.279  29.837  30.597  1.00  0.00    -0.354 N 
ATOM     47  C   UNL A   1      39.115  32.039  34.326  1.00  0.00     0.074 A 
ATOM     48  C   UNL A   1      37.978  32.936  34.339  1.00  0.00     0.031 C 
ATOM     49  C   UNL A   1      38.657  29.296  28.519  1.00  0.00     0.029 A 
ATOM     50  C   UNL A   1      39.669  29.044  29.542  1.00  0.00     0.049 A 
ATOM     51  H   UNL A   1      39.739  29.840  31.467  1.00  0.00     0.167 HD
ATOM     52  C   UNL A   1      39.980  31.877  35.359  1.00  0.00     0.034 A 
ATOM     53  C   UNL A   1      40.737  28.232  29.401  1.00  0.00     0.034 A 
ATOM     54  C   UNL A   1      41.099  30.967  35.332  1.00  0.00     0.049 A 
ATOM     55  C   UNL A   1      41.715  28.103  30.544  1.00  0.00     0.074 A 
ATOM     56  C   UNL A   1      42.018  30.700  36.332  1.00  0.00     0.029 A 
ATOM     57  N   UNL A   1      41.454  30.175  34.247  1.00  0.00    -0.354 N 
ATOM     58  N   UNL A   1      41.706  28.705  31.710  1.00  0.00    -0.248 NA
ATOM     59  C   UNL A   1      42.846  27.183  30.353  1.00  0.00     0.031 C 
ATOM     60  C   UNL A   1      42.964  29.798  35.832  1.00  0.00     0.029 A 
ATOM     61  C   UNL A   1      42.591  29.440  34.546  1.00  0.00     0.049 A 
ATOM     62  H   UNL A   1      40.970  30.142  33.391  1.00  0.00     0.167 HD
ATOM     63  C   UNL A   1      42.802  28.201  32.407  1.00  0.00     0.074 A 
ATOM     64  C   UNL A   1      43.454  27.252  31.528  1.00  0.00     0.031 C 
ATOM     65  C   UNL A   1      43.222  28.488  33.664  1.00  0.00     0.034 A 
BRANCH  52  66
ATOM     66  C   UNL A   1      39.764  32.732  36.585  1.00  0.00     0.023 A 
ATOM     67  C   UNL A   1      38.933  32.314  37.641  1.00  0.00     0.031 A 
ATOM     68  C   UNL A   1      40.368  33.997  36.688  1.00  0.00     0.131 A 
ATOM     69  C   UNL A   1      38.663  33.185  38.707  1.00  0.00     0.055 A 
ATOM     70  C   UNL A   1      40.165  34.824  37.795  1.00  0.00     0.041 A 
ATOM     71  F   UNL A   1      41.155  34.461  35.704  1.00  0.00    -0.206 F 
ATOM     72  C   UNL A   1      39.294  34.427  38.805  1.00  0.00     0.022 A 
BRANCH  69  73
ATOM     73  S   UNL A   1      37.354  32.736  39.877  1.00  0.00     0.124 S 
ATOM     74  O   UNL A   1      37.838  31.452  40.381  1.00  0.00    -0.237 OA
ATOM     75  O   UNL A   1      37.381  33.845  40.824  1.00  0.00    -0.237 OA
ATOM     76  O   UNL A   1      36.158  32.657  39.041  1.00  0.00    -0.744 OA
ENDBRANCH  69  73
ENDBRANCH  52  66
BRANCH  53  77
ATOM     77  C   UNL A   1      40.959  27.491  28.125  1.00  0.00     0.023 A 
ATOM     78  C   UNL A   1      40.704  26.114  28.037  1.00  0.00     0.031 A 
ATOM     79  C   UNL A   1      41.469  28.142  26.987  1.00  0.00     0.131 A 
ATOM     80  C   UNL A   1      41.001  25.421  26.853  1.00  0.00     0.055 A 
ATOM     81  C   UNL A   1      41.711  27.459  25.795  1.00  0.00     0.041 A 
ATOM     82  F   UNL A   1      41.728  29.458  27.017  1.00  0.00    -0.206 F 
ATOM     83  C   UNL A   1      41.491  26.087  25.727  1.00  0.00     0.022 A 
BRANCH  80  84
ATOM     84  S   UNL A   1      40.819  23.617  26.835  1.00  0.00     0.124 S 
ATOM     85  O   UNL A   1      41.185  23.269  28.203  1.00  0.00    -0.237 OA
ATOM     86  O   UNL A   1      39.412  23.458  26.487  1.00  0.00    -0.237 OA
ATOM     87  O   UNL A   1      41.766  23.191  25.807  1.00  0.00    -0.744 OA
ENDBRANCH  80  84
ENDBRANCH  53  77
BRANCH  65  88
ATOM     88  C   UNL A   1      44.396  27.708  34.200  1.00  0.00     0.023 A 
ATOM     89  C   UNL A   1      44.236  26.510  34.916  1.00  0.00     0.031 A 
ATOM     90  C   UNL A   1      45.705  28.166  33.955  1.00  0.00     0.131 A 
ATOM     91  C   UNL A   1      45.367  25.826  35.391  1.00  0.00     0.055 A 
ATOM     92  C   UNL A   1      46.825  27.455  34.387  1.00  0.00     0.041 A 
ATOM     93  F   UNL A   1      45.913  29.305  33.276  1.00  0.00    -0.206 F 
ATOM     94  C   UNL A   1      46.660  26.282  35.116  1.00  0.00     0.022 A 
BRANCH  91  95
ATOM     95  S   UNL A   1      45.130  24.350  36.419  1.00  0.00     0.124 S 
ATOM     96  O   UNL A   1      44.575  23.399  35.462  1.00  0.00    -0.237 OA
ATOM     97  O   UNL A   1      46.486  24.069  36.882  1.00  0.00    -0.237 OA
ATOM     98  O   UNL A   1      44.204  24.798  37.457  1.00  0.00    -0.744 OA
ENDBRANCH  91  95
ENDBRANCH  65  88
ENDBRANCH  39  40
ENDBRANCH  31  34
ENDBRANCH  29  30
ENDBRANCH  28  29
ENDBRANCH  27  28
ENDBRANCH   1  27
TORSDOF 21
ENDMDL
MODEL 2
REMARK VINA RESULT:     -10.0      5.555     10.856
REMARK SMILES CC(C)[NH2+][C@]1(C(=O)NCCCCCCNC(=O)c2ccc(-c3c4nc(c(-c5cc(S(=O)(=O)[O-])ccc5F)c5ccc([nH]5)c(-c5cc(S(=O)(=O)[O-])ccc5F)c5nc(c(-c6cc(S(=O)(=O)[O-])ccc6F)c6ccc3[nH]6)C=C5)C=C4)cc2)CC[C@@H]([N@@H+](C)[C@@H](C)C(C)C)C1
REMARK SMILES IDX 11 1 10 2 9 3 8 4 6 5 7 6 5 8 81 9 91 10 82 11 83 12 4 13
REMARK SMILES IDX 2 16 1 17 3 18 84 19 85 20 86 22 87 23 88 24 89 25 90 26
REMARK SMILES IDX 12 27 13 28 14 29 15 30 16 31 17 33 18 34 19 35 80 36 20 37
REMARK SMILES IDX 79 38 21 39 22 40 23 41 73 42 24 43 78 44 72 45 74 46 25 47
REMARK SMILES IDX 77 48 71 49 70 50 26 52 58 53 38 54 57 55 39 56 42 57 56 58
REMARK SMILES IDX 75 59 40 60 41 61 55 63 76 64 43 65 27 66 28 67 36 68 29 69
REMARK SMILES IDX 35 70 37 71 34 72 30 73 31 74 32 75 33 76 59 77 60 78 68 79
REMARK SMILES IDX 61 80 67 81 69 82 66 83 62 84 63 85 64 86 65 87 44 88 45 89
REMARK SMILES IDX 53 90 46 91 52 92 54 93 51 94 47 95 48 96 49 97 50 98
REMARK H PARENT 8 7 4 14 4 15 84 21 15 32 74 51 42 62
REMARK Flexibility Score: inf
ROOT
ATOM      1  C   UNL A   1      37.288  21.913  24.590  1.00  0.00     0.002 C 
ENDROOT
BRANCH   1   2
ATOM      2  C   UNL A   1      36.426  23.177  24.615  1.00  0.00     0.021 C 
BRANCH   2   3
ATOM      3  C   UNL A   1      36.168  23.768  26.004  1.00  0.00     0.116 C 
BRANCH   3   4
ATOM      4  N   UNL A   1      35.284  22.922  26.774  1.00  0.00    -0.351 N 
ATOM      5  C   UNL A   1      33.983  22.582  26.754  1.00  0.00     0.281 C 
ATOM      6  O   UNL A   1      33.698  21.733  27.627  1.00  0.00    -0.268 OA
ATOM      7  H   UNL A   1      35.762  22.475  27.510  1.00  0.00     0.163 HD
BRANCH   5   8
ATOM      8  C   UNL A   1      32.786  23.108  25.853  1.00  0.00     0.181 C 
ATOM      9  C   UNL A   1      31.893  23.945  26.786  1.00  0.00     0.085 C 
ATOM     10  C   UNL A   1      33.014  24.093  24.683  1.00  0.00     0.144 C 
ATOM     11  C   UNL A   1      30.961  24.727  25.876  1.00  0.00     0.072 C 
ATOM     12  C   UNL A   1      31.807  25.084  24.658  1.00  0.00     0.191 C 
BRANCH   8  13
ATOM     13  N   UNL A   1      32.208  21.824  25.335  1.00  0.00    -0.331 N 
ATOM     14  H   UNL A   1      32.107  21.219  26.151  1.00  0.00     0.347 HD
ATOM     15  H   UNL A   1      31.392  22.173  24.832  1.00  0.00     0.347 HD
BRANCH  13  16
ATOM     16  C   UNL A   1      32.827  20.996  24.308  1.00  0.00     0.176 C 
ATOM     17  C   UNL A   1      32.697  19.542  24.794  1.00  0.00     0.075 C 
ATOM     18  C   UNL A   1      32.135  21.074  22.940  1.00  0.00     0.075 C 
ENDBRANCH  13  16
ENDBRANCH   8  13
BRANCH  12  19
ATOM     19  N   UNL A   1      32.138  26.504  24.393  1.00  0.00    -0.332 N 
ATOM     20  C   UNL A   1      33.502  26.811  24.850  1.00  0.00     0.333 C 
ATOM     21  H   UNL A   1      31.389  26.925  24.943  1.00  0.00     0.348 HD
BRANCH  19  22
ATOM     22  C   UNL A   1      31.865  27.184  23.096  1.00  0.00     0.183 C 
ATOM     23  C   UNL A   1      31.734  26.297  21.850  1.00  0.00     0.075 C 
BRANCH  22  24
ATOM     24  C   UNL A   1      30.734  28.241  23.202  1.00  0.00     0.041 C 
ATOM     25  C   UNL A   1      29.376  27.543  23.374  1.00  0.00     0.013 C 
ATOM     26  C   UNL A   1      30.923  29.235  24.358  1.00  0.00     0.013 C 
ENDBRANCH  22  24
ENDBRANCH  19  22
ENDBRANCH  12  19
ENDBRANCH   5   8
ENDBRANCH   3   4
ENDBRANCH   2   3
ENDBRANCH   1   2
BRANCH   1  27
ATOM     27  C   UNL A   1      38.321  21.769  25.716  1.00  0.00     0.002 C 
BRANCH  27  28
ATOM     28  C   UNL A   1      39.539  20.887  25.426  1.00  0.00     0.021 C 
BRANCH  28  29
ATOM     29  C   UNL A   1      40.044  20.045  26.595  1.00  0.00     0.116 C 
BRANCH  29  30
ATOM     30  N   UNL A   1      41.349  19.472  26.315  1.00  0.00    -0.352 N 
ATOM     31  C   UNL A   1      42.547  20.102  26.093  1.00  0.00     0.251 C 
ATOM     32  H   UNL A   1      41.378  18.488  26.279  1.00  0.00     0.163 HD
ATOM     33  O   UNL A   1      43.484  19.465  25.605  1.00  0.00    -0.269 OA
BRANCH  31  34
ATOM     34  C   UNL A   1      42.721  21.533  26.427  1.00  0.00     0.039 A 
ATOM     35  C   UNL A   1      42.795  21.918  27.769  1.00  0.00     0.014 A 
ATOM     36  C   UNL A   1      42.755  22.502  25.420  1.00  0.00     0.014 A 
ATOM     37  C   UNL A   1      42.951  23.269  28.102  1.00  0.00     0.010 A 
ATOM     38  C   UNL A   1      42.965  23.841  25.751  1.00  0.00     0.010 A 
ATOM     39  C   UNL A   1      43.059  24.240  27.095  1.00  0.00    -0.014 A 
BRANCH  39  40
ATOM     40  C   UNL A   1      43.227  25.685  27.405  1.00  0.00     0.031 A 
ATOM     41  C   UNL A   1      44.597  26.304  27.329  1.00  0.00     0.074 A 
ATOM     42  C   UNL A   1      42.181  26.416  27.837  1.00  0.00     0.049 A 
ATOM     43  N   UNL A   1      45.005  27.477  27.741  1.00  0.00    -0.248 NA
ATOM     44  C   UNL A   1      45.654  25.473  26.734  1.00  0.00     0.031 C 
ATOM     45  C   UNL A   1      40.803  25.935  27.950  1.00  0.00     0.029 A 
ATOM     46  N   UNL A   1      42.118  27.713  28.286  1.00  0.00    -0.354 N 
ATOM     47  C   UNL A   1      46.371  27.516  27.481  1.00  0.00     0.074 A 
ATOM     48  C   UNL A   1      46.725  26.229  26.919  1.00  0.00     0.031 C 
ATOM     49  C   UNL A   1      40.033  26.923  28.434  1.00  0.00     0.029 A 
ATOM     50  C   UNL A   1      40.868  28.086  28.723  1.00  0.00     0.049 A 
ATOM     51  H   UNL A   1      42.894  28.318  28.294  1.00  0.00     0.167 HD
ATOM     52  C   UNL A   1      47.245  28.535  27.682  1.00  0.00     0.034 A 
ATOM     53  C   UNL A   1      40.448  29.222  29.317  1.00  0.00     0.034 A 
ATOM     54  C   UNL A   1      46.871  29.815  28.229  1.00  0.00     0.049 A 
ATOM     55  C   UNL A   1      41.445  30.326  29.576  1.00  0.00     0.074 A 
ATOM     56  C   UNL A   1      47.665  30.928  28.445  1.00  0.00     0.029 A 
ATOM     57  N   UNL A   1      45.591  30.156  28.652  1.00  0.00    -0.354 N 
ATOM     58  N   UNL A   1      42.733  30.350  29.324  1.00  0.00    -0.248 NA
ATOM     59  C   UNL A   1      40.932  31.555  30.199  1.00  0.00     0.031 C 
ATOM     60  C   UNL A   1      46.885  31.916  29.055  1.00  0.00     0.029 A 
ATOM     61  C   UNL A   1      45.583  31.451  29.148  1.00  0.00     0.049 A 
ATOM     62  H   UNL A   1      44.806  29.564  28.606  1.00  0.00     0.167 HD
ATOM     63  C   UNL A   1      43.173  31.613  29.714  1.00  0.00     0.074 A 
ATOM     64  C   UNL A   1      42.016  32.318  30.226  1.00  0.00     0.031 C 
ATOM     65  C   UNL A   1      44.418  32.145  29.644  1.00  0.00     0.034 A 
BRANCH  52  66
ATOM     66  C   UNL A   1      48.695  28.284  27.339  1.00  0.00     0.023 A 
ATOM     67  C   UNL A   1      49.186  28.459  26.033  1.00  0.00     0.031 A 
ATOM     68  C   UNL A   1      49.591  27.831  28.322  1.00  0.00     0.131 A 
ATOM     69  C   UNL A   1      50.509  28.101  25.728  1.00  0.00     0.055 A 
ATOM     70  C   UNL A   1      50.930  27.562  28.031  1.00  0.00     0.041 A 
ATOM     71  F   UNL A   1      49.178  27.625  29.583  1.00  0.00    -0.206 F 
ATOM     72  C   UNL A   1      51.392  27.680  26.724  1.00  0.00     0.022 A 
BRANCH  69  73
ATOM     73  S   UNL A   1      51.007  28.045  23.986  1.00  0.00     0.124 S 
ATOM     74  O   UNL A   1      51.567  29.382  23.797  1.00  0.00    -0.237 OA
ATOM     75  O   UNL A   1      51.963  26.943  23.966  1.00  0.00    -0.237 OA
ATOM     76  O   UNL A   1      49.753  27.797  23.278  1.00  0.00    -0.744 OA
ENDBRANCH  69  73
ENDBRANCH  52  66
BRANCH  53  77
ATOM     77  C   UNL A   1      39.023  29.375  29.732  1.00  0.00     0.023 A 
ATOM     78  C   UNL A   1      38.109  30.074  28.929  1.00  0.00     0.031 A 
ATOM     79  C   UNL A   1      38.565  28.860  30.958  1.00  0.00     0.131 A 
ATOM     80  C   UNL A   1      36.795  30.279  29.378  1.00  0.00     0.055 A 
ATOM     81  C   UNL A   1      37.243  29.019  31.376  1.00  0.00     0.041 A 
ATOM     82  F   UNL A   1      39.397  28.181  31.762  1.00  0.00    -0.206 F 
ATOM     83  C   UNL A   1      36.352  29.745  30.591  1.00  0.00     0.022 A 
BRANCH  80  84
ATOM     84  S   UNL A   1      35.695  31.331  28.393  1.00  0.00     0.124 S 
ATOM     85  O   UNL A   1      36.599  32.399  27.980  1.00  0.00    -0.237 OA
ATOM     86  O   UNL A   1      35.260  30.416  27.344  1.00  0.00    -0.237 OA
ATOM     87  O   UNL A   1      34.658  31.724  29.345  1.00  0.00    -0.744 OA
ENDBRANCH  80  84
ENDBRANCH  53  77
BRANCH  65  88
ATOM     88  C   UNL A   1      44.583  33.587  30.052  1.00  0.00     0.023 A 
ATOM     89  C   UNL A   1      44.371  34.649  29.157  1.00  0.00     0.031 A 
ATOM     90  C   UNL A   1      44.930  33.897  31.381  1.00  0.00     0.131 A 
ATOM     91  C   UNL A   1      44.540  35.973  29.594  1.00  0.00     0.055 A 
ATOM     92  C   UNL A   1      45.046  35.216  31.821  1.00  0.00     0.041 A 
ATOM     93  F   UNL A   1      45.144  32.920  32.276  1.00  0.00    -0.206 F 
ATOM     94  C   UNL A   1      44.858  36.263  30.925  1.00  0.00     0.022 A 
BRANCH  91  95
ATOM     95  S   UNL A   1      44.383  37.320  28.389  1.00  0.00     0.124 S 
ATOM     96  O   UNL A   1      42.963  37.644  28.479  1.00  0.00    -0.237 OA
ATOM     97  O   UNL A   1      45.300  38.324  28.920  1.00  0.00    -0.237 OA
ATOM     98  O   UNL A   1      44.800  36.707  27.130  1.00  0.00    -0.744 OA
ENDBRANCH  91  95
ENDBRANCH  65  88
ENDBRANCH  39  40
ENDBRANCH  31  34
ENDBRANCH  29  30
ENDBRANCH  28  29
ENDBRANCH  27  28
ENDBRANCH   1  27
TORSDOF 21
ENDMDL
MODEL 3
REMARK VINA RESULT:      -9.9      2.138      7.793
REMARK SMILES CC(C)[NH2+][C@]1(C(=O)NCCCCCCNC(=O)c2ccc(-c3c4nc(c(-c5cc(S(=O)(=O)[O-])ccc5F)c5ccc([nH]5)c(-c5cc(S(=O)(=O)[O-])ccc5F)c5nc(c(-c6cc(S(=O)(=O)[O-])ccc6F)c6ccc3[nH]6)C=C5)C=C4)cc2)CC[C@@H]([N@@H+](C)[C@@H](C)C(C)C)C1
REMARK SMILES IDX 11 1 10 2 9 3 8 4 6 5 7 6 5 8 81 9 91 10 82 11 83 12 4 13
REMARK SMILES IDX 2 16 1 17 3 18 84 19 85 20 86 22 87 23 88 24 89 25 90 26
REMARK SMILES IDX 12 27 13 28 14 29 15 30 16 31 17 33 18 34 19 35 80 36 20 37
REMARK SMILES IDX 79 38 21 39 22 40 23 41 73 42 24 43 78 44 72 45 74 46 25 47
REMARK SMILES IDX 77 48 71 49 70 50 26 52 58 53 38 54 57 55 39 56 42 57 56 58
REMARK SMILES IDX 75 59 40 60 41 61 55 63 76 64 43 65 27 66 28 67 36 68 29 69
REMARK SMILES IDX 35 70 37 71 34 72 30 73 31 74 32 75 33 76 59 77 60 78 68 79
REMARK SMILES IDX 61 80 67 81 69 82 66 83 62 84 63 85 64 86 65 87 44 88 45 89
REMARK SMILES IDX 53 90 46 91 52 92 54 93 51 94 47 95 48 96 49 97 50 98
REMARK H PARENT 8 7 4 14 4 15 84 21 15 32 74 51 42 62
REMARK Flexibility Score: inf
ROOT
ATOM      1  C   UNL A   1      34.263  29.795  27.803  1.00  0.00     0.002 C 
ENDROOT
BRANCH   1   2
ATOM      2  C   UNL A   1      34.692  28.964  26.591  1.00  0.00     0.021 C 
BRANCH   2   3
ATOM      3  C   UNL A   1      33.558  28.523  25.663  1.00  0.00     0.116 C 
BRANCH   3   4
ATOM      4  N   UNL A   1      33.945  28.640  24.274  1.00  0.00    -0.351 N 
ATOM      5  C   UNL A   1      33.541  28.137  23.094  1.00  0.00     0.281 C 
ATOM      6  O   UNL A   1      34.181  28.610  22.130  1.00  0.00    -0.268 OA
ATOM      7  H   UNL A   1      34.709  29.251  24.163  1.00  0.00     0.163 HD
BRANCH   5   8
ATOM      8  C   UNL A   1      32.443  27.041  22.755  1.00  0.00     0.181 C 
ATOM      9  C   UNL A   1      33.150  25.998  21.872  1.00  0.00     0.085 C 
ATOM     10  C   UNL A   1      31.816  26.145  23.847  1.00  0.00     0.144 C 
ATOM     11  C   UNL A   1      32.226  24.792  21.836  1.00  0.00     0.072 C 
ATOM     12  C   UNL A   1      31.613  24.723  23.232  1.00  0.00     0.191 C 
BRANCH   8  13
ATOM     13  N   UNL A   1      31.377  27.872  22.101  1.00  0.00    -0.331 N 
ATOM     14  H   UNL A   1      31.870  28.503  21.468  1.00  0.00     0.347 HD
ATOM     15  H   UNL A   1      30.761  27.141  21.743  1.00  0.00     0.347 HD
BRANCH  13  16
ATOM     16  C   UNL A   1      30.422  28.704  22.820  1.00  0.00     0.176 C 
ATOM     17  C   UNL A   1      30.098  29.886  21.891  1.00  0.00     0.075 C 
ATOM     18  C   UNL A   1      29.093  28.003  23.134  1.00  0.00     0.075 C 
ENDBRANCH  13  16
ENDBRANCH   8  13
BRANCH  12  19
ATOM     19  N   UNL A   1      31.943  23.581  24.116  1.00  0.00    -0.332 N 
ATOM     20  C   UNL A   1      32.540  22.482  23.341  1.00  0.00     0.333 C 
ATOM     21  H   UNL A   1      31.003  23.403  24.469  1.00  0.00     0.348 HD
BRANCH  19  22
ATOM     22  C   UNL A   1      32.643  23.727  25.423  1.00  0.00     0.183 C 
ATOM     23  C   UNL A   1      32.014  23.033  26.640  1.00  0.00     0.075 C 
BRANCH  22  24
ATOM     24  C   UNL A   1      34.171  23.478  25.313  1.00  0.00     0.041 C 
ATOM     25  C   UNL A   1      34.929  24.812  25.403  1.00  0.00     0.013 C 
ATOM     26  C   UNL A   1      34.722  22.529  26.388  1.00  0.00     0.013 C 
ENDBRANCH  22  24
ENDBRANCH  19  22
ENDBRANCH  12  19
ENDBRANCH   5   8
ENDBRANCH   3   4
ENDBRANCH   2   3
ENDBRANCH   1   2
BRANCH   1  27
ATOM     27  C   UNL A   1      34.547  31.301  27.731  1.00  0.00     0.002 C 
BRANCH  27  28
ATOM     28  C   UNL A   1      33.331  32.232  27.709  1.00  0.00     0.021 C 
BRANCH  28  29
ATOM     29  C   UNL A   1      33.623  33.700  27.404  1.00  0.00     0.116 C 
BRANCH  29  30
ATOM     30  N   UNL A   1      33.030  34.579  28.397  1.00  0.00    -0.352 N 
ATOM     31  C   UNL A   1      33.312  34.698  29.734  1.00  0.00     0.251 C 
ATOM     32  H   UNL A   1      32.321  35.176  28.062  1.00  0.00     0.163 HD
ATOM     33  O   UNL A   1      32.523  35.299  30.467  1.00  0.00    -0.269 OA
BRANCH  31  34
ATOM     34  C   UNL A   1      34.545  34.109  30.300  1.00  0.00     0.039 A 
ATOM     35  C   UNL A   1      34.444  33.052  31.210  1.00  0.00     0.014 A 
ATOM     36  C   UNL A   1      35.800  34.634  29.979  1.00  0.00     0.014 A 
ATOM     37  C   UNL A   1      35.600  32.488  31.761  1.00  0.00     0.010 A 
ATOM     38  C   UNL A   1      36.954  34.037  30.487  1.00  0.00     0.010 A 
ATOM     39  C   UNL A   1      36.867  32.963  31.388  1.00  0.00    -0.014 A 
BRANCH  39  40
ATOM     40  C   UNL A   1      38.121  32.392  31.950  1.00  0.00     0.031 A 
ATOM     41  C   UNL A   1      38.829  31.289  31.209  1.00  0.00     0.074 A 
ATOM     42  C   UNL A   1      38.574  32.794  33.153  1.00  0.00     0.049 A 
ATOM     43  N   UNL A   1      39.811  30.519  31.602  1.00  0.00    -0.248 NA
ATOM     44  C   UNL A   1      38.340  30.998  29.854  1.00  0.00     0.031 C 
ATOM     45  C   UNL A   1      37.983  33.857  33.968  1.00  0.00     0.029 A 
ATOM     46  N   UNL A   1      39.625  32.338  33.913  1.00  0.00    -0.354 N 
ATOM     47  C   UNL A   1      40.041  29.633  30.554  1.00  0.00     0.074 A 
ATOM     48  C   UNL A   1      39.061  29.936  29.531  1.00  0.00     0.031 C 
ATOM     49  C   UNL A   1      38.678  33.971  35.111  1.00  0.00     0.029 A 
ATOM     50  C   UNL A   1      39.726  32.954  35.140  1.00  0.00     0.049 A 
ATOM     51  H   UNL A   1      40.245  31.637  33.610  1.00  0.00     0.167 HD
ATOM     52  C   UNL A   1      40.987  28.666  30.452  1.00  0.00     0.034 A 
ATOM     53  C   UNL A   1      40.548  32.708  36.181  1.00  0.00     0.034 A 
ATOM     54  C   UNL A   1      41.964  28.389  31.476  1.00  0.00     0.049 A 
ATOM     55  C   UNL A   1      41.563  31.596  36.066  1.00  0.00     0.074 A 
ATOM     56  C   UNL A   1      42.987  27.457  31.464  1.00  0.00     0.029 A 
ATOM     57  N   UNL A   1      42.039  29.042  32.701  1.00  0.00    -0.354 N 
ATOM     58  N   UNL A   1      41.771  30.767  35.070  1.00  0.00    -0.248 NA
ATOM     59  C   UNL A   1      42.455  31.386  37.216  1.00  0.00     0.031 C 
ATOM     60  C   UNL A   1      43.638  27.501  32.701  1.00  0.00     0.029 A 
ATOM     61  C   UNL A   1      43.074  28.516  33.458  1.00  0.00     0.049 A 
ATOM     62  H   UNL A   1      41.443  29.771  32.988  1.00  0.00     0.167 HD
ATOM     63  C   UNL A   1      42.846  29.971  35.455  1.00  0.00     0.074 A 
ATOM     64  C   UNL A   1      43.239  30.412  36.777  1.00  0.00     0.031 C 
ATOM     65  C   UNL A   1      43.461  28.975  34.771  1.00  0.00     0.034 A 
BRANCH  52  66
ATOM     66  C   UNL A   1      40.982  27.819  29.201  1.00  0.00     0.023 A 
ATOM     67  C   UNL A   1      41.966  27.963  28.206  1.00  0.00     0.031 A 
ATOM     68  C   UNL A   1      39.961  26.878  28.983  1.00  0.00     0.131 A 
ATOM     69  C   UNL A   1      41.859  27.243  27.006  1.00  0.00     0.055 A 
ATOM     70  C   UNL A   1      39.911  26.100  27.824  1.00  0.00     0.041 A 
ATOM     71  F   UNL A   1      38.982  26.708  29.885  1.00  0.00    -0.206 F 
ATOM     72  C   UNL A   1      40.854  26.292  26.819  1.00  0.00     0.022 A 
BRANCH  69  73
ATOM     73  S   UNL A   1      42.960  27.684  25.635  1.00  0.00     0.124 S 
ATOM     74  O   UNL A   1      43.946  28.527  26.309  1.00  0.00    -0.237 OA
ATOM     75  O   UNL A   1      43.437  26.383  25.181  1.00  0.00    -0.237 OA
ATOM     76  O   UNL A   1      42.082  28.388  24.703  1.00  0.00    -0.744 OA
ENDBRANCH  69  73
ENDBRANCH  52  66
BRANCH  53  77
ATOM     77  C   UNL A   1      40.439  33.509  37.435  1.00  0.00     0.023 A 
ATOM     78  C   UNL A   1      41.307  34.583  37.683  1.00  0.00     0.031 A 
ATOM     79  C   UNL A   1      39.491  33.184  38.423  1.00  0.00     0.131 A 
ATOM     80  C   UNL A   1      41.242  35.268  38.906  1.00  0.00     0.055 A 
ATOM     81  C   UNL A   1      39.395  33.904  39.615  1.00  0.00     0.041 A 
ATOM     82  F   UNL A   1      38.636  32.168  38.235  1.00  0.00    -0.206 F 
ATOM     83  C   UNL A   1      40.283  34.944  39.868  1.00  0.00     0.022 A 
BRANCH  80  84
ATOM     84  S   UNL A   1      42.491  36.535  39.258  1.00  0.00     0.124 S 
ATOM     85  O   UNL A   1      42.946  36.142  40.586  1.00  0.00    -0.237 OA
ATOM     86  O   UNL A   1      43.440  36.336  38.168  1.00  0.00    -0.237 OA
ATOM     87  O   UNL A   1      41.733  37.784  39.201  1.00  0.00    -0.744 OA
ENDBRANCH  80  84
ENDBRANCH  53  77
BRANCH  65  88
ATOM     88  C   UNL A   1      44.678  28.345  35.402  1.00  0.00     0.023 A 
ATOM     89  C   UNL A   1      44.592  27.219  36.237  1.00  0.00     0.031 A 
ATOM     90  C   UNL A   1      45.954  28.874  35.129  1.00  0.00     0.131 A 
ATOM     91  C   UNL A   1      45.759  26.676  36.797  1.00  0.00     0.055 A 
ATOM     92  C   UNL A   1      47.114  28.299  35.648  1.00  0.00     0.041 A 
ATOM     93  F   UNL A   1      46.092  29.949  34.337  1.00  0.00    -0.206 F 
ATOM     94  C   UNL A   1      47.021  27.197  36.493  1.00  0.00     0.022 A 
BRANCH  91  95
ATOM     95  S   UNL A   1      45.611  25.299  37.970  1.00  0.00     0.124 S 
ATOM     96  O   UNL A   1      45.946  24.151  37.135  1.00  0.00    -0.237 OA
ATOM     97  O   UNL A   1      46.591  25.652  38.992  1.00  0.00    -0.237 OA
ATOM     98  O   UNL A   1      44.216  25.366  38.403  1.00  0.00    -0.744 OA
ENDBRANCH  91  95
ENDBRANCH  65  88
ENDBRANCH  39  40
ENDBRANCH  31  34
ENDBRANCH  29  30
ENDBRANCH  28  29
ENDBRANCH  27  28
ENDBRANCH   1  27
TORSDOF 21
ENDMDL
