MODEL 1
REMARK VINA RESULT:     -12.3      0.000      0.000
REMARK SMILES CCn1ncc(NC(=O)[C@@H]2CCCC[C@@H]2C(=O)NCCCCCCNC(=O)c2ccc(-c3c4nc(c(-c5cc(S(=O)(=O)[O-])ccc5F)c5ccc([nH]5)c(-c5cc(S(=O)(=O)[O-])ccc5F)c5nc(c(-c6cc(S(=O)(=O)[O-])ccc6F)c6ccc3[nH]6)C=C5)C=C4)cc2)c1C(=O)Nc1cnn(C)c1C
REMARK SMILES IDX 21 1 20 2 19 3 18 4 16 5 17 6 15 8 10 9 11 10 12 11 14 12
REMARK SMILES IDX 13 13 8 14 7 15 9 17 6 18 3 19 4 20 91 21 5 22 2 23 1 24
REMARK SMILES IDX 92 25 93 26 94 27 95 29 96 30 100 31 97 32 98 33 101 34
REMARK SMILES IDX 99 35 22 36 23 37 24 38 25 39 26 40 27 42 28 43 29 44 90 45
REMARK SMILES IDX 30 46 89 47 31 48 32 49 33 50 83 51 34 52 88 53 82 54 84 55
REMARK SMILES IDX 35 56 87 57 81 58 80 59 36 61 68 62 48 63 67 64 49 65 52 66
REMARK SMILES IDX 66 67 85 68 50 69 51 70 65 72 86 73 53 74 37 75 38 76 46 77
REMARK SMILES IDX 39 78 45 79 47 80 44 81 40 82 41 83 42 84 43 85 69 86 70 87
REMARK SMILES IDX 78 88 71 89 77 90 79 91 76 92 72 93 73 94 74 95 75 96 54 97
REMARK SMILES IDX 55 98 63 99 56 100 62 101 64 102 61 103 57 104 58 105 59 106
REMARK SMILES IDX 60 107
REMARK H PARENT 18 7 7 16 94 28 25 41 84 60 52 71
REMARK Flexibility Score: inf
ROOT
ATOM      1  C   UNL A   1      32.150  31.152  26.743  1.00  0.00     0.002 C 
ENDROOT
BRANCH   1   2
ATOM      2  C   UNL A   1      31.621  30.090  25.783  1.00  0.00     0.021 C 
BRANCH   2   3
ATOM      3  C   UNL A   1      32.462  29.856  24.542  1.00  0.00     0.116 C 
BRANCH   3   4
ATOM      4  N   UNL A   1      31.797  29.109  23.499  1.00  0.00    -0.356 N 
ATOM      5  C   UNL A   1      31.629  27.780  23.288  1.00  0.00     0.223 C 
ATOM      6  O   UNL A   1      30.790  27.501  22.425  1.00  0.00    -0.275 OA
ATOM      7  H   UNL A   1      31.386  29.676  22.807  1.00  0.00     0.163 HD
BRANCH   5   8
ATOM      8  C   UNL A   1      32.444  26.670  23.991  1.00  0.00     0.091 C 
ATOM      9  C   UNL A   1      32.006  25.262  23.527  1.00  0.00     0.091 C 
ATOM     10  C   UNL A   1      30.506  25.055  23.740  1.00  0.00     0.014 C 
ATOM     11  C   UNL A   1      30.131  25.225  25.216  1.00  0.00     0.001 C 
ATOM     12  C   UNL A   1      32.353  26.556  25.520  1.00  0.00     0.014 C 
ATOM     13  C   UNL A   1      30.926  26.278  26.004  1.00  0.00     0.001 C 
BRANCH   9  14
ATOM     14  C   UNL A   1      32.561  24.751  22.220  1.00  0.00     0.228 C 
ATOM     15  N   UNL A   1      32.832  23.418  22.070  1.00  0.00    -0.322 N 
ATOM     16  H   UNL A   1      33.064  23.185  21.142  1.00  0.00     0.170 HD
ATOM     17  O   UNL A   1      32.732  25.470  21.236  1.00  0.00    -0.274 OA
BRANCH  15  18
ATOM     18  C   UNL A   1      32.857  22.311  22.914  1.00  0.00     0.092 A 
ATOM     19  N   UNL A   1      32.951  20.732  24.443  1.00  0.00    -0.258 N 
ATOM     20  N   UNL A   1      32.214  20.183  23.462  1.00  0.00    -0.178 NA
ATOM     21  C   UNL A   1      33.459  21.987  24.139  1.00  0.00     0.150 A 
ATOM     22  C   UNL A   1      32.187  21.123  22.530  1.00  0.00     0.162 A 
BRANCH  19  23
ATOM     23  C   UNL A   1      33.166  19.898  25.611  1.00  0.00     0.142 C 
ATOM     24  C   UNL A   1      32.774  18.452  25.375  1.00  0.00     0.029 C 
ENDBRANCH  19  23
BRANCH  21  25
ATOM     25  C   UNL A   1      34.523  22.641  24.896  1.00  0.00     0.276 C 
ATOM     26  O   UNL A   1      34.640  23.860  24.975  1.00  0.00    -0.267 OA
ATOM     27  N   UNL A   1      35.282  21.806  25.694  1.00  0.00    -0.318 N 
ATOM     28  H   UNL A   1      34.881  21.472  26.529  1.00  0.00     0.170 HD
BRANCH  27  29
ATOM     29  C   UNL A   1      36.569  21.412  25.390  1.00  0.00     0.082 A 
ATOM     30  C   UNL A   1      37.051  20.200  24.869  1.00  0.00     0.161 A 
ATOM     31  C   UNL A   1      37.698  22.166  25.653  1.00  0.00     0.059 A 
ATOM     32  N   UNL A   1      38.371  20.088  25.014  1.00  0.00    -0.179 NA
ATOM     33  N   UNL A   1      38.726  21.252  25.592  1.00  0.00    -0.271 N 
ATOM     34  C   UNL A   1      37.892  23.564  26.114  1.00  0.00     0.068 C 
ATOM     35  C   UNL A   1      39.974  21.305  26.322  1.00  0.00     0.174 C 
ENDBRANCH  27  29
ENDBRANCH  21  25
ENDBRANCH  15  18
ENDBRANCH   9  14
ENDBRANCH   5   8
ENDBRANCH   3   4
ENDBRANCH   2   3
ENDBRANCH   1   2
BRANCH   1  36
ATOM     36  C   UNL A   1      33.455  30.840  27.490  1.00  0.00     0.002 C 
BRANCH  36  37
ATOM     37  C   UNL A   1      34.180  29.525  27.166  1.00  0.00     0.021 C 
BRANCH  37  38
ATOM     38  C   UNL A   1      35.544  29.367  27.815  1.00  0.00     0.116 C 
BRANCH  38  39
ATOM     39  N   UNL A   1      35.582  29.867  29.188  1.00  0.00    -0.352 N 
ATOM     40  C   UNL A   1      36.534  29.616  30.166  1.00  0.00     0.251 C 
ATOM     41  H   UNL A   1      34.839  30.456  29.451  1.00  0.00     0.163 HD
ATOM     42  O   UNL A   1      36.269  29.756  31.344  1.00  0.00    -0.269 OA
BRANCH  40  43
ATOM     43  C   UNL A   1      37.875  29.184  29.727  1.00  0.00     0.039 A 
ATOM     44  C   UNL A   1      38.595  29.853  28.735  1.00  0.00     0.014 A 
ATOM     45  C   UNL A   1      38.422  28.089  30.385  1.00  0.00     0.014 A 
ATOM     46  C   UNL A   1      39.902  29.442  28.469  1.00  0.00     0.010 A 
ATOM     47  C   UNL A   1      39.757  27.836  30.282  1.00  0.00     0.010 A 
ATOM     48  C   UNL A   1      40.476  28.435  29.259  1.00  0.00    -0.014 A 
BRANCH  48  49
ATOM     49  C   UNL A   1      41.857  28.002  29.100  1.00  0.00     0.031 A 
ATOM     50  C   UNL A   1      42.034  26.793  28.252  1.00  0.00     0.074 A 
ATOM     51  C   UNL A   1      42.888  28.809  29.444  1.00  0.00     0.049 A 
ATOM     52  N   UNL A   1      42.439  25.620  28.607  1.00  0.00    -0.248 NA
ATOM     53  C   UNL A   1      41.549  26.849  26.862  1.00  0.00     0.031 C 
ATOM     54  C   UNL A   1      42.842  30.188  29.954  1.00  0.00     0.029 A 
ATOM     55  N   UNL A   1      44.220  28.608  29.286  1.00  0.00    -0.354 N 
ATOM     56  C   UNL A   1      42.489  24.856  27.442  1.00  0.00     0.074 A 
ATOM     57  C   UNL A   1      41.724  25.586  26.468  1.00  0.00     0.031 C 
ATOM     58  C   UNL A   1      44.057  30.767  29.823  1.00  0.00     0.029 A 
ATOM     59  C   UNL A   1      45.007  29.752  29.408  1.00  0.00     0.049 A 
ATOM     60  H   UNL A   1      44.602  27.721  29.099  1.00  0.00     0.167 HD
ATOM     61  C   UNL A   1      43.351  23.807  27.318  1.00  0.00     0.034 A 
ATOM     62  C   UNL A   1      46.340  29.858  29.161  1.00  0.00     0.034 A 
ATOM     63  C   UNL A   1      43.892  23.443  28.608  1.00  0.00     0.049 A 
ATOM     64  C   UNL A   1      46.878  28.473  29.212  1.00  0.00     0.074 A 
ATOM     65  C   UNL A   1      43.345  22.990  29.793  1.00  0.00     0.029 A 
ATOM     66  N   UNL A   1      45.139  23.927  28.939  1.00  0.00    -0.354 N 
ATOM     67  N   UNL A   1      46.855  27.736  30.291  1.00  0.00    -0.248 NA
ATOM     68  C   UNL A   1      46.958  27.734  27.960  1.00  0.00     0.031 C 
ATOM     69  C   UNL A   1      44.056  23.693  30.812  1.00  0.00     0.029 A 
ATOM     70  C   UNL A   1      45.055  24.457  30.204  1.00  0.00     0.049 A 
ATOM     71  H   UNL A   1      45.944  23.898  28.372  1.00  0.00     0.167 HD
ATOM     72  C   UNL A   1      46.495  26.468  29.857  1.00  0.00     0.074 A 
ATOM     73  C   UNL A   1      46.656  26.509  28.403  1.00  0.00     0.031 C 
ATOM     74  C   UNL A   1      45.825  25.598  30.672  1.00  0.00     0.034 A 
BRANCH  61  75
ATOM     75  C   UNL A   1      43.987  23.328  26.026  1.00  0.00     0.023 A 
ATOM     76  C   UNL A   1      43.759  21.985  25.658  1.00  0.00     0.031 A 
ATOM     77  C   UNL A   1      44.994  23.994  25.293  1.00  0.00     0.131 A 
ATOM     78  C   UNL A   1      44.565  21.345  24.702  1.00  0.00     0.055 A 
ATOM     79  C   UNL A   1      45.752  23.370  24.296  1.00  0.00     0.041 A 
ATOM     80  F   UNL A   1      45.370  25.251  25.547  1.00  0.00    -0.206 F 
ATOM     81  C   UNL A   1      45.564  22.029  24.018  1.00  0.00     0.022 A 
BRANCH  78  82
ATOM     82  S   UNL A   1      44.404  19.552  24.499  1.00  0.00     0.124 S 
ATOM     83  O   UNL A   1      44.630  19.394  23.067  1.00  0.00    -0.237 OA
ATOM     84  O   UNL A   1      45.457  19.056  25.378  1.00  0.00    -0.237 OA
ATOM     85  O   UNL A   1      43.040  19.283  24.948  1.00  0.00    -0.744 OA
ENDBRANCH  78  82
ENDBRANCH  61  75
BRANCH  62  86
ATOM     86  C   UNL A   1      47.051  31.002  28.518  1.00  0.00     0.023 A 
ATOM     87  C   UNL A   1      48.364  31.392  28.864  1.00  0.00     0.031 A 
ATOM     88  C   UNL A   1      46.507  31.587  27.351  1.00  0.00     0.131 A 
ATOM     89  C   UNL A   1      49.069  32.323  28.060  1.00  0.00     0.055 A 
ATOM     90  C   UNL A   1      47.208  32.501  26.560  1.00  0.00     0.041 A 
ATOM     91  F   UNL A   1      45.299  31.223  26.893  1.00  0.00    -0.206 F 
ATOM     92  C   UNL A   1      48.498  32.867  26.907  1.00  0.00     0.022 A 
BRANCH  89  93
ATOM     93  S   UNL A   1      50.787  32.787  28.462  1.00  0.00     0.124 S 
ATOM     94  O   UNL A   1      51.557  31.916  27.582  1.00  0.00    -0.237 OA
ATOM     95  O   UNL A   1      50.809  34.211  28.148  1.00  0.00    -0.237 OA
ATOM     96  O   UNL A   1      50.902  32.475  29.888  1.00  0.00    -0.744 OA
ENDBRANCH  89  93
ENDBRANCH  62  86
BRANCH  74  97
ATOM     97  C   UNL A   1      45.708  25.925  32.149  1.00  0.00     0.023 A 
ATOM     98  C   UNL A   1      44.545  26.413  32.793  1.00  0.00     0.031 A 
ATOM     99  C   UNL A   1      46.794  25.555  32.961  1.00  0.00     0.131 A 
ATOM    100  C   UNL A   1      44.507  26.507  34.202  1.00  0.00     0.055 A 
ATOM    101  C   UNL A   1      46.744  25.628  34.352  1.00  0.00     0.041 A 
ATOM    102  F   UNL A   1      47.915  25.062  32.409  1.00  0.00    -0.206 F 
ATOM    103  C   UNL A   1      45.600  26.104  34.978  1.00  0.00     0.022 A 
BRANCH 100 104
ATOM    104  S   UNL A   1      43.031  27.149  35.063  1.00  0.00     0.124 S 
ATOM    105  O   UNL A   1      43.593  27.933  36.157  1.00  0.00    -0.237 OA
ATOM    106  O   UNL A   1      42.351  27.904  34.015  1.00  0.00    -0.237 OA
ATOM    107  O   UNL A   1      42.328  25.935  35.487  1.00  0.00    -0.744 OA
ENDBRANCH 100 104
ENDBRANCH  74  97
ENDBRANCH  48  49
ENDBRANCH  40  43
ENDBRANCH  38  39
ENDBRANCH  37  38
ENDBRANCH  36  37
ENDBRANCH   1  36
TORSDOF 21
ENDMDL
MODEL 2
REMARK VINA RESULT:     -12.0      2.544      7.458
REMARK SMILES CCn1ncc(NC(=O)[C@@H]2CCCC[C@@H]2C(=O)NCCCCCCNC(=O)c2ccc(-c3c4nc(c(-c5cc(S(=O)(=O)[O-])ccc5F)c5ccc([nH]5)c(-c5cc(S(=O)(=O)[O-])ccc5F)c5nc(c(-c6cc(S(=O)(=O)[O-])ccc6F)c6ccc3[nH]6)C=C5)C=C4)cc2)c1C(=O)Nc1cnn(C)c1C
REMARK SMILES IDX 21 1 20 2 19 3 18 4 16 5 17 6 15 8 10 9 11 10 12 11 14 12
REMARK SMILES IDX 13 13 8 14 7 15 9 17 6 18 3 19 4 20 91 21 5 22 2 23 1 24
REMARK SMILES IDX 92 25 93 26 94 27 95 29 96 30 100 31 97 32 98 33 101 34
REMARK SMILES IDX 99 35 22 36 23 37 24 38 25 39 26 40 27 42 28 43 29 44 90 45
REMARK SMILES IDX 30 46 89 47 31 48 32 49 33 50 83 51 34 52 88 53 82 54 84 55
REMARK SMILES IDX 35 56 87 57 81 58 80 59 36 61 68 62 48 63 67 64 49 65 52 66
REMARK SMILES IDX 66 67 85 68 50 69 51 70 65 72 86 73 53 74 37 75 38 76 46 77
REMARK SMILES IDX 39 78 45 79 47 80 44 81 40 82 41 83 42 84 43 85 69 86 70 87
REMARK SMILES IDX 78 88 71 89 77 90 79 91 76 92 72 93 73 94 74 95 75 96 54 97
REMARK SMILES IDX 55 98 63 99 56 100 62 101 64 102 61 103 57 104 58 105 59 106
REMARK SMILES IDX 60 107
REMARK H PARENT 18 7 7 16 94 28 25 41 84 60 52 71
REMARK Flexibility Score: inf
ROOT
ATOM      1  C   UNL A   1      33.558  31.221  27.634  1.00  0.00     0.002 C 
ENDROOT
BRANCH   1   2
ATOM      2  C   UNL A   1      32.976  30.222  26.638  1.00  0.00     0.021 C 
BRANCH   2   3
ATOM      3  C   UNL A   1      33.924  29.129  26.181  1.00  0.00     0.116 C 
BRANCH   3   4
ATOM      4  N   UNL A   1      34.046  29.001  24.747  1.00  0.00    -0.356 N 
ATOM      5  C   UNL A   1      33.597  28.071  23.868  1.00  0.00     0.223 C 
ATOM      6  O   UNL A   1      33.670  28.410  22.682  1.00  0.00    -0.275 OA
ATOM      7  H   UNL A   1      34.555  29.732  24.327  1.00  0.00     0.163 HD
BRANCH   5   8
ATOM      8  C   UNL A   1      33.090  26.665  24.261  1.00  0.00     0.091 C 
ATOM      9  C   UNL A   1      32.371  25.969  23.083  1.00  0.00     0.091 C 
ATOM     10  C   UNL A   1      31.226  26.832  22.551  1.00  0.00     0.014 C 
ATOM     11  C   UNL A   1      30.200  27.123  23.652  1.00  0.00     0.001 C 
ATOM     12  C   UNL A   1      32.057  26.551  25.391  1.00  0.00     0.014 C 
ATOM     13  C   UNL A   1      30.756  27.295  25.074  1.00  0.00     0.001 C 
BRANCH   9  14
ATOM     14  C   UNL A   1      33.228  25.297  22.037  1.00  0.00     0.228 C 
ATOM     15  N   UNL A   1      34.032  24.246  22.389  1.00  0.00    -0.322 N 
ATOM     16  H   UNL A   1      34.440  23.810  21.607  1.00  0.00     0.170 HD
ATOM     17  O   UNL A   1      33.200  25.606  20.847  1.00  0.00    -0.274 OA
BRANCH  15  18
ATOM     18  C   UNL A   1      34.410  23.646  23.586  1.00  0.00     0.092 A 
ATOM     19  N   UNL A   1      34.870  22.488  25.399  1.00  0.00    -0.258 N 
ATOM     20  N   UNL A   1      35.850  23.408  25.350  1.00  0.00    -0.178 NA
ATOM     21  C   UNL A   1      33.902  22.635  24.415  1.00  0.00     0.150 A 
ATOM     22  C   UNL A   1      35.552  24.123  24.277  1.00  0.00     0.162 A 
BRANCH  19  23
ATOM     23  C   UNL A   1      34.934  21.559  26.511  1.00  0.00     0.142 C 
ATOM     24  C   UNL A   1      33.978  21.923  27.631  1.00  0.00     0.029 C 
ENDBRANCH  19  23
BRANCH  21  25
ATOM     25  C   UNL A   1      32.602  21.970  24.445  1.00  0.00     0.276 C 
ATOM     26  O   UNL A   1      31.603  22.473  24.951  1.00  0.00    -0.267 OA
ATOM     27  N   UNL A   1      32.507  20.818  23.689  1.00  0.00    -0.318 N 
ATOM     28  H   UNL A   1      32.447  20.910  22.710  1.00  0.00     0.170 HD
BRANCH  27  29
ATOM     29  C   UNL A   1      32.491  19.546  24.223  1.00  0.00     0.082 A 
ATOM     30  C   UNL A   1      32.562  19.120  25.560  1.00  0.00     0.161 A 
ATOM     31  C   UNL A   1      32.498  18.386  23.472  1.00  0.00     0.059 A 
ATOM     32  N   UNL A   1      32.837  17.818  25.650  1.00  0.00    -0.179 NA
ATOM     33  N   UNL A   1      32.901  17.418  24.366  1.00  0.00    -0.271 N 
ATOM     34  C   UNL A   1      32.346  18.123  22.018  1.00  0.00     0.068 C 
ATOM     35  C   UNL A   1      33.632  16.208  24.058  1.00  0.00     0.174 C 
ENDBRANCH  27  29
ENDBRANCH  21  25
ENDBRANCH  15  18
ENDBRANCH   9  14
ENDBRANCH   5   8
ENDBRANCH   3   4
ENDBRANCH   2   3
ENDBRANCH   1   2
BRANCH   1  36
ATOM     36  C   UNL A   1      35.054  31.099  27.963  1.00  0.00     0.002 C 
BRANCH  36  37
ATOM     37  C   UNL A   1      35.456  30.809  29.416  1.00  0.00     0.021 C 
BRANCH  37  38
ATOM     38  C   UNL A   1      35.903  32.022  30.213  1.00  0.00     0.116 C 
BRANCH  38  39
ATOM     39  N   UNL A   1      36.639  32.993  29.405  1.00  0.00    -0.352 N 
ATOM     40  C   UNL A   1      38.013  33.120  29.257  1.00  0.00     0.251 C 
ATOM     41  H   UNL A   1      36.090  33.636  28.901  1.00  0.00     0.163 HD
ATOM     42  O   UNL A   1      38.506  34.168  28.889  1.00  0.00    -0.269 OA
BRANCH  40  43
ATOM     43  C   UNL A   1      38.849  31.940  29.552  1.00  0.00     0.039 A 
ATOM     44  C   UNL A   1      38.663  30.707  28.922  1.00  0.00     0.014 A 
ATOM     45  C   UNL A   1      39.878  32.121  30.467  1.00  0.00     0.014 A 
ATOM     46  C   UNL A   1      39.575  29.684  29.179  1.00  0.00     0.010 A 
ATOM     47  C   UNL A   1      40.884  31.204  30.545  1.00  0.00     0.010 A 
ATOM     48  C   UNL A   1      40.691  29.949  29.987  1.00  0.00    -0.014 A 
BRANCH  48  49
ATOM     49  C   UNL A   1      41.730  28.962  30.242  1.00  0.00     0.031 A 
ATOM     50  C   UNL A   1      41.972  28.674  31.682  1.00  0.00     0.074 A 
ATOM     51  C   UNL A   1      42.204  28.172  29.251  1.00  0.00     0.049 A 
ATOM     52  N   UNL A   1      43.023  28.937  32.383  1.00  0.00    -0.248 NA
ATOM     53  C   UNL A   1      40.843  28.171  32.483  1.00  0.00     0.031 C 
ATOM     54  C   UNL A   1      41.773  28.107  27.845  1.00  0.00     0.029 A 
ATOM     55  N   UNL A   1      43.095  27.153  29.322  1.00  0.00    -0.354 N 
ATOM     56  C   UNL A   1      42.781  28.419  33.655  1.00  0.00     0.074 A 
ATOM     57  C   UNL A   1      41.366  28.176  33.711  1.00  0.00     0.031 C 
ATOM     58  C   UNL A   1      42.216  26.960  27.282  1.00  0.00     0.029 A 
ATOM     59  C   UNL A   1      43.116  26.307  28.214  1.00  0.00     0.049 A 
ATOM     60  H   UNL A   1      43.685  27.019  30.099  1.00  0.00     0.167 HD
ATOM     61  C   UNL A   1      43.804  28.018  34.463  1.00  0.00     0.034 A 
ATOM     62  C   UNL A   1      43.806  25.143  28.085  1.00  0.00     0.034 A 
ATOM     63  C   UNL A   1      45.068  28.510  33.961  1.00  0.00     0.049 A 
ATOM     64  C   UNL A   1      44.879  25.186  29.113  1.00  0.00     0.074 A 
ATOM     65  C   UNL A   1      45.597  29.766  33.738  1.00  0.00     0.029 A 
ATOM     66  N   UNL A   1      45.837  27.648  33.210  1.00  0.00    -0.354 N 
ATOM     67  N   UNL A   1      45.837  26.077  29.110  1.00  0.00    -0.248 NA
ATOM     68  C   UNL A   1      44.597  24.586  30.409  1.00  0.00     0.031 C 
ATOM     69  C   UNL A   1      46.289  29.653  32.495  1.00  0.00     0.029 A 
ATOM     70  C   UNL A   1      46.228  28.320  32.078  1.00  0.00     0.049 A 
ATOM     71  H   UNL A   1      46.066  26.718  33.443  1.00  0.00     0.167 HD
ATOM     72  C   UNL A   1      45.986  26.454  30.438  1.00  0.00     0.074 A 
ATOM     73  C   UNL A   1      45.255  25.440  31.200  1.00  0.00     0.031 C 
ATOM     74  C   UNL A   1      46.433  27.700  30.779  1.00  0.00     0.034 A 
BRANCH  61  75
ATOM     75  C   UNL A   1      43.738  26.907  35.494  1.00  0.00     0.023 A 
ATOM     76  C   UNL A   1      44.056  27.247  36.826  1.00  0.00     0.031 A 
ATOM     77  C   UNL A   1      43.653  25.522  35.226  1.00  0.00     0.131 A 
ATOM     78  C   UNL A   1      44.371  26.259  37.775  1.00  0.00     0.055 A 
ATOM     79  C   UNL A   1      43.905  24.541  36.191  1.00  0.00     0.041 A 
ATOM     80  F   UNL A   1      43.412  25.030  34.008  1.00  0.00    -0.206 F 
ATOM     81  C   UNL A   1      44.299  24.905  37.465  1.00  0.00     0.022 A 
BRANCH  78  82
ATOM     82  S   UNL A   1      45.052  26.782  39.370  1.00  0.00     0.124 S 
ATOM     83  O   UNL A   1      44.002  26.364  40.292  1.00  0.00    -0.237 OA
ATOM     84  O   UNL A   1      46.299  26.027  39.425  1.00  0.00    -0.237 OA
ATOM     85  O   UNL A   1      45.205  28.227  39.214  1.00  0.00    -0.744 OA
ENDBRANCH  78  82
ENDBRANCH  61  75
BRANCH  62  86
ATOM     86  C   UNL A   1      43.346  23.890  27.417  1.00  0.00     0.023 A 
ATOM     87  C   UNL A   1      44.112  23.200  26.451  1.00  0.00     0.031 A 
ATOM     88  C   UNL A   1      42.211  23.214  27.920  1.00  0.00     0.131 A 
ATOM     89  C   UNL A   1      43.733  21.900  26.033  1.00  0.00     0.055 A 
ATOM     90  C   UNL A   1      41.844  21.930  27.508  1.00  0.00     0.041 A 
ATOM     91  F   UNL A   1      41.463  23.750  28.899  1.00  0.00    -0.206 F 
ATOM     92  C   UNL A   1      42.611  21.262  26.567  1.00  0.00     0.022 A 
BRANCH  89  93
ATOM     93  S   UNL A   1      44.749  20.974  24.833  1.00  0.00     0.124 S 
ATOM     94  O   UNL A   1      46.076  21.040  25.435  1.00  0.00    -0.237 OA
ATOM     95  O   UNL A   1      44.106  19.665  24.821  1.00  0.00    -0.237 OA
ATOM     96  O   UNL A   1      44.599  21.739  23.594  1.00  0.00    -0.744 OA
ENDBRANCH  89  93
ENDBRANCH  62  86
BRANCH  74  97
ATOM     97  C   UNL A   1      47.022  28.586  29.698  1.00  0.00     0.023 A 
ATOM     98  C   UNL A   1      46.279  29.388  28.798  1.00  0.00     0.031 A 
ATOM     99  C   UNL A   1      48.419  28.742  29.708  1.00  0.00     0.131 A 
ATOM    100  C   UNL A   1      46.947  30.305  27.957  1.00  0.00     0.055 A 
ATOM    101  C   UNL A   1      49.071  29.665  28.893  1.00  0.00     0.041 A 
ATOM    102  F   UNL A   1      49.175  28.027  30.558  1.00  0.00    -0.206 F 
ATOM    103  C   UNL A   1      48.338  30.451  28.014  1.00  0.00     0.022 A 
BRANCH 100 104
ATOM    104  S   UNL A   1      46.022  31.342  26.771  1.00  0.00     0.124 S 
ATOM    105  O   UNL A   1      45.501  30.374  25.813  1.00  0.00    -0.237 OA
ATOM    106  O   UNL A   1      45.034  31.998  27.622  1.00  0.00    -0.237 OA
ATOM    107  O   UNL A   1      47.046  32.239  26.231  1.00  0.00    -0.744 OA
ENDBRANCH 100 104
ENDBRANCH  74  97
ENDBRANCH  48  49
ENDBRANCH  40  43
ENDBRANCH  38  39
ENDBRANCH  37  38
ENDBRANCH  36  37
ENDBRANCH   1  36
TORSDOF 21
ENDMDL
MODEL 3
REMARK VINA RESULT:     -12.0      1.555      2.552
REMARK SMILES CCn1ncc(NC(=O)[C@@H]2CCCC[C@@H]2C(=O)NCCCCCCNC(=O)c2ccc(-c3c4nc(c(-c5cc(S(=O)(=O)[O-])ccc5F)c5ccc([nH]5)c(-c5cc(S(=O)(=O)[O-])ccc5F)c5nc(c(-c6cc(S(=O)(=O)[O-])ccc6F)c6ccc3[nH]6)C=C5)C=C4)cc2)c1C(=O)Nc1cnn(C)c1C
REMARK SMILES IDX 21 1 20 2 19 3 18 4 16 5 17 6 15 8 10 9 11 10 12 11 14 12
REMARK SMILES IDX 13 13 8 14 7 15 9 17 6 18 3 19 4 20 91 21 5 22 2 23 1 24
REMARK SMILES IDX 92 25 93 26 94 27 95 29 96 30 100 31 97 32 98 33 101 34
REMARK SMILES IDX 99 35 22 36 23 37 24 38 25 39 26 40 27 42 28 43 29 44 90 45
REMARK SMILES IDX 30 46 89 47 31 48 32 49 33 50 83 51 34 52 88 53 82 54 84 55
REMARK SMILES IDX 35 56 87 57 81 58 80 59 36 61 68 62 48 63 67 64 49 65 52 66
REMARK SMILES IDX 66 67 85 68 50 69 51 70 65 72 86 73 53 74 37 75 38 76 46 77
REMARK SMILES IDX 39 78 45 79 47 80 44 81 40 82 41 83 42 84 43 85 69 86 70 87
REMARK SMILES IDX 78 88 71 89 77 90 79 91 76 92 72 93 73 94 74 95 75 96 54 97
REMARK SMILES IDX 55 98 63 99 56 100 62 101 64 102 61 103 57 104 58 105 59 106
REMARK SMILES IDX 60 107
REMARK H PARENT 18 7 7 16 94 28 25 41 84 60 52 71
REMARK Flexibility Score: inf
ROOT
ATOM      1  C   UNL A   1      32.336  31.252  26.679  1.00  0.00     0.002 C 
ENDROOT
BRANCH   1   2
ATOM      2  C   UNL A   1      31.676  30.052  26.006  1.00  0.00     0.021 C 
BRANCH   2   3
ATOM      3  C   UNL A   1      32.269  29.648  24.668  1.00  0.00     0.116 C 
BRANCH   3   4
ATOM      4  N   UNL A   1      31.372  28.903  23.816  1.00  0.00    -0.356 N 
ATOM      5  C   UNL A   1      31.127  27.576  23.680  1.00  0.00     0.223 C 
ATOM      6  O   UNL A   1      30.112  27.307  23.029  1.00  0.00    -0.275 OA
ATOM      7  H   UNL A   1      30.834  29.469  23.216  1.00  0.00     0.163 HD
BRANCH   5   8
ATOM      8  C   UNL A   1      32.046  26.454  24.215  1.00  0.00     0.091 C 
ATOM      9  C   UNL A   1      31.252  25.163  24.517  1.00  0.00     0.091 C 
ATOM     10  C   UNL A   1      30.104  25.438  25.490  1.00  0.00     0.014 C 
ATOM     11  C   UNL A   1      30.629  26.014  26.810  1.00  0.00     0.001 C 
ATOM     12  C   UNL A   1      32.798  26.694  25.533  1.00  0.00     0.014 C 
ATOM     13  C   UNL A   1      31.852  26.939  26.712  1.00  0.00     0.001 C 
BRANCH   9  14
ATOM     14  C   UNL A   1      30.926  24.253  23.358  1.00  0.00     0.228 C 
ATOM     15  N   UNL A   1      31.821  23.291  22.975  1.00  0.00    -0.322 N 
ATOM     16  H   UNL A   1      31.448  22.680  22.299  1.00  0.00     0.170 HD
ATOM     17  O   UNL A   1      29.851  24.286  22.760  1.00  0.00    -0.274 OA
BRANCH  15  18
ATOM     18  C   UNL A   1      33.132  22.969  23.312  1.00  0.00     0.092 A 
ATOM     19  N   UNL A   1      35.112  22.225  23.920  1.00  0.00    -0.258 N 
ATOM     20  N   UNL A   1      35.395  23.217  23.058  1.00  0.00    -0.178 NA
ATOM     21  C   UNL A   1      33.759  22.082  24.200  1.00  0.00     0.150 A 
ATOM     22  C   UNL A   1      34.203  23.683  22.719  1.00  0.00     0.162 A 
BRANCH  19  23
ATOM     23  C   UNL A   1      36.256  21.532  24.480  1.00  0.00     0.142 C 
ATOM     24  C   UNL A   1      36.811  22.222  25.712  1.00  0.00     0.029 C 
ENDBRANCH  19  23
BRANCH  21  25
ATOM     25  C   UNL A   1      33.237  21.303  25.319  1.00  0.00     0.276 C 
ATOM     26  O   UNL A   1      33.486  21.562  26.493  1.00  0.00    -0.267 OA
ATOM     27  N   UNL A   1      32.273  20.368  24.992  1.00  0.00    -0.318 N 
ATOM     28  H   UNL A   1      31.367  20.691  24.781  1.00  0.00     0.170 HD
BRANCH  27  29
ATOM     29  C   UNL A   1      32.505  19.009  24.941  1.00  0.00     0.082 A 
ATOM     30  C   UNL A   1      32.779  18.094  25.971  1.00  0.00     0.161 A 
ATOM     31  C   UNL A   1      32.609  18.279  23.772  1.00  0.00     0.059 A 
ATOM     32  N   UNL A   1      33.255  16.942  25.497  1.00  0.00    -0.179 NA
ATOM     33  N   UNL A   1      33.244  17.121  24.162  1.00  0.00    -0.271 N 
ATOM     34  C   UNL A   1      32.348  18.611  22.348  1.00  0.00     0.068 C 
ATOM     35  C   UNL A   1      34.113  16.296  23.351  1.00  0.00     0.174 C 
ENDBRANCH  27  29
ENDBRANCH  21  25
ENDBRANCH  15  18
ENDBRANCH   9  14
ENDBRANCH   5   8
ENDBRANCH   3   4
ENDBRANCH   2   3
ENDBRANCH   1   2
BRANCH   1  36
ATOM     36  C   UNL A   1      33.656  31.005  27.424  1.00  0.00     0.002 C 
BRANCH  36  37
ATOM     37  C   UNL A   1      34.364  29.657  27.220  1.00  0.00     0.021 C 
BRANCH  37  38
ATOM     38  C   UNL A   1      35.703  29.522  27.922  1.00  0.00     0.116 C 
BRANCH  38  39
ATOM     39  N   UNL A   1      35.651  29.920  29.327  1.00  0.00    -0.352 N 
ATOM     40  C   UNL A   1      36.540  29.598  30.344  1.00  0.00     0.251 C 
ATOM     41  H   UNL A   1      34.891  30.491  29.584  1.00  0.00     0.163 HD
ATOM     42  O   UNL A   1      36.200  29.653  31.510  1.00  0.00    -0.269 OA
BRANCH  40  43
ATOM     43  C   UNL A   1      37.907  29.197  29.961  1.00  0.00     0.039 A 
ATOM     44  C   UNL A   1      38.684  29.930  29.061  1.00  0.00     0.014 A 
ATOM     45  C   UNL A   1      38.418  28.062  30.580  1.00  0.00     0.014 A 
ATOM     46  C   UNL A   1      40.007  29.539  28.850  1.00  0.00     0.010 A 
ATOM     47  C   UNL A   1      39.759  27.818  30.543  1.00  0.00     0.010 A 
ATOM     48  C   UNL A   1      40.536  28.483  29.607  1.00  0.00    -0.014 A 
BRANCH  48  49
ATOM     49  C   UNL A   1      41.927  28.063  29.506  1.00  0.00     0.031 A 
ATOM     50  C   UNL A   1      42.164  26.925  28.577  1.00  0.00     0.074 A 
ATOM     51  C   UNL A   1      42.929  28.838  29.981  1.00  0.00     0.049 A 
ATOM     52  N   UNL A   1      42.550  25.727  28.863  1.00  0.00    -0.248 NA
ATOM     53  C   UNL A   1      41.773  27.094  27.167  1.00  0.00     0.031 C 
ATOM     54  C   UNL A   1      42.844  30.172  30.596  1.00  0.00     0.029 A 
ATOM     55  N   UNL A   1      44.269  28.649  29.897  1.00  0.00    -0.354 N 
ATOM     56  C   UNL A   1      42.680  25.059  27.646  1.00  0.00     0.074 A 
ATOM     57  C   UNL A   1      41.979  25.866  26.686  1.00  0.00     0.031 C 
ATOM     58  C   UNL A   1      44.062  30.758  30.593  1.00  0.00     0.029 A 
ATOM     59  C   UNL A   1      45.042  29.779  30.162  1.00  0.00     0.049 A 
ATOM     60  H   UNL A   1      44.667  27.779  29.665  1.00  0.00     0.167 HD
ATOM     61  C   UNL A   1      43.554  24.023  27.496  1.00  0.00     0.034 A 
ATOM     62  C   UNL A   1      46.388  29.903  30.013  1.00  0.00     0.034 A 
ATOM     63  C   UNL A   1      44.009  23.555  28.786  1.00  0.00     0.049 A 
ATOM     64  C   UNL A   1      46.927  28.517  29.988  1.00  0.00     0.074 A 
ATOM     65  C   UNL A   1      43.387  23.009  29.892  1.00  0.00     0.029 A 
ATOM     66  N   UNL A   1      45.230  24.010  29.237  1.00  0.00    -0.354 N 
ATOM     67  N   UNL A   1      46.836  27.696  31.001  1.00  0.00    -0.248 NA
ATOM     68  C   UNL A   1      47.093  27.882  28.690  1.00  0.00     0.031 C 
ATOM     69  C   UNL A   1      44.026  23.627  31.009  1.00  0.00     0.029 A 
ATOM     70  C   UNL A   1      45.060  24.437  30.532  1.00  0.00     0.049 A 
ATOM     71  H   UNL A   1      46.071  24.026  28.724  1.00  0.00     0.167 HD
ATOM     72  C   UNL A   1      46.511  26.467  30.444  1.00  0.00     0.074 A 
ATOM     73  C   UNL A   1      46.768  26.625  29.012  1.00  0.00     0.031 C 
ATOM     74  C   UNL A   1      45.792  25.536  31.140  1.00  0.00     0.034 A 
BRANCH  61  75
ATOM     75  C   UNL A   1      44.275  23.648  26.216  1.00  0.00     0.023 A 
ATOM     76  C   UNL A   1      44.171  22.308  25.788  1.00  0.00     0.031 A 
ATOM     77  C   UNL A   1      45.253  24.421  25.550  1.00  0.00     0.131 A 
ATOM     78  C   UNL A   1      45.063  21.772  24.843  1.00  0.00     0.055 A 
ATOM     79  C   UNL A   1      46.097  23.900  24.563  1.00  0.00     0.041 A 
ATOM     80  F   UNL A   1      45.517  25.692  25.867  1.00  0.00    -0.206 F 
ATOM     81  C   UNL A   1      46.029  22.561  24.227  1.00  0.00     0.022 A 
BRANCH  78  82
ATOM     82  S   UNL A   1      45.054  19.982  24.567  1.00  0.00     0.124 S 
ATOM     83  O   UNL A   1      46.462  19.647  24.750  1.00  0.00    -0.237 OA
ATOM     84  O   UNL A   1      44.140  19.524  25.607  1.00  0.00    -0.237 OA
ATOM     85  O   UNL A   1      44.556  19.854  23.199  1.00  0.00    -0.744 OA
ENDBRANCH  78  82
ENDBRANCH  61  75
BRANCH  62  86
ATOM     86  C   UNL A   1      47.135  31.094  29.513  1.00  0.00     0.023 A 
ATOM     87  C   UNL A   1      46.908  31.675  28.245  1.00  0.00     0.031 A 
ATOM     88  C   UNL A   1      47.937  31.835  30.410  1.00  0.00     0.131 A 
ATOM     89  C   UNL A   1      47.471  32.937  27.925  1.00  0.00     0.055 A 
ATOM     90  C   UNL A   1      48.486  33.080  30.092  1.00  0.00     0.041 A 
ATOM     91  F   UNL A   1      48.146  31.409  31.666  1.00  0.00    -0.206 F 
ATOM     92  C   UNL A   1      48.247  33.642  28.848  1.00  0.00     0.022 A 
BRANCH  89  93
ATOM     93  S   UNL A   1      47.133  33.725  26.314  1.00  0.00     0.124 S 
ATOM     94  O   UNL A   1      46.859  35.105  26.696  1.00  0.00    -0.237 OA
ATOM     95  O   UNL A   1      48.374  33.488  25.584  1.00  0.00    -0.237 OA
ATOM     96  O   UNL A   1      45.975  32.988  25.807  1.00  0.00    -0.744 OA
ENDBRANCH  89  93
ENDBRANCH  62  86
BRANCH  74  97
ATOM     97  C   UNL A   1      45.576  25.743  32.628  1.00  0.00     0.023 A 
ATOM     98  C   UNL A   1      44.403  26.269  33.222  1.00  0.00     0.031 A 
ATOM     99  C   UNL A   1      46.559  25.216  33.483  1.00  0.00     0.131 A 
ATOM    100  C   UNL A   1      44.254  26.244  34.626  1.00  0.00     0.055 A 
ATOM    101  C   UNL A   1      46.397  25.173  34.867  1.00  0.00     0.041 A 
ATOM    102  F   UNL A   1      47.682  24.680  32.976  1.00  0.00    -0.206 F 
ATOM    103  C   UNL A   1      45.244  25.687  35.444  1.00  0.00     0.022 A 
BRANCH 100 104
ATOM    104  S   UNL A   1      42.763  26.930  35.427  1.00  0.00     0.124 S 
ATOM    105  O   UNL A   1      43.010  26.707  36.846  1.00  0.00    -0.237 OA
ATOM    106  O   UNL A   1      42.774  28.322  34.985  1.00  0.00    -0.237 OA
ATOM    107  O   UNL A   1      41.674  26.126  34.867  1.00  0.00    -0.744 OA
ENDBRANCH 100 104
ENDBRANCH  74  97
ENDBRANCH  48  49
ENDBRANCH  40  43
ENDBRANCH  38  39
ENDBRANCH  37  38
ENDBRANCH  36  37
ENDBRANCH   1  36
TORSDOF 21
ENDMDL
