MODEL 1
REMARK VINA RESULT:     -11.2      0.000      0.000
REMARK SMILES CCCCc1nc(C[N@H+]2CC[NH2+][C@H](C(=O)NCCCCCCNC(=O)c3ccc(-c4c5nc(c(-c6cc(S(=O)(=O)[O-])ccc6F)c6ccc([nH]6)c(-c6cc(S(=O)(=O)[O-])ccc6F)c6nc(c(-c7cc(S(=O)(=O)[O-])ccc7F)c7ccc4[nH]7)C=C6)C=C5)cc3)C2)c(Cl)[nH]1
REMARK SMILES IDX 18 1 17 2 16 3 14 4 15 5 13 7 9 8 10 9 89 10 11 12 12 13
REMARK SMILES IDX 8 16 7 17 5 18 6 19 92 20 90 21 91 23 4 24 3 25 2 26 1 27
REMARK SMILES IDX 19 28 20 29 21 30 22 31 23 32 24 33 25 35 26 36 27 37 88 38
REMARK SMILES IDX 28 39 87 40 29 41 30 42 31 43 81 44 32 45 86 46 80 47 82 48
REMARK SMILES IDX 33 49 85 50 79 51 78 52 34 54 66 55 46 56 65 57 47 58 50 59
REMARK SMILES IDX 64 60 83 61 48 62 49 63 63 65 84 66 51 67 35 68 36 69 44 70
REMARK SMILES IDX 37 71 43 72 45 73 42 74 38 75 39 76 40 77 41 78 67 79 68 80
REMARK SMILES IDX 76 81 69 82 75 83 77 84 74 85 70 86 71 87 72 88 73 89 52 90
REMARK SMILES IDX 53 91 61 92 54 93 60 94 62 95 59 96 55 97 56 98 57 99 58 100
REMARK H PARENT 16 6 9 11 12 14 12 15 92 22 23 34 82 53 50 64
REMARK Flexibility Score: inf
ROOT
ATOM      1  C   UNL A   1      32.199  29.763  26.837  1.00  0.00     0.021 C 
ENDROOT
BRANCH   1   2
ATOM      2  C   UNL A   1      31.748  30.039  25.408  1.00  0.00     0.116 C 
BRANCH   2   3
ATOM      3  N   UNL A   1      32.698  29.587  24.417  1.00  0.00    -0.351 N 
ATOM      4  C   UNL A   1      32.768  28.414  23.726  1.00  0.00     0.284 C 
ATOM      5  O   UNL A   1      33.632  28.365  22.841  1.00  0.00    -0.268 OA
ATOM      6  H   UNL A   1      33.413  30.231  24.208  1.00  0.00     0.163 HD
BRANCH   4   7
ATOM      7  C   UNL A   1      31.918  27.175  24.093  1.00  0.00     0.328 C 
ATOM      8  N   UNL A   1      32.063  24.586  23.950  1.00  0.00    -0.320 N 
ATOM      9  C   UNL A   1      30.663  24.627  23.510  1.00  0.00     0.324 C 
ATOM     10  C   UNL A   1      32.746  25.890  23.794  1.00  0.00     0.339 C 
ATOM     11  H   UNL A   1      32.525  23.947  23.303  1.00  0.00     0.348 HD
ATOM     12  C   UNL A   1      29.887  25.913  23.858  1.00  0.00     0.323 C 
ATOM     13  N   UNL A   1      30.600  27.117  23.407  1.00  0.00    -0.327 N 
ATOM     14  H   UNL A   1      30.054  27.946  23.642  1.00  0.00     0.347 HD
ATOM     15  H   UNL A   1      30.734  27.084  22.397  1.00  0.00     0.347 HD
BRANCH   8  16
ATOM     16  C   UNL A   1      32.281  23.952  25.264  1.00  0.00     0.323 C 
BRANCH  16  17
ATOM     17  C   UNL A   1      33.058  22.680  25.218  1.00  0.00     0.132 A 
ATOM     18  C   UNL A   1      33.336  20.538  25.250  1.00  0.00     0.107 A 
ATOM     19  N   UNL A   1      32.497  21.486  25.629  1.00  0.00    -0.231 NA
ATOM     20  N   UNL A   1      34.521  21.091  24.832  1.00  0.00    -0.333 N 
ATOM     21  C   UNL A   1      34.325  22.435  24.757  1.00  0.00     0.135 A 
ATOM     22  H   UNL A   1      35.354  20.608  24.625  1.00  0.00     0.169 HD
ATOM     23  Cl  UNL A   1      35.532  23.400  24.072  1.00  0.00    -0.062 Cl
BRANCH  18  24
ATOM     24  C   UNL A   1      33.019  19.081  25.193  1.00  0.00     0.075 C 
BRANCH  24  25
ATOM     25  C   UNL A   1      33.294  18.442  23.824  1.00  0.00     0.008 C 
BRANCH  25  26
ATOM     26  C   UNL A   1      33.229  16.912  23.742  1.00  0.00    -0.003 C 
ATOM     27  C   UNL A   1      34.227  16.196  24.635  1.00  0.00     0.004 C 
ENDBRANCH  25  26
ENDBRANCH  24  25
ENDBRANCH  18  24
ENDBRANCH  16  17
ENDBRANCH   8  16
ENDBRANCH   4   7
ENDBRANCH   2   3
ENDBRANCH   1   2
BRANCH   1  28
ATOM     28  C   UNL A   1      33.692  29.455  26.970  1.00  0.00     0.002 C 
BRANCH  28  29
ATOM     29  C   UNL A   1      34.589  30.650  27.331  1.00  0.00     0.002 C 
BRANCH  29  30
ATOM     30  C   UNL A   1      33.860  31.932  27.767  1.00  0.00     0.021 C 
BRANCH  30  31
ATOM     31  C   UNL A   1      34.795  32.999  28.316  1.00  0.00     0.116 C 
BRANCH  31  32
ATOM     32  N   UNL A   1      34.654  33.125  29.759  1.00  0.00    -0.352 N 
ATOM     33  C   UNL A   1      35.200  32.346  30.754  1.00  0.00     0.251 C 
ATOM     34  H   UNL A   1      34.089  33.871  30.066  1.00  0.00     0.163 HD
ATOM     35  O   UNL A   1      34.695  32.344  31.866  1.00  0.00    -0.269 OA
BRANCH  33  36
ATOM     36  C   UNL A   1      36.377  31.506  30.454  1.00  0.00     0.039 A 
ATOM     37  C   UNL A   1      37.634  32.098  30.346  1.00  0.00     0.014 A 
ATOM     38  C   UNL A   1      36.224  30.129  30.273  1.00  0.00     0.014 A 
ATOM     39  C   UNL A   1      38.744  31.285  30.132  1.00  0.00     0.010 A 
ATOM     40  C   UNL A   1      37.334  29.313  30.168  1.00  0.00     0.010 A 
ATOM     41  C   UNL A   1      38.597  29.884  30.076  1.00  0.00    -0.014 A 
BRANCH  41  42
ATOM     42  C   UNL A   1      39.795  29.039  30.105  1.00  0.00     0.031 A 
ATOM     43  C   UNL A   1      40.232  28.688  31.483  1.00  0.00     0.074 A 
ATOM     44  C   UNL A   1      40.396  28.469  29.038  1.00  0.00     0.049 A 
ATOM     45  N   UNL A   1      41.262  29.145  32.111  1.00  0.00    -0.248 NA
ATOM     46  C   UNL A   1      39.331  27.885  32.325  1.00  0.00     0.031 C 
ATOM     47  C   UNL A   1      39.964  28.471  27.639  1.00  0.00     0.029 A 
ATOM     48  N   UNL A   1      41.516  27.686  29.002  1.00  0.00    -0.354 N 
ATOM     49  C   UNL A   1      41.283  28.493  33.338  1.00  0.00     0.074 A 
ATOM     50  C   UNL A   1      39.979  27.904  33.492  1.00  0.00     0.031 C 
ATOM     51  C   UNL A   1      40.684  27.565  26.936  1.00  0.00     0.029 A 
ATOM     52  C   UNL A   1      41.737  27.037  27.787  1.00  0.00     0.049 A 
ATOM     53  H   UNL A   1      42.120  27.588  29.774  1.00  0.00     0.167 HD
ATOM     54  C   UNL A   1      42.457  28.289  33.996  1.00  0.00     0.034 A 
ATOM     55  C   UNL A   1      42.717  26.140  27.489  1.00  0.00     0.034 A 
ATOM     56  C   UNL A   1      43.487  29.181  33.501  1.00  0.00     0.049 A 
ATOM     57  C   UNL A   1      43.824  26.390  28.443  1.00  0.00     0.074 A 
ATOM     58  C   UNL A   1      43.591  30.555  33.374  1.00  0.00     0.029 A 
ATOM     59  N   UNL A   1      44.445  28.667  32.656  1.00  0.00    -0.354 N 
ATOM     60  N   UNL A   1      44.523  27.490  28.453  1.00  0.00    -0.248 NA
ATOM     61  C   UNL A   1      43.849  25.627  29.680  1.00  0.00     0.031 C 
ATOM     62  C   UNL A   1      44.210  30.761  32.105  1.00  0.00     0.029 A 
ATOM     63  C   UNL A   1      44.539  29.512  31.575  1.00  0.00     0.049 A 
ATOM     64  H   UNL A   1      44.968  27.845  32.799  1.00  0.00     0.167 HD
ATOM     65  C   UNL A   1      44.697  27.787  29.794  1.00  0.00     0.074 A 
ATOM     66  C   UNL A   1      44.350  26.555  30.500  1.00  0.00     0.031 C 
ATOM     67  C   UNL A   1      44.841  29.077  30.222  1.00  0.00     0.034 A 
BRANCH  54  68
ATOM     68  C   UNL A   1      42.776  27.045  34.797  1.00  0.00     0.023 A 
ATOM     69  C   UNL A   1      43.627  26.094  34.204  1.00  0.00     0.031 A 
ATOM     70  C   UNL A   1      42.083  26.607  35.951  1.00  0.00     0.131 A 
ATOM     71  C   UNL A   1      43.680  24.771  34.680  1.00  0.00     0.055 A 
ATOM     72  C   UNL A   1      42.193  25.311  36.461  1.00  0.00     0.041 A 
ATOM     73  F   UNL A   1      41.192  27.366  36.598  1.00  0.00    -0.206 F 
ATOM     74  C   UNL A   1      42.968  24.373  35.807  1.00  0.00     0.022 A 
BRANCH  71  75
ATOM     75  S   UNL A   1      44.552  23.535  33.686  1.00  0.00     0.124 S 
ATOM     76  O   UNL A   1      44.345  22.328  34.478  1.00  0.00    -0.237 OA
ATOM     77  O   UNL A   1      43.832  23.607  32.419  1.00  0.00    -0.237 OA
ATOM     78  O   UNL A   1      45.924  24.035  33.652  1.00  0.00    -0.744 OA
ENDBRANCH  71  75
ENDBRANCH  54  68
BRANCH  55  79
ATOM     79  C   UNL A   1      42.640  24.917  26.639  1.00  0.00     0.023 A 
ATOM     80  C   UNL A   1      43.723  24.465  25.848  1.00  0.00     0.031 A 
ATOM     81  C   UNL A   1      41.569  24.014  26.814  1.00  0.00     0.131 A 
ATOM     82  C   UNL A   1      43.710  23.162  25.291  1.00  0.00     0.055 A 
ATOM     83  C   UNL A   1      41.565  22.728  26.267  1.00  0.00     0.041 A 
ATOM     84  F   UNL A   1      40.525  24.316  27.604  1.00  0.00    -0.206 F 
ATOM     85  C   UNL A   1      42.642  22.292  25.513  1.00  0.00     0.022 A 
BRANCH  82  86
ATOM     86  S   UNL A   1      45.141  22.533  24.347  1.00  0.00     0.124 S 
ATOM     87  O   UNL A   1      45.769  23.765  23.882  1.00  0.00    -0.237 OA
ATOM     88  O   UNL A   1      45.871  21.768  25.351  1.00  0.00    -0.237 OA
ATOM     89  O   UNL A   1      44.523  21.725  23.294  1.00  0.00    -0.744 OA
ENDBRANCH  82  86
ENDBRANCH  55  79
BRANCH  67  90
ATOM     90  C   UNL A   1      45.146  30.155  29.195  1.00  0.00     0.023 A 
ATOM     91  C   UNL A   1      46.433  30.512  28.729  1.00  0.00     0.031 A 
ATOM     92  C   UNL A   1      44.043  30.788  28.592  1.00  0.00     0.131 A 
ATOM     93  C   UNL A   1      46.574  31.476  27.707  1.00  0.00     0.055 A 
ATOM     94  C   UNL A   1      44.185  31.721  27.566  1.00  0.00     0.041 A 
ATOM     95  F   UNL A   1      42.790  30.486  28.975  1.00  0.00    -0.206 F 
ATOM     96  C   UNL A   1      45.453  32.074  27.124  1.00  0.00     0.022 A 
BRANCH  93  97
ATOM     97  S   UNL A   1      48.225  31.997  27.132  1.00  0.00     0.124 S 
ATOM     98  O   UNL A   1      48.877  30.744  26.773  1.00  0.00    -0.237 OA
ATOM     99  O   UNL A   1      47.907  32.893  26.024  1.00  0.00    -0.237 OA
ATOM    100  O   UNL A   1      48.798  32.665  28.304  1.00  0.00    -0.744 OA
ENDBRANCH  93  97
ENDBRANCH  67  90
ENDBRANCH  41  42
ENDBRANCH  33  36
ENDBRANCH  31  32
ENDBRANCH  30  31
ENDBRANCH  29  30
ENDBRANCH  28  29
ENDBRANCH   1  28
TORSDOF 21
ENDMDL
MODEL 2
REMARK VINA RESULT:     -11.1      1.812      2.150
REMARK SMILES CCCCc1nc(C[N@H+]2CC[NH2+][C@H](C(=O)NCCCCCCNC(=O)c3ccc(-c4c5nc(c(-c6cc(S(=O)(=O)[O-])ccc6F)c6ccc([nH]6)c(-c6cc(S(=O)(=O)[O-])ccc6F)c6nc(c(-c7cc(S(=O)(=O)[O-])ccc7F)c7ccc4[nH]7)C=C6)C=C5)cc3)C2)c(Cl)[nH]1
REMARK SMILES IDX 18 1 17 2 16 3 14 4 15 5 13 7 9 8 10 9 89 10 11 12 12 13
REMARK SMILES IDX 8 16 7 17 5 18 6 19 92 20 90 21 91 23 4 24 3 25 2 26 1 27
REMARK SMILES IDX 19 28 20 29 21 30 22 31 23 32 24 33 25 35 26 36 27 37 88 38
REMARK SMILES IDX 28 39 87 40 29 41 30 42 31 43 81 44 32 45 86 46 80 47 82 48
REMARK SMILES IDX 33 49 85 50 79 51 78 52 34 54 66 55 46 56 65 57 47 58 50 59
REMARK SMILES IDX 64 60 83 61 48 62 49 63 63 65 84 66 51 67 35 68 36 69 44 70
REMARK SMILES IDX 37 71 43 72 45 73 42 74 38 75 39 76 40 77 41 78 67 79 68 80
REMARK SMILES IDX 76 81 69 82 75 83 77 84 74 85 70 86 71 87 72 88 73 89 52 90
REMARK SMILES IDX 53 91 61 92 54 93 60 94 62 95 59 96 55 97 56 98 57 99 58 100
REMARK H PARENT 16 6 9 11 12 14 12 15 92 22 23 34 82 53 50 64
REMARK Flexibility Score: inf
ROOT
ATOM      1  C   UNL A   1      31.934  29.222  26.695  1.00  0.00     0.021 C 
ENDROOT
BRANCH   1   2
ATOM      2  C   UNL A   1      31.575  29.163  25.216  1.00  0.00     0.116 C 
BRANCH   2   3
ATOM      3  N   UNL A   1      32.716  29.349  24.349  1.00  0.00    -0.351 N 
ATOM      4  C   UNL A   1      33.208  28.562  23.351  1.00  0.00     0.284 C 
ATOM      5  O   UNL A   1      34.135  29.050  22.691  1.00  0.00    -0.268 OA
ATOM      6  H   UNL A   1      33.222  30.179  24.505  1.00  0.00     0.163 HD
BRANCH   4   7
ATOM      7  C   UNL A   1      32.736  27.106  23.123  1.00  0.00     0.328 C 
ATOM      8  N   UNL A   1      33.628  24.686  23.426  1.00  0.00    -0.320 N 
ATOM      9  C   UNL A   1      33.047  24.408  22.106  1.00  0.00     0.324 C 
ATOM     10  C   UNL A   1      33.824  26.134  23.667  1.00  0.00     0.339 C 
ATOM     11  H   UNL A   1      34.562  24.276  23.394  1.00  0.00     0.348 HD
ATOM     12  C   UNL A   1      31.956  25.390  21.634  1.00  0.00     0.323 C 
ATOM     13  N   UNL A   1      32.411  26.785  21.708  1.00  0.00    -0.327 N 
ATOM     14  H   UNL A   1      31.672  27.406  21.377  1.00  0.00     0.347 HD
ATOM     15  H   UNL A   1      33.237  26.914  21.123  1.00  0.00     0.347 HD
BRANCH   8  16
ATOM     16  C   UNL A   1      32.986  23.975  24.547  1.00  0.00     0.323 C 
BRANCH  16  17
ATOM     17  C   UNL A   1      33.661  22.708  24.947  1.00  0.00     0.132 A 
ATOM     18  C   UNL A   1      34.032  20.580  24.924  1.00  0.00     0.107 A 
ATOM     19  N   UNL A   1      33.100  21.479  24.658  1.00  0.00    -0.231 NA
ATOM     20  N   UNL A   1      35.077  21.162  25.598  1.00  0.00    -0.333 N 
ATOM     21  C   UNL A   1      34.870  22.506  25.560  1.00  0.00     0.135 A 
ATOM     22  H   UNL A   1      35.831  20.697  26.026  1.00  0.00     0.169 HD
ATOM     23  Cl  UNL A   1      36.087  23.536  26.124  1.00  0.00    -0.062 Cl
BRANCH  18  24
ATOM     24  C   UNL A   1      34.005  19.156  24.479  1.00  0.00     0.075 C 
BRANCH  24  25
ATOM     25  C   UNL A   1      32.988  18.289  25.236  1.00  0.00     0.008 C 
BRANCH  25  26
ATOM     26  C   UNL A   1      33.424  16.869  25.612  1.00  0.00    -0.003 C 
ATOM     27  C   UNL A   1      32.304  15.844  25.583  1.00  0.00     0.004 C 
ENDBRANCH  25  26
ENDBRANCH  24  25
ENDBRANCH  18  24
ENDBRANCH  16  17
ENDBRANCH   8  16
ENDBRANCH   4   7
ENDBRANCH   2   3
ENDBRANCH   1   2
BRANCH   1  28
ATOM     28  C   UNL A   1      33.281  28.579  27.035  1.00  0.00     0.002 C 
BRANCH  28  29
ATOM     29  C   UNL A   1      34.375  29.543  27.522  1.00  0.00     0.002 C 
BRANCH  29  30
ATOM     30  C   UNL A   1      33.918  30.977  27.835  1.00  0.00     0.021 C 
BRANCH  30  31
ATOM     31  C   UNL A   1      35.040  32.000  27.744  1.00  0.00     0.116 C 
BRANCH  31  32
ATOM     32  N   UNL A   1      35.195  32.720  28.999  1.00  0.00    -0.352 N 
ATOM     33  C   UNL A   1      35.973  32.403  30.089  1.00  0.00     0.251 C 
ATOM     34  H   UNL A   1      34.669  33.548  29.080  1.00  0.00     0.163 HD
ATOM     35  O   UNL A   1      35.711  32.884  31.181  1.00  0.00    -0.269 OA
BRANCH  33  36
ATOM     36  C   UNL A   1      37.104  31.466  29.925  1.00  0.00     0.039 A 
ATOM     37  C   UNL A   1      38.387  31.968  29.711  1.00  0.00     0.014 A 
ATOM     38  C   UNL A   1      36.882  30.088  29.978  1.00  0.00     0.014 A 
ATOM     39  C   UNL A   1      39.452  31.076  29.628  1.00  0.00     0.010 A 
ATOM     40  C   UNL A   1      37.950  29.211  30.003  1.00  0.00     0.010 A 
ATOM     41  C   UNL A   1      39.238  29.695  29.808  1.00  0.00    -0.014 A 
BRANCH  41  42
ATOM     42  C   UNL A   1      40.393  28.807  29.969  1.00  0.00     0.031 A 
ATOM     43  C   UNL A   1      40.709  28.508  31.392  1.00  0.00     0.074 A 
ATOM     44  C   UNL A   1      41.049  28.162  28.980  1.00  0.00     0.049 A 
ATOM     45  N   UNL A   1      41.707  28.956  32.076  1.00  0.00    -0.248 NA
ATOM     46  C   UNL A   1      39.714  27.783  32.197  1.00  0.00     0.031 C 
ATOM     47  C   UNL A   1      40.725  28.112  27.553  1.00  0.00     0.029 A 
ATOM     48  N   UNL A   1      42.135  27.337  29.067  1.00  0.00    -0.354 N 
ATOM     49  C   UNL A   1      41.607  28.365  33.330  1.00  0.00     0.074 A 
ATOM     50  C   UNL A   1      40.272  27.835  33.409  1.00  0.00     0.031 C 
ATOM     51  C   UNL A   1      41.457  27.145  26.951  1.00  0.00     0.029 A 
ATOM     52  C   UNL A   1      42.421  26.621  27.905  1.00  0.00     0.049 A 
ATOM     53  H   UNL A   1      42.674  27.254  29.887  1.00  0.00     0.167 HD
ATOM     54  C   UNL A   1      42.718  28.150  34.086  1.00  0.00     0.034 A 
ATOM     55  C   UNL A   1      43.382  25.673  27.726  1.00  0.00     0.034 A 
ATOM     56  C   UNL A   1      43.819  28.976  33.632  1.00  0.00     0.049 A 
ATOM     57  C   UNL A   1      44.422  25.928  28.750  1.00  0.00     0.074 A 
ATOM     58  C   UNL A   1      43.990  30.337  33.450  1.00  0.00     0.029 A 
ATOM     59  N   UNL A   1      44.817  28.385  32.889  1.00  0.00    -0.354 N 
ATOM     60  N   UNL A   1      45.165  27.000  28.764  1.00  0.00    -0.248 NA
ATOM     61  C   UNL A   1      44.321  25.226  30.019  1.00  0.00     0.031 C 
ATOM     62  C   UNL A   1      44.711  30.456  32.225  1.00  0.00     0.029 A 
ATOM     63  C   UNL A   1      45.027  29.171  31.780  1.00  0.00     0.049 A 
ATOM     64  H   UNL A   1      45.292  27.552  33.110  1.00  0.00     0.167 HD
ATOM     65  C   UNL A   1      45.248  27.356  30.099  1.00  0.00     0.074 A 
ATOM     66  C   UNL A   1      44.797  26.173  30.832  1.00  0.00     0.031 C 
ATOM     67  C   UNL A   1      45.413  28.659  30.476  1.00  0.00     0.034 A 
BRANCH  54  68
ATOM     68  C   UNL A   1      42.923  26.935  34.966  1.00  0.00     0.023 A 
ATOM     69  C   UNL A   1      43.717  25.891  34.454  1.00  0.00     0.031 A 
ATOM     70  C   UNL A   1      42.169  26.617  36.121  1.00  0.00     0.131 A 
ATOM     71  C   UNL A   1      43.659  24.599  35.007  1.00  0.00     0.055 A 
ATOM     72  C   UNL A   1      42.170  25.350  36.708  1.00  0.00     0.041 A 
ATOM     73  F   UNL A   1      41.321  27.476  36.696  1.00  0.00    -0.206 F 
ATOM     74  C   UNL A   1      42.890  24.321  36.133  1.00  0.00     0.022 A 
BRANCH  71  75
ATOM     75  S   UNL A   1      44.463  23.246  34.112  1.00  0.00     0.124 S 
ATOM     76  O   UNL A   1      43.616  23.138  32.930  1.00  0.00    -0.237 OA
ATOM     77  O   UNL A   1      45.803  23.783  33.899  1.00  0.00    -0.237 OA
ATOM     78  O   UNL A   1      44.381  22.127  35.046  1.00  0.00    -0.744 OA
ENDBRANCH  71  75
ENDBRANCH  54  68
BRANCH  55  79
ATOM     79  C   UNL A   1      43.318  24.414  26.930  1.00  0.00     0.023 A 
ATOM     80  C   UNL A   1      42.399  23.375  27.213  1.00  0.00     0.031 A 
ATOM     81  C   UNL A   1      43.989  24.339  25.689  1.00  0.00     0.131 A 
ATOM     82  C   UNL A   1      42.175  22.340  26.273  1.00  0.00     0.055 A 
ATOM     83  C   UNL A   1      43.758  23.318  24.763  1.00  0.00     0.041 A 
ATOM     84  F   UNL A   1      44.827  25.309  25.292  1.00  0.00    -0.206 F 
ATOM     85  C   UNL A   1      42.840  22.320  25.046  1.00  0.00     0.022 A 
BRANCH  82  86
ATOM     86  S   UNL A   1      40.925  21.045  26.586  1.00  0.00     0.124 S 
ATOM     87  O   UNL A   1      39.752  21.577  25.901  1.00  0.00    -0.237 OA
ATOM     88  O   UNL A   1      41.541  19.862  25.999  1.00  0.00    -0.237 OA
ATOM     89  O   UNL A   1      40.822  21.020  28.046  1.00  0.00    -0.744 OA
ENDBRANCH  82  86
ENDBRANCH  55  79
BRANCH  67  90
ATOM     90  C   UNL A   1      45.839  29.673  29.428  1.00  0.00     0.023 A 
ATOM     91  C   UNL A   1      44.977  30.340  28.526  1.00  0.00     0.031 A 
ATOM     92  C   UNL A   1      47.197  30.044  29.418  1.00  0.00     0.131 A 
ATOM     93  C   UNL A   1      45.490  31.326  27.655  1.00  0.00     0.055 A 
ATOM     94  C   UNL A   1      47.694  31.037  28.574  1.00  0.00     0.041 A 
ATOM     95  F   UNL A   1      48.069  29.463  30.260  1.00  0.00    -0.206 F 
ATOM     96  C   UNL A   1      46.843  31.676  27.684  1.00  0.00     0.022 A 
BRANCH  93  97
ATOM     97  S   UNL A   1      44.410  32.157  26.441  1.00  0.00     0.124 S 
ATOM     98  O   UNL A   1      43.883  33.300  27.174  1.00  0.00    -0.237 OA
ATOM     99  O   UNL A   1      45.335  32.465  25.353  1.00  0.00    -0.237 OA
ATOM    100  O   UNL A   1      43.415  31.132  26.115  1.00  0.00    -0.744 OA
ENDBRANCH  93  97
ENDBRANCH  67  90
ENDBRANCH  41  42
ENDBRANCH  33  36
ENDBRANCH  31  32
ENDBRANCH  30  31
ENDBRANCH  29  30
ENDBRANCH  28  29
ENDBRANCH   1  28
TORSDOF 21
ENDMDL
MODEL 3
REMARK VINA RESULT:     -11.0      3.405      7.953
REMARK SMILES CCCCc1nc(C[N@H+]2CC[NH2+][C@H](C(=O)NCCCCCCNC(=O)c3ccc(-c4c5nc(c(-c6cc(S(=O)(=O)[O-])ccc6F)c6ccc([nH]6)c(-c6cc(S(=O)(=O)[O-])ccc6F)c6nc(c(-c7cc(S(=O)(=O)[O-])ccc7F)c7ccc4[nH]7)C=C6)C=C5)cc3)C2)c(Cl)[nH]1
REMARK SMILES IDX 18 1 17 2 16 3 14 4 15 5 13 7 9 8 10 9 89 10 11 12 12 13
REMARK SMILES IDX 8 16 7 17 5 18 6 19 92 20 90 21 91 23 4 24 3 25 2 26 1 27
REMARK SMILES IDX 19 28 20 29 21 30 22 31 23 32 24 33 25 35 26 36 27 37 88 38
REMARK SMILES IDX 28 39 87 40 29 41 30 42 31 43 81 44 32 45 86 46 80 47 82 48
REMARK SMILES IDX 33 49 85 50 79 51 78 52 34 54 66 55 46 56 65 57 47 58 50 59
REMARK SMILES IDX 64 60 83 61 48 62 49 63 63 65 84 66 51 67 35 68 36 69 44 70
REMARK SMILES IDX 37 71 43 72 45 73 42 74 38 75 39 76 40 77 41 78 67 79 68 80
REMARK SMILES IDX 76 81 69 82 75 83 77 84 74 85 70 86 71 87 72 88 73 89 52 90
REMARK SMILES IDX 53 91 61 92 54 93 60 94 62 95 59 96 55 97 56 98 57 99 58 100
REMARK H PARENT 16 6 9 11 12 14 12 15 92 22 23 34 82 53 50 64
REMARK Flexibility Score: inf
ROOT
ATOM      1  C   UNL A   1      33.972  33.236  28.150  1.00  0.00     0.021 C 
ENDROOT
BRANCH   1   2
ATOM      2  C   UNL A   1      33.396  31.895  27.715  1.00  0.00     0.116 C 
BRANCH   2   3
ATOM      3  N   UNL A   1      32.208  32.026  26.903  1.00  0.00    -0.351 N 
ATOM      4  C   UNL A   1      31.609  31.140  26.058  1.00  0.00     0.284 C 
ATOM      5  O   UNL A   1      30.518  31.495  25.594  1.00  0.00    -0.268 OA
ATOM      6  H   UNL A   1      31.757  32.899  26.971  1.00  0.00     0.163 HD
BRANCH   4   7
ATOM      7  C   UNL A   1      32.291  29.828  25.602  1.00  0.00     0.328 C 
ATOM      8  N   UNL A   1      32.179  27.283  26.106  1.00  0.00    -0.320 N 
ATOM      9  C   UNL A   1      33.647  27.309  26.075  1.00  0.00     0.324 C 
ATOM     10  C   UNL A   1      31.591  28.627  26.304  1.00  0.00     0.339 C 
ATOM     11  H   UNL A   1      31.943  26.745  26.940  1.00  0.00     0.348 HD
ATOM     12  C   UNL A   1      34.281  28.508  25.343  1.00  0.00     0.323 C 
ATOM     13  N   UNL A   1      33.758  29.788  25.840  1.00  0.00    -0.327 N 
ATOM     14  H   UNL A   1      34.207  30.559  25.344  1.00  0.00     0.347 HD
ATOM     15  H   UNL A   1      33.951  29.879  26.837  1.00  0.00     0.347 HD
BRANCH   8  16
ATOM     16  C   UNL A   1      31.551  26.510  25.017  1.00  0.00     0.323 C 
BRANCH  16  17
ATOM     17  C   UNL A   1      31.040  27.335  23.886  1.00  0.00     0.132 A 
ATOM     18  C   UNL A   1      29.668  28.666  22.880  1.00  0.00     0.107 A 
ATOM     19  N   UNL A   1      29.737  27.792  23.868  1.00  0.00    -0.231 NA
ATOM     20  N   UNL A   1      30.807  28.608  22.113  1.00  0.00    -0.333 N 
ATOM     21  C   UNL A   1      31.690  27.816  22.779  1.00  0.00     0.135 A 
ATOM     22  H   UNL A   1      30.955  29.055  21.249  1.00  0.00     0.169 HD
ATOM     23  Cl  UNL A   1      33.276  27.700  22.205  1.00  0.00    -0.062 Cl
BRANCH  18  24
ATOM     24  C   UNL A   1      28.562  29.645  22.672  1.00  0.00     0.075 C 
BRANCH  24  25
ATOM     25  C   UNL A   1      28.687  30.455  21.373  1.00  0.00     0.008 C 
BRANCH  25  26
ATOM     26  C   UNL A   1      28.246  31.922  21.418  1.00  0.00    -0.003 C 
ATOM     27  C   UNL A   1      28.688  32.668  22.665  1.00  0.00     0.004 C 
ENDBRANCH  25  26
ENDBRANCH  24  25
ENDBRANCH  18  24
ENDBRANCH  16  17
ENDBRANCH   8  16
ENDBRANCH   4   7
ENDBRANCH   2   3
ENDBRANCH   1   2
BRANCH   1  28
ATOM     28  C   UNL A   1      35.488  33.349  27.977  1.00  0.00     0.002 C 
BRANCH  28  29
ATOM     29  C   UNL A   1      36.281  33.678  29.252  1.00  0.00     0.002 C 
BRANCH  29  30
ATOM     30  C   UNL A   1      37.613  32.930  29.429  1.00  0.00     0.021 C 
BRANCH  30  31
ATOM     31  C   UNL A   1      37.501  31.704  30.322  1.00  0.00     0.116 C 
BRANCH  31  32
ATOM     32  N   UNL A   1      36.452  30.810  29.854  1.00  0.00    -0.352 N 
ATOM     33  C   UNL A   1      36.544  29.755  28.975  1.00  0.00     0.251 C 
ATOM     34  H   UNL A   1      35.554  30.984  30.216  1.00  0.00     0.163 HD
ATOM     35  O   UNL A   1      35.541  29.356  28.403  1.00  0.00    -0.269 OA
BRANCH  33  36
ATOM     36  C   UNL A   1      37.860  29.135  28.719  1.00  0.00     0.039 A 
ATOM     37  C   UNL A   1      38.611  29.544  27.619  1.00  0.00     0.014 A 
ATOM     38  C   UNL A   1      38.341  28.140  29.574  1.00  0.00     0.014 A 
ATOM     39  C   UNL A   1      39.879  29.002  27.430  1.00  0.00     0.010 A 
ATOM     40  C   UNL A   1      39.638  27.682  29.449  1.00  0.00     0.010 A 
ATOM     41  C   UNL A   1      40.408  28.092  28.367  1.00  0.00    -0.014 A 
BRANCH  41  42
ATOM     42  C   UNL A   1      41.826  27.730  28.289  1.00  0.00     0.031 A 
ATOM     43  C   UNL A   1      42.072  26.478  27.523  1.00  0.00     0.074 A 
ATOM     44  C   UNL A   1      42.868  28.485  28.703  1.00  0.00     0.049 A 
ATOM     45  N   UNL A   1      42.415  25.330  28.001  1.00  0.00    -0.248 NA
ATOM     46  C   UNL A   1      41.719  26.446  26.095  1.00  0.00     0.031 C 
ATOM     47  C   UNL A   1      42.851  29.852  29.230  1.00  0.00     0.029 A 
ATOM     48  N   UNL A   1      44.204  28.197  28.668  1.00  0.00    -0.354 N 
ATOM     49  C   UNL A   1      42.571  24.490  26.906  1.00  0.00     0.074 A 
ATOM     50  C   UNL A   1      41.935  25.161  25.803  1.00  0.00     0.031 C 
ATOM     51  C   UNL A   1      44.111  30.344  29.266  1.00  0.00     0.029 A 
ATOM     52  C   UNL A   1      45.042  29.281  28.928  1.00  0.00     0.049 A 
ATOM     53  H   UNL A   1      44.546  27.295  28.475  1.00  0.00     0.167 HD
ATOM     54  C   UNL A   1      43.431  23.437  26.956  1.00  0.00     0.034 A 
ATOM     55  C   UNL A   1      46.403  29.309  28.881  1.00  0.00     0.034 A 
ATOM     56  C   UNL A   1      43.747  23.095  28.328  1.00  0.00     0.049 A 
ATOM     57  C   UNL A   1      46.862  27.914  29.075  1.00  0.00     0.074 A 
ATOM     58  C   UNL A   1      42.989  22.757  29.436  1.00  0.00     0.029 A 
ATOM     59  N   UNL A   1      44.971  23.477  28.832  1.00  0.00    -0.354 N 
ATOM     60  N   UNL A   1      46.691  27.254  30.187  1.00  0.00    -0.248 NA
ATOM     61  C   UNL A   1      47.090  27.095  27.896  1.00  0.00     0.031 C 
ATOM     62  C   UNL A   1      43.600  23.450  30.524  1.00  0.00     0.029 A 
ATOM     63  C   UNL A   1      44.746  24.086  30.045  1.00  0.00     0.049 A 
ATOM     64  H   UNL A   1      45.847  23.340  28.403  1.00  0.00     0.167 HD
ATOM     65  C   UNL A   1      46.339  25.975  29.789  1.00  0.00     0.074 A 
ATOM     66  C   UNL A   1      46.701  25.910  28.373  1.00  0.00     0.031 C 
ATOM     67  C   UNL A   1      45.542  25.184  30.567  1.00  0.00     0.034 A 
BRANCH  54  68
ATOM     68  C   UNL A   1      44.276  22.974  25.788  1.00  0.00     0.023 A 
ATOM     69  C   UNL A   1      44.376  21.586  25.572  1.00  0.00     0.031 A 
ATOM     70  C   UNL A   1      45.201  23.770  25.073  1.00  0.00     0.131 A 
ATOM     71  C   UNL A   1      45.408  21.049  24.781  1.00  0.00     0.055 A 
ATOM     72  C   UNL A   1      46.181  23.235  24.233  1.00  0.00     0.041 A 
ATOM     73  F   UNL A   1      45.279  25.098  25.210  1.00  0.00    -0.206 F 
ATOM     74  C   UNL A   1      46.312  21.865  24.108  1.00  0.00     0.022 A 
BRANCH  71  75
ATOM     75  S   UNL A   1      45.659  19.256  24.800  1.00  0.00     0.124 S 
ATOM     76  O   UNL A   1      46.989  19.156  25.388  1.00  0.00    -0.237 OA
ATOM     77  O   UNL A   1      44.549  18.807  25.634  1.00  0.00    -0.237 OA
ATOM     78  O   UNL A   1      45.567  18.887  23.390  1.00  0.00    -0.744 OA
ENDBRANCH  71  75
ENDBRANCH  54  68
BRANCH  55  79
ATOM     79  C   UNL A   1      47.300  30.399  28.400  1.00  0.00     0.023 A 
ATOM     80  C   UNL A   1      46.865  31.412  27.511  1.00  0.00     0.031 A 
ATOM     81  C   UNL A   1      48.541  30.614  29.039  1.00  0.00     0.131 A 
ATOM     82  C   UNL A   1      47.650  32.574  27.310  1.00  0.00     0.055 A 
ATOM     83  C   UNL A   1      49.306  31.766  28.841  1.00  0.00     0.041 A 
ATOM     84  F   UNL A   1      49.011  29.750  29.953  1.00  0.00    -0.206 F 
ATOM     85  C   UNL A   1      48.857  32.758  27.984  1.00  0.00     0.022 A 
BRANCH  82  86
ATOM     86  S   UNL A   1      47.057  33.929  26.239  1.00  0.00     0.124 S 
ATOM     87  O   UNL A   1      46.779  34.987  27.204  1.00  0.00    -0.237 OA
ATOM     88  O   UNL A   1      48.187  34.144  25.344  1.00  0.00    -0.237 OA
ATOM     89  O   UNL A   1      45.870  33.359  25.597  1.00  0.00    -0.744 OA
ENDBRANCH  82  86
ENDBRANCH  55  79
BRANCH  67  90
ATOM     90  C   UNL A   1      45.317  25.579  32.017  1.00  0.00     0.023 A 
ATOM     91  C   UNL A   1      46.140  25.218  33.109  1.00  0.00     0.031 A 
ATOM     92  C   UNL A   1      44.246  26.455  32.278  1.00  0.00     0.131 A 
ATOM     93  C   UNL A   1      45.867  25.723  34.399  1.00  0.00     0.055 A 
ATOM     94  C   UNL A   1      43.995  26.971  33.548  1.00  0.00     0.041 A 
ATOM     95  F   UNL A   1      43.433  26.852  31.284  1.00  0.00    -0.206 F 
ATOM     96  C   UNL A   1      44.801  26.601  34.616  1.00  0.00     0.022 A 
BRANCH  93  97
ATOM     97  S   UNL A   1      46.878  25.224  35.834  1.00  0.00     0.124 S 
ATOM     98  O   UNL A   1      48.046  26.091  35.751  1.00  0.00    -0.237 OA
ATOM     99  O   UNL A   1      45.977  25.470  36.958  1.00  0.00    -0.237 OA
ATOM    100  O   UNL A   1      47.153  23.807  35.580  1.00  0.00    -0.744 OA
ENDBRANCH  93  97
ENDBRANCH  67  90
ENDBRANCH  41  42
ENDBRANCH  33  36
ENDBRANCH  31  32
ENDBRANCH  30  31
ENDBRANCH  29  30
ENDBRANCH  28  29
ENDBRANCH   1  28
TORSDOF 21
ENDMDL
