MODEL 1
REMARK VINA RESULT:     -11.7      0.000      0.000
REMARK SMILES O=C(CNc1nc(-c2ccccc2)c(-c2ccccc2)s1)NCCCCCCNC(=O)c1ccc(-c2c3nc(c(-c4cc(S(=O)(=O)[O-])ccc4F)c4ccc([nH]4)c(-c4cc(S(=O)(=O)[O-])ccc4F)c4nc(c(-c5cc(S(=O)(=O)[O-])ccc5F)c5ccc2[nH]5)C=C4)C=C3)cc1
REMARK SMILES IDX 25 1 24 2 23 3 22 4 1 5 2 6 3 8 4 9 5 11 6 12 21 13 7 14
REMARK SMILES IDX 14 15 8 16 9 17 13 18 10 19 12 20 11 21 15 22 16 23 20 24
REMARK SMILES IDX 17 25 19 26 18 27 26 28 27 29 28 30 29 31 30 32 31 34 32 35
REMARK SMILES IDX 33 36 94 37 34 38 93 39 35 40 36 41 37 42 87 43 38 44 92 45
REMARK SMILES IDX 86 46 88 47 39 48 91 49 85 50 84 51 40 53 72 54 52 55 71 56
REMARK SMILES IDX 53 57 56 58 70 59 89 60 54 61 55 62 69 64 90 65 57 66 41 67
REMARK SMILES IDX 42 68 50 69 43 70 49 71 51 72 48 73 44 74 45 75 46 76 47 77
REMARK SMILES IDX 73 78 74 79 82 80 75 81 81 82 83 83 80 84 76 85 77 86 78 87
REMARK SMILES IDX 79 88 58 89 59 90 67 91 60 92 66 93 68 94 65 95 61 96 62 97
REMARK SMILES IDX 63 98 64 99
REMARK H PARENT 22 7 4 10 29 33 88 52 56 63
REMARK Flexibility Score: inf
ROOT
ATOM      1  C   UNL A   1      33.837  26.637  22.578  1.00  0.00     0.002 C 
ENDROOT
BRANCH   1   2
ATOM      2  C   UNL A   1      32.699  26.159  21.664  1.00  0.00     0.021 C 
BRANCH   2   3
ATOM      3  C   UNL A   1      31.424  25.737  22.396  1.00  0.00     0.116 C 
BRANCH   3   4
ATOM      4  N   UNL A   1      31.554  25.897  23.828  1.00  0.00    -0.355 N 
ATOM      5  O   UNL A   1      29.330  26.277  24.304  1.00  0.00    -0.273 OA
ATOM      6  C   UNL A   1      30.493  26.156  24.676  1.00  0.00     0.239 C 
ATOM      7  H   UNL A   1      32.452  25.815  24.224  1.00  0.00     0.163 HD
BRANCH   6   8
ATOM      8  C   UNL A   1      30.921  26.323  26.144  1.00  0.00     0.215 C 
BRANCH   8   9
ATOM      9  N   UNL A   1      30.995  25.013  26.776  1.00  0.00    -0.352 N 
ATOM     10  H   UNL A   1      30.489  24.854  27.607  1.00  0.00     0.163 HD
BRANCH   9  11
ATOM     11  C   UNL A   1      31.730  24.013  26.261  1.00  0.00     0.184 A 
ATOM     12  N   UNL A   1      33.015  24.058  25.995  1.00  0.00    -0.220 NA
ATOM     13  S   UNL A   1      30.951  22.531  25.867  1.00  0.00    -0.096 S 
ATOM     14  C   UNL A   1      33.419  22.865  25.414  1.00  0.00     0.091 A 
ATOM     15  C   UNL A   1      32.415  21.928  25.217  1.00  0.00     0.064 A 
BRANCH  14  16
ATOM     16  C   UNL A   1      34.813  22.612  25.078  1.00  0.00     0.002 A 
ATOM     17  C   UNL A   1      35.346  23.031  23.851  1.00  0.00     0.010 A 
ATOM     18  C   UNL A   1      35.602  21.845  25.943  1.00  0.00     0.010 A 
ATOM     19  C   UNL A   1      36.634  22.645  23.475  1.00  0.00     0.001 A 
ATOM     20  C   UNL A   1      36.890  21.458  25.563  1.00  0.00     0.001 A 
ATOM     21  C   UNL A   1      37.401  21.850  24.325  1.00  0.00     0.000 A 
ENDBRANCH  14  16
BRANCH  15  22
ATOM     22  C   UNL A   1      32.454  20.594  24.617  1.00  0.00    -0.006 A 
ATOM     23  C   UNL A   1      32.159  20.421  23.257  1.00  0.00     0.009 A 
ATOM     24  C   UNL A   1      32.856  19.486  25.374  1.00  0.00     0.009 A 
ATOM     25  C   UNL A   1      32.270  19.162  22.666  1.00  0.00     0.001 A 
ATOM     26  C   UNL A   1      32.968  18.228  24.780  1.00  0.00     0.001 A 
ATOM     27  C   UNL A   1      32.677  18.068  23.427  1.00  0.00     0.000 A 
ENDBRANCH  15  22
ENDBRANCH   9  11
ENDBRANCH   8   9
ENDBRANCH   6   8
ENDBRANCH   3   4
ENDBRANCH   2   3
ENDBRANCH   1   2
BRANCH   1  28
ATOM     28  C   UNL A   1      34.027  28.156  22.658  1.00  0.00     0.002 C 
BRANCH  28  29
ATOM     29  C   UNL A   1      32.955  28.908  23.451  1.00  0.00     0.021 C 
BRANCH  29  30
ATOM     30  C   UNL A   1      33.364  29.322  24.862  1.00  0.00     0.116 C 
BRANCH  30  31
ATOM     31  N   UNL A   1      32.567  30.429  25.369  1.00  0.00    -0.352 N 
ATOM     32  C   UNL A   1      32.668  31.107  26.560  1.00  0.00     0.251 C 
ATOM     33  H   UNL A   1      31.851  30.739  24.769  1.00  0.00     0.163 HD
ATOM     34  O   UNL A   1      31.781  31.894  26.886  1.00  0.00    -0.269 OA
BRANCH  32  35
ATOM     35  C   UNL A   1      33.819  30.868  27.460  1.00  0.00     0.039 A 
ATOM     36  C   UNL A   1      34.004  29.592  27.999  1.00  0.00     0.014 A 
ATOM     37  C   UNL A   1      34.714  31.894  27.776  1.00  0.00     0.014 A 
ATOM     38  C   UNL A   1      35.122  29.329  28.795  1.00  0.00     0.010 A 
ATOM     39  C   UNL A   1      35.868  31.612  28.506  1.00  0.00     0.010 A 
ATOM     40  C   UNL A   1      36.088  30.325  29.020  1.00  0.00    -0.014 A 
BRANCH  40  41
ATOM     41  C   UNL A   1      37.333  30.032  29.783  1.00  0.00     0.031 A 
ATOM     42  C   UNL A   1      38.393  29.140  29.195  1.00  0.00     0.074 A 
ATOM     43  C   UNL A   1      37.484  30.527  31.028  1.00  0.00     0.049 A 
ATOM     44  N   UNL A   1      39.512  28.719  29.731  1.00  0.00    -0.248 NA
ATOM     45  C   UNL A   1      38.150  28.631  27.837  1.00  0.00     0.031 C 
ATOM     46  C   UNL A   1      36.511  31.376  31.721  1.00  0.00     0.029 A 
ATOM     47  N   UNL A   1      38.504  30.386  31.937  1.00  0.00    -0.354 N 
ATOM     48  C   UNL A   1      40.101  27.892  28.780  1.00  0.00     0.074 A 
ATOM     49  C   UNL A   1      39.183  27.821  27.663  1.00  0.00     0.031 C 
ATOM     50  C   UNL A   1      36.995  31.703  32.930  1.00  0.00     0.029 A 
ATOM     51  C   UNL A   1      38.283  31.045  33.125  1.00  0.00     0.049 A 
ATOM     52  H   UNL A   1      39.317  29.862  31.755  1.00  0.00     0.167 HD
ATOM     53  C   UNL A   1      41.306  27.269  28.826  1.00  0.00     0.034 A 
ATOM     54  C   UNL A   1      39.025  31.103  34.249  1.00  0.00     0.034 A 
ATOM     55  C   UNL A   1      42.210  27.353  29.947  1.00  0.00     0.049 A 
ATOM     56  C   UNL A   1      40.340  30.365  34.293  1.00  0.00     0.074 A 
ATOM     57  C   UNL A   1      43.475  26.802  30.076  1.00  0.00     0.029 A 
ATOM     58  N   UNL A   1      41.946  28.017  31.139  1.00  0.00    -0.354 N 
ATOM     59  N   UNL A   1      40.906  29.629  33.365  1.00  0.00    -0.248 NA
ATOM     60  C   UNL A   1      41.119  30.473  35.533  1.00  0.00     0.031 C 
ATOM     61  C   UNL A   1      43.938  27.063  31.370  1.00  0.00     0.029 A 
ATOM     62  C   UNL A   1      43.005  27.855  32.021  1.00  0.00     0.049 A 
ATOM     63  H   UNL A   1      41.126  28.526  31.330  1.00  0.00     0.167 HD
ATOM     64  C   UNL A   1      42.125  29.216  33.899  1.00  0.00     0.074 A 
ATOM     65  C   UNL A   1      42.215  29.799  35.221  1.00  0.00     0.031 C 
ATOM     66  C   UNL A   1      43.083  28.432  33.343  1.00  0.00     0.034 A 
BRANCH  53  67
ATOM     67  C   UNL A   1      41.697  26.419  27.638  1.00  0.00     0.023 A 
ATOM     68  C   UNL A   1      41.404  25.046  27.583  1.00  0.00     0.031 A 
ATOM     69  C   UNL A   1      42.388  26.987  26.552  1.00  0.00     0.131 A 
ATOM     70  C   UNL A   1      41.866  24.272  26.507  1.00  0.00     0.055 A 
ATOM     71  C   UNL A   1      42.768  26.228  25.442  1.00  0.00     0.041 A 
ATOM     72  F   UNL A   1      42.717  28.288  26.554  1.00  0.00    -0.206 F 
ATOM     73  C   UNL A   1      42.521  24.859  25.422  1.00  0.00     0.022 A 
BRANCH  70  74
ATOM     74  S   UNL A   1      41.733  22.466  26.618  1.00  0.00     0.124 S 
ATOM     75  O   UNL A   1      42.361  22.047  25.368  1.00  0.00    -0.237 OA
ATOM     76  O   UNL A   1      42.476  22.169  27.838  1.00  0.00    -0.237 OA
ATOM     77  O   UNL A   1      40.292  22.233  26.693  1.00  0.00    -0.744 OA
ENDBRANCH  70  74
ENDBRANCH  53  67
BRANCH  54  78
ATOM     78  C   UNL A   1      38.544  31.871  35.436  1.00  0.00     0.023 A 
ATOM     79  C   UNL A   1      38.083  31.212  36.587  1.00  0.00     0.031 A 
ATOM     80  C   UNL A   1      38.491  33.276  35.417  1.00  0.00     0.131 A 
ATOM     81  C   UNL A   1      37.543  31.953  37.650  1.00  0.00     0.055 A 
ATOM     82  C   UNL A   1      38.010  34.012  36.502  1.00  0.00     0.041 A 
ATOM     83  F   UNL A   1      38.919  33.958  34.343  1.00  0.00    -0.206 F 
ATOM     84  C   UNL A   1      37.517  33.349  37.621  1.00  0.00     0.022 A 
BRANCH  81  85
ATOM     85  S   UNL A   1      36.777  31.060  39.031  1.00  0.00     0.124 S 
ATOM     86  O   UNL A   1      37.793  31.191  40.068  1.00  0.00    -0.237 OA
ATOM     87  O   UNL A   1      35.547  31.819  39.237  1.00  0.00    -0.237 OA
ATOM     88  O   UNL A   1      36.593  29.711  38.503  1.00  0.00    -0.744 OA
ENDBRANCH  81  85
ENDBRANCH  54  78
BRANCH  66  89
ATOM     89  C   UNL A   1      44.339  28.200  34.151  1.00  0.00     0.023 A 
ATOM     90  C   UNL A   1      44.456  27.132  35.058  1.00  0.00     0.031 A 
ATOM     91  C   UNL A   1      45.435  29.073  34.018  1.00  0.00     0.131 A 
ATOM     92  C   UNL A   1      45.615  26.998  35.837  1.00  0.00     0.055 A 
ATOM     93  C   UNL A   1      46.612  28.896  34.745  1.00  0.00     0.041 A 
ATOM     94  F   UNL A   1      45.380  30.115  33.172  1.00  0.00    -0.206 F 
ATOM     95  C   UNL A   1      46.702  27.861  35.672  1.00  0.00     0.022 A 
BRANCH  92  96
ATOM     96  S   UNL A   1      45.645  25.744  37.148  1.00  0.00     0.124 S 
ATOM     97  O   UNL A   1      44.846  24.673  36.560  1.00  0.00    -0.237 OA
ATOM     98  O   UNL A   1      47.072  25.473  37.288  1.00  0.00    -0.237 OA
ATOM     99  O   UNL A   1      45.028  26.424  38.286  1.00  0.00    -0.744 OA
ENDBRANCH  92  96
ENDBRANCH  66  89
ENDBRANCH  40  41
ENDBRANCH  32  35
ENDBRANCH  30  31
ENDBRANCH  29  30
ENDBRANCH  28  29
ENDBRANCH   1  28
TORSDOF 20
ENDMDL
MODEL 2
REMARK VINA RESULT:     -11.5      2.210      7.818
REMARK SMILES O=C(CNc1nc(-c2ccccc2)c(-c2ccccc2)s1)NCCCCCCNC(=O)c1ccc(-c2c3nc(c(-c4cc(S(=O)(=O)[O-])ccc4F)c4ccc([nH]4)c(-c4cc(S(=O)(=O)[O-])ccc4F)c4nc(c(-c5cc(S(=O)(=O)[O-])ccc5F)c5ccc2[nH]5)C=C4)C=C3)cc1
REMARK SMILES IDX 25 1 24 2 23 3 22 4 1 5 2 6 3 8 4 9 5 11 6 12 21 13 7 14
REMARK SMILES IDX 14 15 8 16 9 17 13 18 10 19 12 20 11 21 15 22 16 23 20 24
REMARK SMILES IDX 17 25 19 26 18 27 26 28 27 29 28 30 29 31 30 32 31 34 32 35
REMARK SMILES IDX 33 36 94 37 34 38 93 39 35 40 36 41 37 42 87 43 38 44 92 45
REMARK SMILES IDX 86 46 88 47 39 48 91 49 85 50 84 51 40 53 72 54 52 55 71 56
REMARK SMILES IDX 53 57 56 58 70 59 89 60 54 61 55 62 69 64 90 65 57 66 41 67
REMARK SMILES IDX 42 68 50 69 43 70 49 71 51 72 48 73 44 74 45 75 46 76 47 77
REMARK SMILES IDX 73 78 74 79 82 80 75 81 81 82 83 83 80 84 76 85 77 86 78 87
REMARK SMILES IDX 79 88 58 89 59 90 67 91 60 92 66 93 68 94 65 95 61 96 62 97
REMARK SMILES IDX 63 98 64 99
REMARK H PARENT 22 7 4 10 29 33 88 52 56 63
REMARK Flexibility Score: inf
ROOT
ATOM      1  C   UNL A   1      33.402  27.149  23.113  1.00  0.00     0.002 C 
ENDROOT
BRANCH   1   2
ATOM      2  C   UNL A   1      32.258  27.163  22.088  1.00  0.00     0.021 C 
BRANCH   2   3
ATOM      3  C   UNL A   1      30.859  27.016  22.687  1.00  0.00     0.116 C 
BRANCH   3   4
ATOM      4  N   UNL A   1      30.911  26.533  24.050  1.00  0.00    -0.355 N 
ATOM      5  O   UNL A   1      28.646  26.235  24.363  1.00  0.00    -0.273 OA
ATOM      6  C   UNL A   1      29.796  26.178  24.787  1.00  0.00     0.239 C 
ATOM      7  H   UNL A   1      31.794  26.451  24.479  1.00  0.00     0.163 HD
BRANCH   6   8
ATOM      8  C   UNL A   1      30.136  25.740  26.222  1.00  0.00     0.215 C 
BRANCH   8   9
ATOM      9  N   UNL A   1      30.107  24.287  26.302  1.00  0.00    -0.352 N 
ATOM     10  H   UNL A   1      29.321  23.846  26.699  1.00  0.00     0.163 HD
BRANCH   9  11
ATOM     11  C   UNL A   1      31.120  23.527  25.850  1.00  0.00     0.184 A 
ATOM     12  N   UNL A   1      31.036  22.272  25.476  1.00  0.00    -0.220 NA
ATOM     13  S   UNL A   1      32.696  24.212  25.773  1.00  0.00    -0.096 S 
ATOM     14  C   UNL A   1      32.293  21.797  25.130  1.00  0.00     0.091 A 
ATOM     15  C   UNL A   1      33.333  22.703  25.279  1.00  0.00     0.064 A 
BRANCH  14  16
ATOM     16  C   UNL A   1      32.485  20.451  24.610  1.00  0.00     0.002 A 
ATOM     17  C   UNL A   1      32.237  20.157  23.262  1.00  0.00     0.010 A 
ATOM     18  C   UNL A   1      32.817  19.414  25.489  1.00  0.00     0.010 A 
ATOM     19  C   UNL A   1      32.271  18.836  22.812  1.00  0.00     0.001 A 
ATOM     20  C   UNL A   1      32.849  18.092  25.036  1.00  0.00     0.001 A 
ATOM     21  C   UNL A   1      32.565  17.803  23.701  1.00  0.00     0.000 A 
ENDBRANCH  14  16
BRANCH  15  22
ATOM     22  C   UNL A   1      34.770  22.557  25.047  1.00  0.00    -0.006 A 
ATOM     23  C   UNL A   1      35.585  21.953  26.016  1.00  0.00     0.009 A 
ATOM     24  C   UNL A   1      35.337  22.951  23.829  1.00  0.00     0.009 A 
ATOM     25  C   UNL A   1      36.942  21.743  25.765  1.00  0.00     0.001 A 
ATOM     26  C   UNL A   1      36.694  22.739  23.579  1.00  0.00     0.001 A 
ATOM     27  C   UNL A   1      37.494  22.134  24.546  1.00  0.00     0.000 A 
ENDBRANCH  15  22
ENDBRANCH   9  11
ENDBRANCH   8   9
ENDBRANCH   6   8
ENDBRANCH   3   4
ENDBRANCH   2   3
ENDBRANCH   1   2
BRANCH   1  28
ATOM     28  C   UNL A   1      33.904  28.525  23.561  1.00  0.00     0.002 C 
BRANCH  28  29
ATOM     29  C   UNL A   1      33.105  29.177  24.692  1.00  0.00     0.021 C 
BRANCH  29  30
ATOM     30  C   UNL A   1      33.814  29.228  26.042  1.00  0.00     0.116 C 
BRANCH  30  31
ATOM     31  N   UNL A   1      33.709  30.533  26.677  1.00  0.00    -0.352 N 
ATOM     32  C   UNL A   1      34.471  31.082  27.679  1.00  0.00     0.251 C 
ATOM     33  H   UNL A   1      32.986  31.108  26.336  1.00  0.00     0.163 HD
ATOM     34  O   UNL A   1      34.109  32.131  28.210  1.00  0.00    -0.269 OA
BRANCH  32  35
ATOM     35  C   UNL A   1      35.703  30.402  28.139  1.00  0.00     0.039 A 
ATOM     36  C   UNL A   1      36.841  30.442  27.329  1.00  0.00     0.014 A 
ATOM     37  C   UNL A   1      35.740  29.722  29.360  1.00  0.00     0.014 A 
ATOM     38  C   UNL A   1      38.033  29.864  27.776  1.00  0.00     0.010 A 
ATOM     39  C   UNL A   1      36.948  29.214  29.838  1.00  0.00     0.010 A 
ATOM     40  C   UNL A   1      38.109  29.283  29.053  1.00  0.00    -0.014 A 
BRANCH  40  41
ATOM     41  C   UNL A   1      39.396  28.752  29.583  1.00  0.00     0.031 A 
ATOM     42  C   UNL A   1      40.095  29.447  30.720  1.00  0.00     0.074 A 
ATOM     43  C   UNL A   1      39.962  27.675  29.000  1.00  0.00     0.049 A 
ATOM     44  N   UNL A   1      41.250  29.173  31.273  1.00  0.00    -0.248 NA
ATOM     45  C   UNL A   1      39.418  30.620  31.293  1.00  0.00     0.031 C 
ATOM     46  C   UNL A   1      39.400  26.936  27.867  1.00  0.00     0.029 A 
ATOM     47  N   UNL A   1      41.136  27.017  29.273  1.00  0.00    -0.354 N 
ATOM     48  C   UNL A   1      41.441  30.143  32.252  1.00  0.00     0.074 A 
ATOM     49  C   UNL A   1      40.314  31.046  32.171  1.00  0.00     0.031 C 
ATOM     50  C   UNL A   1      40.213  25.912  27.563  1.00  0.00     0.029 A 
ATOM     51  C   UNL A   1      41.381  25.951  28.438  1.00  0.00     0.049 A 
ATOM     52  H   UNL A   1      41.747  27.284  29.998  1.00  0.00     0.167 HD
ATOM     53  C   UNL A   1      42.453  30.254  33.150  1.00  0.00     0.034 A 
ATOM     54  C   UNL A   1      42.431  25.108  28.373  1.00  0.00     0.034 A 
ATOM     55  C   UNL A   1      43.569  29.342  33.219  1.00  0.00     0.049 A 
ATOM     56  C   UNL A   1      43.566  25.280  29.352  1.00  0.00     0.074 A 
ATOM     57  C   UNL A   1      44.621  29.335  34.121  1.00  0.00     0.029 A 
ATOM     58  N   UNL A   1      43.790  28.283  32.347  1.00  0.00    -0.354 N 
ATOM     59  N   UNL A   1      43.706  26.171  30.306  1.00  0.00    -0.248 NA
ATOM     60  C   UNL A   1      44.677  24.326  29.252  1.00  0.00     0.031 C 
ATOM     61  C   UNL A   1      45.515  28.327  33.745  1.00  0.00     0.029 A 
ATOM     62  C   UNL A   1      44.980  27.643  32.666  1.00  0.00     0.049 A 
ATOM     63  H   UNL A   1      43.191  28.025  31.611  1.00  0.00     0.167 HD
ATOM     64  C   UNL A   1      44.907  25.862  30.941  1.00  0.00     0.074 A 
ATOM     65  C   UNL A   1      45.439  24.693  30.271  1.00  0.00     0.031 C 
ATOM     66  C   UNL A   1      45.509  26.483  31.986  1.00  0.00     0.034 A 
BRANCH  53  67
ATOM     67  C   UNL A   1      42.408  31.422  34.110  1.00  0.00     0.023 A 
ATOM     68  C   UNL A   1      41.595  31.406  35.256  1.00  0.00     0.031 A 
ATOM     69  C   UNL A   1      43.176  32.575  33.866  1.00  0.00     0.131 A 
ATOM     70  C   UNL A   1      41.509  32.546  36.071  1.00  0.00     0.055 A 
ATOM     71  C   UNL A   1      43.153  33.673  34.729  1.00  0.00     0.041 A 
ATOM     72  F   UNL A   1      43.955  32.661  32.776  1.00  0.00    -0.206 F 
ATOM     73  C   UNL A   1      42.304  33.668  35.832  1.00  0.00     0.022 A 
BRANCH  70  74
ATOM     74  S   UNL A   1      40.231  32.595  37.359  1.00  0.00     0.124 S 
ATOM     75  O   UNL A   1      39.707  33.949  37.202  1.00  0.00    -0.237 OA
ATOM     76  O   UNL A   1      39.338  31.513  36.959  1.00  0.00    -0.237 OA
ATOM     77  O   UNL A   1      40.980  32.364  38.593  1.00  0.00    -0.744 OA
ENDBRANCH  70  74
ENDBRANCH  53  67
BRANCH  54  78
ATOM     78  C   UNL A   1      42.477  24.033  27.336  1.00  0.00     0.023 A 
ATOM     79  C   UNL A   1      41.814  22.811  27.528  1.00  0.00     0.031 A 
ATOM     80  C   UNL A   1      43.229  24.195  26.158  1.00  0.00     0.131 A 
ATOM     81  C   UNL A   1      41.954  21.782  26.585  1.00  0.00     0.055 A 
ATOM     82  C   UNL A   1      43.315  23.190  25.193  1.00  0.00     0.041 A 
ATOM     83  F   UNL A   1      43.884  25.344  25.921  1.00  0.00    -0.206 F 
ATOM     84  C   UNL A   1      42.688  21.968  25.412  1.00  0.00     0.022 A 
BRANCH  81  85
ATOM     85  S   UNL A   1      41.247  20.154  26.964  1.00  0.00     0.124 S 
ATOM     86  O   UNL A   1      40.116  20.102  26.045  1.00  0.00    -0.237 OA
ATOM     87  O   UNL A   1      42.362  19.263  26.662  1.00  0.00    -0.237 OA
ATOM     88  O   UNL A   1      40.899  20.256  28.379  1.00  0.00    -0.744 OA
ENDBRANCH  81  85
ENDBRANCH  54  78
BRANCH  66  89
ATOM     89  C   UNL A   1      46.794  25.877  32.501  1.00  0.00     0.023 A 
ATOM     90  C   UNL A   1      46.806  24.914  33.525  1.00  0.00     0.031 A 
ATOM     91  C   UNL A   1      48.030  26.282  31.964  1.00  0.00     0.131 A 
ATOM     92  C   UNL A   1      48.028  24.433  34.020  1.00  0.00     0.055 A 
ATOM     93  C   UNL A   1      49.239  25.749  32.412  1.00  0.00     0.041 A 
ATOM     94  F   UNL A   1      48.083  27.203  30.988  1.00  0.00    -0.206 F 
ATOM     95  C   UNL A   1      49.243  24.828  33.456  1.00  0.00     0.022 A 
BRANCH  92  96
ATOM     96  S   UNL A   1      48.014  23.360  35.483  1.00  0.00     0.124 S 
ATOM     97  O   UNL A   1      46.810  22.564  35.264  1.00  0.00    -0.237 OA
ATOM     98  O   UNL A   1      49.282  22.648  35.359  1.00  0.00    -0.237 OA
ATOM     99  O   UNL A   1      47.940  24.303  36.598  1.00  0.00    -0.744 OA
ENDBRANCH  92  96
ENDBRANCH  66  89
ENDBRANCH  40  41
ENDBRANCH  32  35
ENDBRANCH  30  31
ENDBRANCH  29  30
ENDBRANCH  28  29
ENDBRANCH   1  28
TORSDOF 20
ENDMDL
MODEL 3
REMARK VINA RESULT:     -11.4      2.156      2.923
REMARK SMILES O=C(CNc1nc(-c2ccccc2)c(-c2ccccc2)s1)NCCCCCCNC(=O)c1ccc(-c2c3nc(c(-c4cc(S(=O)(=O)[O-])ccc4F)c4ccc([nH]4)c(-c4cc(S(=O)(=O)[O-])ccc4F)c4nc(c(-c5cc(S(=O)(=O)[O-])ccc5F)c5ccc2[nH]5)C=C4)C=C3)cc1
REMARK SMILES IDX 25 1 24 2 23 3 22 4 1 5 2 6 3 8 4 9 5 11 6 12 21 13 7 14
REMARK SMILES IDX 14 15 8 16 9 17 13 18 10 19 12 20 11 21 15 22 16 23 20 24
REMARK SMILES IDX 17 25 19 26 18 27 26 28 27 29 28 30 29 31 30 32 31 34 32 35
REMARK SMILES IDX 33 36 94 37 34 38 93 39 35 40 36 41 37 42 87 43 38 44 92 45
REMARK SMILES IDX 86 46 88 47 39 48 91 49 85 50 84 51 40 53 72 54 52 55 71 56
REMARK SMILES IDX 53 57 56 58 70 59 89 60 54 61 55 62 69 64 90 65 57 66 41 67
REMARK SMILES IDX 42 68 50 69 43 70 49 71 51 72 48 73 44 74 45 75 46 76 47 77
REMARK SMILES IDX 73 78 74 79 82 80 75 81 81 82 83 83 80 84 76 85 77 86 78 87
REMARK SMILES IDX 79 88 58 89 59 90 67 91 60 92 66 93 68 94 65 95 61 96 62 97
REMARK SMILES IDX 63 98 64 99
REMARK H PARENT 22 7 4 10 29 33 88 52 56 63
REMARK Flexibility Score: inf
ROOT
ATOM      1  C   UNL A   1      31.956  29.564  25.102  1.00  0.00     0.002 C 
ENDROOT
BRANCH   1   2
ATOM      2  C   UNL A   1      30.741  29.861  24.211  1.00  0.00     0.021 C 
BRANCH   2   3
ATOM      3  C   UNL A   1      30.216  28.659  23.424  1.00  0.00     0.116 C 
BRANCH   3   4
ATOM      4  N   UNL A   1      29.914  27.542  24.294  1.00  0.00    -0.355 N 
ATOM      5  O   UNL A   1      31.213  25.960  23.235  1.00  0.00    -0.273 OA
ATOM      6  C   UNL A   1      30.438  26.273  24.132  1.00  0.00     0.239 C 
ATOM      7  H   UNL A   1      29.299  27.696  25.048  1.00  0.00     0.163 HD
BRANCH   6   8
ATOM      8  C   UNL A   1      29.915  25.268  25.173  1.00  0.00     0.215 C 
BRANCH   8   9
ATOM      9  N   UNL A   1      31.023  24.813  26.002  1.00  0.00    -0.352 N 
ATOM     10  H   UNL A   1      31.240  25.310  26.824  1.00  0.00     0.163 HD
BRANCH   9  11
ATOM     11  C   UNL A   1      31.758  23.735  25.680  1.00  0.00     0.184 A 
ATOM     12  N   UNL A   1      33.039  23.732  25.392  1.00  0.00    -0.220 NA
ATOM     13  S   UNL A   1      30.983  22.202  25.590  1.00  0.00    -0.096 S 
ATOM     14  C   UNL A   1      33.443  22.451  25.047  1.00  0.00     0.091 A 
ATOM     15  C   UNL A   1      32.442  21.490  25.049  1.00  0.00     0.064 A 
BRANCH  14  16
ATOM     16  C   UNL A   1      34.834  22.142  24.747  1.00  0.00     0.002 A 
ATOM     17  C   UNL A   1      35.584  21.307  25.586  1.00  0.00     0.010 A 
ATOM     18  C   UNL A   1      35.462  22.774  23.667  1.00  0.00     0.010 A 
ATOM     19  C   UNL A   1      36.955  21.147  25.376  1.00  0.00     0.001 A 
ATOM     20  C   UNL A   1      36.834  22.613  23.460  1.00  0.00     0.001 A 
ATOM     21  C   UNL A   1      37.582  21.809  24.321  1.00  0.00     0.000 A 
ENDBRANCH  14  16
BRANCH  15  22
ATOM     22  C   UNL A   1      32.481  20.066  24.718  1.00  0.00    -0.006 A 
ATOM     23  C   UNL A   1      32.377  19.646  23.384  1.00  0.00     0.009 A 
ATOM     24  C   UNL A   1      32.696  19.109  25.719  1.00  0.00     0.009 A 
ATOM     25  C   UNL A   1      32.491  18.294  23.059  1.00  0.00     0.001 A 
ATOM     26  C   UNL A   1      32.812  17.758  25.391  1.00  0.00     0.001 A 
ATOM     27  C   UNL A   1      32.711  17.352  24.062  1.00  0.00     0.000 A 
ENDBRANCH  15  22
ENDBRANCH   9  11
ENDBRANCH   8   9
ENDBRANCH   6   8
ENDBRANCH   3   4
ENDBRANCH   2   3
ENDBRANCH   1   2
BRANCH   1  28
ATOM     28  C   UNL A   1      31.872  30.102  26.534  1.00  0.00     0.002 C 
BRANCH  28  29
ATOM     29  C   UNL A   1      31.765  31.624  26.657  1.00  0.00     0.021 C 
BRANCH  29  30
ATOM     30  C   UNL A   1      32.962  32.308  27.313  1.00  0.00     0.116 C 
BRANCH  30  31
ATOM     31  N   UNL A   1      32.712  33.712  27.600  1.00  0.00    -0.352 N 
ATOM     32  C   UNL A   1      33.274  34.524  28.555  1.00  0.00     0.251 C 
ATOM     33  H   UNL A   1      32.041  34.144  27.023  1.00  0.00     0.163 HD
ATOM     34  O   UNL A   1      32.795  35.637  28.761  1.00  0.00    -0.269 OA
BRANCH  32  35
ATOM     35  C   UNL A   1      34.428  34.050  29.352  1.00  0.00     0.039 A 
ATOM     36  C   UNL A   1      34.192  33.272  30.489  1.00  0.00     0.014 A 
ATOM     37  C   UNL A   1      35.739  34.370  28.987  1.00  0.00     0.014 A 
ATOM     38  C   UNL A   1      35.270  32.758  31.216  1.00  0.00     0.010 A 
ATOM     39  C   UNL A   1      36.812  33.794  29.667  1.00  0.00     0.010 A 
ATOM     40  C   UNL A   1      36.590  32.978  30.787  1.00  0.00    -0.014 A 
BRANCH  40  41
ATOM     41  C   UNL A   1      37.744  32.355  31.492  1.00  0.00     0.031 A 
ATOM     42  C   UNL A   1      38.523  31.243  30.843  1.00  0.00     0.074 A 
ATOM     43  C   UNL A   1      38.055  32.755  32.742  1.00  0.00     0.049 A 
ATOM     44  N   UNL A   1      39.514  30.536  31.325  1.00  0.00    -0.248 NA
ATOM     45  C   UNL A   1      38.115  30.858  29.484  1.00  0.00     0.031 C 
ATOM     46  C   UNL A   1      37.352  33.799  33.493  1.00  0.00     0.029 A 
ATOM     47  N   UNL A   1      39.034  32.331  33.607  1.00  0.00    -0.354 N 
ATOM     48  C   UNL A   1      39.843  29.618  30.332  1.00  0.00     0.074 A 
ATOM     49  C   UNL A   1      38.902  29.818  29.250  1.00  0.00     0.031 C 
ATOM     50  C   UNL A   1      37.941  33.954  34.689  1.00  0.00     0.029 A 
ATOM     51  C   UNL A   1      39.026  32.985  34.818  1.00  0.00     0.049 A 
ATOM     52  H   UNL A   1      39.681  31.625  33.381  1.00  0.00     0.167 HD
ATOM     53  C   UNL A   1      40.851  28.710  30.316  1.00  0.00     0.034 A 
ATOM     54  C   UNL A   1      39.794  32.816  35.913  1.00  0.00     0.034 A 
ATOM     55  C   UNL A   1      41.782  28.525  31.403  1.00  0.00     0.049 A 
ATOM     56  C   UNL A   1      40.878  31.768  35.889  1.00  0.00     0.074 A 
ATOM     57  C   UNL A   1      42.869  27.668  31.469  1.00  0.00     0.029 A 
ATOM     58  N   UNL A   1      41.733  29.195  32.620  1.00  0.00    -0.354 N 
ATOM     59  N   UNL A   1      41.209  30.944  34.922  1.00  0.00    -0.248 NA
ATOM     60  C   UNL A   1      41.699  31.636  37.099  1.00  0.00     0.031 C 
ATOM     61  C   UNL A   1      43.424  27.761  32.750  1.00  0.00     0.029 A 
ATOM     62  C   UNL A   1      42.745  28.742  33.455  1.00  0.00     0.049 A 
ATOM     63  H   UNL A   1      41.077  29.889  32.854  1.00  0.00     0.167 HD
ATOM     64  C   UNL A   1      42.299  30.219  35.398  1.00  0.00     0.074 A 
ATOM     65  C   UNL A   1      42.577  30.716  36.729  1.00  0.00     0.031 C 
ATOM     66  C   UNL A   1      43.009  29.237  34.787  1.00  0.00     0.034 A 
BRANCH  53  67
ATOM     67  C   UNL A   1      40.976  27.828  29.094  1.00  0.00     0.023 A 
ATOM     68  C   UNL A   1      41.997  28.018  28.146  1.00  0.00     0.031 A 
ATOM     69  C   UNL A   1      40.052  26.793  28.864  1.00  0.00     0.131 A 
ATOM     70  C   UNL A   1      42.023  27.241  26.978  1.00  0.00     0.055 A 
ATOM     71  C   UNL A   1      40.136  25.965  27.742  1.00  0.00     0.041 A 
ATOM     72  F   UNL A   1      39.041  26.575  29.720  1.00  0.00    -0.206 F 
ATOM     73  C   UNL A   1      41.118  26.196  26.784  1.00  0.00     0.022 A 
BRANCH  70  74
ATOM     74  S   UNL A   1      43.165  27.713  25.649  1.00  0.00     0.124 S 
ATOM     75  O   UNL A   1      43.926  26.481  25.463  1.00  0.00    -0.237 OA
ATOM     76  O   UNL A   1      42.256  28.073  24.566  1.00  0.00    -0.237 OA
ATOM     77  O   UNL A   1      43.921  28.823  26.226  1.00  0.00    -0.744 OA
ENDBRANCH  70  74
ENDBRANCH  53  67
BRANCH  54  78
ATOM     78  C   UNL A   1      39.561  33.642  37.136  1.00  0.00     0.023 A 
ATOM     79  C   UNL A   1      38.866  33.122  38.240  1.00  0.00     0.031 A 
ATOM     80  C   UNL A   1      39.988  34.980  37.198  1.00  0.00     0.131 A 
ATOM     81  C   UNL A   1      38.573  33.949  39.336  1.00  0.00     0.055 A 
ATOM     82  C   UNL A   1      39.749  35.781  38.317  1.00  0.00     0.041 A 
ATOM     83  F   UNL A   1      40.658  35.529  36.172  1.00  0.00    -0.206 F 
ATOM     84  C   UNL A   1      39.024  35.270  39.388  1.00  0.00     0.022 A 
BRANCH  81  85
ATOM     85  S   UNL A   1      37.505  33.302  40.651  1.00  0.00     0.124 S 
ATOM     86  O   UNL A   1      36.308  32.930  39.905  1.00  0.00    -0.237 OA
ATOM     87  O   UNL A   1      38.305  32.199  41.175  1.00  0.00    -0.237 OA
ATOM     88  O   UNL A   1      37.350  34.440  41.554  1.00  0.00    -0.744 OA
ENDBRANCH  81  85
ENDBRANCH  54  78
BRANCH  66  89
ATOM     89  C   UNL A   1      44.190  28.668  35.539  1.00  0.00     0.023 A 
ATOM     90  C   UNL A   1      44.059  27.579  36.418  1.00  0.00     0.031 A 
ATOM     91  C   UNL A   1      45.467  29.236  35.380  1.00  0.00     0.131 A 
ATOM     92  C   UNL A   1      45.170  27.131  37.149  1.00  0.00     0.055 A 
ATOM     93  C   UNL A   1      46.583  28.743  36.056  1.00  0.00     0.041 A 
ATOM     94  F   UNL A   1      45.653  30.282  34.558  1.00  0.00    -0.206 F 
ATOM     95  C   UNL A   1      46.436  27.692  36.958  1.00  0.00     0.022 A 
BRANCH  92  96
ATOM     96  S   UNL A   1      44.922  25.873  38.431  1.00  0.00     0.124 S 
ATOM     97  O   UNL A   1      44.240  26.633  39.474  1.00  0.00    -0.237 OA
ATOM     98  O   UNL A   1      44.113  24.875  37.737  1.00  0.00    -0.237 OA
ATOM     99  O   UNL A   1      46.281  25.447  38.762  1.00  0.00    -0.744 OA
ENDBRANCH  92  96
ENDBRANCH  66  89
ENDBRANCH  40  41
ENDBRANCH  32  35
ENDBRANCH  30  31
ENDBRANCH  29  30
ENDBRANCH  28  29
ENDBRANCH   1  28
TORSDOF 20
ENDMDL
