MODEL 1
REMARK VINA RESULT:     -10.9      0.000      0.000
REMARK SMILES NC(=O)[C@@H]1CCCCN1C(=O)N[C@H]1C=C[C@@H](C(=O)NCCCCCCNC(=O)c2ccc(-c3c4nc(c(-c5cc(S(=O)(=O)[O-])ccc5F)c5ccc([nH]5)c(-c5cc(S(=O)(=O)[O-])ccc5F)c5nc(c(-c6cc(S(=O)(=O)[O-])ccc6F)c6ccc3[nH]6)C=C5)C=C4)cc2)C1
REMARK SMILES IDX 22 1 21 2 20 3 19 4 17 5 18 6 16 8 13 9 14 10 92 11 15 12
REMARK SMILES IDX 12 13 10 14 11 15 9 17 4 18 5 19 6 20 8 21 7 22 2 23 1 24
REMARK SMILES IDX 3 27 23 28 24 29 25 30 26 31 27 32 28 34 29 35 30 36 91 37
REMARK SMILES IDX 31 38 90 39 32 40 33 41 34 42 84 43 35 44 89 45 83 46 85 47
REMARK SMILES IDX 36 48 88 49 82 50 81 51 37 53 69 54 49 55 68 56 50 57 53 58
REMARK SMILES IDX 67 59 86 60 51 61 52 62 66 64 87 65 54 66 38 67 39 68 47 69
REMARK SMILES IDX 40 70 46 71 48 72 45 73 41 74 42 75 43 76 44 77 70 78 71 79
REMARK SMILES IDX 79 80 72 81 78 82 80 83 77 84 73 85 74 86 75 87 76 88 55 89
REMARK SMILES IDX 56 90 64 91 57 92 63 93 65 94 62 95 58 96 59 97 60 98 61 99
REMARK H PARENT 19 7 12 16 1 25 1 26 26 33 85 52 53 63
REMARK Flexibility Score: inf
ROOT
ATOM      1  C   UNL A   1      35.517  33.533  28.977  1.00  0.00     0.002 C 
ENDROOT
BRANCH   1   2
ATOM      2  C   UNL A   1      34.893  32.154  29.195  1.00  0.00     0.021 C 
BRANCH   2   3
ATOM      3  C   UNL A   1      34.777  31.314  27.929  1.00  0.00     0.116 C 
BRANCH   3   4
ATOM      4  N   UNL A   1      33.432  31.327  27.389  1.00  0.00    -0.356 N 
ATOM      5  C   UNL A   1      32.605  30.296  27.060  1.00  0.00     0.227 C 
ATOM      6  O   UNL A   1      31.488  30.578  26.614  1.00  0.00    -0.274 OA
ATOM      7  H   UNL A   1      33.056  32.224  27.235  1.00  0.00     0.163 HD
BRANCH   5   8
ATOM      8  C   UNL A   1      33.030  28.831  27.202  1.00  0.00     0.103 C 
ATOM      9  C   UNL A   1      32.439  26.713  26.090  1.00  0.00     0.107 C 
ATOM     10  C   UNL A   1      33.727  27.281  25.577  1.00  0.00    -0.006 C 
ATOM     11  C   UNL A   1      31.885  27.839  26.982  1.00  0.00     0.047 C 
ATOM     12  C   UNL A   1      34.074  28.403  26.218  1.00  0.00    -0.016 C 
BRANCH   9  13
ATOM     13  N   UNL A   1      31.525  26.421  25.012  1.00  0.00    -0.332 N 
ATOM     14  C   UNL A   1      31.175  25.303  24.341  1.00  0.00     0.318 C 
ATOM     15  O   UNL A   1      30.112  25.393  23.720  1.00  0.00    -0.249 OA
ATOM     16  H   UNL A   1      31.047  27.221  24.693  1.00  0.00     0.165 HD
BRANCH  14  17
ATOM     17  N   UNL A   1      31.927  24.158  24.325  1.00  0.00    -0.313 N 
ATOM     18  C   UNL A   1      31.964  23.311  25.545  1.00  0.00     0.176 C 
ATOM     19  C   UNL A   1      33.310  23.483  26.271  1.00  0.00     0.035 C 
ATOM     20  C   UNL A   1      34.478  23.202  25.319  1.00  0.00     0.004 C 
ATOM     21  C   UNL A   1      32.976  23.770  23.389  1.00  0.00     0.122 C 
ATOM     22  C   UNL A   1      34.345  24.009  24.030  1.00  0.00     0.022 C 
BRANCH  18  23
ATOM     23  C   UNL A   1      30.714  23.205  26.457  1.00  0.00     0.240 C 
ATOM     24  N   UNL A   1      29.951  22.077  26.352  1.00  0.00    -0.368 N 
ATOM     25  H   UNL A   1      29.149  21.970  26.912  1.00  0.00     0.159 HD
ATOM     26  H   UNL A   1      30.203  21.370  25.715  1.00  0.00     0.159 HD
ATOM     27  O   UNL A   1      30.387  24.097  27.239  1.00  0.00    -0.273 OA
ENDBRANCH  18  23
ENDBRANCH  14  17
ENDBRANCH   9  13
ENDBRANCH   5   8
ENDBRANCH   3   4
ENDBRANCH   2   3
ENDBRANCH   1   2
BRANCH   1  28
ATOM     28  C   UNL A   1      34.686  34.486  28.111  1.00  0.00     0.002 C 
BRANCH  28  29
ATOM     29  C   UNL A   1      33.371  34.954  28.739  1.00  0.00     0.021 C 
BRANCH  29  30
ATOM     30  C   UNL A   1      33.481  36.235  29.559  1.00  0.00     0.116 C 
BRANCH  30  31
ATOM     31  N   UNL A   1      32.607  36.210  30.720  1.00  0.00    -0.352 N 
ATOM     32  C   UNL A   1      32.713  35.465  31.867  1.00  0.00     0.251 C 
ATOM     33  H   UNL A   1      31.830  36.812  30.678  1.00  0.00     0.163 HD
ATOM     34  O   UNL A   1      31.762  35.402  32.643  1.00  0.00    -0.269 OA
BRANCH  32  35
ATOM     35  C   UNL A   1      33.961  34.726  32.149  1.00  0.00     0.039 A 
ATOM     36  C   UNL A   1      35.177  35.411  32.123  1.00  0.00     0.014 A 
ATOM     37  C   UNL A   1      33.931  33.359  32.439  1.00  0.00     0.014 A 
ATOM     38  C   UNL A   1      36.357  34.738  32.445  1.00  0.00     0.010 A 
ATOM     39  C   UNL A   1      35.096  32.708  32.837  1.00  0.00     0.010 A 
ATOM     40  C   UNL A   1      36.322  33.389  32.837  1.00  0.00    -0.014 A 
BRANCH  40  41
ATOM     41  C   UNL A   1      37.561  32.672  33.240  1.00  0.00     0.031 A 
ATOM     42  C   UNL A   1      38.219  32.989  34.555  1.00  0.00     0.074 A 
ATOM     43  C   UNL A   1      38.119  31.777  32.401  1.00  0.00     0.049 A 
ATOM     44  N   UNL A   1      39.337  32.528  35.055  1.00  0.00    -0.248 NA
ATOM     45  C   UNL A   1      37.543  33.976  35.410  1.00  0.00     0.031 C 
ATOM     46  C   UNL A   1      37.589  31.408  31.086  1.00  0.00     0.029 A 
ATOM     47  N   UNL A   1      39.256  31.018  32.522  1.00  0.00    -0.354 N 
ATOM     48  C   UNL A   1      39.503  33.173  36.276  1.00  0.00     0.074 A 
ATOM     49  C   UNL A   1      38.406  34.109  36.404  1.00  0.00     0.031 C 
ATOM     50  C   UNL A   1      38.381  30.474  30.539  1.00  0.00     0.029 A 
ATOM     51  C   UNL A   1      39.506  30.215  31.433  1.00  0.00     0.049 A 
ATOM     52  H   UNL A   1      39.839  31.047  33.316  1.00  0.00     0.167 HD
ATOM     53  C   UNL A   1      40.465  32.985  37.213  1.00  0.00     0.034 A 
ATOM     54  C   UNL A   1      40.530  29.378  31.177  1.00  0.00     0.034 A 
ATOM     55  C   UNL A   1      41.552  32.047  37.065  1.00  0.00     0.049 A 
ATOM     56  C   UNL A   1      41.620  29.227  32.210  1.00  0.00     0.074 A 
ATOM     57  C   UNL A   1      42.559  31.748  37.966  1.00  0.00     0.029 A 
ATOM     58  N   UNL A   1      41.783  31.266  35.939  1.00  0.00    -0.354 N 
ATOM     59  N   UNL A   1      41.739  29.812  33.380  1.00  0.00    -0.248 NA
ATOM     60  C   UNL A   1      42.709  28.294  31.892  1.00  0.00     0.031 C 
ATOM     61  C   UNL A   1      43.440  30.848  37.356  1.00  0.00     0.029 A 
ATOM     62  C   UNL A   1      42.936  30.513  36.110  1.00  0.00     0.049 A 
ATOM     63  H   UNL A   1      41.214  31.250  35.137  1.00  0.00     0.167 HD
ATOM     64  C   UNL A   1      42.896  29.287  33.951  1.00  0.00     0.074 A 
ATOM     65  C   UNL A   1      43.429  28.332  33.003  1.00  0.00     0.031 C 
ATOM     66  C   UNL A   1      43.463  29.567  35.153  1.00  0.00     0.034 A 
BRANCH  53  67
ATOM     67  C   UNL A   1      40.394  33.833  38.462  1.00  0.00     0.023 A 
ATOM     68  C   UNL A   1      39.582  33.474  39.553  1.00  0.00     0.031 A 
ATOM     69  C   UNL A   1      41.122  35.033  38.554  1.00  0.00     0.131 A 
ATOM     70  C   UNL A   1      39.452  34.343  40.647  1.00  0.00     0.055 A 
ATOM     71  C   UNL A   1      41.057  35.849  39.686  1.00  0.00     0.041 A 
ATOM     72  F   UNL A   1      41.897  35.444  37.538  1.00  0.00    -0.206 F 
ATOM     73  C   UNL A   1      40.205  35.514  40.734  1.00  0.00     0.022 A 
BRANCH  70  74
ATOM     74  S   UNL A   1      38.162  33.998  41.876  1.00  0.00     0.124 S 
ATOM     75  O   UNL A   1      37.516  35.303  41.999  1.00  0.00    -0.237 OA
ATOM     76  O   UNL A   1      37.377  32.955  41.227  1.00  0.00    -0.237 OA
ATOM     77  O   UNL A   1      38.916  33.572  43.054  1.00  0.00    -0.744 OA
ENDBRANCH  70  74
ENDBRANCH  53  67
BRANCH  54  78
ATOM     78  C   UNL A   1      40.590  28.623  29.892  1.00  0.00     0.023 A 
ATOM     79  C   UNL A   1      41.544  28.940  28.911  1.00  0.00     0.031 A 
ATOM     80  C   UNL A   1      39.662  27.607  29.602  1.00  0.00     0.131 A 
ATOM     81  C   UNL A   1      41.517  28.285  27.670  1.00  0.00     0.055 A 
ATOM     82  C   UNL A   1      39.678  26.917  28.388  1.00  0.00     0.041 A 
ATOM     83  F   UNL A   1      38.729  27.262  30.502  1.00  0.00    -0.206 F 
ATOM     84  C   UNL A   1      40.601  27.265  27.408  1.00  0.00     0.022 A 
BRANCH  81  85
ATOM     85  S   UNL A   1      42.637  28.859  26.363  1.00  0.00     0.124 S 
ATOM     86  O   UNL A   1      43.042  30.165  26.871  1.00  0.00    -0.237 OA
ATOM     87  O   UNL A   1      43.663  27.822  26.366  1.00  0.00    -0.237 OA
ATOM     88  O   UNL A   1      41.786  28.887  25.176  1.00  0.00    -0.744 OA
ENDBRANCH  81  85
ENDBRANCH  54  78
BRANCH  66  89
ATOM     89  C   UNL A   1      44.697  28.781  35.533  1.00  0.00     0.023 A 
ATOM     90  C   UNL A   1      44.619  27.551  36.210  1.00  0.00     0.031 A 
ATOM     91  C   UNL A   1      45.973  29.279  35.215  1.00  0.00     0.131 A 
ATOM     92  C   UNL A   1      45.795  26.891  36.599  1.00  0.00     0.055 A 
ATOM     93  C   UNL A   1      47.138  28.584  35.543  1.00  0.00     0.041 A 
ATOM     94  F   UNL A   1      46.110  30.452  34.574  1.00  0.00    -0.206 F 
ATOM     95  C   UNL A   1      47.053  27.390  36.251  1.00  0.00     0.022 A 
BRANCH  92  96
ATOM     96  S   UNL A   1      45.662  25.422  37.655  1.00  0.00     0.124 S 
ATOM     97  O   UNL A   1      45.072  24.446  36.743  1.00  0.00    -0.237 OA
ATOM     98  O   UNL A   1      47.051  25.183  38.034  1.00  0.00    -0.237 OA
ATOM     99  O   UNL A   1      44.789  25.861  38.743  1.00  0.00    -0.744 OA
ENDBRANCH  92  96
ENDBRANCH  66  89
ENDBRANCH  40  41
ENDBRANCH  32  35
ENDBRANCH  30  31
ENDBRANCH  29  30
ENDBRANCH  28  29
ENDBRANCH   1  28
TORSDOF 19
ENDMDL
MODEL 2
REMARK VINA RESULT:     -10.8      6.065     11.926
REMARK SMILES NC(=O)[C@@H]1CCCCN1C(=O)N[C@H]1C=C[C@@H](C(=O)NCCCCCCNC(=O)c2ccc(-c3c4nc(c(-c5cc(S(=O)(=O)[O-])ccc5F)c5ccc([nH]5)c(-c5cc(S(=O)(=O)[O-])ccc5F)c5nc(c(-c6cc(S(=O)(=O)[O-])ccc6F)c6ccc3[nH]6)C=C5)C=C4)cc2)C1
REMARK SMILES IDX 22 1 21 2 20 3 19 4 17 5 18 6 16 8 13 9 14 10 92 11 15 12
REMARK SMILES IDX 12 13 10 14 11 15 9 17 4 18 5 19 6 20 8 21 7 22 2 23 1 24
REMARK SMILES IDX 3 27 23 28 24 29 25 30 26 31 27 32 28 34 29 35 30 36 91 37
REMARK SMILES IDX 31 38 90 39 32 40 33 41 34 42 84 43 35 44 89 45 83 46 85 47
REMARK SMILES IDX 36 48 88 49 82 50 81 51 37 53 69 54 49 55 68 56 50 57 53 58
REMARK SMILES IDX 67 59 86 60 51 61 52 62 66 64 87 65 54 66 38 67 39 68 47 69
REMARK SMILES IDX 40 70 46 71 48 72 45 73 41 74 42 75 43 76 44 77 70 78 71 79
REMARK SMILES IDX 79 80 72 81 78 82 80 83 77 84 73 85 74 86 75 87 76 88 55 89
REMARK SMILES IDX 56 90 64 91 57 92 63 93 65 94 62 95 58 96 59 97 60 98 61 99
REMARK H PARENT 19 7 12 16 1 25 1 26 26 33 85 52 53 63
REMARK Flexibility Score: inf
ROOT
ATOM      1  C   UNL A   1      38.547  23.050  26.114  1.00  0.00     0.002 C 
ENDROOT
BRANCH   1   2
ATOM      2  C   UNL A   1      37.595  22.267  25.209  1.00  0.00     0.021 C 
BRANCH   2   3
ATOM      3  C   UNL A   1      36.839  23.127  24.205  1.00  0.00     0.116 C 
BRANCH   3   4
ATOM      4  N   UNL A   1      35.569  22.536  23.829  1.00  0.00    -0.356 N 
ATOM      5  C   UNL A   1      34.328  22.701  24.365  1.00  0.00     0.227 C 
ATOM      6  O   UNL A   1      33.395  22.076  23.852  1.00  0.00    -0.274 OA
ATOM      7  H   UNL A   1      35.611  21.917  23.065  1.00  0.00     0.163 HD
BRANCH   5   8
ATOM      8  C   UNL A   1      34.075  23.601  25.580  1.00  0.00     0.103 C 
ATOM      9  C   UNL A   1      32.472  25.383  26.145  1.00  0.00     0.107 C 
ATOM     10  C   UNL A   1      32.088  24.067  26.746  1.00  0.00    -0.006 C 
ATOM     11  C   UNL A   1      33.638  25.020  25.209  1.00  0.00     0.047 C 
ATOM     12  C   UNL A   1      32.986  23.110  26.483  1.00  0.00    -0.016 C 
BRANCH   9  13
ATOM     13  N   UNL A   1      31.380  25.960  25.397  1.00  0.00    -0.332 N 
ATOM     14  C   UNL A   1      31.114  27.187  24.898  1.00  0.00     0.318 C 
ATOM     15  O   UNL A   1      30.243  27.204  24.024  1.00  0.00    -0.249 OA
ATOM     16  H   UNL A   1      30.665  25.310  25.207  1.00  0.00     0.165 HD
BRANCH  14  17
ATOM     17  N   UNL A   1      31.738  28.331  25.321  1.00  0.00    -0.313 N 
ATOM     18  C   UNL A   1      32.870  28.864  24.521  1.00  0.00     0.176 C 
ATOM     19  C   UNL A   1      34.204  28.577  25.233  1.00  0.00     0.035 C 
ATOM     20  C   UNL A   1      34.181  29.123  26.666  1.00  0.00     0.004 C 
ATOM     21  C   UNL A   1      31.675  28.972  26.629  1.00  0.00     0.122 C 
ATOM     22  C   UNL A   1      32.944  28.642  27.419  1.00  0.00     0.022 C 
BRANCH  18  23
ATOM     23  C   UNL A   1      32.879  28.700  22.979  1.00  0.00     0.240 C 
ATOM     24  N   UNL A   1      31.921  29.367  22.268  1.00  0.00    -0.368 N 
ATOM     25  H   UNL A   1      31.892  29.289  21.288  1.00  0.00     0.159 HD
ATOM     26  H   UNL A   1      31.260  29.924  22.738  1.00  0.00     0.159 HD
ATOM     27  O   UNL A   1      33.694  27.988  22.393  1.00  0.00    -0.273 OA
ENDBRANCH  18  23
ENDBRANCH  14  17
ENDBRANCH   9  13
ENDBRANCH   5   8
ENDBRANCH   3   4
ENDBRANCH   2   3
ENDBRANCH   1   2
BRANCH   1  28
ATOM     28  C   UNL A   1      39.687  22.224  26.719  1.00  0.00     0.002 C 
BRANCH  28  29
ATOM     29  C   UNL A   1      39.934  20.870  26.048  1.00  0.00     0.021 C 
BRANCH  29  30
ATOM     30  C   UNL A   1      40.807  19.914  26.854  1.00  0.00     0.116 C 
BRANCH  30  31
ATOM     31  N   UNL A   1      41.969  19.477  26.098  1.00  0.00    -0.352 N 
ATOM     32  C   UNL A   1      42.996  20.225  25.580  1.00  0.00     0.251 C 
ATOM     33  H   UNL A   1      42.028  18.508  25.935  1.00  0.00     0.163 HD
ATOM     34  O   UNL A   1      43.773  19.717  24.773  1.00  0.00    -0.269 OA
BRANCH  32  35
ATOM     35  C   UNL A   1      43.146  21.640  25.977  1.00  0.00     0.039 A 
ATOM     36  C   UNL A   1      43.380  21.947  27.319  1.00  0.00     0.014 A 
ATOM     37  C   UNL A   1      43.057  22.661  25.027  1.00  0.00     0.014 A 
ATOM     38  C   UNL A   1      43.582  23.276  27.698  1.00  0.00     0.010 A 
ATOM     39  C   UNL A   1      43.337  23.975  25.392  1.00  0.00     0.010 A 
ATOM     40  C   UNL A   1      43.596  24.298  26.733  1.00  0.00    -0.014 A 
BRANCH  40  41
ATOM     41  C   UNL A   1      43.867  25.710  27.109  1.00  0.00     0.031 A 
ATOM     42  C   UNL A   1      45.266  26.255  27.023  1.00  0.00     0.074 A 
ATOM     43  C   UNL A   1      42.866  26.481  27.579  1.00  0.00     0.049 A 
ATOM     44  N   UNL A   1      45.720  27.432  27.370  1.00  0.00    -0.248 NA
ATOM     45  C   UNL A   1      46.297  25.346  26.499  1.00  0.00     0.031 C 
ATOM     46  C   UNL A   1      41.474  26.054  27.737  1.00  0.00     0.029 A 
ATOM     47  N   UNL A   1      42.864  27.783  28.014  1.00  0.00    -0.354 N 
ATOM     48  C   UNL A   1      47.087  27.403  27.116  1.00  0.00     0.074 A 
ATOM     49  C   UNL A   1      47.396  26.067  26.652  1.00  0.00     0.031 C 
ATOM     50  C   UNL A   1      40.749  27.082  28.204  1.00  0.00     0.029 A 
ATOM     51  C   UNL A   1      41.629  28.224  28.432  1.00  0.00     0.049 A 
ATOM     52  H   UNL A   1      43.671  28.347  28.027  1.00  0.00     0.167 HD
ATOM     53  C   UNL A   1      47.996  28.403  27.235  1.00  0.00     0.034 A 
ATOM     54  C   UNL A   1      41.252  29.409  28.954  1.00  0.00     0.034 A 
ATOM     55  C   UNL A   1      47.668  29.730  27.700  1.00  0.00     0.049 A 
ATOM     56  C   UNL A   1      42.291  30.489  29.130  1.00  0.00     0.074 A 
ATOM     57  C   UNL A   1      48.499  30.829  27.822  1.00  0.00     0.029 A 
ATOM     58  N   UNL A   1      46.411  30.134  28.134  1.00  0.00    -0.354 N 
ATOM     59  N   UNL A   1      43.573  30.459  28.843  1.00  0.00    -0.248 NA
ATOM     60  C   UNL A   1      41.830  31.765  29.690  1.00  0.00     0.031 C 
ATOM     61  C   UNL A   1      47.766  31.871  28.401  1.00  0.00     0.029 A 
ATOM     62  C   UNL A   1      46.454  31.454  28.556  1.00  0.00     0.049 A 
ATOM     63  H   UNL A   1      45.607  29.566  28.140  1.00  0.00     0.167 HD
ATOM     64  C   UNL A   1      44.060  31.727  29.153  1.00  0.00     0.074 A 
ATOM     65  C   UNL A   1      42.933  32.497  29.636  1.00  0.00     0.031 C 
ATOM     66  C   UNL A   1      45.324  32.211  29.043  1.00  0.00     0.034 A 
BRANCH  53  67
ATOM     67  C   UNL A   1      49.430  28.085  26.880  1.00  0.00     0.023 A 
ATOM     68  C   UNL A   1      49.956  28.367  25.607  1.00  0.00     0.031 A 
ATOM     69  C   UNL A   1      50.276  27.463  27.815  1.00  0.00     0.131 A 
ATOM     70  C   UNL A   1      51.256  27.954  25.276  1.00  0.00     0.055 A 
ATOM     71  C   UNL A   1      51.599  27.135  27.509  1.00  0.00     0.041 A 
ATOM     72  F   UNL A   1      49.828  27.146  29.040  1.00  0.00    -0.206 F 
ATOM     73  C   UNL A   1      52.091  27.365  26.227  1.00  0.00     0.022 A 
BRANCH  70  74
ATOM     74  S   UNL A   1      51.779  28.050  23.542  1.00  0.00     0.124 S 
ATOM     75  O   UNL A   1      50.920  27.046  22.919  1.00  0.00    -0.237 OA
ATOM     76  O   UNL A   1      51.491  29.438  23.201  1.00  0.00    -0.237 OA
ATOM     77  O   UNL A   1      53.197  27.699  23.592  1.00  0.00    -0.744 OA
ENDBRANCH  70  74
ENDBRANCH  53  67
BRANCH  54  78
ATOM     78  C   UNL A   1      39.836  29.642  29.360  1.00  0.00     0.023 A 
ATOM     79  C   UNL A   1      39.477  29.731  30.714  1.00  0.00     0.031 A 
ATOM     80  C   UNL A   1      38.810  29.729  28.401  1.00  0.00     0.131 A 
ATOM     81  C   UNL A   1      38.125  29.849  31.075  1.00  0.00     0.055 A 
ATOM     82  C   UNL A   1      37.474  29.908  28.763  1.00  0.00     0.041 A 
ATOM     83  F   UNL A   1      39.095  29.652  27.092  1.00  0.00    -0.206 F 
ATOM     84  C   UNL A   1      37.123  29.954  30.109  1.00  0.00     0.022 A 
BRANCH  81  85
ATOM     85  S   UNL A   1      37.686  29.761  32.833  1.00  0.00     0.124 S 
ATOM     86  O   UNL A   1      38.931  30.178  33.470  1.00  0.00    -0.237 OA
ATOM     87  O   UNL A   1      36.576  30.703  32.915  1.00  0.00    -0.237 OA
ATOM     88  O   UNL A   1      37.326  28.358  33.023  1.00  0.00    -0.744 OA
ENDBRANCH  81  85
ENDBRANCH  54  78
BRANCH  66  89
ATOM     89  C   UNL A   1      45.539  33.664  29.400  1.00  0.00     0.023 A 
ATOM     90  C   UNL A   1      45.459  34.688  28.439  1.00  0.00     0.031 A 
ATOM     91  C   UNL A   1      45.836  34.027  30.726  1.00  0.00     0.131 A 
ATOM     92  C   UNL A   1      45.731  36.015  28.807  1.00  0.00     0.055 A 
ATOM     93  C   UNL A   1      46.037  35.356  31.100  1.00  0.00     0.041 A 
ATOM     94  F   UNL A   1      45.931  33.092  31.686  1.00  0.00    -0.206 F 
ATOM     95  C   UNL A   1      45.999  36.357  30.134  1.00  0.00     0.022 A 
BRANCH  92  96
ATOM     96  S   UNL A   1      45.830  37.276  27.507  1.00  0.00     0.124 S 
ATOM     97  O   UNL A   1      46.926  38.116  27.983  1.00  0.00    -0.237 OA
ATOM     98  O   UNL A   1      46.108  36.479  26.318  1.00  0.00    -0.237 OA
ATOM     99  O   UNL A   1      44.510  37.905  27.538  1.00  0.00    -0.744 OA
ENDBRANCH  92  96
ENDBRANCH  66  89
ENDBRANCH  40  41
ENDBRANCH  32  35
ENDBRANCH  30  31
ENDBRANCH  29  30
ENDBRANCH  28  29
ENDBRANCH   1  28
TORSDOF 19
ENDMDL
MODEL 3
REMARK VINA RESULT:     -10.7      1.563      2.026
REMARK SMILES NC(=O)[C@@H]1CCCCN1C(=O)N[C@H]1C=C[C@@H](C(=O)NCCCCCCNC(=O)c2ccc(-c3c4nc(c(-c5cc(S(=O)(=O)[O-])ccc5F)c5ccc([nH]5)c(-c5cc(S(=O)(=O)[O-])ccc5F)c5nc(c(-c6cc(S(=O)(=O)[O-])ccc6F)c6ccc3[nH]6)C=C5)C=C4)cc2)C1
REMARK SMILES IDX 22 1 21 2 20 3 19 4 17 5 18 6 16 8 13 9 14 10 92 11 15 12
REMARK SMILES IDX 12 13 10 14 11 15 9 17 4 18 5 19 6 20 8 21 7 22 2 23 1 24
REMARK SMILES IDX 3 27 23 28 24 29 25 30 26 31 27 32 28 34 29 35 30 36 91 37
REMARK SMILES IDX 31 38 90 39 32 40 33 41 34 42 84 43 35 44 89 45 83 46 85 47
REMARK SMILES IDX 36 48 88 49 82 50 81 51 37 53 69 54 49 55 68 56 50 57 53 58
REMARK SMILES IDX 67 59 86 60 51 61 52 62 66 64 87 65 54 66 38 67 39 68 47 69
REMARK SMILES IDX 40 70 46 71 48 72 45 73 41 74 42 75 43 76 44 77 70 78 71 79
REMARK SMILES IDX 79 80 72 81 78 82 80 83 77 84 73 85 74 86 75 87 76 88 55 89
REMARK SMILES IDX 56 90 64 91 57 92 63 93 65 94 62 95 58 96 59 97 60 98 61 99
REMARK H PARENT 19 7 12 16 1 25 1 26 26 33 85 52 53 63
REMARK Flexibility Score: inf
ROOT
ATOM      1  C   UNL A   1      35.421  33.128  28.542  1.00  0.00     0.002 C 
ENDROOT
BRANCH   1   2
ATOM      2  C   UNL A   1      34.552  31.904  28.828  1.00  0.00     0.021 C 
BRANCH   2   3
ATOM      3  C   UNL A   1      34.573  30.852  27.727  1.00  0.00     0.116 C 
BRANCH   3   4
ATOM      4  N   UNL A   1      33.295  30.748  27.049  1.00  0.00    -0.356 N 
ATOM      5  C   UNL A   1      32.898  29.924  26.039  1.00  0.00     0.227 C 
ATOM      6  O   UNL A   1      31.737  30.033  25.634  1.00  0.00    -0.274 OA
ATOM      7  H   UNL A   1      32.604  31.372  27.370  1.00  0.00     0.163 HD
BRANCH   5   8
ATOM      8  C   UNL A   1      33.847  28.910  25.392  1.00  0.00     0.103 C 
ATOM      9  C   UNL A   1      33.740  26.515  24.826  1.00  0.00     0.107 C 
ATOM     10  C   UNL A   1      33.485  27.388  23.636  1.00  0.00    -0.006 C 
ATOM     11  C   UNL A   1      33.751  27.509  26.001  1.00  0.00     0.047 C 
ATOM     12  C   UNL A   1      33.596  28.689  23.932  1.00  0.00    -0.016 C 
BRANCH   9  13
ATOM     13  N   UNL A   1      32.691  25.537  24.996  1.00  0.00    -0.332 N 
ATOM     14  C   UNL A   1      32.660  24.217  25.277  1.00  0.00     0.318 C 
ATOM     15  O   UNL A   1      31.568  23.807  25.680  1.00  0.00    -0.249 OA
ATOM     16  H   UNL A   1      31.792  25.922  24.881  1.00  0.00     0.165 HD
BRANCH  14  17
ATOM     17  N   UNL A   1      33.735  23.381  25.124  1.00  0.00    -0.313 N 
ATOM     18  C   UNL A   1      33.814  22.536  23.906  1.00  0.00     0.176 C 
ATOM     19  C   UNL A   1      33.476  21.074  24.251  1.00  0.00     0.035 C 
ATOM     20  C   UNL A   1      34.373  20.565  25.386  1.00  0.00     0.004 C 
ATOM     21  C   UNL A   1      34.697  22.942  26.128  1.00  0.00     0.122 C 
ATOM     22  C   UNL A   1      34.351  21.520  26.577  1.00  0.00     0.022 C 
BRANCH  18  23
ATOM     23  C   UNL A   1      33.253  23.058  22.557  1.00  0.00     0.240 C 
ATOM     24  N   UNL A   1      32.377  22.253  21.885  1.00  0.00    -0.368 N 
ATOM     25  H   UNL A   1      31.999  22.547  21.025  1.00  0.00     0.159 HD
ATOM     26  H   UNL A   1      32.125  21.379  22.260  1.00  0.00     0.159 HD
ATOM     27  O   UNL A   1      33.583  24.142  22.078  1.00  0.00    -0.273 OA
ENDBRANCH  18  23
ENDBRANCH  14  17
ENDBRANCH   9  13
ENDBRANCH   5   8
ENDBRANCH   3   4
ENDBRANCH   2   3
ENDBRANCH   1   2
BRANCH   1  28
ATOM     28  C   UNL A   1      34.691  34.292  27.863  1.00  0.00     0.002 C 
BRANCH  28  29
ATOM     29  C   UNL A   1      33.409  34.751  28.562  1.00  0.00     0.021 C 
BRANCH  29  30
ATOM     30  C   UNL A   1      33.529  36.083  29.295  1.00  0.00     0.116 C 
BRANCH  30  31
ATOM     31  N   UNL A   1      32.685  36.126  30.478  1.00  0.00    -0.352 N 
ATOM     32  C   UNL A   1      32.806  35.429  31.653  1.00  0.00     0.251 C 
ATOM     33  H   UNL A   1      31.919  36.742  30.429  1.00  0.00     0.163 HD
ATOM     34  O   UNL A   1      31.873  35.419  32.455  1.00  0.00    -0.269 OA
BRANCH  32  35
ATOM     35  C   UNL A   1      34.046  34.677  31.936  1.00  0.00     0.039 A 
ATOM     36  C   UNL A   1      35.267  35.353  31.924  1.00  0.00     0.014 A 
ATOM     37  C   UNL A   1      34.002  33.308  32.214  1.00  0.00     0.014 A 
ATOM     38  C   UNL A   1      36.440  34.666  32.247  1.00  0.00     0.010 A 
ATOM     39  C   UNL A   1      35.159  32.644  32.613  1.00  0.00     0.010 A 
ATOM     40  C   UNL A   1      36.391  33.314  32.627  1.00  0.00    -0.014 A 
BRANCH  40  41
ATOM     41  C   UNL A   1      37.621  32.583  33.031  1.00  0.00     0.031 A 
ATOM     42  C   UNL A   1      38.279  32.889  34.349  1.00  0.00     0.074 A 
ATOM     43  C   UNL A   1      38.172  31.685  32.190  1.00  0.00     0.049 A 
ATOM     44  N   UNL A   1      39.391  32.415  34.851  1.00  0.00    -0.248 NA
ATOM     45  C   UNL A   1      37.611  33.881  35.205  1.00  0.00     0.031 C 
ATOM     46  C   UNL A   1      37.642  31.326  30.873  1.00  0.00     0.029 A 
ATOM     47  N   UNL A   1      39.301  30.914  32.313  1.00  0.00    -0.354 N 
ATOM     48  C   UNL A   1      39.560  33.055  36.074  1.00  0.00     0.074 A 
ATOM     49  C   UNL A   1      38.472  34.002  36.202  1.00  0.00     0.031 C 
ATOM     50  C   UNL A   1      38.427  30.385  30.325  1.00  0.00     0.029 A 
ATOM     51  C   UNL A   1      39.546  30.112  31.222  1.00  0.00     0.049 A 
ATOM     52  H   UNL A   1      39.883  30.934  33.108  1.00  0.00     0.167 HD
ATOM     53  C   UNL A   1      40.518  32.854  37.013  1.00  0.00     0.034 A 
ATOM     54  C   UNL A   1      40.563  29.266  30.966  1.00  0.00     0.034 A 
ATOM     55  C   UNL A   1      41.595  31.905  36.866  1.00  0.00     0.049 A 
ATOM     56  C   UNL A   1      41.648  29.100  32.002  1.00  0.00     0.074 A 
ATOM     57  C   UNL A   1      42.597  31.593  37.768  1.00  0.00     0.029 A 
ATOM     58  N   UNL A   1      41.821  31.126  35.738  1.00  0.00    -0.354 N 
ATOM     59  N   UNL A   1      41.769  29.680  33.174  1.00  0.00    -0.248 NA
ATOM     60  C   UNL A   1      42.728  28.157  31.683  1.00  0.00     0.031 C 
ATOM     61  C   UNL A   1      43.470  30.685  37.158  1.00  0.00     0.029 A 
ATOM     62  C   UNL A   1      42.966  30.360  35.910  1.00  0.00     0.049 A 
ATOM     63  H   UNL A   1      41.254  31.118  34.934  1.00  0.00     0.167 HD
ATOM     64  C   UNL A   1      42.919  29.142  33.747  1.00  0.00     0.074 A 
ATOM     65  C   UNL A   1      43.445  28.184  32.797  1.00  0.00     0.031 C 
ATOM     66  C   UNL A   1      43.485  29.412  34.951  1.00  0.00     0.034 A 
BRANCH  53  67
ATOM     67  C   UNL A   1      40.451  33.699  38.265  1.00  0.00     0.023 A 
ATOM     68  C   UNL A   1      39.557  33.402  39.309  1.00  0.00     0.031 A 
ATOM     69  C   UNL A   1      41.269  34.835  38.405  1.00  0.00     0.131 A 
ATOM     70  C   UNL A   1      39.442  34.273  40.403  1.00  0.00     0.055 A 
ATOM     71  C   UNL A   1      41.213  35.647  39.539  1.00  0.00     0.041 A 
ATOM     72  F   UNL A   1      42.126  35.185  37.433  1.00  0.00    -0.206 F 
ATOM     73  C   UNL A   1      40.284  35.378  40.540  1.00  0.00     0.022 A 
BRANCH  70  74
ATOM     74  S   UNL A   1      38.067  34.029  41.562  1.00  0.00     0.124 S 
ATOM     75  O   UNL A   1      37.642  35.406  41.808  1.00  0.00    -0.237 OA
ATOM     76  O   UNL A   1      37.146  33.204  40.790  1.00  0.00    -0.237 OA
ATOM     77  O   UNL A   1      38.695  33.367  42.704  1.00  0.00    -0.744 OA
ENDBRANCH  70  74
ENDBRANCH  53  67
BRANCH  54  78
ATOM     78  C   UNL A   1      40.619  28.514  29.679  1.00  0.00     0.023 A 
ATOM     79  C   UNL A   1      41.570  28.832  28.697  1.00  0.00     0.031 A 
ATOM     80  C   UNL A   1      39.688  27.500  29.388  1.00  0.00     0.131 A 
ATOM     81  C   UNL A   1      41.539  28.181  27.454  1.00  0.00     0.055 A 
ATOM     82  C   UNL A   1      39.701  26.813  28.173  1.00  0.00     0.041 A 
ATOM     83  F   UNL A   1      38.757  27.153  30.290  1.00  0.00    -0.206 F 
ATOM     84  C   UNL A   1      40.621  27.163  27.191  1.00  0.00     0.022 A 
BRANCH  81  85
ATOM     85  S   UNL A   1      42.656  28.757  26.145  1.00  0.00     0.124 S 
ATOM     86  O   UNL A   1      42.838  30.159  26.506  1.00  0.00    -0.237 OA
ATOM     87  O   UNL A   1      43.814  27.891  26.332  1.00  0.00    -0.237 OA
ATOM     88  O   UNL A   1      41.894  28.521  24.921  1.00  0.00    -0.744 OA
ENDBRANCH  81  85
ENDBRANCH  54  78
BRANCH  66  89
ATOM     89  C   UNL A   1      44.710  28.612  35.331  1.00  0.00     0.023 A 
ATOM     90  C   UNL A   1      46.012  29.059  35.042  1.00  0.00     0.031 A 
ATOM     91  C   UNL A   1      44.569  27.377  35.989  1.00  0.00     0.131 A 
ATOM     92  C   UNL A   1      47.115  28.250  35.357  1.00  0.00     0.055 A 
ATOM     93  C   UNL A   1      45.672  26.609  36.362  1.00  0.00     0.041 A 
ATOM     94  F   UNL A   1      43.349  26.896  36.286  1.00  0.00    -0.206 F 
ATOM     95  C   UNL A   1      46.953  27.038  36.033  1.00  0.00     0.022 A 
BRANCH  92  96
ATOM     96  S   UNL A   1      48.759  28.755  34.780  1.00  0.00     0.124 S 
ATOM     97  O   UNL A   1      49.267  29.502  35.927  1.00  0.00    -0.237 OA
ATOM     98  O   UNL A   1      49.404  27.473  34.516  1.00  0.00    -0.237 OA
ATOM     99  O   UNL A   1      48.473  29.561  33.593  1.00  0.00    -0.744 OA
ENDBRANCH  92  96
ENDBRANCH  66  89
ENDBRANCH  40  41
ENDBRANCH  32  35
ENDBRANCH  30  31
ENDBRANCH  29  30
ENDBRANCH  28  29
ENDBRANCH   1  28
TORSDOF 19
ENDMDL
