MODEL 1
REMARK VINA RESULT:     -11.7      0.000      0.000
REMARK SMILES Nc1nc2ccccc2nc1N1CCC(C(=O)NCCCCCCNC(=O)c2ccc(-c3c4nc(c(-c5cc(S(=O)(=O)[O-])ccc5F)c5ccc([nH]5)c(-c5cc(S(=O)(=O)[O-])ccc5F)c5nc(c(-c6cc(S(=O)(=O)[O-])ccc6F)c6ccc3[nH]6)C=C5)C=C4)cc2)CC1
REMARK SMILES IDX 22 1 21 2 20 3 19 4 18 5 16 6 17 7 15 9 12 10 13 11 92 12
REMARK SMILES IDX 14 13 91 14 11 15 2 16 3 17 4 18 10 19 5 20 9 21 6 22 8 23
REMARK SMILES IDX 7 24 1 25 23 28 24 29 25 30 26 31 27 33 28 34 29 35 90 36
REMARK SMILES IDX 30 37 89 38 31 39 32 40 33 41 83 42 34 43 88 44 82 45 84 46
REMARK SMILES IDX 35 47 87 48 81 49 80 50 36 52 68 53 48 54 67 55 49 56 52 57
REMARK SMILES IDX 66 58 85 59 50 60 51 61 65 63 86 64 53 65 37 66 38 67 46 68
REMARK SMILES IDX 39 69 45 70 47 71 44 72 40 73 41 74 42 75 43 76 69 77 70 78
REMARK SMILES IDX 78 79 71 80 77 81 79 82 76 83 72 84 73 85 74 86 75 87 54 88
REMARK SMILES IDX 55 89 63 90 56 91 62 92 64 93 61 94 57 95 58 96 59 97 60 98
REMARK H PARENT 18 8 1 26 1 27 25 32 84 51 52 62
REMARK Flexibility Score: inf
ROOT
ATOM      1  C   UNL A   1      31.782  30.089  26.757  1.00  0.00     0.002 C 
ENDROOT
BRANCH   1   2
ATOM      2  C   UNL A   1      31.757  29.429  25.374  1.00  0.00     0.002 C 
BRANCH   2   3
ATOM      3  C   UNL A   1      33.130  29.174  24.742  1.00  0.00     0.021 C 
BRANCH   3   4
ATOM      4  C   UNL A   1      33.109  28.225  23.544  1.00  0.00     0.116 C 
BRANCH   4   5
ATOM      5  N   UNL A   1      32.066  27.220  23.681  1.00  0.00    -0.356 N 
ATOM      6  C   UNL A   1      32.129  25.913  24.051  1.00  0.00     0.223 C 
ATOM      7  O   UNL A   1      31.081  25.263  24.061  1.00  0.00    -0.275 OA
ATOM      8  H   UNL A   1      31.160  27.541  23.469  1.00  0.00     0.163 HD
BRANCH   6   9
ATOM      9  C   UNL A   1      33.440  25.260  24.470  1.00  0.00     0.082 C 
ATOM     10  N   UNL A   1      34.906  22.865  24.845  1.00  0.00    -0.353 N 
ATOM     11  C   UNL A   1      34.461  23.526  26.052  1.00  0.00     0.119 C 
ATOM     12  C   UNL A   1      35.267  23.667  23.693  1.00  0.00     0.119 C 
ATOM     13  C   UNL A   1      33.284  24.446  25.765  1.00  0.00     0.035 C 
ATOM     14  C   UNL A   1      34.075  24.519  23.283  1.00  0.00     0.035 C 
BRANCH  10  15
ATOM     15  C   UNL A   1      34.915  21.483  24.770  1.00  0.00     0.172 A 
ATOM     16  C   UNL A   1      36.100  20.737  25.011  1.00  0.00     0.167 A 
ATOM     17  N   UNL A   1      36.143  19.395  24.926  1.00  0.00    -0.226 NA
ATOM     18  C   UNL A   1      34.995  18.776  24.609  1.00  0.00     0.091 A 
ATOM     19  N   UNL A   1      33.753  20.848  24.486  1.00  0.00    -0.225 NA
ATOM     20  C   UNL A   1      34.988  17.391  24.501  1.00  0.00     0.031 A 
ATOM     21  C   UNL A   1      33.797  19.499  24.386  1.00  0.00     0.091 A 
ATOM     22  C   UNL A   1      33.829  16.695  24.163  1.00  0.00     0.002 A 
ATOM     23  C   UNL A   1      32.648  18.790  24.048  1.00  0.00     0.031 A 
ATOM     24  C   UNL A   1      32.655  17.397  23.931  1.00  0.00     0.002 A 
BRANCH  16  25
ATOM     25  N   UNL A   1      37.299  21.348  25.366  1.00  0.00    -0.381 N 
ATOM     26  H   UNL A   1      38.003  20.827  25.817  1.00  0.00     0.158 HD
ATOM     27  H   UNL A   1      37.444  22.301  25.167  1.00  0.00     0.158 HD
ENDBRANCH  16  25
ENDBRANCH  10  15
ENDBRANCH   6   9
ENDBRANCH   4   5
ENDBRANCH   3   4
ENDBRANCH   2   3
ENDBRANCH   1   2
BRANCH   1  28
ATOM     28  C   UNL A   1      31.636  31.612  26.762  1.00  0.00     0.021 C 
BRANCH  28  29
ATOM     29  C   UNL A   1      32.880  32.378  27.192  1.00  0.00     0.116 C 
BRANCH  29  30
ATOM     30  N   UNL A   1      32.593  33.754  27.568  1.00  0.00    -0.352 N 
ATOM     31  C   UNL A   1      33.185  34.525  28.543  1.00  0.00     0.251 C 
ATOM     32  H   UNL A   1      31.877  34.193  27.055  1.00  0.00     0.163 HD
ATOM     33  O   UNL A   1      32.723  35.626  28.823  1.00  0.00    -0.269 OA
BRANCH  31  34
ATOM     34  C   UNL A   1      34.356  33.994  29.274  1.00  0.00     0.039 A 
ATOM     35  C   UNL A   1      35.647  34.420  28.950  1.00  0.00     0.014 A 
ATOM     36  C   UNL A   1      34.163  33.022  30.258  1.00  0.00     0.014 A 
ATOM     37  C   UNL A   1      36.744  33.754  29.484  1.00  0.00     0.010 A 
ATOM     38  C   UNL A   1      35.269  32.410  30.855  1.00  0.00     0.010 A 
ATOM     39  C   UNL A   1      36.569  32.734  30.434  1.00  0.00    -0.014 A 
BRANCH  39  40
ATOM     40  C   UNL A   1      37.759  32.021  30.972  1.00  0.00     0.031 A 
ATOM     41  C   UNL A   1      38.240  32.270  32.376  1.00  0.00     0.074 A 
ATOM     42  C   UNL A   1      38.375  31.102  30.202  1.00  0.00     0.049 A 
ATOM     43  N   UNL A   1      39.231  31.706  33.017  1.00  0.00    -0.248 NA
ATOM     44  C   UNL A   1      37.520  33.283  33.164  1.00  0.00     0.031 C 
ATOM     45  C   UNL A   1      37.991  30.776  28.829  1.00  0.00     0.029 A 
ATOM     46  N   UNL A   1      39.429  30.263  30.464  1.00  0.00    -0.354 N 
ATOM     47  C   UNL A   1      39.264  32.302  34.273  1.00  0.00     0.074 A 
ATOM     48  C   UNL A   1      38.215  33.297  34.293  1.00  0.00     0.031 C 
ATOM     49  C   UNL A   1      38.760  29.772  28.386  1.00  0.00     0.029 A 
ATOM     50  C   UNL A   1      39.739  29.428  29.415  1.00  0.00     0.049 A 
ATOM     51  H   UNL A   1      39.916  30.259  31.318  1.00  0.00     0.167 HD
ATOM     52  C   UNL A   1      40.085  32.032  35.317  1.00  0.00     0.034 A 
ATOM     53  C   UNL A   1      40.705  28.496  29.286  1.00  0.00     0.034 A 
ATOM     54  C   UNL A   1      41.115  31.025  35.289  1.00  0.00     0.049 A 
ATOM     55  C   UNL A   1      41.624  28.235  30.450  1.00  0.00     0.074 A 
ATOM     56  C   UNL A   1      41.977  30.657  36.308  1.00  0.00     0.029 A 
ATOM     57  N   UNL A   1      41.425  30.226  34.197  1.00  0.00    -0.354 N 
ATOM     58  N   UNL A   1      41.610  28.775  31.647  1.00  0.00    -0.248 NA
ATOM     59  C   UNL A   1      42.690  27.244  30.255  1.00  0.00     0.031 C 
ATOM     60  C   UNL A   1      42.841  29.678  35.816  1.00  0.00     0.029 A 
ATOM     61  C   UNL A   1      42.480  29.385  34.511  1.00  0.00     0.049 A 
ATOM     62  H   UNL A   1      40.965  30.254  33.327  1.00  0.00     0.167 HD
ATOM     63  C   UNL A   1      42.653  28.180  32.349  1.00  0.00     0.074 A 
ATOM     64  C   UNL A   1      43.260  27.217  31.454  1.00  0.00     0.031 C 
ATOM     65  C   UNL A   1      43.074  28.418  33.617  1.00  0.00     0.034 A 
BRANCH  52  66
ATOM     66  C   UNL A   1      39.910  32.814  36.596  1.00  0.00     0.023 A 
ATOM     67  C   UNL A   1      38.981  32.386  37.563  1.00  0.00     0.031 A 
ATOM     68  C   UNL A   1      40.562  34.043  36.797  1.00  0.00     0.131 A 
ATOM     69  C   UNL A   1      38.707  33.197  38.672  1.00  0.00     0.055 A 
ATOM     70  C   UNL A   1      40.314  34.830  37.923  1.00  0.00     0.041 A 
ATOM     71  F   UNL A   1      41.457  34.495  35.902  1.00  0.00    -0.206 F 
ATOM     72  C   UNL A   1      39.373  34.413  38.860  1.00  0.00     0.022 A 
BRANCH  69  73
ATOM     73  S   UNL A   1      37.434  32.738  39.880  1.00  0.00     0.124 S 
ATOM     74  O   UNL A   1      37.421  33.908  40.758  1.00  0.00    -0.237 OA
ATOM     75  O   UNL A   1      36.254  32.581  39.036  1.00  0.00    -0.237 OA
ATOM     76  O   UNL A   1      37.947  31.515  40.484  1.00  0.00    -0.744 OA
ENDBRANCH  69  73
ENDBRANCH  52  66
BRANCH  53  77
ATOM     77  C   UNL A   1      40.799  27.722  28.014  1.00  0.00     0.023 A 
ATOM     78  C   UNL A   1      40.319  26.402  27.934  1.00  0.00     0.031 A 
ATOM     79  C   UNL A   1      41.482  28.245  26.903  1.00  0.00     0.131 A 
ATOM     80  C   UNL A   1      40.600  25.625  26.803  1.00  0.00     0.055 A 
ATOM     81  C   UNL A   1      41.693  27.491  25.748  1.00  0.00     0.041 A 
ATOM     82  F   UNL A   1      41.970  29.495  26.937  1.00  0.00    -0.206 F 
ATOM     83  C   UNL A   1      41.269  26.166  25.703  1.00  0.00     0.022 A 
BRANCH  80  84
ATOM     84  S   UNL A   1      40.242  23.846  26.788  1.00  0.00     0.124 S 
ATOM     85  O   UNL A   1      38.893  23.811  26.233  1.00  0.00    -0.237 OA
ATOM     86  O   UNL A   1      41.299  23.337  25.917  1.00  0.00    -0.237 OA
ATOM     87  O   UNL A   1      40.359  23.460  28.191  1.00  0.00    -0.744 OA
ENDBRANCH  80  84
ENDBRANCH  53  77
BRANCH  65  88
ATOM     88  C   UNL A   1      44.253  27.638  34.144  1.00  0.00     0.023 A 
ATOM     89  C   UNL A   1      44.047  26.424  34.827  1.00  0.00     0.031 A 
ATOM     90  C   UNL A   1      45.554  28.168  34.108  1.00  0.00     0.131 A 
ATOM     91  C   UNL A   1      45.117  25.802  35.483  1.00  0.00     0.055 A 
ATOM     92  C   UNL A   1      46.626  27.522  34.723  1.00  0.00     0.041 A 
ATOM     93  F   UNL A   1      45.800  29.328  33.477  1.00  0.00    -0.206 F 
ATOM     94  C   UNL A   1      46.407  26.341  35.428  1.00  0.00     0.022 A 
BRANCH  91  95
ATOM     95  S   UNL A   1      44.858  24.324  36.502  1.00  0.00     0.124 S 
ATOM     96  O   UNL A   1      44.467  24.905  37.784  1.00  0.00    -0.237 OA
ATOM     97  O   UNL A   1      43.793  23.634  35.778  1.00  0.00    -0.237 OA
ATOM     98  O   UNL A   1      46.157  23.658  36.492  1.00  0.00    -0.744 OA
ENDBRANCH  91  95
ENDBRANCH  65  88
ENDBRANCH  39  40
ENDBRANCH  31  34
ENDBRANCH  29  30
ENDBRANCH  28  29
ENDBRANCH   1  28
TORSDOF 18
ENDMDL
MODEL 2
REMARK VINA RESULT:     -11.6      1.490      1.852
REMARK SMILES Nc1nc2ccccc2nc1N1CCC(C(=O)NCCCCCCNC(=O)c2ccc(-c3c4nc(c(-c5cc(S(=O)(=O)[O-])ccc5F)c5ccc([nH]5)c(-c5cc(S(=O)(=O)[O-])ccc5F)c5nc(c(-c6cc(S(=O)(=O)[O-])ccc6F)c6ccc3[nH]6)C=C5)C=C4)cc2)CC1
REMARK SMILES IDX 22 1 21 2 20 3 19 4 18 5 16 6 17 7 15 9 12 10 13 11 92 12
REMARK SMILES IDX 14 13 91 14 11 15 2 16 3 17 4 18 10 19 5 20 9 21 6 22 8 23
REMARK SMILES IDX 7 24 1 25 23 28 24 29 25 30 26 31 27 33 28 34 29 35 90 36
REMARK SMILES IDX 30 37 89 38 31 39 32 40 33 41 83 42 34 43 88 44 82 45 84 46
REMARK SMILES IDX 35 47 87 48 81 49 80 50 36 52 68 53 48 54 67 55 49 56 52 57
REMARK SMILES IDX 66 58 85 59 50 60 51 61 65 63 86 64 53 65 37 66 38 67 46 68
REMARK SMILES IDX 39 69 45 70 47 71 44 72 40 73 41 74 42 75 43 76 69 77 70 78
REMARK SMILES IDX 78 79 71 80 77 81 79 82 76 83 72 84 73 85 74 86 75 87 54 88
REMARK SMILES IDX 55 89 63 90 56 91 62 92 64 93 61 94 57 95 58 96 59 97 60 98
REMARK H PARENT 18 8 1 26 1 27 25 32 84 51 52 62
REMARK Flexibility Score: inf
ROOT
ATOM      1  C   UNL A   1      32.032  30.133  26.840  1.00  0.00     0.002 C 
ENDROOT
BRANCH   1   2
ATOM      2  C   UNL A   1      31.788  29.459  25.486  1.00  0.00     0.002 C 
BRANCH   2   3
ATOM      3  C   UNL A   1      33.042  29.198  24.644  1.00  0.00     0.021 C 
BRANCH   3   4
ATOM      4  C   UNL A   1      32.783  28.454  23.335  1.00  0.00     0.116 C 
BRANCH   4   5
ATOM      5  N   UNL A   1      31.735  27.457  23.489  1.00  0.00    -0.356 N 
ATOM      6  C   UNL A   1      31.781  26.177  23.949  1.00  0.00     0.223 C 
ATOM      7  O   UNL A   1      30.734  25.526  23.953  1.00  0.00    -0.275 OA
ATOM      8  H   UNL A   1      30.840  27.760  23.215  1.00  0.00     0.163 HD
BRANCH   6   9
ATOM      9  C   UNL A   1      33.070  25.558  24.472  1.00  0.00     0.082 C 
ATOM     10  N   UNL A   1      34.580  23.205  24.928  1.00  0.00    -0.353 N 
ATOM     11  C   UNL A   1      34.005  23.822  26.103  1.00  0.00     0.119 C 
ATOM     12  C   UNL A   1      35.015  24.046  23.831  1.00  0.00     0.119 C 
ATOM     13  C   UNL A   1      32.827  24.709  25.730  1.00  0.00     0.035 C 
ATOM     14  C   UNL A   1      33.836  24.868  23.332  1.00  0.00     0.035 C 
BRANCH  10  15
ATOM     15  C   UNL A   1      34.645  21.826  24.826  1.00  0.00     0.172 A 
ATOM     16  C   UNL A   1      35.837  21.117  25.129  1.00  0.00     0.167 A 
ATOM     17  N   UNL A   1      35.936  19.780  25.019  1.00  0.00    -0.226 NA
ATOM     18  C   UNL A   1      34.834  19.128  24.615  1.00  0.00     0.091 A 
ATOM     19  N   UNL A   1      33.528  21.158  24.453  1.00  0.00    -0.225 NA
ATOM     20  C   UNL A   1      34.884  17.746  24.477  1.00  0.00     0.031 A 
ATOM     21  C   UNL A   1      33.627  19.814  24.328  1.00  0.00     0.091 A 
ATOM     22  C   UNL A   1      33.776  17.018  24.050  1.00  0.00     0.002 A 
ATOM     23  C   UNL A   1      32.529  19.073  23.901  1.00  0.00     0.031 A 
ATOM     24  C   UNL A   1      32.595  17.684  23.756  1.00  0.00     0.002 A 
BRANCH  16  25
ATOM     25  N   UNL A   1      36.988  21.761  25.575  1.00  0.00    -0.381 N 
ATOM     26  H   UNL A   1      37.573  21.324  26.236  1.00  0.00     0.158 HD
ATOM     27  H   UNL A   1      37.218  22.654  25.229  1.00  0.00     0.158 HD
ENDBRANCH  16  25
ENDBRANCH  10  15
ENDBRANCH   6   9
ENDBRANCH   4   5
ENDBRANCH   3   4
ENDBRANCH   2   3
ENDBRANCH   1   2
BRANCH   1  28
ATOM     28  C   UNL A   1      31.830  31.649  26.866  1.00  0.00     0.021 C 
BRANCH  28  29
ATOM     29  C   UNL A   1      32.983  32.443  27.469  1.00  0.00     0.116 C 
BRANCH  29  30
ATOM     30  N   UNL A   1      32.637  33.833  27.725  1.00  0.00    -0.352 N 
ATOM     31  C   UNL A   1      33.190  34.708  28.631  1.00  0.00     0.251 C 
ATOM     32  H   UNL A   1      31.906  34.197  27.174  1.00  0.00     0.163 HD
ATOM     33  O   UNL A   1      32.681  35.810  28.814  1.00  0.00    -0.269 OA
BRANCH  31  34
ATOM     34  C   UNL A   1      34.378  34.291  29.408  1.00  0.00     0.039 A 
ATOM     35  C   UNL A   1      35.663  34.484  28.896  1.00  0.00     0.014 A 
ATOM     36  C   UNL A   1      34.198  33.654  30.638  1.00  0.00     0.014 A 
ATOM     37  C   UNL A   1      36.750  33.891  29.528  1.00  0.00     0.010 A 
ATOM     38  C   UNL A   1      35.304  33.129  31.314  1.00  0.00     0.010 A 
ATOM     39  C   UNL A   1      36.583  33.196  30.738  1.00  0.00    -0.014 A 
BRANCH  39  40
ATOM     40  C   UNL A   1      37.758  32.550  31.381  1.00  0.00     0.031 A 
ATOM     41  C   UNL A   1      38.230  32.984  32.742  1.00  0.00     0.074 A 
ATOM     42  C   UNL A   1      38.368  31.526  30.751  1.00  0.00     0.049 A 
ATOM     43  N   UNL A   1      39.209  32.501  33.465  1.00  0.00    -0.248 NA
ATOM     44  C   UNL A   1      37.518  34.104  33.376  1.00  0.00     0.031 C 
ATOM     45  C   UNL A   1      37.992  31.019  29.432  1.00  0.00     0.029 A 
ATOM     46  N   UNL A   1      39.408  30.718  31.136  1.00  0.00    -0.354 N 
ATOM     47  C   UNL A   1      39.239  33.264  34.627  1.00  0.00     0.074 A 
ATOM     48  C   UNL A   1      38.203  34.265  34.499  1.00  0.00     0.031 C 
ATOM     49  C   UNL A   1      38.751  29.954  29.139  1.00  0.00     0.029 A 
ATOM     50  C   UNL A   1      39.716  29.743  30.216  1.00  0.00     0.049 A 
ATOM     51  H   UNL A   1      39.889  30.826  31.988  1.00  0.00     0.167 HD
ATOM     52  C   UNL A   1      40.048  33.130  35.706  1.00  0.00     0.034 A 
ATOM     53  C   UNL A   1      40.671  28.790  30.226  1.00  0.00     0.034 A 
ATOM     54  C   UNL A   1      41.064  32.117  35.827  1.00  0.00     0.049 A 
ATOM     55  C   UNL A   1      41.576  28.681  31.424  1.00  0.00     0.074 A 
ATOM     56  C   UNL A   1      41.912  31.882  36.896  1.00  0.00     0.029 A 
ATOM     57  N   UNL A   1      41.373  31.172  34.859  1.00  0.00    -0.354 N 
ATOM     58  N   UNL A   1      41.559  29.381  32.535  1.00  0.00    -0.248 NA
ATOM     59  C   UNL A   1      42.631  27.659  31.378  1.00  0.00     0.031 C 
ATOM     60  C   UNL A   1      42.768  30.834  36.553  1.00  0.00     0.029 A 
ATOM     61  C   UNL A   1      42.414  30.369  35.297  1.00  0.00     0.049 A 
ATOM     62  H   UNL A   1      40.920  31.085  33.989  1.00  0.00     0.167 HD
ATOM     63  C   UNL A   1      42.588  28.875  33.323  1.00  0.00     0.074 A 
ATOM     64  C   UNL A   1      43.189  27.791  32.575  1.00  0.00     0.031 C 
ATOM     65  C   UNL A   1      43.002  29.281  34.550  1.00  0.00     0.034 A 
BRANCH  52  66
ATOM     66  C   UNL A   1      39.873  34.083  36.864  1.00  0.00     0.023 A 
ATOM     67  C   UNL A   1      39.304  33.631  38.070  1.00  0.00     0.031 A 
ATOM     68  C   UNL A   1      40.144  35.456  36.729  1.00  0.00     0.131 A 
ATOM     69  C   UNL A   1      38.998  34.549  39.083  1.00  0.00     0.055 A 
ATOM     70  C   UNL A   1      39.871  36.362  37.756  1.00  0.00     0.041 A 
ATOM     71  F   UNL A   1      40.685  35.936  35.597  1.00  0.00    -0.206 F 
ATOM     72  C   UNL A   1      39.283  35.911  38.934  1.00  0.00     0.022 A 
BRANCH  69  73
ATOM     73  S   UNL A   1      38.160  34.026  40.604  1.00  0.00     0.124 S 
ATOM     74  O   UNL A   1      37.006  33.301  40.074  1.00  0.00    -0.237 OA
ATOM     75  O   UNL A   1      39.177  33.195  41.243  1.00  0.00    -0.237 OA
ATOM     76  O   UNL A   1      37.849  35.278  41.282  1.00  0.00    -0.744 OA
ENDBRANCH  69  73
ENDBRANCH  52  66
BRANCH  53  77
ATOM     77  C   UNL A   1      40.765  27.848  29.073  1.00  0.00     0.023 A 
ATOM     78  C   UNL A   1      41.698  28.061  28.041  1.00  0.00     0.031 A 
ATOM     79  C   UNL A   1      39.844  26.799  28.924  1.00  0.00     0.131 A 
ATOM     80  C   UNL A   1      41.634  27.291  26.873  1.00  0.00     0.055 A 
ATOM     81  C   UNL A   1      39.833  25.985  27.791  1.00  0.00     0.041 A 
ATOM     82  F   UNL A   1      38.927  26.565  29.876  1.00  0.00    -0.206 F 
ATOM     83  C   UNL A   1      40.718  26.243  26.748  1.00  0.00     0.022 A 
BRANCH  80  84
ATOM     84  S   UNL A   1      42.631  27.724  25.420  1.00  0.00     0.124 S 
ATOM     85  O   UNL A   1      43.907  28.091  26.026  1.00  0.00    -0.237 OA
ATOM     86  O   UNL A   1      42.624  26.471  24.670  1.00  0.00    -0.237 OA
ATOM     87  O   UNL A   1      41.886  28.817  24.805  1.00  0.00    -0.744 OA
ENDBRANCH  80  84
ENDBRANCH  53  77
BRANCH  65  88
ATOM     88  C   UNL A   1      44.166  28.566  35.191  1.00  0.00     0.023 A 
ATOM     89  C   UNL A   1      43.934  27.556  36.145  1.00  0.00     0.031 A 
ATOM     90  C   UNL A   1      45.489  28.988  34.978  1.00  0.00     0.131 A 
ATOM     91  C   UNL A   1      45.005  27.032  36.879  1.00  0.00     0.055 A 
ATOM     92  C   UNL A   1      46.558  28.431  35.679  1.00  0.00     0.041 A 
ATOM     93  F   UNL A   1      45.760  29.956  34.086  1.00  0.00    -0.206 F 
ATOM     94  C   UNL A   1      46.317  27.458  36.646  1.00  0.00     0.022 A 
BRANCH  91  95
ATOM     95  S   UNL A   1      44.727  25.844  38.222  1.00  0.00     0.124 S 
ATOM     96  O   UNL A   1      43.831  24.878  37.590  1.00  0.00    -0.237 OA
ATOM     97  O   UNL A   1      46.079  25.359  38.488  1.00  0.00    -0.237 OA
ATOM     98  O   UNL A   1      44.128  26.646  39.284  1.00  0.00    -0.744 OA
ENDBRANCH  91  95
ENDBRANCH  65  88
ENDBRANCH  39  40
ENDBRANCH  31  34
ENDBRANCH  29  30
ENDBRANCH  28  29
ENDBRANCH   1  28
TORSDOF 18
ENDMDL
MODEL 3
REMARK VINA RESULT:     -11.6      5.284     10.392
REMARK SMILES Nc1nc2ccccc2nc1N1CCC(C(=O)NCCCCCCNC(=O)c2ccc(-c3c4nc(c(-c5cc(S(=O)(=O)[O-])ccc5F)c5ccc([nH]5)c(-c5cc(S(=O)(=O)[O-])ccc5F)c5nc(c(-c6cc(S(=O)(=O)[O-])ccc6F)c6ccc3[nH]6)C=C5)C=C4)cc2)CC1
REMARK SMILES IDX 22 1 21 2 20 3 19 4 18 5 16 6 17 7 15 9 12 10 13 11 92 12
REMARK SMILES IDX 14 13 91 14 11 15 2 16 3 17 4 18 10 19 5 20 9 21 6 22 8 23
REMARK SMILES IDX 7 24 1 25 23 28 24 29 25 30 26 31 27 33 28 34 29 35 90 36
REMARK SMILES IDX 30 37 89 38 31 39 32 40 33 41 83 42 34 43 88 44 82 45 84 46
REMARK SMILES IDX 35 47 87 48 81 49 80 50 36 52 68 53 48 54 67 55 49 56 52 57
REMARK SMILES IDX 66 58 85 59 50 60 51 61 65 63 86 64 53 65 37 66 38 67 46 68
REMARK SMILES IDX 39 69 45 70 47 71 44 72 40 73 41 74 42 75 43 76 69 77 70 78
REMARK SMILES IDX 78 79 71 80 77 81 79 82 76 83 72 84 73 85 74 86 75 87 54 88
REMARK SMILES IDX 55 89 63 90 56 91 62 92 64 93 61 94 57 95 58 96 59 97 60 98
REMARK H PARENT 18 8 1 26 1 27 25 32 84 51 52 62
REMARK Flexibility Score: inf
ROOT
ATOM      1  C   UNL A   1      35.454  22.519  26.203  1.00  0.00     0.002 C 
ENDROOT
BRANCH   1   2
ATOM      2  C   UNL A   1      35.321  23.648  25.176  1.00  0.00     0.002 C 
BRANCH   2   3
ATOM      3  C   UNL A   1      35.026  25.035  25.757  1.00  0.00     0.021 C 
BRANCH   3   4
ATOM      4  C   UNL A   1      33.551  25.431  25.737  1.00  0.00     0.116 C 
BRANCH   4   5
ATOM      5  N   UNL A   1      33.314  26.552  24.841  1.00  0.00    -0.356 N 
ATOM      6  C   UNL A   1      32.785  26.598  23.589  1.00  0.00     0.223 C 
ATOM      7  O   UNL A   1      32.718  27.695  23.029  1.00  0.00    -0.275 OA
ATOM      8  H   UNL A   1      33.583  27.428  25.203  1.00  0.00     0.163 HD
BRANCH   6   9
ATOM      9  C   UNL A   1      32.260  25.349  22.893  1.00  0.00     0.082 C 
ATOM     10  N   UNL A   1      31.940  22.535  22.951  1.00  0.00    -0.353 N 
ATOM     11  C   UNL A   1      32.937  23.037  22.031  1.00  0.00     0.119 C 
ATOM     12  C   UNL A   1      30.749  23.323  23.200  1.00  0.00     0.119 C 
ATOM     13  C   UNL A   1      33.403  24.426  22.439  1.00  0.00     0.035 C 
ATOM     14  C   UNL A   1      31.156  24.690  23.733  1.00  0.00     0.035 C 
BRANCH  10  15
ATOM     15  C   UNL A   1      32.157  21.354  23.639  1.00  0.00     0.172 A 
ATOM     16  C   UNL A   1      32.115  21.305  25.058  1.00  0.00     0.167 A 
ATOM     17  N   UNL A   1      32.341  20.177  25.754  1.00  0.00    -0.226 NA
ATOM     18  C   UNL A   1      32.602  19.072  25.037  1.00  0.00     0.091 A 
ATOM     19  N   UNL A   1      32.384  20.228  22.923  1.00  0.00    -0.225 NA
ATOM     20  C   UNL A   1      32.850  17.881  25.708  1.00  0.00     0.031 A 
ATOM     21  C   UNL A   1      32.626  19.093  23.620  1.00  0.00     0.091 A 
ATOM     22  C   UNL A   1      33.138  16.705  25.017  1.00  0.00     0.002 A 
ATOM     23  C   UNL A   1      32.916  17.911  22.945  1.00  0.00     0.031 A 
ATOM     24  C   UNL A   1      33.175  16.720  23.630  1.00  0.00     0.002 A 
BRANCH  16  25
ATOM     25  N   UNL A   1      31.823  22.428  25.828  1.00  0.00    -0.381 N 
ATOM     26  H   UNL A   1      32.380  23.237  25.752  1.00  0.00     0.158 HD
ATOM     27  H   UNL A   1      31.059  22.414  26.450  1.00  0.00     0.158 HD
ENDBRANCH  16  25
ENDBRANCH  10  15
ENDBRANCH   6   9
ENDBRANCH   4   5
ENDBRANCH   3   4
ENDBRANCH   2   3
ENDBRANCH   1   2
BRANCH   1  28
ATOM     28  C   UNL A   1      35.974  21.188  25.654  1.00  0.00     0.021 C 
BRANCH  28  29
ATOM     29  C   UNL A   1      37.270  21.281  24.857  1.00  0.00     0.116 C 
BRANCH  29  30
ATOM     30  N   UNL A   1      38.220  20.235  25.203  1.00  0.00    -0.352 N 
ATOM     31  C   UNL A   1      39.430  20.346  25.849  1.00  0.00     0.251 C 
ATOM     32  H   UNL A   1      37.962  19.322  24.938  1.00  0.00     0.163 HD
ATOM     33  O   UNL A   1      40.174  19.374  25.936  1.00  0.00    -0.269 OA
BRANCH  31  34
ATOM     34  C   UNL A   1      39.839  21.657  26.400  1.00  0.00     0.039 A 
ATOM     35  C   UNL A   1      39.261  22.837  25.925  1.00  0.00     0.014 A 
ATOM     36  C   UNL A   1      40.846  21.706  27.366  1.00  0.00     0.014 A 
ATOM     37  C   UNL A   1      39.807  24.063  26.286  1.00  0.00     0.010 A 
ATOM     38  C   UNL A   1      41.339  22.944  27.790  1.00  0.00     0.010 A 
ATOM     39  C   UNL A   1      40.861  24.131  27.214  1.00  0.00    -0.014 A 
BRANCH  39  40
ATOM     40  C   UNL A   1      41.444  25.454  27.565  1.00  0.00     0.031 A 
ATOM     41  C   UNL A   1      42.796  25.864  27.047  1.00  0.00     0.074 A 
ATOM     42  C   UNL A   1      40.721  26.311  28.312  1.00  0.00     0.049 A 
ATOM     43  N   UNL A   1      43.434  26.993  27.218  1.00  0.00    -0.248 NA
ATOM     44  C   UNL A   1      43.530  24.882  26.232  1.00  0.00     0.031 C 
ATOM     45  C   UNL A   1      39.398  26.021  28.863  1.00  0.00     0.029 A 
ATOM     46  N   UNL A   1      40.979  27.596  28.718  1.00  0.00    -0.354 N 
ATOM     47  C   UNL A   1      44.646  26.855  26.550  1.00  0.00     0.074 A 
ATOM     48  C   UNL A   1      44.670  25.519  25.997  1.00  0.00     0.031 C 
ATOM     49  C   UNL A   1      38.935  27.112  29.489  1.00  0.00     0.029 A 
ATOM     50  C   UNL A   1      39.955  28.158  29.446  1.00  0.00     0.049 A 
ATOM     51  H   UNL A   1      41.815  28.071  28.509  1.00  0.00     0.167 HD
ATOM     52  C   UNL A   1      45.638  27.765  26.400  1.00  0.00     0.034 A 
ATOM     53  C   UNL A   1      39.846  29.372  30.024  1.00  0.00     0.034 A 
ATOM     54  C   UNL A   1      45.593  29.099  26.941  1.00  0.00     0.049 A 
ATOM     55  C   UNL A   1      40.976  30.355  29.868  1.00  0.00     0.074 A 
ATOM     56  C   UNL A   1      46.536  30.104  26.815  1.00  0.00     0.029 A 
ATOM     57  N   UNL A   1      44.557  29.619  27.705  1.00  0.00    -0.354 N 
ATOM     58  N   UNL A   1      42.093  30.224  29.192  1.00  0.00    -0.248 NA
ATOM     59  C   UNL A   1      40.838  31.649  30.549  1.00  0.00     0.031 C 
ATOM     60  C   UNL A   1      46.099  31.209  27.547  1.00  0.00     0.029 A 
ATOM     61  C   UNL A   1      44.851  30.921  28.077  1.00  0.00     0.049 A 
ATOM     62  H   UNL A   1      43.736  29.134  27.949  1.00  0.00     0.167 HD
ATOM     63  C   UNL A   1      42.784  31.421  29.355  1.00  0.00     0.074 A 
ATOM     64  C   UNL A   1      41.945  32.276  30.168  1.00  0.00     0.031 C 
ATOM     65  C   UNL A   1      44.005  31.773  28.880  1.00  0.00     0.034 A 
BRANCH  52  66
ATOM     66  C   UNL A   1      46.862  27.377  25.607  1.00  0.00     0.023 A 
ATOM     67  C   UNL A   1      47.014  27.823  24.280  1.00  0.00     0.031 A 
ATOM     68  C   UNL A   1      47.804  26.466  26.115  1.00  0.00     0.131 A 
ATOM     69  C   UNL A   1      48.068  27.333  23.498  1.00  0.00     0.055 A 
ATOM     70  C   UNL A   1      48.874  26.009  25.343  1.00  0.00     0.041 A 
ATOM     71  F   UNL A   1      47.702  26.010  27.375  1.00  0.00    -0.206 F 
ATOM     72  C   UNL A   1      49.001  26.433  24.024  1.00  0.00     0.022 A 
BRANCH  69  73
ATOM     73  S   UNL A   1      48.233  27.792  21.750  1.00  0.00     0.124 S 
ATOM     74  O   UNL A   1      46.955  28.456  21.495  1.00  0.00    -0.237 OA
ATOM     75  O   UNL A   1      49.398  28.671  21.774  1.00  0.00    -0.237 OA
ATOM     76  O   UNL A   1      48.416  26.517  21.068  1.00  0.00    -0.744 OA
ENDBRANCH  69  73
ENDBRANCH  52  66
BRANCH  53  77
ATOM     77  C   UNL A   1      38.592  29.715  30.756  1.00  0.00     0.023 A 
ATOM     78  C   UNL A   1      37.606  30.521  30.159  1.00  0.00     0.031 A 
ATOM     79  C   UNL A   1      38.422  29.349  32.101  1.00  0.00     0.131 A 
ATOM     80  C   UNL A   1      36.538  31.001  30.929  1.00  0.00     0.055 A 
ATOM     81  C   UNL A   1      37.317  29.768  32.843  1.00  0.00     0.041 A 
ATOM     82  F   UNL A   1      39.343  28.591  32.718  1.00  0.00    -0.206 F 
ATOM     83  C   UNL A   1      36.378  30.616  32.263  1.00  0.00     0.022 A 
BRANCH  80  84
ATOM     84  S   UNL A   1      35.412  32.261  30.268  1.00  0.00     0.124 S 
ATOM     85  O   UNL A   1      34.894  31.609  29.071  1.00  0.00    -0.237 OA
ATOM     86  O   UNL A   1      34.461  32.416  31.367  1.00  0.00    -0.237 OA
ATOM     87  O   UNL A   1      36.281  33.411  30.037  1.00  0.00    -0.744 OA
ENDBRANCH  80  84
ENDBRANCH  53  77
BRANCH  65  88
ATOM     88  C   UNL A   1      44.540  33.144  29.215  1.00  0.00     0.023 A 
ATOM     89  C   UNL A   1      44.198  34.250  28.414  1.00  0.00     0.031 A 
ATOM     90  C   UNL A   1      45.505  33.324  30.222  1.00  0.00     0.131 A 
ATOM     91  C   UNL A   1      44.846  35.477  28.606  1.00  0.00     0.055 A 
ATOM     92  C   UNL A   1      46.114  34.560  30.439  1.00  0.00     0.041 A 
ATOM     93  F   UNL A   1      45.872  32.297  31.005  1.00  0.00    -0.206 F 
ATOM     94  C   UNL A   1      45.796  35.640  29.619  1.00  0.00     0.022 A 
BRANCH  91  95
ATOM     95  S   UNL A   1      44.544  36.878  27.494  1.00  0.00     0.124 S 
ATOM     96  O   UNL A   1      45.851  37.051  26.865  1.00  0.00    -0.237 OA
ATOM     97  O   UNL A   1      43.494  36.358  26.621  1.00  0.00    -0.237 OA
ATOM     98  O   UNL A   1      44.137  37.957  28.390  1.00  0.00    -0.744 OA
ENDBRANCH  91  95
ENDBRANCH  65  88
ENDBRANCH  39  40
ENDBRANCH  31  34
ENDBRANCH  29  30
ENDBRANCH  28  29
ENDBRANCH   1  28
TORSDOF 18
ENDMDL
