MODEL 1
REMARK VINA RESULT:     -12.6      0.000      0.000
REMARK SMILES Cc1ccc(C[C@@H](Cc2cc(F)cc(Br)c2)C(=O)NCCCCCCNC(=O)c2ccc(-c3c4nc(c(-c5cc(S(=O)(=O)[O-])ccc5F)c5ccc([nH]5)c(-c5cc(S(=O)(=O)[O-])ccc5F)c5nc(c(-c6cc(S(=O)(=O)[O-])ccc6F)c6ccc3[nH]6)C=C5)C=C4)cc2)cc1
REMARK SMILES IDX 23 1 22 2 21 3 20 4 19 5 17 6 18 7 7 9 6 10 5 11 1 12 2 13
REMARK SMILES IDX 3 14 93 15 4 16 92 17 8 18 9 19 10 20 16 21 11 22 14 23
REMARK SMILES IDX 12 24 13 25 15 26 24 27 25 28 26 29 27 30 28 32 29 33 30 34
REMARK SMILES IDX 91 35 31 36 90 37 32 38 33 39 34 40 84 41 35 42 89 43 83 44
REMARK SMILES IDX 85 45 36 46 88 47 82 48 81 49 37 51 69 52 49 53 68 54 50 55
REMARK SMILES IDX 53 56 67 57 86 58 51 59 52 60 66 62 87 63 54 64 38 65 39 66
REMARK SMILES IDX 47 67 40 68 46 69 48 70 45 71 41 72 42 73 43 74 44 75 70 76
REMARK SMILES IDX 71 77 79 78 72 79 78 80 80 81 77 82 73 83 74 84 75 85 76 86
REMARK SMILES IDX 55 87 56 88 64 89 57 90 63 91 65 92 62 93 58 94 59 95 60 96
REMARK SMILES IDX 61 97
REMARK H PARENT 19 8 26 31 85 50 53 61
REMARK Flexibility Score: inf
ROOT
ATOM      1  C   UNL A   1      36.861  21.604  24.531  1.00  0.00     0.002 C 
ENDROOT
BRANCH   1   2
ATOM      2  C   UNL A   1      36.697  22.967  23.835  1.00  0.00     0.002 C 
BRANCH   2   3
ATOM      3  C   UNL A   1      35.667  23.927  24.442  1.00  0.00     0.021 C 
BRANCH   3   4
ATOM      4  C   UNL A   1      35.230  23.570  25.857  1.00  0.00     0.116 C 
BRANCH   4   5
ATOM      5  N   UNL A   1      33.864  23.974  26.130  1.00  0.00    -0.356 N 
ATOM      6  C   UNL A   1      32.708  23.659  25.488  1.00  0.00     0.223 C 
ATOM      7  O   UNL A   1      31.641  24.009  26.001  1.00  0.00    -0.275 OA
ATOM      8  H   UNL A   1      33.757  24.571  26.906  1.00  0.00     0.163 HD
BRANCH   6   9
ATOM      9  C   UNL A   1      32.696  22.918  24.155  1.00  0.00     0.087 C 
BRANCH   9  10
ATOM     10  C   UNL A   1      31.813  21.656  24.350  1.00  0.00     0.049 C 
BRANCH  10  11
ATOM     11  C   UNL A   1      32.424  20.283  24.170  1.00  0.00    -0.047 A 
ATOM     12  C   UNL A   1      34.460  16.572  23.263  1.00  0.00     0.044 C 
ATOM     13  C   UNL A   1      33.738  17.846  23.578  1.00  0.00    -0.051 A 
ATOM     14  C   UNL A   1      34.188  18.663  24.618  1.00  0.00     0.004 A 
ATOM     15  C   UNL A   1      32.615  18.245  22.847  1.00  0.00     0.004 A 
ATOM     16  C   UNL A   1      33.550  19.873  24.897  1.00  0.00     0.004 A 
ATOM     17  C   UNL A   1      31.965  19.448  23.142  1.00  0.00     0.004 A 
ENDBRANCH  10  11
ENDBRANCH   9  10
BRANCH   9  18
ATOM     18  C   UNL A   1      32.374  23.759  22.898  1.00  0.00     0.049 C 
BRANCH  18  19
ATOM     19  C   UNL A   1      32.227  25.269  22.889  1.00  0.00    -0.043 A 
ATOM     20  C   UNL A   1      33.378  26.020  22.578  1.00  0.00     0.043 A 
ATOM     21  C   UNL A   1      31.037  25.969  23.124  1.00  0.00     0.019 A 
ATOM     22  C   UNL A   1      33.307  27.398  22.400  1.00  0.00     0.124 A 
ATOM     23  C   UNL A   1      30.975  27.353  22.900  1.00  0.00     0.021 A 
ATOM     24  F   UNL A   1      34.416  28.074  22.073  1.00  0.00    -0.207 F 
ATOM     25  C   UNL A   1      32.105  28.072  22.525  1.00  0.00     0.055 A 
ATOM     26  Br  UNL A   1      29.319  28.252  23.059  1.00  0.00    -0.051 Br
ENDBRANCH  18  19
ENDBRANCH   9  18
ENDBRANCH   6   9
ENDBRANCH   4   5
ENDBRANCH   3   4
ENDBRANCH   2   3
ENDBRANCH   1   2
BRANCH   1  27
ATOM     27  C   UNL A   1      38.144  21.403  25.342  1.00  0.00     0.021 C 
BRANCH  27  28
ATOM     28  C   UNL A   1      38.659  22.670  26.013  1.00  0.00     0.116 C 
BRANCH  28  29
ATOM     29  N   UNL A   1      40.096  22.714  26.219  1.00  0.00    -0.352 N 
ATOM     30  C   UNL A   1      40.912  23.804  26.484  1.00  0.00     0.251 C 
ATOM     31  H   UNL A   1      40.558  21.846  26.161  1.00  0.00     0.163 HD
ATOM     32  O   UNL A   1      42.123  23.694  26.473  1.00  0.00    -0.269 OA
BRANCH  30  33
ATOM     33  C   UNL A   1      40.289  25.087  26.912  1.00  0.00     0.039 A 
ATOM     34  C   UNL A   1      40.687  26.247  26.232  1.00  0.00     0.014 A 
ATOM     35  C   UNL A   1      39.512  25.188  28.062  1.00  0.00     0.014 A 
ATOM     36  C   UNL A   1      40.506  27.493  26.828  1.00  0.00     0.010 A 
ATOM     37  C   UNL A   1      39.414  26.409  28.700  1.00  0.00     0.010 A 
ATOM     38  C   UNL A   1      39.963  27.551  28.111  1.00  0.00    -0.014 A 
BRANCH  38  39
ATOM     39  C   UNL A   1      40.049  28.730  28.964  1.00  0.00     0.031 A 
ATOM     40  C   UNL A   1      38.976  29.742  28.972  1.00  0.00     0.074 A 
ATOM     41  C   UNL A   1      41.100  28.871  29.801  1.00  0.00     0.049 A 
ATOM     42  N   UNL A   1      39.155  30.979  29.286  1.00  0.00    -0.248 NA
ATOM     43  C   UNL A   1      37.603  29.436  28.589  1.00  0.00     0.031 C 
ATOM     44  C   UNL A   1      41.244  29.827  30.894  1.00  0.00     0.029 A 
ATOM     45  N   UNL A   1      42.366  28.312  29.658  1.00  0.00    -0.354 N 
ATOM     46  C   UNL A   1      37.916  31.556  29.431  1.00  0.00     0.074 A 
ATOM     47  C   UNL A   1      36.985  30.575  28.919  1.00  0.00     0.031 C 
ATOM     48  C   UNL A   1      42.550  29.985  31.161  1.00  0.00     0.029 A 
ATOM     49  C   UNL A   1      43.292  29.244  30.157  1.00  0.00     0.049 A 
ATOM     50  H   UNL A   1      42.575  27.429  29.279  1.00  0.00     0.167 HD
ATOM     51  C   UNL A   1      37.795  32.738  30.098  1.00  0.00     0.034 A 
ATOM     52  C   UNL A   1      44.264  29.762  29.353  1.00  0.00     0.034 A 
ATOM     53  C   UNL A   1      39.090  33.243  30.547  1.00  0.00     0.049 A 
ATOM     54  C   UNL A   1      44.183  31.265  29.200  1.00  0.00     0.074 A 
ATOM     55  C   UNL A   1      39.739  33.212  31.770  1.00  0.00     0.029 A 
ATOM     56  N   UNL A   1      40.038  33.642  29.611  1.00  0.00    -0.354 N 
ATOM     57  N   UNL A   1      43.133  31.978  29.503  1.00  0.00    -0.248 NA
ATOM     58  C   UNL A   1      45.276  32.080  28.684  1.00  0.00     0.031 C 
ATOM     59  C   UNL A   1      41.100  33.553  31.556  1.00  0.00     0.029 A 
ATOM     60  C   UNL A   1      41.270  33.820  30.209  1.00  0.00     0.049 A 
ATOM     61  H   UNL A   1      39.855  33.779  28.653  1.00  0.00     0.167 HD
ATOM     62  C   UNL A   1      43.376  33.304  29.229  1.00  0.00     0.074 A 
ATOM     63  C   UNL A   1      44.743  33.313  28.739  1.00  0.00     0.031 C 
ATOM     64  C   UNL A   1      42.420  34.265  29.429  1.00  0.00     0.034 A 
BRANCH  51  65
ATOM     65  C   UNL A   1      36.476  33.270  30.609  1.00  0.00     0.023 A 
ATOM     66  C   UNL A   1      35.610  33.946  29.725  1.00  0.00     0.031 A 
ATOM     67  C   UNL A   1      36.033  33.181  31.941  1.00  0.00     0.131 A 
ATOM     68  C   UNL A   1      34.443  34.583  30.183  1.00  0.00     0.055 A 
ATOM     69  C   UNL A   1      34.904  33.865  32.412  1.00  0.00     0.041 A 
ATOM     70  F   UNL A   1      36.652  32.392  32.832  1.00  0.00    -0.206 F 
ATOM     71  C   UNL A   1      34.109  34.586  31.533  1.00  0.00     0.022 A 
BRANCH  68  72
ATOM     72  S   UNL A   1      33.362  35.409  28.982  1.00  0.00     0.124 S 
ATOM     73  O   UNL A   1      34.317  36.121  28.139  1.00  0.00    -0.237 OA
ATOM     74  O   UNL A   1      32.671  34.283  28.364  1.00  0.00    -0.237 OA
ATOM     75  O   UNL A   1      32.520  36.265  29.817  1.00  0.00    -0.744 OA
ENDBRANCH  68  72
ENDBRANCH  51  65
BRANCH  52  76
ATOM     76  C   UNL A   1      44.738  28.795  28.319  1.00  0.00     0.023 A 
ATOM     77  C   UNL A   1      45.551  27.731  28.767  1.00  0.00     0.031 A 
ATOM     78  C   UNL A   1      44.093  28.654  27.083  1.00  0.00     0.131 A 
ATOM     79  C   UNL A   1      45.556  26.509  28.082  1.00  0.00     0.055 A 
ATOM     80  C   UNL A   1      44.162  27.454  26.364  1.00  0.00     0.041 A 
ATOM     81  F   UNL A   1      43.283  29.618  26.620  1.00  0.00    -0.206 F 
ATOM     82  C   UNL A   1      44.854  26.359  26.885  1.00  0.00     0.022 A 
BRANCH  79  83
ATOM     83  S   UNL A   1      46.241  25.038  28.911  1.00  0.00     0.124 S 
ATOM     84  O   UNL A   1      47.168  25.633  29.867  1.00  0.00    -0.237 OA
ATOM     85  O   UNL A   1      45.056  24.402  29.486  1.00  0.00    -0.237 OA
ATOM     86  O   UNL A   1      46.852  24.287  27.817  1.00  0.00    -0.744 OA
ENDBRANCH  79  83
ENDBRANCH  52  76
BRANCH  64  87
ATOM     87  C   UNL A   1      42.484  35.724  29.003  1.00  0.00     0.023 A 
ATOM     88  C   UNL A   1      43.217  36.708  29.680  1.00  0.00     0.031 A 
ATOM     89  C   UNL A   1      41.833  36.168  27.820  1.00  0.00     0.131 A 
ATOM     90  C   UNL A   1      43.230  38.048  29.243  1.00  0.00     0.055 A 
ATOM     91  C   UNL A   1      41.906  37.483  27.348  1.00  0.00     0.041 A 
ATOM     92  F   UNL A   1      41.102  35.343  27.057  1.00  0.00    -0.206 F 
ATOM     93  C   UNL A   1      42.597  38.440  28.069  1.00  0.00     0.022 A 
BRANCH  90  94
ATOM     94  S   UNL A   1      44.056  39.281  30.284  1.00  0.00     0.124 S 
ATOM     95  O   UNL A   1      43.101  40.387  30.253  1.00  0.00    -0.237 OA
ATOM     96  O   UNL A   1      44.177  38.584  31.559  1.00  0.00    -0.237 OA
ATOM     97  O   UNL A   1      45.318  39.532  29.589  1.00  0.00    -0.744 OA
ENDBRANCH  90  94
ENDBRANCH  64  87
ENDBRANCH  38  39
ENDBRANCH  30  33
ENDBRANCH  28  29
ENDBRANCH  27  28
ENDBRANCH   1  27
TORSDOF 20
ENDMDL
MODEL 2
REMARK VINA RESULT:     -12.3      2.874      4.580
REMARK SMILES Cc1ccc(C[C@@H](Cc2cc(F)cc(Br)c2)C(=O)NCCCCCCNC(=O)c2ccc(-c3c4nc(c(-c5cc(S(=O)(=O)[O-])ccc5F)c5ccc([nH]5)c(-c5cc(S(=O)(=O)[O-])ccc5F)c5nc(c(-c6cc(S(=O)(=O)[O-])ccc6F)c6ccc3[nH]6)C=C5)C=C4)cc2)cc1
REMARK SMILES IDX 23 1 22 2 21 3 20 4 19 5 17 6 18 7 7 9 6 10 5 11 1 12 2 13
REMARK SMILES IDX 3 14 93 15 4 16 92 17 8 18 9 19 10 20 16 21 11 22 14 23
REMARK SMILES IDX 12 24 13 25 15 26 24 27 25 28 26 29 27 30 28 32 29 33 30 34
REMARK SMILES IDX 91 35 31 36 90 37 32 38 33 39 34 40 84 41 35 42 89 43 83 44
REMARK SMILES IDX 85 45 36 46 88 47 82 48 81 49 37 51 69 52 49 53 68 54 50 55
REMARK SMILES IDX 53 56 67 57 86 58 51 59 52 60 66 62 87 63 54 64 38 65 39 66
REMARK SMILES IDX 47 67 40 68 46 69 48 70 45 71 41 72 42 73 43 74 44 75 70 76
REMARK SMILES IDX 71 77 79 78 72 79 78 80 80 81 77 82 73 83 74 84 75 85 76 86
REMARK SMILES IDX 55 87 56 88 64 89 57 90 63 91 65 92 62 93 58 94 59 95 60 96
REMARK SMILES IDX 61 97
REMARK H PARENT 19 8 26 31 85 50 53 61
REMARK Flexibility Score: inf
ROOT
ATOM      1  C   UNL A   1      36.556  21.274  24.450  1.00  0.00     0.002 C 
ENDROOT
BRANCH   1   2
ATOM      2  C   UNL A   1      36.386  22.576  23.646  1.00  0.00     0.002 C 
BRANCH   2   3
ATOM      3  C   UNL A   1      34.947  23.024  23.363  1.00  0.00     0.021 C 
BRANCH   3   4
ATOM      4  C   UNL A   1      34.723  24.527  23.464  1.00  0.00     0.116 C 
BRANCH   4   5
ATOM      5  N   UNL A   1      33.576  24.966  22.693  1.00  0.00    -0.356 N 
ATOM      6  C   UNL A   1      32.319  25.294  23.094  1.00  0.00     0.223 C 
ATOM      7  O   UNL A   1      31.550  25.786  22.263  1.00  0.00    -0.275 OA
ATOM      8  H   UNL A   1      33.733  25.039  21.723  1.00  0.00     0.163 HD
BRANCH   6   9
ATOM      9  C   UNL A   1      31.832  25.047  24.518  1.00  0.00     0.087 C 
BRANCH   9  10
ATOM     10  C   UNL A   1      30.918  26.246  24.894  1.00  0.00     0.049 C 
BRANCH  10  11
ATOM     11  C   UNL A   1      31.530  27.492  25.497  1.00  0.00    -0.047 A 
ATOM     12  C   UNL A   1      33.693  30.744  27.362  1.00  0.00     0.044 C 
ATOM     13  C   UNL A   1      32.927  29.625  26.725  1.00  0.00    -0.051 A 
ATOM     14  C   UNL A   1      33.002  29.427  25.344  1.00  0.00     0.004 A 
ATOM     15  C   UNL A   1      32.134  28.762  27.487  1.00  0.00     0.004 A 
ATOM     16  C   UNL A   1      32.327  28.363  24.742  1.00  0.00     0.004 A 
ATOM     17  C   UNL A   1      31.442  27.710  26.878  1.00  0.00     0.004 A 
ENDBRANCH  10  11
ENDBRANCH   9  10
BRANCH   9  18
ATOM     18  C   UNL A   1      31.241  23.650  24.817  1.00  0.00     0.049 C 
BRANCH  18  19
ATOM     19  C   UNL A   1      32.069  22.421  25.145  1.00  0.00    -0.043 A 
ATOM     20  C   UNL A   1      32.908  22.500  26.274  1.00  0.00     0.043 A 
ATOM     21  C   UNL A   1      32.034  21.209  24.443  1.00  0.00     0.019 A 
ATOM     22  C   UNL A   1      33.589  21.380  26.740  1.00  0.00     0.124 A 
ATOM     23  C   UNL A   1      32.695  20.080  24.950  1.00  0.00     0.021 A 
ATOM     24  F   UNL A   1      34.352  21.485  27.835  1.00  0.00    -0.207 F 
ATOM     25  C   UNL A   1      33.465  20.155  26.105  1.00  0.00     0.055 A 
ATOM     26  Br  UNL A   1      32.497  18.413  24.079  1.00  0.00    -0.051 Br
ENDBRANCH  18  19
ENDBRANCH   9  18
ENDBRANCH   6   9
ENDBRANCH   4   5
ENDBRANCH   3   4
ENDBRANCH   2   3
ENDBRANCH   1   2
BRANCH   1  27
ATOM     27  C   UNL A   1      37.960  20.983  24.985  1.00  0.00     0.021 C 
BRANCH  27  28
ATOM     28  C   UNL A   1      38.492  22.042  25.942  1.00  0.00     0.116 C 
BRANCH  28  29
ATOM     29  N   UNL A   1      39.931  22.026  26.134  1.00  0.00    -0.352 N 
ATOM     30  C   UNL A   1      40.794  23.083  26.392  1.00  0.00     0.251 C 
ATOM     31  H   UNL A   1      40.357  21.140  26.073  1.00  0.00     0.163 HD
ATOM     32  O   UNL A   1      41.999  22.923  26.369  1.00  0.00    -0.269 OA
BRANCH  30  33
ATOM     33  C   UNL A   1      40.229  24.390  26.824  1.00  0.00     0.039 A 
ATOM     34  C   UNL A   1      40.776  25.544  26.247  1.00  0.00     0.014 A 
ATOM     35  C   UNL A   1      39.351  24.500  27.899  1.00  0.00     0.014 A 
ATOM     36  C   UNL A   1      40.629  26.773  26.888  1.00  0.00     0.010 A 
ATOM     37  C   UNL A   1      39.281  25.695  28.588  1.00  0.00     0.010 A 
ATOM     38  C   UNL A   1      39.968  26.815  28.114  1.00  0.00    -0.014 A 
BRANCH  38  39
ATOM     39  C   UNL A   1      40.057  27.945  29.031  1.00  0.00     0.031 A 
ATOM     40  C   UNL A   1      39.187  29.124  28.871  1.00  0.00     0.074 A 
ATOM     41  C   UNL A   1      40.909  27.887  30.078  1.00  0.00     0.049 A 
ATOM     42  N   UNL A   1      39.491  30.307  29.285  1.00  0.00    -0.248 NA
ATOM     43  C   UNL A   1      37.899  29.066  28.189  1.00  0.00     0.031 C 
ATOM     44  C   UNL A   1      40.964  28.782  31.230  1.00  0.00     0.029 A 
ATOM     45  N   UNL A   1      42.068  27.124  30.175  1.00  0.00    -0.354 N 
ATOM     46  C   UNL A   1      38.360  31.083  29.198  1.00  0.00     0.074 A 
ATOM     47  C   UNL A   1      37.417  30.286  28.446  1.00  0.00     0.031 C 
ATOM     48  C   UNL A   1      42.189  28.710  31.775  1.00  0.00     0.029 A 
ATOM     49  C   UNL A   1      43.001  27.873  30.910  1.00  0.00     0.049 A 
ATOM     50  H   UNL A   1      42.208  26.226  29.799  1.00  0.00     0.167 HD
ATOM     51  C   UNL A   1      38.290  32.255  29.890  1.00  0.00     0.034 A 
ATOM     52  C   UNL A   1      44.196  28.234  30.361  1.00  0.00     0.034 A 
ATOM     53  C   UNL A   1      39.521  32.522  30.630  1.00  0.00     0.049 A 
ATOM     54  C   UNL A   1      44.395  29.732  30.279  1.00  0.00     0.074 A 
ATOM     55  C   UNL A   1      39.874  32.356  31.960  1.00  0.00     0.029 A 
ATOM     56  N   UNL A   1      40.702  32.773  29.940  1.00  0.00    -0.354 N 
ATOM     57  N   UNL A   1      43.434  30.608  30.395  1.00  0.00    -0.248 NA
ATOM     58  C   UNL A   1      45.692  30.358  30.054  1.00  0.00     0.031 C 
ATOM     59  C   UNL A   1      41.285  32.464  32.058  1.00  0.00     0.029 A 
ATOM     60  C   UNL A   1      41.786  32.725  30.794  1.00  0.00     0.049 A 
ATOM     61  H   UNL A   1      40.757  32.958  28.974  1.00  0.00     0.167 HD
ATOM     62  C   UNL A   1      43.943  31.878  30.254  1.00  0.00     0.074 A 
ATOM     63  C   UNL A   1      45.367  31.663  30.065  1.00  0.00     0.031 C 
ATOM     64  C   UNL A   1      43.135  32.984  30.301  1.00  0.00     0.034 A 
BRANCH  51  65
ATOM     65  C   UNL A   1      36.996  32.993  30.140  1.00  0.00     0.023 A 
ATOM     66  C   UNL A   1      36.501  33.104  31.456  1.00  0.00     0.031 A 
ATOM     67  C   UNL A   1      36.192  33.571  29.140  1.00  0.00     0.131 A 
ATOM     68  C   UNL A   1      35.234  33.653  31.721  1.00  0.00     0.055 A 
ATOM     69  C   UNL A   1      34.905  34.063  29.393  1.00  0.00     0.041 A 
ATOM     70  F   UNL A   1      36.639  33.722  27.884  1.00  0.00    -0.206 F 
ATOM     71  C   UNL A   1      34.411  34.092  30.689  1.00  0.00     0.022 A 
BRANCH  68  72
ATOM     72  S   UNL A   1      34.677  33.789  33.442  1.00  0.00     0.124 S 
ATOM     73  O   UNL A   1      33.300  33.313  33.363  1.00  0.00    -0.237 OA
ATOM     74  O   UNL A   1      35.620  32.923  34.142  1.00  0.00    -0.237 OA
ATOM     75  O   UNL A   1      34.820  35.216  33.733  1.00  0.00    -0.744 OA
ENDBRANCH  68  72
ENDBRANCH  51  65
BRANCH  52  76
ATOM     76  C   UNL A   1      44.720  27.222  29.397  1.00  0.00     0.023 A 
ATOM     77  C   UNL A   1      44.465  27.455  28.027  1.00  0.00     0.031 A 
ATOM     78  C   UNL A   1      45.763  26.349  29.732  1.00  0.00     0.131 A 
ATOM     79  C   UNL A   1      45.346  26.971  27.052  1.00  0.00     0.055 A 
ATOM     80  C   UNL A   1      46.598  25.807  28.745  1.00  0.00     0.041 A 
ATOM     81  F   UNL A   1      46.074  26.113  31.015  1.00  0.00    -0.206 F 
ATOM     82  C   UNL A   1      46.423  26.156  27.404  1.00  0.00     0.022 A 
BRANCH  79  83
ATOM     83  S   UNL A   1      45.250  27.652  25.365  1.00  0.00     0.124 S 
ATOM     84  O   UNL A   1      45.969  26.647  24.591  1.00  0.00    -0.237 OA
ATOM     85  O   UNL A   1      43.810  27.730  25.122  1.00  0.00    -0.237 OA
ATOM     86  O   UNL A   1      45.908  28.951  25.486  1.00  0.00    -0.744 OA
ENDBRANCH  79  83
ENDBRANCH  52  76
BRANCH  64  87
ATOM     87  C   UNL A   1      43.527  34.419  29.982  1.00  0.00     0.023 A 
ATOM     88  C   UNL A   1      42.993  35.160  28.919  1.00  0.00     0.031 A 
ATOM     89  C   UNL A   1      44.439  35.127  30.810  1.00  0.00     0.131 A 
ATOM     90  C   UNL A   1      43.402  36.484  28.666  1.00  0.00     0.055 A 
ATOM     91  C   UNL A   1      44.791  36.465  30.600  1.00  0.00     0.041 A 
ATOM     92  F   UNL A   1      45.027  34.559  31.872  1.00  0.00    -0.206 F 
ATOM     93  C   UNL A   1      44.282  37.151  29.512  1.00  0.00     0.022 A 
BRANCH  90  94
ATOM     94  S   UNL A   1      42.794  37.298  27.165  1.00  0.00     0.124 S 
ATOM     95  O   UNL A   1      43.687  38.450  27.066  1.00  0.00    -0.237 OA
ATOM     96  O   UNL A   1      42.977  36.265  26.153  1.00  0.00    -0.237 OA
ATOM     97  O   UNL A   1      41.403  37.618  27.484  1.00  0.00    -0.744 OA
ENDBRANCH  90  94
ENDBRANCH  64  87
ENDBRANCH  38  39
ENDBRANCH  30  33
ENDBRANCH  28  29
ENDBRANCH  27  28
ENDBRANCH   1  27
TORSDOF 20
ENDMDL
MODEL 3
REMARK VINA RESULT:     -11.9      4.049      9.499
REMARK SMILES Cc1ccc(C[C@@H](Cc2cc(F)cc(Br)c2)C(=O)NCCCCCCNC(=O)c2ccc(-c3c4nc(c(-c5cc(S(=O)(=O)[O-])ccc5F)c5ccc([nH]5)c(-c5cc(S(=O)(=O)[O-])ccc5F)c5nc(c(-c6cc(S(=O)(=O)[O-])ccc6F)c6ccc3[nH]6)C=C5)C=C4)cc2)cc1
REMARK SMILES IDX 23 1 22 2 21 3 20 4 19 5 17 6 18 7 7 9 6 10 5 11 1 12 2 13
REMARK SMILES IDX 3 14 93 15 4 16 92 17 8 18 9 19 10 20 16 21 11 22 14 23
REMARK SMILES IDX 12 24 13 25 15 26 24 27 25 28 26 29 27 30 28 32 29 33 30 34
REMARK SMILES IDX 91 35 31 36 90 37 32 38 33 39 34 40 84 41 35 42 89 43 83 44
REMARK SMILES IDX 85 45 36 46 88 47 82 48 81 49 37 51 69 52 49 53 68 54 50 55
REMARK SMILES IDX 53 56 67 57 86 58 51 59 52 60 66 62 87 63 54 64 38 65 39 66
REMARK SMILES IDX 47 67 40 68 46 69 48 70 45 71 41 72 42 73 43 74 44 75 70 76
REMARK SMILES IDX 71 77 79 78 72 79 78 80 80 81 77 82 73 83 74 84 75 85 76 86
REMARK SMILES IDX 55 87 56 88 64 89 57 90 63 91 65 92 62 93 58 94 59 95 60 96
REMARK SMILES IDX 61 97
REMARK H PARENT 19 8 26 31 85 50 53 61
REMARK Flexibility Score: inf
ROOT
ATOM      1  C   UNL A   1      33.140  29.928  27.225  1.00  0.00     0.002 C 
ENDROOT
BRANCH   1   2
ATOM      2  C   UNL A   1      33.268  28.889  26.096  1.00  0.00     0.002 C 
BRANCH   2   3
ATOM      3  C   UNL A   1      32.870  27.449  26.442  1.00  0.00     0.021 C 
BRANCH   3   4
ATOM      4  C   UNL A   1      33.512  26.388  25.559  1.00  0.00     0.116 C 
BRANCH   4   5
ATOM      5  N   UNL A   1      32.824  26.236  24.291  1.00  0.00    -0.356 N 
ATOM      6  C   UNL A   1      32.516  25.116  23.585  1.00  0.00     0.223 C 
ATOM      7  O   UNL A   1      31.787  25.231  22.595  1.00  0.00    -0.275 OA
ATOM      8  H   UNL A   1      32.532  27.080  23.875  1.00  0.00     0.163 HD
BRANCH   6   9
ATOM      9  C   UNL A   1      33.061  23.743  23.964  1.00  0.00     0.087 C 
BRANCH   9  10
ATOM     10  C   UNL A   1      31.951  22.710  23.625  1.00  0.00     0.049 C 
BRANCH  10  11
ATOM     11  C   UNL A   1      32.177  21.245  23.931  1.00  0.00    -0.047 A 
ATOM     12  C   UNL A   1      33.329  17.137  24.661  1.00  0.00     0.044 C 
ATOM     13  C   UNL A   1      32.913  18.552  24.399  1.00  0.00    -0.051 A 
ATOM     14  C   UNL A   1      32.865  19.470  25.451  1.00  0.00     0.004 A 
ATOM     15  C   UNL A   1      32.573  18.983  23.113  1.00  0.00     0.004 A 
ATOM     16  C   UNL A   1      32.519  20.802  25.216  1.00  0.00     0.004 A 
ATOM     17  C   UNL A   1      32.206  20.314  22.884  1.00  0.00     0.004 A 
ENDBRANCH  10  11
ENDBRANCH   9  10
BRANCH   9  18
ATOM     18  C   UNL A   1      34.472  23.388  23.441  1.00  0.00     0.049 C 
BRANCH  18  19
ATOM     19  C   UNL A   1      35.623  22.930  24.319  1.00  0.00    -0.043 A 
ATOM     20  C   UNL A   1      35.997  21.576  24.222  1.00  0.00     0.043 A 
ATOM     21  C   UNL A   1      36.362  23.751  25.179  1.00  0.00     0.019 A 
ATOM     22  C   UNL A   1      37.131  21.099  24.872  1.00  0.00     0.124 A 
ATOM     23  C   UNL A   1      37.525  23.263  25.795  1.00  0.00     0.021 A 
ATOM     24  F   UNL A   1      37.475  19.812  24.731  1.00  0.00    -0.207 F 
ATOM     25  C   UNL A   1      37.923  21.940  25.635  1.00  0.00     0.055 A 
ATOM     26  Br  UNL A   1      38.602  24.434  26.818  1.00  0.00    -0.051 Br
ENDBRANCH  18  19
ENDBRANCH   9  18
ENDBRANCH   6   9
ENDBRANCH   4   5
ENDBRANCH   3   4
ENDBRANCH   2   3
ENDBRANCH   1   2
BRANCH   1  27
ATOM     27  C   UNL A   1      34.445  30.379  27.886  1.00  0.00     0.021 C 
BRANCH  27  28
ATOM     28  C   UNL A   1      34.837  31.817  27.571  1.00  0.00     0.116 C 
BRANCH  28  29
ATOM     29  N   UNL A   1      34.118  32.828  28.326  1.00  0.00    -0.352 N 
ATOM     30  C   UNL A   1      34.473  33.455  29.512  1.00  0.00     0.251 C 
ATOM     31  H   UNL A   1      33.256  33.108  27.942  1.00  0.00     0.163 HD
ATOM     32  O   UNL A   1      33.683  34.167  30.101  1.00  0.00    -0.269 OA
BRANCH  30  33
ATOM     33  C   UNL A   1      35.877  33.351  29.994  1.00  0.00     0.039 A 
ATOM     34  C   UNL A   1      36.878  33.866  29.158  1.00  0.00     0.014 A 
ATOM     35  C   UNL A   1      36.226  32.597  31.110  1.00  0.00     0.014 A 
ATOM     36  C   UNL A   1      38.194  33.435  29.309  1.00  0.00     0.010 A 
ATOM     37  C   UNL A   1      37.508  32.093  31.206  1.00  0.00     0.010 A 
ATOM     38  C   UNL A   1      38.477  32.465  30.271  1.00  0.00    -0.014 A 
BRANCH  38  39
ATOM     39  C   UNL A   1      39.712  31.692  30.287  1.00  0.00     0.031 A 
ATOM     40  C   UNL A   1      39.759  30.323  29.740  1.00  0.00     0.074 A 
ATOM     41  C   UNL A   1      40.845  32.256  30.759  1.00  0.00     0.049 A 
ATOM     42  N   UNL A   1      40.601  29.423  30.119  1.00  0.00    -0.248 NA
ATOM     43  C   UNL A   1      38.822  29.848  28.729  1.00  0.00     0.031 C 
ATOM     44  C   UNL A   1      42.209  31.754  30.631  1.00  0.00     0.029 A 
ATOM     45  N   UNL A   1      40.944  33.300  31.674  1.00  0.00    -0.354 N 
ATOM     46  C   UNL A   1      40.521  28.377  29.230  1.00  0.00     0.074 A 
ATOM     47  C   UNL A   1      39.353  28.658  28.426  1.00  0.00     0.031 C 
ATOM     48  C   UNL A   1      42.963  32.296  31.600  1.00  0.00     0.029 A 
ATOM     49  C   UNL A   1      42.078  33.056  32.465  1.00  0.00     0.049 A 
ATOM     50  H   UNL A   1      40.332  34.067  31.752  1.00  0.00     0.167 HD
ATOM     51  C   UNL A   1      41.529  27.462  29.174  1.00  0.00     0.034 A 
ATOM     52  C   UNL A   1      41.968  32.896  33.815  1.00  0.00     0.034 A 
ATOM     53  C   UNL A   1      42.575  27.745  30.153  1.00  0.00     0.049 A 
ATOM     54  C   UNL A   1      42.437  31.543  34.302  1.00  0.00     0.074 A 
ATOM     55  C   UNL A   1      43.817  28.351  30.053  1.00  0.00     0.029 A 
ATOM     56  N   UNL A   1      42.296  27.645  31.511  1.00  0.00    -0.354 N 
ATOM     57  N   UNL A   1      42.615  30.505  33.531  1.00  0.00    -0.248 NA
ATOM     58  C   UNL A   1      42.735  31.252  35.700  1.00  0.00     0.031 C 
ATOM     59  C   UNL A   1      44.264  28.658  31.365  1.00  0.00     0.029 A 
ATOM     60  C   UNL A   1      43.309  28.211  32.261  1.00  0.00     0.049 A 
ATOM     61  H   UNL A   1      41.486  27.229  31.887  1.00  0.00     0.167 HD
ATOM     62  C   UNL A   1      43.024  29.430  34.284  1.00  0.00     0.074 A 
ATOM     63  C   UNL A   1      43.104  29.961  35.634  1.00  0.00     0.031 C 
ATOM     64  C   UNL A   1      43.251  28.202  33.719  1.00  0.00     0.034 A 
BRANCH  51  65
ATOM     65  C   UNL A   1      41.708  26.497  28.025  1.00  0.00     0.023 A 
ATOM     66  C   UNL A   1      41.906  25.127  28.291  1.00  0.00     0.031 A 
ATOM     67  C   UNL A   1      41.732  26.860  26.665  1.00  0.00     0.131 A 
ATOM     68  C   UNL A   1      42.221  24.217  27.267  1.00  0.00     0.055 A 
ATOM     69  C   UNL A   1      42.105  25.968  25.650  1.00  0.00     0.041 A 
ATOM     70  F   UNL A   1      41.353  28.081  26.261  1.00  0.00    -0.206 F 
ATOM     71  C   UNL A   1      42.368  24.640  25.950  1.00  0.00     0.022 A 
BRANCH  68  72
ATOM     72  S   UNL A   1      42.433  22.463  27.683  1.00  0.00     0.124 S 
ATOM     73  O   UNL A   1      41.055  21.987  27.743  1.00  0.00    -0.237 OA
ATOM     74  O   UNL A   1      43.236  21.976  26.567  1.00  0.00    -0.237 OA
ATOM     75  O   UNL A   1      43.128  22.502  28.970  1.00  0.00    -0.744 OA
ENDBRANCH  68  72
ENDBRANCH  51  65
BRANCH  52  76
ATOM     76  C   UNL A   1      40.869  33.714  34.408  1.00  0.00     0.023 A 
ATOM     77  C   UNL A   1      39.757  33.010  34.921  1.00  0.00     0.031 A 
ATOM     78  C   UNL A   1      41.076  35.028  34.849  1.00  0.00     0.131 A 
ATOM     79  C   UNL A   1      39.003  33.548  35.972  1.00  0.00     0.055 A 
ATOM     80  C   UNL A   1      40.271  35.590  35.848  1.00  0.00     0.041 A 
ATOM     81  F   UNL A   1      42.131  35.735  34.421  1.00  0.00    -0.206 F 
ATOM     82  C   UNL A   1      39.262  34.834  36.449  1.00  0.00     0.022 A 
BRANCH  79  83
ATOM     83  S   UNL A   1      37.883  32.454  36.902  1.00  0.00     0.124 S 
ATOM     84  O   UNL A   1      37.847  31.267  36.056  1.00  0.00    -0.237 OA
ATOM     85  O   UNL A   1      38.565  32.298  38.186  1.00  0.00    -0.237 OA
ATOM     86  O   UNL A   1      36.642  33.221  36.973  1.00  0.00    -0.744 OA
ENDBRANCH  79  83
ENDBRANCH  52  76
BRANCH  64  87
ATOM     87  C   UNL A   1      43.526  26.895  34.447  1.00  0.00     0.023 A 
ATOM     88  C   UNL A   1      44.809  26.409  34.730  1.00  0.00     0.031 A 
ATOM     89  C   UNL A   1      42.459  26.102  34.949  1.00  0.00     0.131 A 
ATOM     90  C   UNL A   1      45.001  25.184  35.399  1.00  0.00     0.055 A 
ATOM     91  C   UNL A   1      42.651  24.922  35.676  1.00  0.00     0.041 A 
ATOM     92  F   UNL A   1      41.174  26.439  34.768  1.00  0.00    -0.206 F 
ATOM     93  C   UNL A   1      43.931  24.446  35.894  1.00  0.00     0.022 A 
BRANCH  90  94
ATOM     94  S   UNL A   1      46.692  24.550  35.560  1.00  0.00     0.124 S 
ATOM     95  O   UNL A   1      47.320  25.576  36.389  1.00  0.00    -0.237 OA
ATOM     96  O   UNL A   1      46.482  23.257  36.201  1.00  0.00    -0.237 OA
ATOM     97  O   UNL A   1      47.171  24.488  34.180  1.00  0.00    -0.744 OA
ENDBRANCH  90  94
ENDBRANCH  64  87
ENDBRANCH  38  39
ENDBRANCH  30  33
ENDBRANCH  28  29
ENDBRANCH  27  28
ENDBRANCH   1  27
TORSDOF 20
ENDMDL
