MODEL 1
REMARK VINA RESULT:     -11.6      0.000      0.000
REMARK SMILES CCCC(=O)Nc1cccc(C(=O)N[C@@H](C(=O)NCCCCCCNC(=O)c2ccc(-c3c4nc(c(-c5cc(S(=O)(=O)[O-])ccc5F)c5ccc([nH]5)c(-c5cc(S(=O)(=O)[O-])ccc5F)c5nc(c(-c6cc(S(=O)(=O)[O-])ccc6F)c6ccc3[nH]6)C=C5)C=C4)cc2)C2=C(C)N=N[C@@H]2C)c1
REMARK SMILES IDX 20 1 19 2 18 3 16 4 17 5 15 7 14 8 12 9 13 10 11 12 7 13
REMARK SMILES IDX 8 14 98 15 9 16 10 17 6 18 4 19 5 20 3 22 2 23 1 24 91 25
REMARK SMILES IDX 92 26 96 27 93 28 94 29 95 30 97 31 21 32 22 33 23 34 24 35
REMARK SMILES IDX 25 36 26 37 27 39 28 40 29 41 90 42 30 43 89 44 31 45 32 46
REMARK SMILES IDX 33 47 83 48 34 49 88 50 82 51 84 52 35 53 87 54 81 55 80 56
REMARK SMILES IDX 36 58 68 59 48 60 67 61 49 62 52 63 66 64 85 65 50 66 51 67
REMARK SMILES IDX 65 69 86 70 53 71 37 72 38 73 46 74 39 75 45 76 47 77 44 78
REMARK SMILES IDX 40 79 41 80 42 81 43 82 69 83 70 84 78 85 71 86 77 87 79 88
REMARK SMILES IDX 76 89 72 90 73 91 74 92 75 93 54 94 55 95 63 96 56 97 62 98
REMARK SMILES IDX 64 99 61 100 57 101 58 102 59 103 60 104
REMARK H PARENT 18 6 14 11 6 21 25 38 84 57 52 68
REMARK Flexibility Score: inf
ROOT
ATOM      1  C   UNL A   1      33.769  23.260  22.543  1.00  0.00     0.021 C 
ENDROOT
BRANCH   1   2
ATOM      2  C   UNL A   1      33.137  24.558  22.063  1.00  0.00     0.116 C 
BRANCH   2   3
ATOM      3  N   UNL A   1      31.703  24.525  22.200  1.00  0.00    -0.354 N 
ATOM      4  C   UNL A   1      30.920  24.818  23.275  1.00  0.00     0.247 C 
ATOM      5  O   UNL A   1      29.700  24.756  23.084  1.00  0.00    -0.272 OA
ATOM      6  H   UNL A   1      31.214  24.247  21.391  1.00  0.00     0.163 HD
BRANCH   4   7
ATOM      7  C   UNL A   1      31.539  25.364  24.609  1.00  0.00     0.202 C 
BRANCH   7   8
ATOM      8  N   UNL A   1      30.990  24.692  25.801  1.00  0.00    -0.337 N 
ATOM      9  C   UNL A   1      31.060  23.465  26.427  1.00  0.00     0.252 C 
ATOM     10  O   UNL A   1      30.287  23.317  27.377  1.00  0.00    -0.269 OA
ATOM     11  H   UNL A   1      30.396  25.300  26.300  1.00  0.00     0.165 HD
BRANCH   9  12
ATOM     12  C   UNL A   1      31.960  22.313  26.081  1.00  0.00     0.041 A 
ATOM     13  C   UNL A   1      32.644  20.404  24.739  1.00  0.00     0.041 A 
ATOM     14  C   UNL A   1      33.849  20.296  25.417  1.00  0.00     0.026 A 
ATOM     15  C   UNL A   1      31.686  21.351  25.114  1.00  0.00     0.040 A 
ATOM     16  C   UNL A   1      34.120  21.203  26.436  1.00  0.00     0.003 A 
ATOM     17  C   UNL A   1      33.192  22.208  26.755  1.00  0.00     0.014 A 
BRANCH  13  18
ATOM     18  N   UNL A   1      32.376  19.592  23.631  1.00  0.00    -0.326 N 
ATOM     19  C   UNL A   1      32.716  18.260  23.598  1.00  0.00     0.224 C 
ATOM     20  O   UNL A   1      33.139  17.746  22.564  1.00  0.00    -0.275 OA
ATOM     21  H   UNL A   1      31.926  19.988  22.849  1.00  0.00     0.169 HD
BRANCH  19  22
ATOM     22  C   UNL A   1      32.482  17.446  24.872  1.00  0.00     0.100 C 
BRANCH  22  23
ATOM     23  C   UNL A   1      32.931  15.991  24.796  1.00  0.00     0.006 C 
ATOM     24  C   UNL A   1      32.340  15.065  25.850  1.00  0.00     0.004 C 
ENDBRANCH  22  23
ENDBRANCH  19  22
ENDBRANCH  13  18
ENDBRANCH   9  12
ENDBRANCH   7   8
BRANCH   7  25
ATOM     25  C   UNL A   1      31.296  26.850  24.657  1.00  0.00     0.011 C 
ATOM     26  C   UNL A   1      31.901  27.781  25.417  1.00  0.00     0.064 C 
ATOM     27  C   UNL A   1      30.575  27.641  23.610  1.00  0.00     0.156 C 
ATOM     28  C   UNL A   1      32.958  27.638  26.462  1.00  0.00     0.069 C 
ATOM     29  N   UNL A   1      31.586  29.061  25.038  1.00  0.00    -0.160 NA
ATOM     30  N   UNL A   1      30.876  29.048  24.000  1.00  0.00    -0.181 NA
ATOM     31  C   UNL A   1      29.061  27.514  23.568  1.00  0.00     0.040 C 
ENDBRANCH   7  25
ENDBRANCH   4   7
ENDBRANCH   2   3
ENDBRANCH   1   2
BRANCH   1  32
ATOM     32  C   UNL A   1      34.730  23.493  23.709  1.00  0.00     0.002 C 
BRANCH  32  33
ATOM     33  C   UNL A   1      36.056  22.733  23.578  1.00  0.00     0.002 C 
BRANCH  33  34
ATOM     34  C   UNL A   1      37.221  23.358  24.354  1.00  0.00     0.021 C 
BRANCH  34  35
ATOM     35  C   UNL A   1      37.270  22.940  25.819  1.00  0.00     0.116 C 
BRANCH  35  36
ATOM     36  N   UNL A   1      38.416  22.083  26.081  1.00  0.00    -0.352 N 
ATOM     37  C   UNL A   1      39.700  22.435  26.396  1.00  0.00     0.251 C 
ATOM     38  H   UNL A   1      38.244  21.116  26.023  1.00  0.00     0.163 HD
ATOM     39  O   UNL A   1      40.606  21.607  26.293  1.00  0.00    -0.269 OA
BRANCH  37  40
ATOM     40  C   UNL A   1      39.982  23.808  26.853  1.00  0.00     0.039 A 
ATOM     41  C   UNL A   1      40.135  24.056  28.217  1.00  0.00     0.014 A 
ATOM     42  C   UNL A   1      40.095  24.847  25.924  1.00  0.00     0.014 A 
ATOM     43  C   UNL A   1      40.448  25.345  28.646  1.00  0.00     0.010 A 
ATOM     44  C   UNL A   1      40.487  26.110  26.347  1.00  0.00     0.010 A 
ATOM     45  C   UNL A   1      40.657  26.375  27.714  1.00  0.00    -0.014 A 
BRANCH  45  46
ATOM     46  C   UNL A   1      41.039  27.741  28.149  1.00  0.00     0.031 A 
ATOM     47  C   UNL A   1      42.490  28.140  28.175  1.00  0.00     0.074 A 
ATOM     48  C   UNL A   1      40.086  28.594  28.571  1.00  0.00     0.049 A 
ATOM     49  N   UNL A   1      43.033  29.254  28.591  1.00  0.00    -0.248 NA
ATOM     50  C   UNL A   1      43.460  27.143  27.696  1.00  0.00     0.031 C 
ATOM     51  C   UNL A   1      38.651  28.303  28.618  1.00  0.00     0.029 A 
ATOM     52  N   UNL A   1      40.178  29.879  29.046  1.00  0.00    -0.354 N 
ATOM     53  C   UNL A   1      44.405  29.088  28.438  1.00  0.00     0.074 A 
ATOM     54  C   UNL A   1      44.613  27.743  27.947  1.00  0.00     0.031 C 
ATOM     55  C   UNL A   1      37.996  29.387  29.064  1.00  0.00     0.029 A 
ATOM     56  C   UNL A   1      38.963  30.430  29.390  1.00  0.00     0.049 A 
ATOM     57  H   UNL A   1      41.031  30.361  29.134  1.00  0.00     0.167 HD
ATOM     58  C   UNL A   1      45.395  29.985  28.665  1.00  0.00     0.034 A 
ATOM     59  C   UNL A   1      38.668  31.633  29.922  1.00  0.00     0.034 A 
ATOM     60  C   UNL A   1      45.164  31.326  29.140  1.00  0.00     0.049 A 
ATOM     61  C   UNL A   1      39.796  32.597  30.201  1.00  0.00     0.074 A 
ATOM     62  C   UNL A   1      46.089  32.333  29.351  1.00  0.00     0.029 A 
ATOM     63  N   UNL A   1      43.925  31.846  29.489  1.00  0.00    -0.354 N 
ATOM     64  N   UNL A   1      41.084  32.443  30.001  1.00  0.00    -0.248 NA
ATOM     65  C   UNL A   1      39.427  33.901  30.767  1.00  0.00     0.031 C 
ATOM     66  C   UNL A   1      45.422  33.432  29.903  1.00  0.00     0.029 A 
ATOM     67  C   UNL A   1      44.066  33.146  29.948  1.00  0.00     0.049 A 
ATOM     68  H   UNL A   1      43.070  31.361  29.419  1.00  0.00     0.167 HD
ATOM     69  C   UNL A   1      41.673  33.646  30.380  1.00  0.00     0.074 A 
ATOM     70  C   UNL A   1      40.599  34.518  30.804  1.00  0.00     0.031 C 
ATOM     71  C   UNL A   1      42.984  34.003  30.371  1.00  0.00     0.034 A 
BRANCH  58  72
ATOM     72  C   UNL A   1      46.817  29.533  28.429  1.00  0.00     0.023 A 
ATOM     73  C   UNL A   1      47.576  28.909  29.435  1.00  0.00     0.031 A 
ATOM     74  C   UNL A   1      47.425  29.734  27.176  1.00  0.00     0.131 A 
ATOM     75  C   UNL A   1      48.914  28.567  29.191  1.00  0.00     0.055 A 
ATOM     76  C   UNL A   1      48.731  29.315  26.915  1.00  0.00     0.041 A 
ATOM     77  F   UNL A   1      46.761  30.346  26.183  1.00  0.00    -0.206 F 
ATOM     78  C   UNL A   1      49.488  28.739  27.930  1.00  0.00     0.022 A 
BRANCH  75  79
ATOM     79  S   UNL A   1      49.935  28.015  30.586  1.00  0.00     0.124 S 
ATOM     80  O   UNL A   1      51.269  28.010  29.991  1.00  0.00    -0.237 OA
ATOM     81  O   UNL A   1      49.686  29.047  31.586  1.00  0.00    -0.237 OA
ATOM     82  O   UNL A   1      49.398  26.694  30.903  1.00  0.00    -0.744 OA
ENDBRANCH  75  79
ENDBRANCH  58  72
BRANCH  59  83
ATOM     83  C   UNL A   1      37.258  32.001  30.239  1.00  0.00     0.023 A 
ATOM     84  C   UNL A   1      36.417  32.553  29.259  1.00  0.00     0.031 A 
ATOM     85  C   UNL A   1      36.747  31.868  31.544  1.00  0.00     0.131 A 
ATOM     86  C   UNL A   1      35.140  33.013  29.610  1.00  0.00     0.055 A 
ATOM     87  C   UNL A   1      35.449  32.266  31.872  1.00  0.00     0.041 A 
ATOM     88  F   UNL A   1      37.504  31.345  32.521  1.00  0.00    -0.206 F 
ATOM     89  C   UNL A   1      34.643  32.858  30.906  1.00  0.00     0.022 A 
BRANCH  86  90
ATOM     90  S   UNL A   1      34.178  33.927  28.372  1.00  0.00     0.124 S 
ATOM     91  O   UNL A   1      33.610  35.002  29.176  1.00  0.00    -0.237 OA
ATOM     92  O   UNL A   1      35.208  34.313  27.415  1.00  0.00    -0.237 OA
ATOM     93  O   UNL A   1      33.220  32.934  27.888  1.00  0.00    -0.744 OA
ENDBRANCH  86  90
ENDBRANCH  59  83
BRANCH  71  94
ATOM     94  C   UNL A   1      43.316  35.418  30.780  1.00  0.00     0.023 A 
ATOM     95  C   UNL A   1      43.375  35.809  32.128  1.00  0.00     0.031 A 
ATOM     96  C   UNL A   1      43.574  36.392  29.798  1.00  0.00     0.131 A 
ATOM     97  C   UNL A   1      43.627  37.150  32.456  1.00  0.00     0.055 A 
ATOM     98  C   UNL A   1      43.891  37.708  30.131  1.00  0.00     0.041 A 
ATOM     99  F   UNL A   1      43.526  36.076  28.493  1.00  0.00    -0.206 F 
ATOM    100  C   UNL A   1      43.906  38.097  31.467  1.00  0.00     0.022 A 
BRANCH  97 101
ATOM    101  S   UNL A   1      43.484  37.664  34.190  1.00  0.00     0.124 S 
ATOM    102  O   UNL A   1      44.871  37.597  34.640  1.00  0.00    -0.237 OA
ATOM    103  O   UNL A   1      42.916  39.002  34.074  1.00  0.00    -0.237 OA
ATOM    104  O   UNL A   1      42.594  36.661  34.772  1.00  0.00    -0.744 OA
ENDBRANCH  97 101
ENDBRANCH  71  94
ENDBRANCH  45  46
ENDBRANCH  37  40
ENDBRANCH  35  36
ENDBRANCH  34  35
ENDBRANCH  33  34
ENDBRANCH  32  33
ENDBRANCH   1  32
TORSDOF 22
ENDMDL
MODEL 2
REMARK VINA RESULT:     -11.6      4.799      7.963
REMARK SMILES CCCC(=O)Nc1cccc(C(=O)N[C@@H](C(=O)NCCCCCCNC(=O)c2ccc(-c3c4nc(c(-c5cc(S(=O)(=O)[O-])ccc5F)c5ccc([nH]5)c(-c5cc(S(=O)(=O)[O-])ccc5F)c5nc(c(-c6cc(S(=O)(=O)[O-])ccc6F)c6ccc3[nH]6)C=C5)C=C4)cc2)C2=C(C)N=N[C@@H]2C)c1
REMARK SMILES IDX 20 1 19 2 18 3 16 4 17 5 15 7 14 8 12 9 13 10 11 12 7 13
REMARK SMILES IDX 8 14 98 15 9 16 10 17 6 18 4 19 5 20 3 22 2 23 1 24 91 25
REMARK SMILES IDX 92 26 96 27 93 28 94 29 95 30 97 31 21 32 22 33 23 34 24 35
REMARK SMILES IDX 25 36 26 37 27 39 28 40 29 41 90 42 30 43 89 44 31 45 32 46
REMARK SMILES IDX 33 47 83 48 34 49 88 50 82 51 84 52 35 53 87 54 81 55 80 56
REMARK SMILES IDX 36 58 68 59 48 60 67 61 49 62 52 63 66 64 85 65 50 66 51 67
REMARK SMILES IDX 65 69 86 70 53 71 37 72 38 73 46 74 39 75 45 76 47 77 44 78
REMARK SMILES IDX 40 79 41 80 42 81 43 82 69 83 70 84 78 85 71 86 77 87 79 88
REMARK SMILES IDX 76 89 72 90 73 91 74 92 75 93 54 94 55 95 63 96 56 97 62 98
REMARK SMILES IDX 64 99 61 100 57 101 58 102 59 103 60 104
REMARK H PARENT 18 6 14 11 6 21 25 38 84 57 52 68
REMARK Flexibility Score: inf
ROOT
ATOM      1  C   UNL A   1      32.237  29.515  24.360  1.00  0.00     0.021 C 
ENDROOT
BRANCH   1   2
ATOM      2  C   UNL A   1      33.082  28.591  23.495  1.00  0.00     0.116 C 
BRANCH   2   3
ATOM      3  N   UNL A   1      32.320  28.060  22.394  1.00  0.00    -0.354 N 
ATOM      4  C   UNL A   1      32.067  26.767  22.048  1.00  0.00     0.247 C 
ATOM      5  O   UNL A   1      31.324  26.607  21.073  1.00  0.00    -0.272 OA
ATOM      6  H   UNL A   1      31.920  28.736  21.800  1.00  0.00     0.163 HD
BRANCH   4   7
ATOM      7  C   UNL A   1      32.556  25.574  22.942  1.00  0.00     0.202 C 
BRANCH   7   8
ATOM      8  N   UNL A   1      32.262  24.261  22.340  1.00  0.00    -0.337 N 
ATOM      9  C   UNL A   1      32.590  22.934  22.530  1.00  0.00     0.252 C 
ATOM     10  O   UNL A   1      32.185  22.165  21.655  1.00  0.00    -0.269 OA
ATOM     11  H   UNL A   1      31.650  24.359  21.575  1.00  0.00     0.165 HD
BRANCH   9  12
ATOM     12  C   UNL A   1      33.371  22.339  23.668  1.00  0.00     0.041 A 
ATOM     13  C   UNL A   1      33.781  20.691  25.407  1.00  0.00     0.041 A 
ATOM     14  C   UNL A   1      35.042  21.205  25.666  1.00  0.00     0.026 A 
ATOM     15  C   UNL A   1      32.932  21.294  24.474  1.00  0.00     0.040 A 
ATOM     16  C   UNL A   1      35.481  22.295  24.921  1.00  0.00     0.003 A 
ATOM     17  C   UNL A   1      34.658  22.847  23.924  1.00  0.00     0.014 A 
BRANCH  13  18
ATOM     18  N   UNL A   1      33.342  19.526  26.046  1.00  0.00    -0.326 N 
ATOM     19  C   UNL A   1      33.010  18.388  25.348  1.00  0.00     0.224 C 
ATOM     20  O   UNL A   1      32.055  17.695  25.697  1.00  0.00    -0.275 OA
ATOM     21  H   UNL A   1      33.269  19.520  27.029  1.00  0.00     0.169 HD
BRANCH  19  22
ATOM     22  C   UNL A   1      33.912  17.997  24.177  1.00  0.00     0.100 C 
BRANCH  22  23
ATOM     23  C   UNL A   1      35.058  17.057  24.536  1.00  0.00     0.006 C 
ATOM     24  C   UNL A   1      34.664  15.802  25.301  1.00  0.00     0.004 C 
ENDBRANCH  22  23
ENDBRANCH  19  22
ENDBRANCH  13  18
ENDBRANCH   9  12
ENDBRANCH   7   8
BRANCH   7  25
ATOM     25  C   UNL A   1      31.905  25.715  24.294  1.00  0.00     0.011 C 
ATOM     26  C   UNL A   1      30.605  25.905  24.590  1.00  0.00     0.064 C 
ATOM     27  C   UNL A   1      32.524  25.317  25.597  1.00  0.00     0.156 C 
ATOM     28  C   UNL A   1      29.424  26.073  23.692  1.00  0.00     0.069 C 
ATOM     29  N   UNL A   1      30.341  25.762  25.928  1.00  0.00    -0.160 NA
ATOM     30  N   UNL A   1      31.373  25.390  26.541  1.00  0.00    -0.181 NA
ATOM     31  C   UNL A   1      33.606  26.226  26.155  1.00  0.00     0.040 C 
ENDBRANCH   7  25
ENDBRANCH   4   7
ENDBRANCH   2   3
ENDBRANCH   1   2
BRANCH   1  32
ATOM     32  C   UNL A   1      32.859  29.727  25.740  1.00  0.00     0.002 C 
BRANCH  32  33
ATOM     33  C   UNL A   1      31.869  30.243  26.792  1.00  0.00     0.002 C 
BRANCH  33  34
ATOM     34  C   UNL A   1      31.736  31.768  26.841  1.00  0.00     0.021 C 
BRANCH  34  35
ATOM     35  C   UNL A   1      33.015  32.477  27.273  1.00  0.00     0.116 C 
BRANCH  35  36
ATOM     36  N   UNL A   1      32.748  33.861  27.639  1.00  0.00    -0.352 N 
ATOM     37  C   UNL A   1      33.202  34.569  28.717  1.00  0.00     0.251 C 
ATOM     38  H   UNL A   1      32.159  34.355  27.024  1.00  0.00     0.163 HD
ATOM     39  O   UNL A   1      32.649  35.623  29.035  1.00  0.00    -0.269 OA
BRANCH  37  40
ATOM     40  C   UNL A   1      34.347  34.055  29.489  1.00  0.00     0.039 A 
ATOM     41  C   UNL A   1      34.115  33.207  30.572  1.00  0.00     0.014 A 
ATOM     42  C   UNL A   1      35.651  34.415  29.135  1.00  0.00     0.014 A 
ATOM     43  C   UNL A   1      35.200  32.682  31.274  1.00  0.00     0.010 A 
ATOM     44  C   UNL A   1      36.729  33.828  29.783  1.00  0.00     0.010 A 
ATOM     45  C   UNL A   1      36.515  32.963  30.866  1.00  0.00    -0.014 A 
BRANCH  45  46
ATOM     46  C   UNL A   1      37.681  32.375  31.570  1.00  0.00     0.031 A 
ATOM     47  C   UNL A   1      38.437  31.234  30.942  1.00  0.00     0.074 A 
ATOM     48  C   UNL A   1      38.019  32.830  32.792  1.00  0.00     0.049 A 
ATOM     49  N   UNL A   1      39.431  30.537  31.427  1.00  0.00    -0.248 NA
ATOM     50  C   UNL A   1      37.996  30.803  29.606  1.00  0.00     0.031 C 
ATOM     51  C   UNL A   1      37.338  33.911  33.509  1.00  0.00     0.029 A 
ATOM     52  N   UNL A   1      39.016  32.442  33.651  1.00  0.00    -0.354 N 
ATOM     53  C   UNL A   1      39.726  29.578  30.463  1.00  0.00     0.074 A 
ATOM     54  C   UNL A   1      38.766  29.746  29.395  1.00  0.00     0.031 C 
ATOM     55  C   UNL A   1      37.957  34.119  34.682  1.00  0.00     0.029 A 
ATOM     56  C   UNL A   1      39.040  33.153  34.830  1.00  0.00     0.049 A 
ATOM     57  H   UNL A   1      39.655  31.722  33.444  1.00  0.00     0.167 HD
ATOM     58  C   UNL A   1      40.722  28.659  30.463  1.00  0.00     0.034 A 
ATOM     59  C   UNL A   1      39.835  33.027  35.911  1.00  0.00     0.034 A 
ATOM     60  C   UNL A   1      41.679  28.518  31.533  1.00  0.00     0.049 A 
ATOM     61  C   UNL A   1      40.910  31.968  35.900  1.00  0.00     0.074 A 
ATOM     62  C   UNL A   1      42.760  27.658  31.610  1.00  0.00     0.029 A 
ATOM     63  N   UNL A   1      41.665  29.246  32.715  1.00  0.00    -0.354 N 
ATOM     64  N   UNL A   1      41.209  31.103  34.958  1.00  0.00    -0.248 NA
ATOM     65  C   UNL A   1      41.762  31.876  37.092  1.00  0.00     0.031 C 
ATOM     66  C   UNL A   1      43.349  27.808  32.869  1.00  0.00     0.029 A 
ATOM     67  C   UNL A   1      42.696  28.828  33.542  1.00  0.00     0.049 A 
ATOM     68  H   UNL A   1      41.018  29.956  32.933  1.00  0.00     0.167 HD
ATOM     69  C   UNL A   1      42.310  30.393  35.431  1.00  0.00     0.074 A 
ATOM     70  C   UNL A   1      42.628  30.941  36.732  1.00  0.00     0.031 C 
ATOM     71  C   UNL A   1      43.000  29.383  34.840  1.00  0.00     0.034 A 
BRANCH  58  72
ATOM     72  C   UNL A   1      40.807  27.718  29.285  1.00  0.00     0.023 A 
ATOM     73  C   UNL A   1      41.785  27.865  28.285  1.00  0.00     0.031 A 
ATOM     74  C   UNL A   1      39.891  26.657  29.157  1.00  0.00     0.131 A 
ATOM     75  C   UNL A   1      41.785  27.008  27.175  1.00  0.00     0.055 A 
ATOM     76  C   UNL A   1      39.950  25.758  28.091  1.00  0.00     0.041 A 
ATOM     77  F   UNL A   1      38.919  26.480  30.066  1.00  0.00    -0.206 F 
ATOM     78  C   UNL A   1      40.893  25.938  27.085  1.00  0.00     0.022 A 
BRANCH  75  79
ATOM     79  S   UNL A   1      42.883  27.394  25.783  1.00  0.00     0.124 S 
ATOM     80  O   UNL A   1      44.175  26.937  26.291  1.00  0.00    -0.237 OA
ATOM     81  O   UNL A   1      42.308  26.606  24.700  1.00  0.00    -0.237 OA
ATOM     82  O   UNL A   1      42.757  28.843  25.638  1.00  0.00    -0.744 OA
ENDBRANCH  75  79
ENDBRANCH  58  72
BRANCH  59  83
ATOM     83  C   UNL A   1      39.649  33.909  37.101  1.00  0.00     0.023 A 
ATOM     84  C   UNL A   1      39.052  33.420  38.275  1.00  0.00     0.031 A 
ATOM     85  C   UNL A   1      40.003  35.270  37.061  1.00  0.00     0.131 A 
ATOM     86  C   UNL A   1      38.768  34.296  39.332  1.00  0.00     0.055 A 
ATOM     87  C   UNL A   1      39.778  36.123  38.144  1.00  0.00     0.041 A 
ATOM     88  F   UNL A   1      40.578  35.792  35.966  1.00  0.00    -0.206 F 
ATOM     89  C   UNL A   1      39.141  35.641  39.282  1.00  0.00     0.022 A 
BRANCH  86  90
ATOM     90  S   UNL A   1      37.792  33.677  40.731  1.00  0.00     0.124 S 
ATOM     91  O   UNL A   1      36.834  32.808  40.059  1.00  0.00    -0.237 OA
ATOM     92  O   UNL A   1      38.809  33.011  41.537  1.00  0.00    -0.237 OA
ATOM     93  O   UNL A   1      37.231  34.892  41.317  1.00  0.00    -0.744 OA
ENDBRANCH  86  90
ENDBRANCH  59  83
BRANCH  71  94
ATOM     94  C   UNL A   1      44.205  28.850  35.577  1.00  0.00     0.023 A 
ATOM     95  C   UNL A   1      44.103  27.815  36.522  1.00  0.00     0.031 A 
ATOM     96  C   UNL A   1      45.479  29.393  35.328  1.00  0.00     0.131 A 
ATOM     97  C   UNL A   1      45.242  27.396  37.225  1.00  0.00     0.055 A 
ATOM     98  C   UNL A   1      46.619  28.925  35.981  1.00  0.00     0.041 A 
ATOM     99  F   UNL A   1      45.636  30.388  34.439  1.00  0.00    -0.206 F 
ATOM    100  C   UNL A   1      46.503  27.930  36.946  1.00  0.00     0.022 A 
BRANCH  97 101
ATOM    101  S   UNL A   1      45.039  26.213  38.585  1.00  0.00     0.124 S 
ATOM    102  O   UNL A   1      44.467  25.059  37.899  1.00  0.00    -0.237 OA
ATOM    103  O   UNL A   1      46.406  26.053  39.067  1.00  0.00    -0.237 OA
ATOM    104  O   UNL A   1      44.134  26.900  39.505  1.00  0.00    -0.744 OA
ENDBRANCH  97 101
ENDBRANCH  71  94
ENDBRANCH  45  46
ENDBRANCH  37  40
ENDBRANCH  35  36
ENDBRANCH  34  35
ENDBRANCH  33  34
ENDBRANCH  32  33
ENDBRANCH   1  32
TORSDOF 22
ENDMDL
MODEL 3
REMARK VINA RESULT:     -11.5      2.370      2.641
REMARK SMILES CCCC(=O)Nc1cccc(C(=O)N[C@@H](C(=O)NCCCCCCNC(=O)c2ccc(-c3c4nc(c(-c5cc(S(=O)(=O)[O-])ccc5F)c5ccc([nH]5)c(-c5cc(S(=O)(=O)[O-])ccc5F)c5nc(c(-c6cc(S(=O)(=O)[O-])ccc6F)c6ccc3[nH]6)C=C5)C=C4)cc2)C2=C(C)N=N[C@@H]2C)c1
REMARK SMILES IDX 20 1 19 2 18 3 16 4 17 5 15 7 14 8 12 9 13 10 11 12 7 13
REMARK SMILES IDX 8 14 98 15 9 16 10 17 6 18 4 19 5 20 3 22 2 23 1 24 91 25
REMARK SMILES IDX 92 26 96 27 93 28 94 29 95 30 97 31 21 32 22 33 23 34 24 35
REMARK SMILES IDX 25 36 26 37 27 39 28 40 29 41 90 42 30 43 89 44 31 45 32 46
REMARK SMILES IDX 33 47 83 48 34 49 88 50 82 51 84 52 35 53 87 54 81 55 80 56
REMARK SMILES IDX 36 58 68 59 48 60 67 61 49 62 52 63 66 64 85 65 50 66 51 67
REMARK SMILES IDX 65 69 86 70 53 71 37 72 38 73 46 74 39 75 45 76 47 77 44 78
REMARK SMILES IDX 40 79 41 80 42 81 43 82 69 83 70 84 78 85 71 86 77 87 79 88
REMARK SMILES IDX 76 89 72 90 73 91 74 92 75 93 54 94 55 95 63 96 56 97 62 98
REMARK SMILES IDX 64 99 61 100 57 101 58 102 59 103 60 104
REMARK H PARENT 18 6 14 11 6 21 25 38 84 57 52 68
REMARK Flexibility Score: inf
ROOT
ATOM      1  C   UNL A   1      33.562  23.629  22.456  1.00  0.00     0.021 C 
ENDROOT
BRANCH   1   2
ATOM      2  C   UNL A   1      32.939  24.990  22.184  1.00  0.00     0.116 C 
BRANCH   2   3
ATOM      3  N   UNL A   1      31.504  24.942  22.298  1.00  0.00    -0.354 N 
ATOM      4  C   UNL A   1      30.703  25.172  23.376  1.00  0.00     0.247 C 
ATOM      5  O   UNL A   1      29.487  25.115  23.164  1.00  0.00    -0.272 OA
ATOM      6  H   UNL A   1      31.028  24.706  21.468  1.00  0.00     0.163 HD
BRANCH   4   7
ATOM      7  C   UNL A   1      31.300  25.647  24.747  1.00  0.00     0.202 C 
BRANCH   7   8
ATOM      8  N   UNL A   1      30.649  24.999  25.900  1.00  0.00    -0.337 N 
ATOM      9  C   UNL A   1      30.694  23.798  26.578  1.00  0.00     0.252 C 
ATOM     10  O   UNL A   1      29.829  23.655  27.446  1.00  0.00    -0.269 OA
ATOM     11  H   UNL A   1      29.984  25.601  26.307  1.00  0.00     0.165 HD
BRANCH   9  12
ATOM     12  C   UNL A   1      31.666  22.671  26.377  1.00  0.00     0.041 A 
ATOM     13  C   UNL A   1      32.553  20.738  25.198  1.00  0.00     0.041 A 
ATOM     14  C   UNL A   1      33.685  20.707  25.998  1.00  0.00     0.026 A 
ATOM     15  C   UNL A   1      31.528  21.660  25.431  1.00  0.00     0.040 A 
ATOM     16  C   UNL A   1      33.817  21.665  26.998  1.00  0.00     0.003 A 
ATOM     17  C   UNL A   1      32.825  22.644  27.176  1.00  0.00     0.014 A 
BRANCH  13  18
ATOM     18  N   UNL A   1      32.429  19.872  24.106  1.00  0.00    -0.326 N 
ATOM     19  C   UNL A   1      32.835  18.558  24.162  1.00  0.00     0.224 C 
ATOM     20  O   UNL A   1      33.378  18.029  23.194  1.00  0.00    -0.275 OA
ATOM     21  H   UNL A   1      32.037  20.213  23.269  1.00  0.00     0.169 HD
BRANCH  19  22
ATOM     22  C   UNL A   1      32.522  17.783  25.442  1.00  0.00     0.100 C 
BRANCH  22  23
ATOM     23  C   UNL A   1      32.712  16.273  25.341  1.00  0.00     0.006 C 
ATOM     24  C   UNL A   1      34.152  15.785  25.418  1.00  0.00     0.004 C 
ENDBRANCH  22  23
ENDBRANCH  19  22
ENDBRANCH  13  18
ENDBRANCH   9  12
ENDBRANCH   7   8
BRANCH   7  25
ATOM     25  C   UNL A   1      31.165  27.146  24.813  1.00  0.00     0.011 C 
ATOM     26  C   UNL A   1      31.599  27.992  25.767  1.00  0.00     0.064 C 
ATOM     27  C   UNL A   1      30.829  28.036  23.657  1.00  0.00     0.156 C 
ATOM     28  C   UNL A   1      32.305  27.717  27.053  1.00  0.00     0.069 C 
ATOM     29  N   UNL A   1      31.501  29.308  25.392  1.00  0.00    -0.160 NA
ATOM     30  N   UNL A   1      31.112  29.395  24.199  1.00  0.00    -0.181 NA
ATOM     31  C   UNL A   1      29.383  28.045  23.188  1.00  0.00     0.040 C 
ENDBRANCH   7  25
ENDBRANCH   4   7
ENDBRANCH   2   3
ENDBRANCH   1   2
BRANCH   1  32
ATOM     32  C   UNL A   1      34.620  23.699  23.557  1.00  0.00     0.002 C 
BRANCH  32  33
ATOM     33  C   UNL A   1      35.538  22.470  23.611  1.00  0.00     0.002 C 
BRANCH  33  34
ATOM     34  C   UNL A   1      36.929  22.746  24.190  1.00  0.00     0.021 C 
BRANCH  34  35
ATOM     35  C   UNL A   1      37.023  22.502  25.692  1.00  0.00     0.116 C 
BRANCH  35  36
ATOM     36  N   UNL A   1      38.035  21.502  25.998  1.00  0.00    -0.352 N 
ATOM     37  C   UNL A   1      39.345  21.681  26.346  1.00  0.00     0.251 C 
ATOM     38  H   UNL A   1      37.734  20.566  25.947  1.00  0.00     0.163 HD
ATOM     39  O   UNL A   1      40.133  20.736  26.280  1.00  0.00    -0.269 OA
BRANCH  37  40
ATOM     40  C   UNL A   1      39.799  23.011  26.794  1.00  0.00     0.039 A 
ATOM     41  C   UNL A   1      40.603  23.111  27.929  1.00  0.00     0.014 A 
ATOM     42  C   UNL A   1      39.424  24.156  26.084  1.00  0.00     0.014 A 
ATOM     43  C   UNL A   1      41.071  24.363  28.326  1.00  0.00     0.010 A 
ATOM     44  C   UNL A   1      39.958  25.389  26.434  1.00  0.00     0.010 A 
ATOM     45  C   UNL A   1      40.779  25.507  27.565  1.00  0.00    -0.014 A 
BRANCH  45  46
ATOM     46  C   UNL A   1      41.308  26.840  27.944  1.00  0.00     0.031 A 
ATOM     47  C   UNL A   1      42.735  27.197  27.623  1.00  0.00     0.074 A 
ATOM     48  C   UNL A   1      40.523  27.698  28.624  1.00  0.00     0.049 A 
ATOM     49  N   UNL A   1      43.406  28.276  27.935  1.00  0.00    -0.248 NA
ATOM     50  C   UNL A   1      43.517  26.198  26.879  1.00  0.00     0.031 C 
ATOM     51  C   UNL A   1      39.134  27.445  29.015  1.00  0.00     0.029 A 
ATOM     52  N   UNL A   1      40.779  28.956  29.111  1.00  0.00    -0.354 N 
ATOM     53  C   UNL A   1      44.690  28.079  27.438  1.00  0.00     0.074 A 
ATOM     54  C   UNL A   1      44.719  26.754  26.859  1.00  0.00     0.031 C 
ATOM     55  C   UNL A   1      38.653  28.524  29.652  1.00  0.00     0.029 A 
ATOM     56  C   UNL A   1      39.710  29.523  29.767  1.00  0.00     0.049 A 
ATOM     57  H   UNL A   1      41.645  29.409  29.002  1.00  0.00     0.167 HD
ATOM     58  C   UNL A   1      45.740  28.936  27.446  1.00  0.00     0.034 A 
ATOM     59  C   UNL A   1      39.602  30.707  30.402  1.00  0.00     0.034 A 
ATOM     60  C   UNL A   1      45.685  30.260  28.016  1.00  0.00     0.049 A 
ATOM     61  C   UNL A   1      40.799  31.626  30.430  1.00  0.00     0.074 A 
ATOM     62  C   UNL A   1      46.671  31.230  28.030  1.00  0.00     0.029 A 
ATOM     63  N   UNL A   1      44.592  30.796  28.682  1.00  0.00    -0.354 N 
ATOM     64  N   UNL A   1      41.992  31.445  29.910  1.00  0.00    -0.248 NA
ATOM     65  C   UNL A   1      40.633  32.910  31.120  1.00  0.00     0.031 C 
ATOM     66  C   UNL A   1      46.204  32.319  28.773  1.00  0.00     0.029 A 
ATOM     67  C   UNL A   1      44.892  32.068  29.143  1.00  0.00     0.049 A 
ATOM     68  H   UNL A   1      43.728  30.339  28.809  1.00  0.00     0.167 HD
ATOM     69  C   UNL A   1      42.702  32.613  30.176  1.00  0.00     0.074 A 
ATOM     70  C   UNL A   1      41.800  33.493  30.889  1.00  0.00     0.031 C 
ATOM     71  C   UNL A   1      43.982  32.934  29.855  1.00  0.00     0.034 A 
BRANCH  58  72
ATOM     72  C   UNL A   1      47.041  28.458  26.846  1.00  0.00     0.023 A 
ATOM     73  C   UNL A   1      47.221  28.344  25.456  1.00  0.00     0.031 A 
ATOM     74  C   UNL A   1      48.118  28.106  27.679  1.00  0.00     0.131 A 
ATOM     75  C   UNL A   1      48.422  27.832  24.945  1.00  0.00     0.055 A 
ATOM     76  C   UNL A   1      49.340  27.675  27.160  1.00  0.00     0.041 A 
ATOM     77  F   UNL A   1      47.999  28.169  29.015  1.00  0.00    -0.206 F 
ATOM     78  C   UNL A   1      49.494  27.524  25.786  1.00  0.00     0.022 A 
BRANCH  75  79
ATOM     79  S   UNL A   1      48.518  27.448  23.175  1.00  0.00     0.124 S 
ATOM     80  O   UNL A   1      48.363  25.995  23.180  1.00  0.00    -0.237 OA
ATOM     81  O   UNL A   1      47.400  28.208  22.627  1.00  0.00    -0.237 OA
ATOM     82  O   UNL A   1      49.845  27.924  22.792  1.00  0.00    -0.744 OA
ENDBRANCH  75  79
ENDBRANCH  58  72
BRANCH  59  83
ATOM     83  C   UNL A   1      38.329  31.098  31.076  1.00  0.00     0.023 A 
ATOM     84  C   UNL A   1      37.282  31.692  30.352  1.00  0.00     0.031 A 
ATOM     85  C   UNL A   1      38.163  30.945  32.465  1.00  0.00     0.131 A 
ATOM     86  C   UNL A   1      36.149  32.171  31.025  1.00  0.00     0.055 A 
ATOM     87  C   UNL A   1      37.003  31.364  33.120  1.00  0.00     0.041 A 
ATOM     88  F   UNL A   1      39.129  30.382  33.207  1.00  0.00    -0.206 F 
ATOM     89  C   UNL A   1      35.995  31.996  32.402  1.00  0.00     0.022 A 
BRANCH  86  90
ATOM     90  S   UNL A   1      34.929  33.135  30.090  1.00  0.00     0.124 S 
ATOM     91  O   UNL A   1      34.048  33.605  31.152  1.00  0.00    -0.237 OA
ATOM     92  O   UNL A   1      35.767  34.146  29.454  1.00  0.00    -0.237 OA
ATOM     93  O   UNL A   1      34.345  32.151  29.181  1.00  0.00    -0.744 OA
ENDBRANCH  86  90
ENDBRANCH  59  83
BRANCH  71  94
ATOM     94  C   UNL A   1      44.459  34.318  30.224  1.00  0.00     0.023 A 
ATOM     95  C   UNL A   1      44.277  35.420  29.371  1.00  0.00     0.031 A 
ATOM     96  C   UNL A   1      45.110  34.534  31.452  1.00  0.00     0.131 A 
ATOM     97  C   UNL A   1      44.793  36.674  29.731  1.00  0.00     0.055 A 
ATOM     98  C   UNL A   1      45.560  35.798  31.835  1.00  0.00     0.041 A 
ATOM     99  F   UNL A   1      45.317  33.517  32.305  1.00  0.00    -0.206 F 
ATOM    100  C   UNL A   1      45.414  36.874  30.966  1.00  0.00     0.022 A 
BRANCH  97 101
ATOM    101  S   UNL A   1      44.731  38.021  28.517  1.00  0.00     0.124 S 
ATOM    102  O   UNL A   1      45.151  37.346  27.294  1.00  0.00    -0.237 OA
ATOM    103  O   UNL A   1      43.330  38.426  28.571  1.00  0.00    -0.237 OA
ATOM    104  O   UNL A   1      45.679  39.001  29.043  1.00  0.00    -0.744 OA
ENDBRANCH  97 101
ENDBRANCH  71  94
ENDBRANCH  45  46
ENDBRANCH  37  40
ENDBRANCH  35  36
ENDBRANCH  34  35
ENDBRANCH  33  34
ENDBRANCH  32  33
ENDBRANCH   1  32
TORSDOF 22
ENDMDL
