MODEL 1
REMARK VINA RESULT:     -12.5      0.000      0.000
REMARK SMILES O=C(C[N@@H+]1CC[N@H+](Cc2cc(F)ccc2Cl)[C@H]2CS(=O)(=O)C[C@H]21)NCCCCCCNC(=O)c1ccc(-c2c3nc(c(-c4cc(S(=O)(=O)[O-])ccc4F)c4ccc([nH]4)c(-c4cc(S(=O)(=O)[O-])ccc4F)c4nc(c(-c5cc(S(=O)(=O)[O-])ccc5F)c5ccc2[nH]5)C=C4)C=C3)cc1
REMARK SMILES IDX 27 1 26 2 25 3 24 4 1 5 2 6 3 8 4 9 5 10 23 11 6 13 17 14
REMARK SMILES IDX 22 15 7 16 18 17 19 18 20 20 21 21 8 22 9 23 10 24 15 25
REMARK SMILES IDX 11 26 14 27 16 28 12 29 13 30 28 31 29 32 30 33 31 34 32 35
REMARK SMILES IDX 33 37 34 38 35 39 96 40 36 41 95 42 37 43 38 44 39 45 89 46
REMARK SMILES IDX 40 47 94 48 88 49 90 50 41 51 93 52 87 53 86 54 42 56 74 57
REMARK SMILES IDX 54 58 73 59 55 60 58 61 72 62 91 63 56 64 57 65 71 67 92 68
REMARK SMILES IDX 59 69 43 70 44 71 52 72 45 73 51 74 53 75 50 76 46 77 47 78
REMARK SMILES IDX 48 79 49 80 75 81 76 82 84 83 77 84 83 85 85 86 82 87 78 88
REMARK SMILES IDX 79 89 80 90 81 91 60 92 61 93 69 94 62 95 68 96 70 97 67 98
REMARK SMILES IDX 63 99 64 100 65 101 66 102
REMARK H PARENT 24 7 4 12 7 19 31 36 90 55 58 66
REMARK Flexibility Score: inf
ROOT
ATOM      1  C   UNL A   1      33.988  20.051  24.838  1.00  0.00     0.002 C 
ENDROOT
BRANCH   1   2
ATOM      2  C   UNL A   1      33.078  21.273  24.725  1.00  0.00     0.021 C 
BRANCH   2   3
ATOM      3  C   UNL A   1      31.754  21.203  25.496  1.00  0.00     0.116 C 
BRANCH   3   4
ATOM      4  N   UNL A   1      30.983  22.440  25.480  1.00  0.00    -0.351 N 
ATOM      5  O   UNL A   1      31.684  23.150  27.551  1.00  0.00    -0.269 OA
ATOM      6  C   UNL A   1      31.143  23.396  26.476  1.00  0.00     0.275 C 
ATOM      7  H   UNL A   1      30.340  22.600  24.752  1.00  0.00     0.163 HD
BRANCH   6   8
ATOM      8  C   UNL A   1      30.735  24.825  26.051  1.00  0.00     0.364 C 
BRANCH   8   9
ATOM      9  N   UNL A   1      31.378  25.271  24.775  1.00  0.00    -0.314 N 
ATOM     10  C   UNL A   1      32.847  25.298  24.908  1.00  0.00     0.325 C 
ATOM     11  C   UNL A   1      30.922  26.588  24.297  1.00  0.00     0.259 C 
ATOM     12  H   UNL A   1      31.090  24.582  24.082  1.00  0.00     0.349 HD
ATOM     13  C   UNL A   1      33.455  26.511  25.667  1.00  0.00     0.325 C 
ATOM     14  C   UNL A   1      31.328  27.773  25.224  1.00  0.00     0.259 C 
ATOM     15  C   UNL A   1      31.406  26.916  22.883  1.00  0.00     0.208 C 
ATOM     16  N   UNL A   1      32.619  27.677  25.931  1.00  0.00    -0.318 N 
ATOM     17  C   UNL A   1      31.077  29.059  24.415  1.00  0.00     0.208 C 
ATOM     18  S   UNL A   1      30.963  28.616  22.692  1.00  0.00     0.162 S 
ATOM     19  H   UNL A   1      33.093  28.380  25.365  1.00  0.00     0.349 HD
ATOM     20  O   UNL A   1      29.578  28.680  22.286  1.00  0.00    -0.228 OA
ATOM     21  O   UNL A   1      32.013  29.291  21.949  1.00  0.00    -0.228 OA
BRANCH  16  22
ATOM     22  C   UNL A   1      32.798  28.373  27.238  1.00  0.00     0.301 C 
BRANCH  22  23
ATOM     23  C   UNL A   1      33.848  29.492  27.349  1.00  0.00     0.028 A 
ATOM     24  C   UNL A   1      35.228  29.245  27.276  1.00  0.00     0.050 A 
ATOM     25  C   UNL A   1      33.507  30.857  27.418  1.00  0.00     0.050 A 
ATOM     26  C   UNL A   1      36.174  30.219  27.598  1.00  0.00     0.123 A 
ATOM     27  C   UNL A   1      34.447  31.834  27.803  1.00  0.00     0.024 A 
ATOM     28  Cl  UNL A   1      31.984  31.432  26.824  1.00  0.00    -0.084 Cl
ATOM     29  F   UNL A   1      37.474  29.899  27.563  1.00  0.00    -0.207 F 
ATOM     30  C   UNL A   1      35.787  31.496  27.949  1.00  0.00     0.041 A 
ENDBRANCH  22  23
ENDBRANCH  16  22
ENDBRANCH   8   9
ENDBRANCH   6   8
ENDBRANCH   3   4
ENDBRANCH   2   3
ENDBRANCH   1   2
BRANCH   1  31
ATOM     31  C   UNL A   1      35.497  20.259  24.952  1.00  0.00     0.002 C 
BRANCH  31  32
ATOM     32  C   UNL A   1      36.000  21.626  24.508  1.00  0.00     0.021 C 
BRANCH  32  33
ATOM     33  C   UNL A   1      37.326  22.080  25.106  1.00  0.00     0.116 C 
BRANCH  33  34
ATOM     34  N   UNL A   1      38.255  21.002  25.423  1.00  0.00    -0.352 N 
ATOM     35  C   UNL A   1      39.412  21.094  26.173  1.00  0.00     0.251 C 
ATOM     36  H   UNL A   1      38.033  20.113  25.064  1.00  0.00     0.163 HD
ATOM     37  O   UNL A   1      40.154  20.130  26.322  1.00  0.00    -0.269 OA
BRANCH  35  38
ATOM     38  C   UNL A   1      39.751  22.412  26.751  1.00  0.00     0.039 A 
ATOM     39  C   UNL A   1      40.818  22.511  27.643  1.00  0.00     0.014 A 
ATOM     40  C   UNL A   1      39.122  23.558  26.256  1.00  0.00     0.014 A 
ATOM     41  C   UNL A   1      41.325  23.773  27.965  1.00  0.00     0.010 A 
ATOM     42  C   UNL A   1      39.693  24.803  26.500  1.00  0.00     0.010 A 
ATOM     43  C   UNL A   1      40.803  24.927  27.353  1.00  0.00    -0.014 A 
BRANCH  43  44
ATOM     44  C   UNL A   1      41.387  26.275  27.598  1.00  0.00     0.031 A 
ATOM     45  C   UNL A   1      42.738  26.607  27.022  1.00  0.00     0.074 A 
ATOM     46  C   UNL A   1      40.748  27.167  28.386  1.00  0.00     0.049 A 
ATOM     47  N   UNL A   1      43.477  27.670  27.201  1.00  0.00    -0.248 NA
ATOM     48  C   UNL A   1      43.356  25.589  26.153  1.00  0.00     0.031 C 
ATOM     49  C   UNL A   1      39.449  26.955  29.030  1.00  0.00     0.029 A 
ATOM     50  N   UNL A   1      41.109  28.431  28.791  1.00  0.00    -0.354 N 
ATOM     51  C   UNL A   1      44.650  27.440  26.491  1.00  0.00     0.074 A 
ATOM     52  C   UNL A   1      44.550  26.113  25.926  1.00  0.00     0.031 C 
ATOM     53  C   UNL A   1      39.113  28.057  29.722  1.00  0.00     0.029 A 
ATOM     54  C   UNL A   1      40.192  29.036  29.623  1.00  0.00     0.049 A 
ATOM     55  H   UNL A   1      41.947  28.865  28.511  1.00  0.00     0.167 HD
ATOM     56  C   UNL A   1      45.705  28.270  26.307  1.00  0.00     0.034 A 
ATOM     57  C   UNL A   1      40.226  30.232  30.248  1.00  0.00     0.034 A 
ATOM     58  C   UNL A   1      45.778  29.603  26.845  1.00  0.00     0.049 A 
ATOM     59  C   UNL A   1      41.431  31.124  30.047  1.00  0.00     0.074 A 
ATOM     60  C   UNL A   1      46.771  30.549  26.660  1.00  0.00     0.029 A 
ATOM     61  N   UNL A   1      44.827  30.180  27.677  1.00  0.00    -0.354 N 
ATOM     62  N   UNL A   1      42.506  30.910  29.323  1.00  0.00    -0.248 NA
ATOM     63  C   UNL A   1      41.425  32.422  30.737  1.00  0.00     0.031 C 
ATOM     64  C   UNL A   1      46.463  31.664  27.443  1.00  0.00     0.029 A 
ATOM     65  C   UNL A   1      45.231  31.454  28.041  1.00  0.00     0.049 A 
ATOM     66  H   UNL A   1      43.992  29.747  27.965  1.00  0.00     0.167 HD
ATOM     67  C   UNL A   1      43.274  32.068  29.433  1.00  0.00     0.074 A 
ATOM     68  C   UNL A   1      42.538  32.976  30.284  1.00  0.00     0.031 C 
ATOM     69  C   UNL A   1      44.477  32.357  28.877  1.00  0.00     0.034 A 
BRANCH  56  70
ATOM     70  C   UNL A   1      46.878  27.753  25.512  1.00  0.00     0.023 A 
ATOM     71  C   UNL A   1      47.069  28.093  24.162  1.00  0.00     0.031 A 
ATOM     72  C   UNL A   1      47.833  26.921  26.125  1.00  0.00     0.131 A 
ATOM     73  C   UNL A   1      48.159  27.562  23.455  1.00  0.00     0.055 A 
ATOM     74  C   UNL A   1      48.956  26.460  25.438  1.00  0.00     0.041 A 
ATOM     75  F   UNL A   1      47.688  26.543  27.404  1.00  0.00    -0.206 F 
ATOM     76  C   UNL A   1      49.120  26.772  24.092  1.00  0.00     0.022 A 
BRANCH  73  77
ATOM     77  S   UNL A   1      48.242  27.826  21.663  1.00  0.00     0.124 S 
ATOM     78  O   UNL A   1      48.603  26.494  21.185  1.00  0.00    -0.237 OA
ATOM     79  O   UNL A   1      46.891  28.274  21.346  1.00  0.00    -0.237 OA
ATOM     80  O   UNL A   1      49.287  28.838  21.514  1.00  0.00    -0.744 OA
ENDBRANCH  73  77
ENDBRANCH  56  70
BRANCH  57  81
ATOM     81  C   UNL A   1      39.112  30.669  31.147  1.00  0.00     0.023 A 
ATOM     82  C   UNL A   1      38.203  31.661  30.740  1.00  0.00     0.031 A 
ATOM     83  C   UNL A   1      38.999  30.180  32.461  1.00  0.00     0.131 A 
ATOM     84  C   UNL A   1      37.282  32.190  31.659  1.00  0.00     0.055 A 
ATOM     85  C   UNL A   1      38.031  30.657  33.348  1.00  0.00     0.041 A 
ATOM     86  F   UNL A   1      39.841  29.235  32.909  1.00  0.00    -0.206 F 
ATOM     87  C   UNL A   1      37.179  31.683  32.955  1.00  0.00     0.022 A 
BRANCH  84  88
ATOM     88  S   UNL A   1      36.323  33.655  31.179  1.00  0.00     0.124 S 
ATOM     89  O   UNL A   1      36.595  34.560  32.289  1.00  0.00    -0.237 OA
ATOM     90  O   UNL A   1      36.929  34.006  29.900  1.00  0.00    -0.237 OA
ATOM     91  O   UNL A   1      34.952  33.152  31.102  1.00  0.00    -0.744 OA
ENDBRANCH  84  88
ENDBRANCH  57  81
BRANCH  69  92
ATOM     92  C   UNL A   1      45.037  33.741  29.099  1.00  0.00     0.023 A 
ATOM     93  C   UNL A   1      44.682  34.830  28.286  1.00  0.00     0.031 A 
ATOM     94  C   UNL A   1      45.928  33.971  30.163  1.00  0.00     0.131 A 
ATOM     95  C   UNL A   1      45.252  36.091  28.522  1.00  0.00     0.055 A 
ATOM     96  C   UNL A   1      46.441  35.240  30.433  1.00  0.00     0.041 A 
ATOM     97  F   UNL A   1      46.303  32.966  30.970  1.00  0.00    -0.206 F 
ATOM     98  C   UNL A   1      46.112  36.307  29.603  1.00  0.00     0.022 A 
BRANCH  95  99
ATOM     99  S   UNL A   1      44.917  37.434  27.350  1.00  0.00     0.124 S 
ATOM    100  O   UNL A   1      46.033  37.309  26.418  1.00  0.00    -0.237 OA
ATOM    101  O   UNL A   1      43.606  37.069  26.823  1.00  0.00    -0.237 OA
ATOM    102  O   UNL A   1      44.937  38.633  28.186  1.00  0.00    -0.744 OA
ENDBRANCH  95  99
ENDBRANCH  69  92
ENDBRANCH  43  44
ENDBRANCH  35  38
ENDBRANCH  33  34
ENDBRANCH  32  33
ENDBRANCH  31  32
ENDBRANCH   1  31
TORSDOF 19
ENDMDL
MODEL 2
REMARK VINA RESULT:     -11.8      5.561     11.266
REMARK SMILES O=C(C[N@@H+]1CC[N@H+](Cc2cc(F)ccc2Cl)[C@H]2CS(=O)(=O)C[C@H]21)NCCCCCCNC(=O)c1ccc(-c2c3nc(c(-c4cc(S(=O)(=O)[O-])ccc4F)c4ccc([nH]4)c(-c4cc(S(=O)(=O)[O-])ccc4F)c4nc(c(-c5cc(S(=O)(=O)[O-])ccc5F)c5ccc2[nH]5)C=C4)C=C3)cc1
REMARK SMILES IDX 27 1 26 2 25 3 24 4 1 5 2 6 3 8 4 9 5 10 23 11 6 13 17 14
REMARK SMILES IDX 22 15 7 16 18 17 19 18 20 20 21 21 8 22 9 23 10 24 15 25
REMARK SMILES IDX 11 26 14 27 16 28 12 29 13 30 28 31 29 32 30 33 31 34 32 35
REMARK SMILES IDX 33 37 34 38 35 39 96 40 36 41 95 42 37 43 38 44 39 45 89 46
REMARK SMILES IDX 40 47 94 48 88 49 90 50 41 51 93 52 87 53 86 54 42 56 74 57
REMARK SMILES IDX 54 58 73 59 55 60 58 61 72 62 91 63 56 64 57 65 71 67 92 68
REMARK SMILES IDX 59 69 43 70 44 71 52 72 45 73 51 74 53 75 50 76 46 77 47 78
REMARK SMILES IDX 48 79 49 80 75 81 76 82 84 83 77 84 83 85 85 86 82 87 78 88
REMARK SMILES IDX 79 89 80 90 81 91 60 92 61 93 69 94 62 95 68 96 70 97 67 98
REMARK SMILES IDX 63 99 64 100 65 101 66 102
REMARK H PARENT 24 7 4 12 7 19 31 36 90 55 58 66
REMARK Flexibility Score: inf
ROOT
ATOM      1  C   UNL A   1      35.201  32.869  28.630  1.00  0.00     0.002 C 
ENDROOT
BRANCH   1   2
ATOM      2  C   UNL A   1      34.741  31.421  28.460  1.00  0.00     0.021 C 
BRANCH   2   3
ATOM      3  C   UNL A   1      33.773  31.153  27.300  1.00  0.00     0.116 C 
BRANCH   3   4
ATOM      4  N   UNL A   1      32.970  29.947  27.455  1.00  0.00    -0.351 N 
ATOM      5  O   UNL A   1      31.484  30.468  25.781  1.00  0.00    -0.269 OA
ATOM      6  C   UNL A   1      31.957  29.640  26.554  1.00  0.00     0.275 C 
ATOM      7  H   UNL A   1      33.148  29.341  28.211  1.00  0.00     0.163 HD
BRANCH   6   8
ATOM      8  C   UNL A   1      31.602  28.137  26.491  1.00  0.00     0.364 C 
BRANCH   8   9
ATOM      9  N   UNL A   1      31.199  27.678  25.124  1.00  0.00    -0.314 N 
ATOM     10  C   UNL A   1      30.398  26.441  25.201  1.00  0.00     0.325 C 
ATOM     11  C   UNL A   1      32.328  27.455  24.204  1.00  0.00     0.259 C 
ATOM     12  H   UNL A   1      30.645  28.444  24.743  1.00  0.00     0.349 HD
ATOM     13  C   UNL A   1      31.182  25.119  25.441  1.00  0.00     0.325 C 
ATOM     14  C   UNL A   1      33.255  26.272  24.616  1.00  0.00     0.259 C 
ATOM     15  C   UNL A   1      31.888  27.220  22.758  1.00  0.00     0.208 C 
ATOM     16  N   UNL A   1      32.631  25.110  25.275  1.00  0.00    -0.318 N 
ATOM     17  C   UNL A   1      34.146  25.978  23.395  1.00  0.00     0.208 C 
ATOM     18  S   UNL A   1      33.383  26.714  21.962  1.00  0.00     0.162 S 
ATOM     19  H   UNL A   1      32.724  24.483  24.477  1.00  0.00     0.349 HD
ATOM     20  O   UNL A   1      34.125  27.898  21.596  1.00  0.00    -0.228 OA
ATOM     21  O   UNL A   1      33.068  25.676  20.996  1.00  0.00    -0.228 OA
BRANCH  16  22
ATOM     22  C   UNL A   1      33.428  24.284  26.226  1.00  0.00     0.301 C 
BRANCH  22  23
ATOM     23  C   UNL A   1      34.698  23.579  25.718  1.00  0.00     0.028 A 
ATOM     24  C   UNL A   1      35.990  24.027  26.033  1.00  0.00     0.050 A 
ATOM     25  C   UNL A   1      34.665  22.370  24.996  1.00  0.00     0.050 A 
ATOM     26  C   UNL A   1      37.126  23.526  25.396  1.00  0.00     0.123 A 
ATOM     27  C   UNL A   1      35.794  21.894  24.300  1.00  0.00     0.024 A 
ATOM     28  Cl  UNL A   1      33.308  21.298  25.103  1.00  0.00    -0.084 Cl
ATOM     29  F   UNL A   1      38.323  24.039  25.703  1.00  0.00    -0.207 F 
ATOM     30  C   UNL A   1      37.027  22.516  24.460  1.00  0.00     0.041 A 
ENDBRANCH  22  23
ENDBRANCH  16  22
ENDBRANCH   8   9
ENDBRANCH   6   8
ENDBRANCH   3   4
ENDBRANCH   2   3
ENDBRANCH   1   2
BRANCH   1  31
ATOM     31  C   UNL A   1      34.456  33.975  27.885  1.00  0.00     0.002 C 
BRANCH  31  32
ATOM     32  C   UNL A   1      33.209  34.502  28.583  1.00  0.00     0.021 C 
BRANCH  32  33
ATOM     33  C   UNL A   1      33.315  35.899  29.182  1.00  0.00     0.116 C 
BRANCH  33  34
ATOM     34  N   UNL A   1      32.630  36.070  30.458  1.00  0.00    -0.352 N 
ATOM     35  C   UNL A   1      32.972  35.502  31.670  1.00  0.00     0.251 C 
ATOM     36  H   UNL A   1      31.837  36.653  30.455  1.00  0.00     0.163 HD
ATOM     37  O   UNL A   1      32.283  35.665  32.670  1.00  0.00    -0.269 OA
BRANCH  35  38
ATOM     38  C   UNL A   1      34.179  34.647  31.708  1.00  0.00     0.039 A 
ATOM     39  C   UNL A   1      35.434  35.233  31.546  1.00  0.00     0.014 A 
ATOM     40  C   UNL A   1      34.057  33.308  32.091  1.00  0.00     0.014 A 
ATOM     41  C   UNL A   1      36.578  34.496  31.865  1.00  0.00     0.010 A 
ATOM     42  C   UNL A   1      35.191  32.615  32.503  1.00  0.00     0.010 A 
ATOM     43  C   UNL A   1      36.464  33.201  32.400  1.00  0.00    -0.014 A 
BRANCH  43  44
ATOM     44  C   UNL A   1      37.659  32.429  32.844  1.00  0.00     0.031 A 
ATOM     45  C   UNL A   1      38.290  32.753  34.173  1.00  0.00     0.074 A 
ATOM     46  C   UNL A   1      38.216  31.500  32.037  1.00  0.00     0.049 A 
ATOM     47  N   UNL A   1      39.391  32.288  34.703  1.00  0.00    -0.248 NA
ATOM     48  C   UNL A   1      37.607  33.760  35.003  1.00  0.00     0.031 C 
ATOM     49  C   UNL A   1      37.719  31.118  30.713  1.00  0.00     0.029 A 
ATOM     50  N   UNL A   1      39.330  30.713  32.206  1.00  0.00    -0.354 N 
ATOM     51  C   UNL A   1      39.544  32.960  35.910  1.00  0.00     0.074 A 
ATOM     52  C   UNL A   1      38.456  33.907  36.008  1.00  0.00     0.031 C 
ATOM     53  C   UNL A   1      38.507  30.154  30.206  1.00  0.00     0.029 A 
ATOM     54  C   UNL A   1      39.599  29.885  31.138  1.00  0.00     0.049 A 
ATOM     55  H   UNL A   1      39.886  30.738  33.018  1.00  0.00     0.167 HD
ATOM     56  C   UNL A   1      40.492  32.787  36.861  1.00  0.00     0.034 A 
ATOM     57  C   UNL A   1      40.616  29.024  30.926  1.00  0.00     0.034 A 
ATOM     58  C   UNL A   1      41.551  31.815  36.768  1.00  0.00     0.049 A 
ATOM     59  C   UNL A   1      41.678  28.874  31.994  1.00  0.00     0.074 A 
ATOM     60  C   UNL A   1      42.521  31.513  37.707  1.00  0.00     0.029 A 
ATOM     61  N   UNL A   1      41.784  30.993  35.674  1.00  0.00    -0.354 N 
ATOM     62  N   UNL A   1      41.771  29.479  33.156  1.00  0.00    -0.248 NA
ATOM     63  C   UNL A   1      42.763  27.919  31.729  1.00  0.00     0.031 C 
ATOM     64  C   UNL A   1      43.388  30.570  37.151  1.00  0.00     0.029 A 
ATOM     65  C   UNL A   1      42.905  30.212  35.903  1.00  0.00     0.049 A 
ATOM     66  H   UNL A   1      41.235  30.970  34.858  1.00  0.00     0.167 HD
ATOM     67  C   UNL A   1      42.896  28.937  33.776  1.00  0.00     0.074 A 
ATOM     68  C   UNL A   1      43.441  27.956  32.866  1.00  0.00     0.031 C 
ATOM     69  C   UNL A   1      43.427  29.222  34.992  1.00  0.00     0.034 A 
BRANCH  56  70
ATOM     70  C   UNL A   1      40.445  33.682  38.074  1.00  0.00     0.023 A 
ATOM     71  C   UNL A   1      39.561  33.445  39.140  1.00  0.00     0.031 A 
ATOM     72  C   UNL A   1      41.318  34.780  38.174  1.00  0.00     0.131 A 
ATOM     73  C   UNL A   1      39.532  34.323  40.234  1.00  0.00     0.055 A 
ATOM     74  C   UNL A   1      41.339  35.605  39.299  1.00  0.00     0.041 A 
ATOM     75  F   UNL A   1      42.167  35.070  37.174  1.00  0.00    -0.206 F 
ATOM     76  C   UNL A   1      40.436  35.384  40.334  1.00  0.00     0.022 A 
BRANCH  73  77
ATOM     77  S   UNL A   1      38.221  34.126  41.471  1.00  0.00     0.124 S 
ATOM     78  O   UNL A   1      37.256  33.301  40.749  1.00  0.00    -0.237 OA
ATOM     79  O   UNL A   1      38.920  33.476  42.573  1.00  0.00    -0.237 OA
ATOM     80  O   UNL A   1      37.786  35.498  41.729  1.00  0.00    -0.744 OA
ENDBRANCH  73  77
ENDBRANCH  56  70
BRANCH  57  81
ATOM     81  C   UNL A   1      40.721  28.245  29.652  1.00  0.00     0.023 A 
ATOM     82  C   UNL A   1      41.683  28.575  28.681  1.00  0.00     0.031 A 
ATOM     83  C   UNL A   1      39.800  27.230  29.339  1.00  0.00     0.131 A 
ATOM     84  C   UNL A   1      41.648  27.958  27.420  1.00  0.00     0.055 A 
ATOM     85  C   UNL A   1      39.817  26.566  28.110  1.00  0.00     0.041 A 
ATOM     86  F   UNL A   1      38.855  26.873  30.224  1.00  0.00    -0.206 F 
ATOM     87  C   UNL A   1      40.733  26.945  27.133  1.00  0.00     0.022 A 
BRANCH  84  88
ATOM     88  S   UNL A   1      42.722  28.608  26.108  1.00  0.00     0.124 S 
ATOM     89  O   UNL A   1      43.873  27.716  26.204  1.00  0.00    -0.237 OA
ATOM     90  O   UNL A   1      41.884  28.450  24.926  1.00  0.00    -0.237 OA
ATOM     91  O   UNL A   1      42.965  29.989  26.521  1.00  0.00    -0.744 OA
ENDBRANCH  84  88
ENDBRANCH  57  81
BRANCH  69  92
ATOM     92  C   UNL A   1      44.611  28.404  35.446  1.00  0.00     0.023 A 
ATOM     93  C   UNL A   1      44.461  27.167  36.094  1.00  0.00     0.031 A 
ATOM     94  C   UNL A   1      45.916  28.871  35.204  1.00  0.00     0.131 A 
ATOM     95  C   UNL A   1      45.598  26.460  36.518  1.00  0.00     0.055 A 
ATOM     96  C   UNL A   1      47.043  28.133  35.569  1.00  0.00     0.041 A 
ATOM     97  F   UNL A   1      46.119  30.048  34.590  1.00  0.00    -0.206 F 
ATOM     98  C   UNL A   1      46.886  26.924  36.241  1.00  0.00     0.022 A 
BRANCH  95  99
ATOM     99  S   UNL A   1      45.370  24.959  37.510  1.00  0.00     0.124 S 
ATOM    100  O   UNL A   1      46.737  24.461  37.626  1.00  0.00    -0.237 OA
ATOM    101  O   UNL A   1      44.776  25.480  38.737  1.00  0.00    -0.237 OA
ATOM    102  O   UNL A   1      44.479  24.138  36.692  1.00  0.00    -0.744 OA
ENDBRANCH  95  99
ENDBRANCH  69  92
ENDBRANCH  43  44
ENDBRANCH  35  38
ENDBRANCH  33  34
ENDBRANCH  32  33
ENDBRANCH  31  32
ENDBRANCH   1  31
TORSDOF 19
ENDMDL
MODEL 3
REMARK VINA RESULT:     -11.7      5.136      9.836
REMARK SMILES O=C(C[N@@H+]1CC[N@H+](Cc2cc(F)ccc2Cl)[C@H]2CS(=O)(=O)C[C@H]21)NCCCCCCNC(=O)c1ccc(-c2c3nc(c(-c4cc(S(=O)(=O)[O-])ccc4F)c4ccc([nH]4)c(-c4cc(S(=O)(=O)[O-])ccc4F)c4nc(c(-c5cc(S(=O)(=O)[O-])ccc5F)c5ccc2[nH]5)C=C4)C=C3)cc1
REMARK SMILES IDX 27 1 26 2 25 3 24 4 1 5 2 6 3 8 4 9 5 10 23 11 6 13 17 14
REMARK SMILES IDX 22 15 7 16 18 17 19 18 20 20 21 21 8 22 9 23 10 24 15 25
REMARK SMILES IDX 11 26 14 27 16 28 12 29 13 30 28 31 29 32 30 33 31 34 32 35
REMARK SMILES IDX 33 37 34 38 35 39 96 40 36 41 95 42 37 43 38 44 39 45 89 46
REMARK SMILES IDX 40 47 94 48 88 49 90 50 41 51 93 52 87 53 86 54 42 56 74 57
REMARK SMILES IDX 54 58 73 59 55 60 58 61 72 62 91 63 56 64 57 65 71 67 92 68
REMARK SMILES IDX 59 69 43 70 44 71 52 72 45 73 51 74 53 75 50 76 46 77 47 78
REMARK SMILES IDX 48 79 49 80 75 81 76 82 84 83 77 84 83 85 85 86 82 87 78 88
REMARK SMILES IDX 79 89 80 90 81 91 60 92 61 93 69 94 62 95 68 96 70 97 67 98
REMARK SMILES IDX 63 99 64 100 65 101 66 102
REMARK H PARENT 24 7 4 12 7 19 31 36 90 55 58 66
REMARK Flexibility Score: inf
ROOT
ATOM      1  C   UNL A   1      41.578  21.955  27.234  1.00  0.00     0.002 C 
ENDROOT
BRANCH   1   2
ATOM      2  C   UNL A   1      40.057  21.811  27.272  1.00  0.00     0.021 C 
BRANCH   2   3
ATOM      3  C   UNL A   1      39.335  21.905  25.922  1.00  0.00     0.116 C 
BRANCH   3   4
ATOM      4  N   UNL A   1      37.884  21.811  26.008  1.00  0.00    -0.351 N 
ATOM      5  O   UNL A   1      37.517  24.073  25.834  1.00  0.00    -0.269 OA
ATOM      6  C   UNL A   1      37.081  22.926  25.800  1.00  0.00     0.275 C 
ATOM      7  H   UNL A   1      37.467  20.943  26.217  1.00  0.00     0.163 HD
BRANCH   6   8
ATOM      8  C   UNL A   1      35.638  22.591  25.359  1.00  0.00     0.364 C 
BRANCH   8   9
ATOM      9  N   UNL A   1      34.622  22.800  26.438  1.00  0.00    -0.314 N 
ATOM     10  C   UNL A   1      34.226  21.515  27.044  1.00  0.00     0.325 C 
ATOM     11  C   UNL A   1      33.409  23.509  25.997  1.00  0.00     0.259 C 
ATOM     12  H   UNL A   1      35.086  23.395  27.123  1.00  0.00     0.349 HD
ATOM     13  C   UNL A   1      33.223  20.644  26.234  1.00  0.00     0.325 C 
ATOM     14  C   UNL A   1      32.545  22.709  24.975  1.00  0.00     0.259 C 
ATOM     15  C   UNL A   1      32.497  23.921  27.154  1.00  0.00     0.208 C 
ATOM     16  N   UNL A   1      32.505  21.242  25.114  1.00  0.00    -0.318 N 
ATOM     17  C   UNL A   1      31.189  23.434  24.896  1.00  0.00     0.208 C 
ATOM     18  S   UNL A   1      31.034  24.477  26.334  1.00  0.00     0.162 S 
ATOM     19  H   UNL A   1      31.547  21.203  25.463  1.00  0.00     0.349 HD
ATOM     20  O   UNL A   1      31.231  25.851  25.936  1.00  0.00    -0.228 OA
ATOM     21  O   UNL A   1      29.878  24.061  27.109  1.00  0.00    -0.228 OA
BRANCH  16  22
ATOM     22  C   UNL A   1      32.273  20.392  23.911  1.00  0.00     0.301 C 
BRANCH  22  23
ATOM     23  C   UNL A   1      32.626  18.896  23.975  1.00  0.00     0.028 A 
ATOM     24  C   UNL A   1      32.557  18.153  25.164  1.00  0.00     0.050 A 
ATOM     25  C   UNL A   1      32.936  18.133  22.832  1.00  0.00     0.050 A 
ATOM     26  C   UNL A   1      33.086  16.866  25.266  1.00  0.00     0.123 A 
ATOM     27  C   UNL A   1      33.527  16.858  22.934  1.00  0.00     0.024 A 
ATOM     28  Cl  UNL A   1      32.407  18.623  21.257  1.00  0.00    -0.084 Cl
ATOM     29  F   UNL A   1      33.037  16.235  26.446  1.00  0.00    -0.207 F 
ATOM     30  C   UNL A   1      33.654  16.242  24.174  1.00  0.00     0.041 A 
ENDBRANCH  22  23
ENDBRANCH  16  22
ENDBRANCH   8   9
ENDBRANCH   6   8
ENDBRANCH   3   4
ENDBRANCH   2   3
ENDBRANCH   1   2
BRANCH   1  31
ATOM     31  C   UNL A   1      42.396  20.962  26.409  1.00  0.00     0.002 C 
BRANCH  31  32
ATOM     32  C   UNL A   1      43.352  21.586  25.402  1.00  0.00     0.021 C 
BRANCH  32  33
ATOM     33  C   UNL A   1      43.071  23.032  25.015  1.00  0.00     0.116 C 
BRANCH  33  34
ATOM     34  N   UNL A   1      44.255  23.817  24.685  1.00  0.00    -0.352 N 
ATOM     35  C   UNL A   1      44.578  25.076  25.156  1.00  0.00     0.251 C 
ATOM     36  H   UNL A   1      44.893  23.406  24.059  1.00  0.00     0.163 HD
ATOM     37  O   UNL A   1      45.572  25.671  24.758  1.00  0.00    -0.269 OA
BRANCH  35  38
ATOM     38  C   UNL A   1      43.652  25.702  26.124  1.00  0.00     0.039 A 
ATOM     39  C   UNL A   1      43.085  24.919  27.129  1.00  0.00     0.014 A 
ATOM     40  C   UNL A   1      43.508  27.093  26.132  1.00  0.00     0.014 A 
ATOM     41  C   UNL A   1      42.451  25.544  28.207  1.00  0.00     0.010 A 
ATOM     42  C   UNL A   1      42.967  27.711  27.255  1.00  0.00     0.010 A 
ATOM     43  C   UNL A   1      42.436  26.946  28.307  1.00  0.00    -0.014 A 
BRANCH  43  44
ATOM     44  C   UNL A   1      41.857  27.640  29.492  1.00  0.00     0.031 A 
ATOM     45  C   UNL A   1      40.538  28.353  29.353  1.00  0.00     0.074 A 
ATOM     46  C   UNL A   1      42.536  27.691  30.658  1.00  0.00     0.049 A 
ATOM     47  N   UNL A   1      39.910  29.108  30.216  1.00  0.00    -0.248 NA
ATOM     48  C   UNL A   1      39.850  28.228  28.057  1.00  0.00     0.031 C 
ATOM     49  C   UNL A   1      43.838  27.067  30.911  1.00  0.00     0.029 A 
ATOM     50  N   UNL A   1      42.233  28.305  31.850  1.00  0.00    -0.354 N 
ATOM     51  C   UNL A   1      38.771  29.564  29.561  1.00  0.00     0.074 A 
ATOM     52  C   UNL A   1      38.823  29.050  28.212  1.00  0.00     0.031 C 
ATOM     53  C   UNL A   1      44.204  27.307  32.182  1.00  0.00     0.029 A 
ATOM     54  C   UNL A   1      43.197  28.149  32.823  1.00  0.00     0.049 A 
ATOM     55  H   UNL A   1      41.401  28.810  31.997  1.00  0.00     0.167 HD
ATOM     56  C   UNL A   1      37.761  30.324  30.049  1.00  0.00     0.034 A 
ATOM     57  C   UNL A   1      43.269  28.641  34.077  1.00  0.00     0.034 A 
ATOM     58  C   UNL A   1      37.701  30.801  31.406  1.00  0.00     0.049 A 
ATOM     59  C   UNL A   1      42.140  29.511  34.584  1.00  0.00     0.074 A 
ATOM     60  C   UNL A   1      36.690  31.519  32.019  1.00  0.00     0.029 A 
ATOM     61  N   UNL A   1      38.694  30.616  32.360  1.00  0.00    -0.354 N 
ATOM     62  N   UNL A   1      41.042  29.883  33.966  1.00  0.00    -0.248 NA
ATOM     63  C   UNL A   1      42.252  30.019  35.959  1.00  0.00     0.031 C 
ATOM     64  C   UNL A   1      37.103  31.838  33.314  1.00  0.00     0.029 A 
ATOM     65  C   UNL A   1      38.331  31.239  33.543  1.00  0.00     0.049 A 
ATOM     66  H   UNL A   1      39.530  30.118  32.216  1.00  0.00     0.167 HD
ATOM     67  C   UNL A   1      40.315  30.623  34.897  1.00  0.00     0.074 A 
ATOM     68  C   UNL A   1      41.093  30.639  36.115  1.00  0.00     0.031 C 
ATOM     69  C   UNL A   1      39.110  31.231  34.758  1.00  0.00     0.034 A 
BRANCH  56  70
ATOM     70  C   UNL A   1      36.649  30.708  29.105  1.00  0.00     0.023 A 
ATOM     71  C   UNL A   1      35.727  29.766  28.618  1.00  0.00     0.031 A 
ATOM     72  C   UNL A   1      36.497  32.047  28.703  1.00  0.00     0.131 A 
ATOM     73  C   UNL A   1      34.728  30.165  27.718  1.00  0.00     0.055 A 
ATOM     74  C   UNL A   1      35.455  32.453  27.869  1.00  0.00     0.041 A 
ATOM     75  F   UNL A   1      37.363  32.986  29.117  1.00  0.00    -0.206 F 
ATOM     76  C   UNL A   1      34.567  31.507  27.364  1.00  0.00     0.022 A 
BRANCH  73  77
ATOM     77  S   UNL A   1      33.712  28.889  26.927  1.00  0.00     0.124 S 
ATOM     78  O   UNL A   1      33.145  29.621  25.798  1.00  0.00    -0.237 OA
ATOM     79  O   UNL A   1      34.694  27.863  26.595  1.00  0.00    -0.237 OA
ATOM     80  O   UNL A   1      32.753  28.522  27.968  1.00  0.00    -0.744 OA
ENDBRANCH  73  77
ENDBRANCH  56  70
BRANCH  57  81
ATOM     81  C   UNL A   1      44.451  28.362  34.953  1.00  0.00     0.023 A 
ATOM     82  C   UNL A   1      44.405  27.348  35.926  1.00  0.00     0.031 A 
ATOM     83  C   UNL A   1      45.602  29.168  34.904  1.00  0.00     0.131 A 
ATOM     84  C   UNL A   1      45.447  27.223  36.859  1.00  0.00     0.055 A 
ATOM     85  C   UNL A   1      46.670  28.989  35.787  1.00  0.00     0.041 A 
ATOM     86  F   UNL A   1      45.703  30.155  34.000  1.00  0.00    -0.206 F 
ATOM     87  C   UNL A   1      46.586  28.025  36.786  1.00  0.00     0.022 A 
BRANCH  84  88
ATOM     88  S   UNL A   1      45.221  26.093  38.262  1.00  0.00     0.124 S 
ATOM     89  O   UNL A   1      45.202  24.796  37.594  1.00  0.00    -0.237 OA
ATOM     90  O   UNL A   1      46.398  26.380  39.074  1.00  0.00    -0.237 OA
ATOM     91  O   UNL A   1      43.947  26.518  38.839  1.00  0.00    -0.744 OA
ENDBRANCH  84  88
ENDBRANCH  57  81
BRANCH  69  92
ATOM     92  C   UNL A   1      38.516  31.893  35.977  1.00  0.00     0.023 A 
ATOM     93  C   UNL A   1      37.904  31.157  37.005  1.00  0.00     0.031 A 
ATOM     94  C   UNL A   1      38.586  33.291  36.116  1.00  0.00     0.131 A 
ATOM     95  C   UNL A   1      37.346  31.826  38.105  1.00  0.00     0.055 A 
ATOM     96  C   UNL A   1      38.088  33.946  37.243  1.00  0.00     0.041 A 
ATOM     97  F   UNL A   1      39.158  34.045  35.163  1.00  0.00    -0.206 F 
ATOM     98  C   UNL A   1      37.452  33.213  38.241  1.00  0.00     0.022 A 
BRANCH  95  99
ATOM     99  S   UNL A   1      36.406  30.868  39.324  1.00  0.00     0.124 S 
ATOM    100  O   UNL A   1      36.170  29.617  38.611  1.00  0.00    -0.237 OA
ATOM    101  O   UNL A   1      37.334  30.794  40.448  1.00  0.00    -0.237 OA
ATOM    102  O   UNL A   1      35.214  31.683  39.558  1.00  0.00    -0.744 OA
ENDBRANCH  95  99
ENDBRANCH  69  92
ENDBRANCH  43  44
ENDBRANCH  35  38
ENDBRANCH  33  34
ENDBRANCH  32  33
ENDBRANCH  31  32
ENDBRANCH   1  31
TORSDOF 19
ENDMDL
