MODEL 1
REMARK VINA RESULT:     -11.6      0.000      0.000
REMARK SMILES Cc1cc(C(F)(F)CC(C)(C)CC(=O)NCCCCCCNC(=O)c2ccc(-c3c4nc(c(-c5cc(S(=O)(=O)[O-])ccc5F)c5ccc([nH]5)c(-c5cc(S(=O)(=O)[O-])ccc5F)c5nc(c(-c6cc(S(=O)(=O)[O-])ccc6F)c6ccc3[nH]6)C=C5)C=C4)cc2)sc1Br
REMARK SMILES IDX 18 1 17 2 16 3 15 4 13 5 14 6 12 8 9 9 10 10 11 11 8 12 5 13
REMARK SMILES IDX 6 14 7 15 4 16 1 17 2 18 3 19 89 20 88 21 90 22 19 23 20 24
REMARK SMILES IDX 21 25 22 26 23 27 24 29 25 30 26 31 87 32 27 33 86 34 28 35
REMARK SMILES IDX 29 36 30 37 80 38 31 39 85 40 79 41 81 42 32 43 84 44 78 45
REMARK SMILES IDX 77 46 33 48 65 49 45 50 64 51 46 52 49 53 63 54 82 55 47 56
REMARK SMILES IDX 48 57 62 59 83 60 50 61 34 62 35 63 43 64 36 65 42 66 44 67
REMARK SMILES IDX 41 68 37 69 38 70 39 71 40 72 66 73 67 74 75 75 68 76 74 77
REMARK SMILES IDX 76 78 73 79 69 80 70 81 71 82 72 83 51 84 52 85 60 86 53 87
REMARK SMILES IDX 59 88 61 89 58 90 54 91 55 92 56 93 57 94
REMARK H PARENT 15 7 22 28 81 47 49 58
REMARK Flexibility Score: inf
ROOT
ATOM      1  C   UNL A   1      35.019  22.244  26.416  1.00  0.00     0.002 C 
ENDROOT
BRANCH   1   2
ATOM      2  C   UNL A   1      34.298  21.246  25.512  1.00  0.00     0.021 C 
BRANCH   2   3
ATOM      3  C   UNL A   1      32.830  21.035  25.877  1.00  0.00     0.116 C 
BRANCH   3   4
ATOM      4  N   UNL A   1      32.411  22.018  26.851  1.00  0.00    -0.356 N 
ATOM      5  C   UNL A   1      31.560  23.065  26.702  1.00  0.00     0.220 C 
ATOM      6  O   UNL A   1      31.426  23.847  27.644  1.00  0.00    -0.275 OA
ATOM      7  H   UNL A   1      32.798  21.912  27.749  1.00  0.00     0.163 HD
BRANCH   5   8
ATOM      8  C   UNL A   1      30.748  23.213  25.431  1.00  0.00     0.106 C 
BRANCH   8   9
ATOM      9  C   UNL A   1      31.102  24.339  24.419  1.00  0.00    -0.021 C 
ATOM     10  C   UNL A   1      30.543  23.828  23.072  1.00  0.00     0.012 C 
ATOM     11  C   UNL A   1      32.613  24.506  24.159  1.00  0.00     0.012 C 
BRANCH   9  12
ATOM     12  C   UNL A   1      30.603  25.746  24.897  1.00  0.00     0.090 C 
BRANCH  12  13
ATOM     13  C   UNL A   1      30.827  26.992  24.031  1.00  0.00     0.282 C 
ATOM     14  F   UNL A   1      29.605  27.536  23.764  1.00  0.00    -0.200 F 
ATOM     15  F   UNL A   1      31.329  26.596  22.830  1.00  0.00    -0.200 F 
BRANCH  13  16
ATOM     16  C   UNL A   1      31.707  28.025  24.677  1.00  0.00     0.075 A 
ATOM     17  C   UNL A   1      31.957  31.050  26.835  1.00  0.00     0.046 C 
ATOM     18  C   UNL A   1      32.288  29.853  26.007  1.00  0.00    -0.025 A 
ATOM     19  C   UNL A   1      31.427  29.349  24.978  1.00  0.00     0.026 A 
ATOM     20  C   UNL A   1      33.387  29.033  26.135  1.00  0.00     0.073 A 
ATOM     21  S   UNL A   1      33.285  27.616  25.208  1.00  0.00    -0.127 S 
ATOM     22  Br  UNL A   1      34.838  29.366  27.278  1.00  0.00    -0.039 Br
ENDBRANCH  13  16
ENDBRANCH  12  13
ENDBRANCH   9  12
ENDBRANCH   8   9
ENDBRANCH   5   8
ENDBRANCH   3   4
ENDBRANCH   2   3
ENDBRANCH   1   2
BRANCH   1  23
ATOM     23  C   UNL A   1      35.619  23.456  25.695  1.00  0.00     0.002 C 
BRANCH  23  24
ATOM     24  C   UNL A   1      37.072  23.306  25.220  1.00  0.00     0.021 C 
BRANCH  24  25
ATOM     25  C   UNL A   1      38.082  23.949  26.155  1.00  0.00     0.116 C 
BRANCH  25  26
ATOM     26  N   UNL A   1      39.043  22.976  26.673  1.00  0.00    -0.352 N 
ATOM     27  C   UNL A   1      40.276  23.185  27.269  1.00  0.00     0.251 C 
ATOM     28  H   UNL A   1      38.774  22.033  26.584  1.00  0.00     0.163 HD
ATOM     29  O   UNL A   1      41.101  22.290  27.302  1.00  0.00    -0.269 OA
BRANCH  27  30
ATOM     30  C   UNL A   1      40.557  24.501  27.874  1.00  0.00     0.039 A 
ATOM     31  C   UNL A   1      41.830  24.861  28.332  1.00  0.00     0.014 A 
ATOM     32  C   UNL A   1      39.492  25.383  27.999  1.00  0.00     0.014 A 
ATOM     33  C   UNL A   1      42.010  26.130  28.885  1.00  0.00     0.010 A 
ATOM     34  C   UNL A   1      39.717  26.688  28.312  1.00  0.00     0.010 A 
ATOM     35  C   UNL A   1      40.937  27.029  28.875  1.00  0.00    -0.014 A 
BRANCH  35  36
ATOM     36  C   UNL A   1      41.025  28.395  29.366  1.00  0.00     0.031 A 
ATOM     37  C   UNL A   1      42.074  29.191  28.686  1.00  0.00     0.074 A 
ATOM     38  C   UNL A   1      40.011  28.948  30.072  1.00  0.00     0.049 A 
ATOM     39  N   UNL A   1      43.215  29.568  29.159  1.00  0.00    -0.248 NA
ATOM     40  C   UNL A   1      41.945  29.393  27.229  1.00  0.00     0.031 C 
ATOM     41  C   UNL A   1      38.735  28.330  30.462  1.00  0.00     0.029 A 
ATOM     42  N   UNL A   1      39.837  30.235  30.469  1.00  0.00    -0.354 N 
ATOM     43  C   UNL A   1      43.800  30.314  28.142  1.00  0.00     0.074 A 
ATOM     44  C   UNL A   1      43.148  29.890  26.936  1.00  0.00     0.031 C 
ATOM     45  C   UNL A   1      37.851  29.291  30.813  1.00  0.00     0.029 A 
ATOM     46  C   UNL A   1      38.528  30.576  30.813  1.00  0.00     0.049 A 
ATOM     47  H   UNL A   1      40.580  30.880  30.511  1.00  0.00     0.167 HD
ATOM     48  C   UNL A   1      44.506  31.448  28.417  1.00  0.00     0.034 A 
ATOM     49  C   UNL A   1      38.037  31.831  31.028  1.00  0.00     0.034 A 
ATOM     50  C   UNL A   1      44.785  31.533  29.840  1.00  0.00     0.049 A 
ATOM     51  C   UNL A   1      39.219  32.699  31.287  1.00  0.00     0.074 A 
ATOM     52  C   UNL A   1      45.397  30.697  30.758  1.00  0.00     0.029 A 
ATOM     53  N   UNL A   1      44.032  32.412  30.593  1.00  0.00    -0.354 N 
ATOM     54  N   UNL A   1      40.001  32.551  32.322  1.00  0.00    -0.248 NA
ATOM     55  C   UNL A   1      39.833  33.361  30.143  1.00  0.00     0.031 C 
ATOM     56  C   UNL A   1      44.584  30.782  31.928  1.00  0.00     0.029 A 
ATOM     57  C   UNL A   1      43.594  31.741  31.709  1.00  0.00     0.049 A 
ATOM     58  H   UNL A   1      43.844  33.352  30.371  1.00  0.00     0.167 HD
ATOM     59  C   UNL A   1      41.291  32.688  31.826  1.00  0.00     0.074 A 
ATOM     60  C   UNL A   1      41.120  33.273  30.495  1.00  0.00     0.031 C 
ATOM     61  C   UNL A   1      42.346  32.031  32.396  1.00  0.00     0.034 A 
BRANCH  48  62
ATOM     62  C   UNL A   1      44.579  32.675  27.522  1.00  0.00     0.023 A 
ATOM     63  C   UNL A   1      43.925  33.827  27.996  1.00  0.00     0.031 A 
ATOM     64  C   UNL A   1      44.978  32.726  26.166  1.00  0.00     0.131 A 
ATOM     65  C   UNL A   1      43.548  34.862  27.125  1.00  0.00     0.055 A 
ATOM     66  C   UNL A   1      44.661  33.791  25.316  1.00  0.00     0.041 A 
ATOM     67  F   UNL A   1      45.630  31.736  25.549  1.00  0.00    -0.206 F 
ATOM     68  C   UNL A   1      43.904  34.849  25.782  1.00  0.00     0.022 A 
BRANCH  65  69
ATOM     69  S   UNL A   1      42.410  36.119  27.750  1.00  0.00     0.124 S 
ATOM     70  O   UNL A   1      41.126  35.441  27.602  1.00  0.00    -0.237 OA
ATOM     71  O   UNL A   1      42.890  36.302  29.116  1.00  0.00    -0.237 OA
ATOM     72  O   UNL A   1      42.631  37.249  26.852  1.00  0.00    -0.744 OA
ENDBRANCH  65  69
ENDBRANCH  48  62
BRANCH  49  73
ATOM     73  C   UNL A   1      36.679  32.356  30.679  1.00  0.00     0.023 A 
ATOM     74  C   UNL A   1      35.850  33.051  31.593  1.00  0.00     0.031 A 
ATOM     75  C   UNL A   1      36.269  32.377  29.325  1.00  0.00     0.131 A 
ATOM     76  C   UNL A   1      34.679  33.715  31.139  1.00  0.00     0.055 A 
ATOM     77  C   UNL A   1      35.113  33.031  28.886  1.00  0.00     0.041 A 
ATOM     78  F   UNL A   1      37.028  31.834  28.361  1.00  0.00    -0.206 F 
ATOM     79  C   UNL A   1      34.316  33.710  29.791  1.00  0.00     0.022 A 
BRANCH  76  80
ATOM     80  S   UNL A   1      33.636  34.679  32.289  1.00  0.00     0.124 S 
ATOM     81  O   UNL A   1      34.587  35.636  32.843  1.00  0.00    -0.237 OA
ATOM     82  O   UNL A   1      32.610  35.218  31.405  1.00  0.00    -0.237 OA
ATOM     83  O   UNL A   1      33.155  33.674  33.239  1.00  0.00    -0.744 OA
ENDBRANCH  76  80
ENDBRANCH  49  73
BRANCH  61  84
ATOM     84  C   UNL A   1      42.159  31.383  33.755  1.00  0.00     0.023 A 
ATOM     85  C   UNL A   1      42.008  29.996  33.991  1.00  0.00     0.031 A 
ATOM     86  C   UNL A   1      42.286  32.222  34.878  1.00  0.00     0.131 A 
ATOM     87  C   UNL A   1      41.989  29.504  35.313  1.00  0.00     0.055 A 
ATOM     88  C   UNL A   1      42.290  31.729  36.180  1.00  0.00     0.041 A 
ATOM     89  F   UNL A   1      42.459  33.545  34.720  1.00  0.00    -0.206 F 
ATOM     90  C   UNL A   1      42.137  30.366  36.404  1.00  0.00     0.022 A 
BRANCH  87  91
ATOM     91  S   UNL A   1      41.756  27.726  35.649  1.00  0.00     0.124 S 
ATOM     92  O   UNL A   1      40.960  27.266  34.517  1.00  0.00    -0.237 OA
ATOM     93  O   UNL A   1      43.130  27.232  35.707  1.00  0.00    -0.237 OA
ATOM     94  O   UNL A   1      41.052  27.712  36.933  1.00  0.00    -0.744 OA
ENDBRANCH  87  91
ENDBRANCH  61  84
ENDBRANCH  35  36
ENDBRANCH  27  30
ENDBRANCH  25  26
ENDBRANCH  24  25
ENDBRANCH  23  24
ENDBRANCH   1  23
TORSDOF 20
ENDMDL
MODEL 2
REMARK VINA RESULT:     -11.6      3.897      9.431
REMARK SMILES Cc1cc(C(F)(F)CC(C)(C)CC(=O)NCCCCCCNC(=O)c2ccc(-c3c4nc(c(-c5cc(S(=O)(=O)[O-])ccc5F)c5ccc([nH]5)c(-c5cc(S(=O)(=O)[O-])ccc5F)c5nc(c(-c6cc(S(=O)(=O)[O-])ccc6F)c6ccc3[nH]6)C=C5)C=C4)cc2)sc1Br
REMARK SMILES IDX 18 1 17 2 16 3 15 4 13 5 14 6 12 8 9 9 10 10 11 11 8 12 5 13
REMARK SMILES IDX 6 14 7 15 4 16 1 17 2 18 3 19 89 20 88 21 90 22 19 23 20 24
REMARK SMILES IDX 21 25 22 26 23 27 24 29 25 30 26 31 87 32 27 33 86 34 28 35
REMARK SMILES IDX 29 36 30 37 80 38 31 39 85 40 79 41 81 42 32 43 84 44 78 45
REMARK SMILES IDX 77 46 33 48 65 49 45 50 64 51 46 52 49 53 63 54 82 55 47 56
REMARK SMILES IDX 48 57 62 59 83 60 50 61 34 62 35 63 43 64 36 65 42 66 44 67
REMARK SMILES IDX 41 68 37 69 38 70 39 71 40 72 66 73 67 74 75 75 68 76 74 77
REMARK SMILES IDX 76 78 73 79 69 80 70 81 71 82 72 83 51 84 52 85 60 86 53 87
REMARK SMILES IDX 59 88 61 89 58 90 54 91 55 92 56 93 57 94
REMARK H PARENT 15 7 22 28 81 47 49 58
REMARK Flexibility Score: inf
ROOT
ATOM      1  C   UNL A   1      31.607  27.860  26.500  1.00  0.00     0.002 C 
ENDROOT
BRANCH   1   2
ATOM      2  C   UNL A   1      31.373  26.352  26.479  1.00  0.00     0.021 C 
BRANCH   2   3
ATOM      3  C   UNL A   1      30.136  25.933  25.686  1.00  0.00     0.116 C 
BRANCH   3   4
ATOM      4  N   UNL A   1      29.984  26.772  24.519  1.00  0.00    -0.356 N 
ATOM      5  C   UNL A   1      30.510  26.618  23.277  1.00  0.00     0.220 C 
ATOM      6  O   UNL A   1      30.336  27.517  22.454  1.00  0.00    -0.275 OA
ATOM      7  H   UNL A   1      29.418  27.567  24.643  1.00  0.00     0.163 HD
BRANCH   5   8
ATOM      8  C   UNL A   1      31.227  25.336  22.906  1.00  0.00     0.106 C 
BRANCH   8   9
ATOM      9  C   UNL A   1      32.725  25.384  22.491  1.00  0.00    -0.021 C 
ATOM     10  C   UNL A   1      33.335  26.474  23.401  1.00  0.00     0.012 C 
ATOM     11  C   UNL A   1      32.970  25.907  21.062  1.00  0.00     0.012 C 
BRANCH   9  12
ATOM     12  C   UNL A   1      33.401  23.970  22.539  1.00  0.00     0.090 C 
BRANCH  12  13
ATOM     13  C   UNL A   1      33.189  23.042  23.742  1.00  0.00     0.282 C 
ATOM     14  F   UNL A   1      32.679  21.867  23.274  1.00  0.00    -0.200 F 
ATOM     15  F   UNL A   1      32.223  23.579  24.535  1.00  0.00    -0.200 F 
BRANCH  13  16
ATOM     16  C   UNL A   1      34.445  22.768  24.520  1.00  0.00     0.075 A 
ATOM     17  C   UNL A   1      37.609  20.827  24.821  1.00  0.00     0.046 C 
ATOM     18  C   UNL A   1      36.516  21.822  25.032  1.00  0.00    -0.025 A 
ATOM     19  C   UNL A   1      35.156  21.586  24.649  1.00  0.00     0.026 A 
ATOM     20  C   UNL A   1      36.641  23.097  25.539  1.00  0.00     0.073 A 
ATOM     21  S   UNL A   1      35.235  24.031  25.370  1.00  0.00    -0.127 S 
ATOM     22  Br  UNL A   1      38.217  23.803  26.273  1.00  0.00    -0.039 Br
ENDBRANCH  13  16
ENDBRANCH  12  13
ENDBRANCH   9  12
ENDBRANCH   8   9
ENDBRANCH   5   8
ENDBRANCH   3   4
ENDBRANCH   2   3
ENDBRANCH   1   2
BRANCH   1  23
ATOM     23  C   UNL A   1      32.806  28.319  27.339  1.00  0.00     0.002 C 
BRANCH  23  24
ATOM     24  C   UNL A   1      34.020  28.835  26.553  1.00  0.00     0.021 C 
BRANCH  24  25
ATOM     25  C   UNL A   1      35.163  29.296  27.442  1.00  0.00     0.116 C 
BRANCH  25  26
ATOM     26  N   UNL A   1      35.315  30.751  27.424  1.00  0.00    -0.352 N 
ATOM     27  C   UNL A   1      36.248  31.548  28.067  1.00  0.00     0.251 C 
ATOM     28  H   UNL A   1      34.658  31.234  26.874  1.00  0.00     0.163 HD
ATOM     29  O   UNL A   1      36.021  32.730  28.252  1.00  0.00    -0.269 OA
BRANCH  27  30
ATOM     30  C   UNL A   1      37.520  30.940  28.503  1.00  0.00     0.039 A 
ATOM     31  C   UNL A   1      38.361  31.550  29.441  1.00  0.00     0.014 A 
ATOM     32  C   UNL A   1      37.876  29.729  27.924  1.00  0.00     0.014 A 
ATOM     33  C   UNL A   1      39.544  30.902  29.802  1.00  0.00     0.010 A 
ATOM     34  C   UNL A   1      38.895  28.994  28.447  1.00  0.00     0.010 A 
ATOM     35  C   UNL A   1      39.799  29.625  29.287  1.00  0.00    -0.014 A 
BRANCH  35  36
ATOM     36  C   UNL A   1      40.965  28.831  29.640  1.00  0.00     0.031 A 
ATOM     37  C   UNL A   1      41.112  28.632  31.101  1.00  0.00     0.074 A 
ATOM     38  C   UNL A   1      41.590  28.063  28.717  1.00  0.00     0.049 A 
ATOM     39  N   UNL A   1      41.972  29.180  31.894  1.00  0.00    -0.248 NA
ATOM     40  C   UNL A   1      40.027  27.923  31.809  1.00  0.00     0.031 C 
ATOM     41  C   UNL A   1      41.256  27.903  27.294  1.00  0.00     0.029 A 
ATOM     42  N   UNL A   1      42.575  27.143  28.884  1.00  0.00    -0.354 N 
ATOM     43  C   UNL A   1      41.710  28.633  33.145  1.00  0.00     0.074 A 
ATOM     44  C   UNL A   1      40.356  28.163  33.079  1.00  0.00     0.031 C 
ATOM     45  C   UNL A   1      41.853  26.790  26.808  1.00  0.00     0.029 A 
ATOM     46  C   UNL A   1      42.724  26.239  27.831  1.00  0.00     0.049 A 
ATOM     47  H   UNL A   1      43.142  27.116  29.688  1.00  0.00     0.167 HD
ATOM     48  C   UNL A   1      42.724  28.301  33.995  1.00  0.00     0.034 A 
ATOM     49  C   UNL A   1      43.468  25.096  27.832  1.00  0.00     0.034 A 
ATOM     50  C   UNL A   1      43.975  28.875  33.531  1.00  0.00     0.049 A 
ATOM     51  C   UNL A   1      44.437  25.232  28.954  1.00  0.00     0.074 A 
ATOM     52  C   UNL A   1      44.396  30.156  33.222  1.00  0.00     0.029 A 
ATOM     53  N   UNL A   1      44.881  28.035  32.914  1.00  0.00    -0.354 N 
ATOM     54  N   UNL A   1      45.371  26.145  28.984  1.00  0.00    -0.248 NA
ATOM     55  C   UNL A   1      44.035  24.722  30.259  1.00  0.00     0.031 C 
ATOM     56  C   UNL A   1      45.182  30.007  32.040  1.00  0.00     0.029 A 
ATOM     57  C   UNL A   1      45.298  28.645  31.756  1.00  0.00     0.049 A 
ATOM     58  H   UNL A   1      45.175  27.156  33.245  1.00  0.00     0.167 HD
ATOM     59  C   UNL A   1      45.360  26.635  30.283  1.00  0.00     0.074 A 
ATOM     60  C   UNL A   1      44.577  25.659  31.045  1.00  0.00     0.031 C 
ATOM     61  C   UNL A   1      45.707  27.928  30.560  1.00  0.00     0.034 A 
BRANCH  48  62
ATOM     62  C   UNL A   1      42.702  27.139  34.976  1.00  0.00     0.023 A 
ATOM     63  C   UNL A   1      43.517  26.039  34.651  1.00  0.00     0.031 A 
ATOM     64  C   UNL A   1      41.769  26.910  36.014  1.00  0.00     0.131 A 
ATOM     65  C   UNL A   1      43.282  24.770  35.204  1.00  0.00     0.055 A 
ATOM     66  C   UNL A   1      41.585  25.660  36.613  1.00  0.00     0.041 A 
ATOM     67  F   UNL A   1      40.929  27.843  36.472  1.00  0.00    -0.206 F 
ATOM     68  C   UNL A   1      42.313  24.568  36.179  1.00  0.00     0.022 A 
BRANCH  65  69
ATOM     69  S   UNL A   1      44.136  23.357  34.468  1.00  0.00     0.124 S 
ATOM     70  O   UNL A   1      43.223  23.002  33.388  1.00  0.00    -0.237 OA
ATOM     71  O   UNL A   1      45.407  23.953  34.071  1.00  0.00    -0.237 OA
ATOM     72  O   UNL A   1      44.211  22.399  35.568  1.00  0.00    -0.744 OA
ENDBRANCH  65  69
ENDBRANCH  48  62
BRANCH  49  73
ATOM     73  C   UNL A   1      43.152  23.795  27.159  1.00  0.00     0.023 A 
ATOM     74  C   UNL A   1      43.994  23.186  26.197  1.00  0.00     0.031 A 
ATOM     75  C   UNL A   1      42.089  23.000  27.649  1.00  0.00     0.131 A 
ATOM     76  C   UNL A   1      43.749  21.855  25.767  1.00  0.00     0.055 A 
ATOM     77  C   UNL A   1      41.853  21.690  27.220  1.00  0.00     0.041 A 
ATOM     78  F   UNL A   1      41.288  23.440  28.632  1.00  0.00    -0.206 F 
ATOM     79  C   UNL A   1      42.688  21.108  26.282  1.00  0.00     0.022 A 
BRANCH  76  80
ATOM     80  S   UNL A   1      44.866  21.026  24.582  1.00  0.00     0.124 S 
ATOM     81  O   UNL A   1      46.127  20.993  25.314  1.00  0.00    -0.237 OA
ATOM     82  O   UNL A   1      44.203  19.746  24.367  1.00  0.00    -0.237 OA
ATOM     83  O   UNL A   1      44.856  21.919  23.421  1.00  0.00    -0.744 OA
ENDBRANCH  76  80
ENDBRANCH  49  73
BRANCH  61  84
ATOM     84  C   UNL A   1      46.392  28.749  29.483  1.00  0.00     0.023 A 
ATOM     85  C   UNL A   1      45.741  29.408  28.412  1.00  0.00     0.031 A 
ATOM     86  C   UNL A   1      47.769  28.985  29.649  1.00  0.00     0.131 A 
ATOM     87  C   UNL A   1      46.473  30.262  27.561  1.00  0.00     0.055 A 
ATOM     88  C   UNL A   1      48.482  29.847  28.819  1.00  0.00     0.041 A 
ATOM     89  F   UNL A   1      48.439  28.411  30.661  1.00  0.00    -0.206 F 
ATOM     90  C   UNL A   1      47.837  30.487  27.768  1.00  0.00     0.022 A 
BRANCH  87  91
ATOM     91  S   UNL A   1      45.669  31.093  26.149  1.00  0.00     0.124 S 
ATOM     92  O   UNL A   1      46.109  30.313  24.998  1.00  0.00    -0.237 OA
ATOM     93  O   UNL A   1      44.252  30.991  26.487  1.00  0.00    -0.237 OA
ATOM     94  O   UNL A   1      46.209  32.453  26.204  1.00  0.00    -0.744 OA
ENDBRANCH  87  91
ENDBRANCH  61  84
ENDBRANCH  35  36
ENDBRANCH  27  30
ENDBRANCH  25  26
ENDBRANCH  24  25
ENDBRANCH  23  24
ENDBRANCH   1  23
TORSDOF 20
ENDMDL
MODEL 3
REMARK VINA RESULT:     -11.5      3.920      8.704
REMARK SMILES Cc1cc(C(F)(F)CC(C)(C)CC(=O)NCCCCCCNC(=O)c2ccc(-c3c4nc(c(-c5cc(S(=O)(=O)[O-])ccc5F)c5ccc([nH]5)c(-c5cc(S(=O)(=O)[O-])ccc5F)c5nc(c(-c6cc(S(=O)(=O)[O-])ccc6F)c6ccc3[nH]6)C=C5)C=C4)cc2)sc1Br
REMARK SMILES IDX 18 1 17 2 16 3 15 4 13 5 14 6 12 8 9 9 10 10 11 11 8 12 5 13
REMARK SMILES IDX 6 14 7 15 4 16 1 17 2 18 3 19 89 20 88 21 90 22 19 23 20 24
REMARK SMILES IDX 21 25 22 26 23 27 24 29 25 30 26 31 87 32 27 33 86 34 28 35
REMARK SMILES IDX 29 36 30 37 80 38 31 39 85 40 79 41 81 42 32 43 84 44 78 45
REMARK SMILES IDX 77 46 33 48 65 49 45 50 64 51 46 52 49 53 63 54 82 55 47 56
REMARK SMILES IDX 48 57 62 59 83 60 50 61 34 62 35 63 43 64 36 65 42 66 44 67
REMARK SMILES IDX 41 68 37 69 38 70 39 71 40 72 66 73 67 74 75 75 68 76 74 77
REMARK SMILES IDX 76 78 73 79 69 80 70 81 71 82 72 83 51 84 52 85 60 86 53 87
REMARK SMILES IDX 59 88 61 89 58 90 54 91 55 92 56 93 57 94
REMARK H PARENT 15 7 22 28 81 47 49 58
REMARK Flexibility Score: inf
ROOT
ATOM      1  C   UNL A   1      32.493  30.389  26.655  1.00  0.00     0.002 C 
ENDROOT
BRANCH   1   2
ATOM      2  C   UNL A   1      31.755  29.180  27.226  1.00  0.00     0.021 C 
BRANCH   2   3
ATOM      3  C   UNL A   1      32.432  27.845  26.920  1.00  0.00     0.116 C 
BRANCH   3   4
ATOM      4  N   UNL A   1      31.481  26.764  27.038  1.00  0.00    -0.356 N 
ATOM      5  C   UNL A   1      30.542  26.345  26.152  1.00  0.00     0.220 C 
ATOM      6  O   UNL A   1      29.759  25.463  26.504  1.00  0.00    -0.275 OA
ATOM      7  H   UNL A   1      31.521  26.260  27.882  1.00  0.00     0.163 HD
BRANCH   5   8
ATOM      8  C   UNL A   1      30.519  26.906  24.744  1.00  0.00     0.106 C 
BRANCH   8   9
ATOM      9  C   UNL A   1      31.076  26.057  23.568  1.00  0.00    -0.021 C 
ATOM     10  C   UNL A   1      30.974  26.992  22.342  1.00  0.00     0.012 C 
ATOM     11  C   UNL A   1      30.200  24.845  23.190  1.00  0.00     0.012 C 
BRANCH   9  12
ATOM     12  C   UNL A   1      32.494  25.464  23.882  1.00  0.00     0.090 C 
BRANCH  12  13
ATOM     13  C   UNL A   1      33.254  24.651  22.827  1.00  0.00     0.282 C 
ATOM     14  F   UNL A   1      34.370  25.356  22.486  1.00  0.00    -0.200 F 
ATOM     15  F   UNL A   1      32.492  24.590  21.701  1.00  0.00    -0.200 F 
BRANCH  13  16
ATOM     16  C   UNL A   1      33.650  23.279  23.293  1.00  0.00     0.075 A 
ATOM     17  C   UNL A   1      35.637  21.205  25.664  1.00  0.00     0.046 C 
ATOM     18  C   UNL A   1      34.677  21.649  24.611  1.00  0.00    -0.025 A 
ATOM     19  C   UNL A   1      34.843  22.855  23.856  1.00  0.00     0.026 A 
ATOM     20  C   UNL A   1      33.494  21.039  24.256  1.00  0.00     0.073 A 
ATOM     21  S   UNL A   1      32.534  21.978  23.219  1.00  0.00    -0.127 S 
ATOM     22  Br  UNL A   1      32.916  19.374  24.901  1.00  0.00    -0.039 Br
ENDBRANCH  13  16
ENDBRANCH  12  13
ENDBRANCH   9  12
ENDBRANCH   8   9
ENDBRANCH   5   8
ENDBRANCH   3   4
ENDBRANCH   2   3
ENDBRANCH   1   2
BRANCH   1  23
ATOM     23  C   UNL A   1      33.561  30.990  27.577  1.00  0.00     0.002 C 
BRANCH  23  24
ATOM     24  C   UNL A   1      35.017  30.635  27.243  1.00  0.00     0.021 C 
BRANCH  24  25
ATOM     25  C   UNL A   1      35.564  29.488  28.076  1.00  0.00     0.116 C 
BRANCH  25  26
ATOM     26  N   UNL A   1      35.614  29.823  29.499  1.00  0.00    -0.352 N 
ATOM     27  C   UNL A   1      36.565  29.493  30.450  1.00  0.00     0.251 C 
ATOM     28  H   UNL A   1      34.860  30.363  29.829  1.00  0.00     0.163 HD
ATOM     29  O   UNL A   1      36.284  29.523  31.634  1.00  0.00    -0.269 OA
BRANCH  27  30
ATOM     30  C   UNL A   1      37.921  29.124  29.999  1.00  0.00     0.039 A 
ATOM     31  C   UNL A   1      38.579  29.803  28.967  1.00  0.00     0.014 A 
ATOM     32  C   UNL A   1      38.529  28.046  30.629  1.00  0.00     0.014 A 
ATOM     33  C   UNL A   1      39.864  29.392  28.608  1.00  0.00     0.010 A 
ATOM     34  C   UNL A   1      39.855  27.805  30.445  1.00  0.00     0.010 A 
ATOM     35  C   UNL A   1      40.484  28.383  29.354  1.00  0.00    -0.014 A 
BRANCH  35  36
ATOM     36  C   UNL A   1      41.841  27.917  29.111  1.00  0.00     0.031 A 
ATOM     37  C   UNL A   1      41.894  26.673  28.308  1.00  0.00     0.074 A 
ATOM     38  C   UNL A   1      42.900  28.743  29.276  1.00  0.00     0.049 A 
ATOM     39  N   UNL A   1      42.181  25.480  28.710  1.00  0.00    -0.248 NA
ATOM     40  C   UNL A   1      41.331  26.714  26.943  1.00  0.00     0.031 C 
ATOM     41  C   UNL A   1      42.895  30.149  29.708  1.00  0.00     0.029 A 
ATOM     42  N   UNL A   1      44.204  28.550  28.950  1.00  0.00    -0.354 N 
ATOM     43  C   UNL A   1      42.127  24.690  27.567  1.00  0.00     0.074 A 
ATOM     44  C   UNL A   1      41.304  25.415  26.643  1.00  0.00     0.031 C 
ATOM     45  C   UNL A   1      44.075  30.728  29.388  1.00  0.00     0.029 A 
ATOM     46  C   UNL A   1      44.971  29.713  28.863  1.00  0.00     0.049 A 
ATOM     47  H   UNL A   1      44.581  27.655  28.788  1.00  0.00     0.167 HD
ATOM     48  C   UNL A   1      43.035  23.695  27.356  1.00  0.00     0.034 A 
ATOM     49  C   UNL A   1      46.228  29.829  28.346  1.00  0.00     0.034 A 
ATOM     50  C   UNL A   1      43.780  23.427  28.575  1.00  0.00     0.049 A 
ATOM     51  C   UNL A   1      46.798  28.454  28.329  1.00  0.00     0.074 A 
ATOM     52  C   UNL A   1      43.428  23.094  29.870  1.00  0.00     0.029 A 
ATOM     53  N   UNL A   1      45.070  23.911  28.660  1.00  0.00    -0.354 N 
ATOM     54  N   UNL A   1      47.032  27.764  29.413  1.00  0.00    -0.248 NA
ATOM     55  C   UNL A   1      46.602  27.657  27.124  1.00  0.00     0.031 C 
ATOM     56  C   UNL A   1      44.297  23.870  30.695  1.00  0.00     0.029 A 
ATOM     57  C   UNL A   1      45.204  24.541  29.873  1.00  0.00     0.049 A 
ATOM     58  H   UNL A   1      45.771  23.820  27.974  1.00  0.00     0.167 HD
ATOM     59  C   UNL A   1      46.582  26.481  29.131  1.00  0.00     0.074 A 
ATOM     60  C   UNL A   1      46.410  26.454  27.677  1.00  0.00     0.031 C 
ATOM     61  C   UNL A   1      46.092  25.666  30.113  1.00  0.00     0.034 A 
BRANCH  48  62
ATOM     62  C   UNL A   1      43.560  23.260  25.996  1.00  0.00     0.023 A 
ATOM     63  C   UNL A   1      43.436  21.891  25.694  1.00  0.00     0.031 A 
ATOM     64  C   UNL A   1      44.395  23.995  25.124  1.00  0.00     0.131 A 
ATOM     65  C   UNL A   1      44.232  21.289  24.706  1.00  0.00     0.055 A 
ATOM     66  C   UNL A   1      45.133  23.403  24.094  1.00  0.00     0.041 A 
ATOM     67  F   UNL A   1      44.612  25.308  25.240  1.00  0.00    -0.206 F 
ATOM     68  C   UNL A   1      45.090  22.034  23.908  1.00  0.00     0.022 A 
BRANCH  65  69
ATOM     69  S   UNL A   1      44.265  19.483  24.634  1.00  0.00     0.124 S 
ATOM     70  O   UNL A   1      42.910  19.155  25.065  1.00  0.00    -0.237 OA
ATOM     71  O   UNL A   1      44.570  19.247  23.227  1.00  0.00    -0.237 OA
ATOM     72  O   UNL A   1      45.325  19.128  25.573  1.00  0.00    -0.744 OA
ENDBRANCH  65  69
ENDBRANCH  48  62
BRANCH  49  73
ATOM     73  C   UNL A   1      46.797  30.975  27.567  1.00  0.00     0.023 A 
ATOM     74  C   UNL A   1      46.006  31.992  26.979  1.00  0.00     0.031 A 
ATOM     75  C   UNL A   1      48.192  31.208  27.594  1.00  0.00     0.131 A 
ATOM     76  C   UNL A   1      46.614  33.162  26.452  1.00  0.00     0.055 A 
ATOM     77  C   UNL A   1      48.785  32.362  27.070  1.00  0.00     0.041 A 
ATOM     78  F   UNL A   1      49.027  30.359  28.211  1.00  0.00    -0.206 F 
ATOM     79  C   UNL A   1      47.997  33.349  26.503  1.00  0.00     0.022 A 
BRANCH  76  80
ATOM     80  S   UNL A   1      45.606  34.518  25.756  1.00  0.00     0.124 S 
ATOM     81  O   UNL A   1      46.605  35.549  25.502  1.00  0.00    -0.237 OA
ATOM     82  O   UNL A   1      45.002  33.893  24.586  1.00  0.00    -0.237 OA
ATOM     83  O   UNL A   1      44.665  34.830  26.833  1.00  0.00    -0.744 OA
ENDBRANCH  76  80
ENDBRANCH  49  73
BRANCH  61  84
ATOM     84  C   UNL A   1      46.312  26.054  31.565  1.00  0.00     0.023 A 
ATOM     85  C   UNL A   1      45.318  26.549  32.442  1.00  0.00     0.031 A 
ATOM     86  C   UNL A   1      47.575  25.762  32.111  1.00  0.00     0.131 A 
ATOM     87  C   UNL A   1      45.615  26.733  33.809  1.00  0.00     0.055 A 
ATOM     88  C   UNL A   1      47.856  25.924  33.466  1.00  0.00     0.041 A 
ATOM     89  F   UNL A   1      48.552  25.264  31.336  1.00  0.00    -0.206 F 
ATOM     90  C   UNL A   1      46.877  26.415  34.321  1.00  0.00     0.022 A 
BRANCH  87  91
ATOM     91  S   UNL A   1      44.367  27.407  34.957  1.00  0.00     0.124 S 
ATOM     92  O   UNL A   1      44.527  28.851  34.825  1.00  0.00    -0.237 OA
ATOM     93  O   UNL A   1      43.122  26.851  34.433  1.00  0.00    -0.237 OA
ATOM     94  O   UNL A   1      44.773  26.867  36.256  1.00  0.00    -0.744 OA
ENDBRANCH  87  91
ENDBRANCH  61  84
ENDBRANCH  35  36
ENDBRANCH  27  30
ENDBRANCH  25  26
ENDBRANCH  24  25
ENDBRANCH  23  24
ENDBRANCH   1  23
TORSDOF 20
ENDMDL
