MODEL 1
REMARK VINA RESULT:     -11.3      0.000      0.000
REMARK SMILES C[C@H](C(=O)NCCCCCCNC(=O)c1ccc(-c2c3nc(c(-c4cc(S(=O)(=O)[O-])ccc4F)c4ccc([nH]4)c(-c4cc(S(=O)(=O)[O-])ccc4F)c4nc(c(-c5cc(S(=O)(=O)[O-])ccc5F)c5ccc2[nH]5)C=C4)C=C3)cc1)[C@H](C)[N@@H+]1CC[C@H]([NH+]2CCCCC2)C1
REMARK SMILES IDX 8 1 7 2 6 3 5 4 3 5 4 6 2 8 1 9 78 10 79 11 80 12 81 13
REMARK SMILES IDX 90 14 82 16 83 17 84 18 85 19 89 20 86 22 88 23 87 24 9 25
REMARK SMILES IDX 10 26 11 27 12 28 13 29 14 31 15 32 16 33 77 34 17 35 76 36
REMARK SMILES IDX 18 37 19 38 20 39 70 40 21 41 75 42 69 43 71 44 22 45 74 46
REMARK SMILES IDX 68 47 67 48 23 50 55 51 35 52 54 53 36 54 39 55 53 56 72 57
REMARK SMILES IDX 37 58 38 59 52 61 73 62 40 63 24 64 25 65 33 66 26 67 32 68
REMARK SMILES IDX 34 69 31 70 27 71 28 72 29 73 30 74 56 75 57 76 65 77 58 78
REMARK SMILES IDX 64 79 66 80 63 81 59 82 60 83 61 84 62 85 41 86 42 87 50 88
REMARK SMILES IDX 43 89 49 90 51 91 48 92 44 93 45 94 46 95 47 96
REMARK H PARENT 5 7 80 15 84 21 12 30 71 49 39 60
REMARK Flexibility Score: inf
ROOT
ATOM      1  C   UNL A   1      32.297  29.356  26.925  1.00  0.00     0.002 C 
ENDROOT
BRANCH   1   2
ATOM      2  C   UNL A   1      31.440  28.087  26.981  1.00  0.00     0.021 C 
BRANCH   2   3
ATOM      3  C   UNL A   1      32.140  26.820  26.490  1.00  0.00     0.116 C 
BRANCH   3   4
ATOM      4  N   UNL A   1      31.410  25.631  26.872  1.00  0.00    -0.356 N 
ATOM      5  C   UNL A   1      31.715  24.314  26.720  1.00  0.00     0.228 C 
ATOM      6  O   UNL A   1      30.955  23.500  27.252  1.00  0.00    -0.275 OA
ATOM      7  H   UNL A   1      30.547  25.804  27.316  1.00  0.00     0.163 HD
BRANCH   5   8
ATOM      8  C   UNL A   1      32.977  23.889  25.964  1.00  0.00     0.133 C 
ATOM      9  C   UNL A   1      33.977  23.331  26.992  1.00  0.00     0.024 C 
BRANCH   8  10
ATOM     10  C   UNL A   1      32.736  22.844  24.829  1.00  0.00     0.193 C 
ATOM     11  C   UNL A   1      33.392  21.490  25.132  1.00  0.00     0.076 C 
BRANCH  10  12
ATOM     12  N   UNL A   1      32.976  23.420  23.495  1.00  0.00    -0.327 N 
ATOM     13  C   UNL A   1      34.155  24.282  23.402  1.00  0.00     0.269 C 
ATOM     14  C   UNL A   1      31.868  24.114  22.807  1.00  0.00     0.328 C 
ATOM     15  H   UNL A   1      33.117  22.541  22.998  1.00  0.00     0.348 HD
ATOM     16  C   UNL A   1      33.601  25.691  23.370  1.00  0.00     0.132 C 
ATOM     17  C   UNL A   1      32.377  25.541  22.467  1.00  0.00     0.245 C 
BRANCH  17  18
ATOM     18  N   UNL A   1      31.414  26.664  22.457  1.00  0.00    -0.328 N 
ATOM     19  C   UNL A   1      30.256  26.483  23.345  1.00  0.00     0.262 C 
ATOM     20  C   UNL A   1      32.100  27.941  22.732  1.00  0.00     0.262 C 
ATOM     21  H   UNL A   1      31.025  26.686  21.515  1.00  0.00     0.348 HD
ATOM     22  C   UNL A   1      29.273  27.655  23.251  1.00  0.00     0.062 C 
ATOM     23  C   UNL A   1      31.166  29.146  22.627  1.00  0.00     0.062 C 
ATOM     24  C   UNL A   1      29.960  28.982  23.540  1.00  0.00     0.012 C 
ENDBRANCH  17  18
ENDBRANCH  10  12
ENDBRANCH   8  10
ENDBRANCH   5   8
ENDBRANCH   3   4
ENDBRANCH   2   3
ENDBRANCH   1   2
BRANCH   1  25
ATOM     25  C   UNL A   1      31.728  30.497  26.078  1.00  0.00     0.002 C 
BRANCH  25  26
ATOM     26  C   UNL A   1      31.592  31.843  26.796  1.00  0.00     0.021 C 
BRANCH  26  27
ATOM     27  C   UNL A   1      32.897  32.435  27.323  1.00  0.00     0.116 C 
BRANCH  27  28
ATOM     28  N   UNL A   1      32.755  33.831  27.697  1.00  0.00    -0.352 N 
ATOM     29  C   UNL A   1      33.396  34.544  28.677  1.00  0.00     0.251 C 
ATOM     30  H   UNL A   1      32.103  34.342  27.166  1.00  0.00     0.163 HD
ATOM     31  O   UNL A   1      32.994  35.676  28.954  1.00  0.00    -0.269 OA
BRANCH  29  32
ATOM     32  C   UNL A   1      34.537  33.962  29.418  1.00  0.00     0.039 A 
ATOM     33  C   UNL A   1      34.271  33.063  30.454  1.00  0.00     0.014 A 
ATOM     34  C   UNL A   1      35.859  34.318  29.128  1.00  0.00     0.014 A 
ATOM     35  C   UNL A   1      35.326  32.484  31.162  1.00  0.00     0.010 A 
ATOM     36  C   UNL A   1      36.914  33.689  29.791  1.00  0.00     0.010 A 
ATOM     37  C   UNL A   1      36.659  32.769  30.819  1.00  0.00    -0.014 A 
BRANCH  37  38
ATOM     38  C   UNL A   1      37.781  32.101  31.533  1.00  0.00     0.031 A 
ATOM     39  C   UNL A   1      38.547  30.982  30.879  1.00  0.00     0.074 A 
ATOM     40  C   UNL A   1      38.094  32.494  32.783  1.00  0.00     0.049 A 
ATOM     41  N   UNL A   1      39.550  30.283  31.346  1.00  0.00    -0.248 NA
ATOM     42  C   UNL A   1      38.113  30.582  29.532  1.00  0.00     0.031 C 
ATOM     43  C   UNL A   1      37.391  33.532  33.542  1.00  0.00     0.029 A 
ATOM     44  N   UNL A   1      39.080  32.072  33.640  1.00  0.00    -0.354 N 
ATOM     45  C   UNL A   1      39.874  29.368  30.351  1.00  0.00     0.074 A 
ATOM     46  C   UNL A   1      38.911  29.554  29.285  1.00  0.00     0.031 C 
ATOM     47  C   UNL A   1      37.984  33.682  34.737  1.00  0.00     0.029 A 
ATOM     48  C   UNL A   1      39.084  32.730  34.848  1.00  0.00     0.049 A 
ATOM     49  H   UNL A   1      39.725  31.364  33.410  1.00  0.00     0.167 HD
ATOM     50  C   UNL A   1      40.895  28.475  30.315  1.00  0.00     0.034 A 
ATOM     51  C   UNL A   1      39.881  32.582  35.925  1.00  0.00     0.034 A 
ATOM     52  C   UNL A   1      41.846  28.297  31.386  1.00  0.00     0.049 A 
ATOM     53  C   UNL A   1      41.003  31.577  35.865  1.00  0.00     0.074 A 
ATOM     54  C   UNL A   1      42.930  27.439  31.446  1.00  0.00     0.029 A 
ATOM     55  N   UNL A   1      41.826  28.990  32.591  1.00  0.00    -0.354 N 
ATOM     56  N   UNL A   1      41.322  30.751  34.894  1.00  0.00    -0.248 NA
ATOM     57  C   UNL A   1      41.884  31.498  37.036  1.00  0.00     0.031 C 
ATOM     58  C   UNL A   1      43.530  27.569  32.704  1.00  0.00     0.029 A 
ATOM     59  C   UNL A   1      42.865  28.563  33.405  1.00  0.00     0.049 A 
ATOM     60  H   UNL A   1      41.170  29.683  32.832  1.00  0.00     0.167 HD
ATOM     61  C   UNL A   1      42.457  30.074  35.332  1.00  0.00     0.074 A 
ATOM     62  C   UNL A   1      42.782  30.609  36.638  1.00  0.00     0.031 C 
ATOM     63  C   UNL A   1      43.166  29.094  34.714  1.00  0.00     0.034 A 
BRANCH  50  64
ATOM     64  C   UNL A   1      41.023  27.616  29.079  1.00  0.00     0.023 A 
ATOM     65  C   UNL A   1      42.017  27.864  28.115  1.00  0.00     0.031 A 
ATOM     66  C   UNL A   1      40.139  26.548  28.850  1.00  0.00     0.131 A 
ATOM     67  C   UNL A   1      42.061  27.100  26.938  1.00  0.00     0.055 A 
ATOM     68  C   UNL A   1      40.236  25.743  27.713  1.00  0.00     0.041 A 
ATOM     69  F   UNL A   1      39.156  26.275  29.723  1.00  0.00    -0.206 F 
ATOM     70  C   UNL A   1      41.193  26.024  26.742  1.00  0.00     0.022 A 
BRANCH  67  71
ATOM     71  S   UNL A   1      43.184  27.617  25.611  1.00  0.00     0.124 S 
ATOM     72  O   UNL A   1      43.816  26.349  25.252  1.00  0.00    -0.237 OA
ATOM     73  O   UNL A   1      42.271  28.180  24.624  1.00  0.00    -0.237 OA
ATOM     74  O   UNL A   1      44.067  28.581  26.267  1.00  0.00    -0.744 OA
ENDBRANCH  67  71
ENDBRANCH  50  64
BRANCH  51  75
ATOM     75  C   UNL A   1      39.648  33.390  37.157  1.00  0.00     0.023 A 
ATOM     76  C   UNL A   1      38.979  32.850  38.267  1.00  0.00     0.031 A 
ATOM     77  C   UNL A   1      40.045  34.738  37.219  1.00  0.00     0.131 A 
ATOM     78  C   UNL A   1      38.676  33.668  39.367  1.00  0.00     0.055 A 
ATOM     79  C   UNL A   1      39.792  35.531  38.340  1.00  0.00     0.041 A 
ATOM     80  F   UNL A   1      40.693  35.304  36.188  1.00  0.00    -0.206 F 
ATOM     81  C   UNL A   1      39.088  35.001  39.416  1.00  0.00     0.022 A 
BRANCH  78  82
ATOM     82  S   UNL A   1      37.638  32.990  40.692  1.00  0.00     0.124 S 
ATOM     83  O   UNL A   1      36.297  33.218  40.166  1.00  0.00    -0.237 OA
ATOM     84  O   UNL A   1      38.081  31.601  40.741  1.00  0.00    -0.237 OA
ATOM     85  O   UNL A   1      37.998  33.800  41.853  1.00  0.00    -0.744 OA
ENDBRANCH  78  82
ENDBRANCH  51  75
BRANCH  63  86
ATOM     86  C   UNL A   1      44.379  28.570  35.445  1.00  0.00     0.023 A 
ATOM     87  C   UNL A   1      44.267  27.604  36.460  1.00  0.00     0.031 A 
ATOM     88  C   UNL A   1      45.659  29.073  35.148  1.00  0.00     0.131 A 
ATOM     89  C   UNL A   1      45.402  27.225  37.192  1.00  0.00     0.055 A 
ATOM     90  C   UNL A   1      46.794  28.642  35.837  1.00  0.00     0.041 A 
ATOM     91  F   UNL A   1      45.825  29.997  34.189  1.00  0.00    -0.206 F 
ATOM     92  C   UNL A   1      46.667  27.726  36.878  1.00  0.00     0.022 A 
BRANCH  89  93
ATOM     93  S   UNL A   1      45.183  26.153  38.640  1.00  0.00     0.124 S 
ATOM     94  O   UNL A   1      46.150  26.710  39.580  1.00  0.00    -0.237 OA
ATOM     95  O   UNL A   1      43.778  26.362  38.972  1.00  0.00    -0.237 OA
ATOM     96  O   UNL A   1      45.508  24.821  38.132  1.00  0.00    -0.744 OA
ENDBRANCH  89  93
ENDBRANCH  63  86
ENDBRANCH  37  38
ENDBRANCH  29  32
ENDBRANCH  27  28
ENDBRANCH  26  27
ENDBRANCH  25  26
ENDBRANCH   1  25
TORSDOF 19
ENDMDL
MODEL 2
REMARK VINA RESULT:     -11.2      2.591      8.586
REMARK SMILES C[C@H](C(=O)NCCCCCCNC(=O)c1ccc(-c2c3nc(c(-c4cc(S(=O)(=O)[O-])ccc4F)c4ccc([nH]4)c(-c4cc(S(=O)(=O)[O-])ccc4F)c4nc(c(-c5cc(S(=O)(=O)[O-])ccc5F)c5ccc2[nH]5)C=C4)C=C3)cc1)[C@H](C)[N@@H+]1CC[C@H]([NH+]2CCCCC2)C1
REMARK SMILES IDX 8 1 7 2 6 3 5 4 3 5 4 6 2 8 1 9 78 10 79 11 80 12 81 13
REMARK SMILES IDX 90 14 82 16 83 17 84 18 85 19 89 20 86 22 88 23 87 24 9 25
REMARK SMILES IDX 10 26 11 27 12 28 13 29 14 31 15 32 16 33 77 34 17 35 76 36
REMARK SMILES IDX 18 37 19 38 20 39 70 40 21 41 75 42 69 43 71 44 22 45 74 46
REMARK SMILES IDX 68 47 67 48 23 50 55 51 35 52 54 53 36 54 39 55 53 56 72 57
REMARK SMILES IDX 37 58 38 59 52 61 73 62 40 63 24 64 25 65 33 66 26 67 32 68
REMARK SMILES IDX 34 69 31 70 27 71 28 72 29 73 30 74 56 75 57 76 65 77 58 78
REMARK SMILES IDX 64 79 66 80 63 81 59 82 60 83 61 84 62 85 41 86 42 87 50 88
REMARK SMILES IDX 43 89 49 90 51 91 48 92 44 93 45 94 46 95 47 96
REMARK H PARENT 5 7 80 15 84 21 12 30 71 49 39 60
REMARK Flexibility Score: inf
ROOT
ATOM      1  C   UNL A   1      30.197  28.605  23.837  1.00  0.00     0.002 C 
ENDROOT
BRANCH   1   2
ATOM      2  C   UNL A   1      30.617  28.180  22.425  1.00  0.00     0.021 C 
BRANCH   2   3
ATOM      3  C   UNL A   1      31.421  26.882  22.361  1.00  0.00     0.116 C 
BRANCH   3   4
ATOM      4  N   UNL A   1      31.086  25.998  23.456  1.00  0.00    -0.356 N 
ATOM      5  C   UNL A   1      31.883  25.290  24.302  1.00  0.00     0.228 C 
ATOM      6  O   UNL A   1      31.325  24.701  25.232  1.00  0.00    -0.275 OA
ATOM      7  H   UNL A   1      30.120  25.890  23.616  1.00  0.00     0.163 HD
BRANCH   5   8
ATOM      8  C   UNL A   1      33.403  25.283  24.117  1.00  0.00     0.133 C 
ATOM      9  C   UNL A   1      34.035  25.870  25.392  1.00  0.00     0.024 C 
BRANCH   8  10
ATOM     10  C   UNL A   1      34.016  23.880  23.812  1.00  0.00     0.193 C 
ATOM     11  C   UNL A   1      33.354  23.202  22.604  1.00  0.00     0.076 C 
BRANCH  10  12
ATOM     12  N   UNL A   1      34.169  23.072  25.033  1.00  0.00    -0.327 N 
ATOM     13  C   UNL A   1      35.544  22.675  25.337  1.00  0.00     0.269 C 
ATOM     14  C   UNL A   1      33.317  21.879  25.211  1.00  0.00     0.328 C 
ATOM     15  H   UNL A   1      33.829  23.770  25.694  1.00  0.00     0.348 HD
ATOM     16  C   UNL A   1      35.618  21.212  24.949  1.00  0.00     0.132 C 
ATOM     17  C   UNL A   1      34.273  20.677  25.440  1.00  0.00     0.245 C 
BRANCH  17  18
ATOM     18  N   UNL A   1      33.872  19.337  24.954  1.00  0.00    -0.328 N 
ATOM     19  C   UNL A   1      33.013  19.353  23.760  1.00  0.00     0.262 C 
ATOM     20  C   UNL A   1      35.057  18.483  24.746  1.00  0.00     0.262 C 
ATOM     21  H   UNL A   1      33.293  18.939  25.692  1.00  0.00     0.348 HD
ATOM     22  C   UNL A   1      32.594  17.940  23.339  1.00  0.00     0.062 C 
ATOM     23  C   UNL A   1      34.690  17.054  24.348  1.00  0.00     0.062 C 
ATOM     24  C   UNL A   1      33.803  17.045  23.111  1.00  0.00     0.012 C 
ENDBRANCH  17  18
ENDBRANCH  10  12
ENDBRANCH   8  10
ENDBRANCH   5   8
ENDBRANCH   3   4
ENDBRANCH   2   3
ENDBRANCH   1   2
BRANCH   1  25
ATOM     25  C   UNL A   1      31.171  29.541  24.559  1.00  0.00     0.002 C 
BRANCH  25  26
ATOM     26  C   UNL A   1      31.895  28.932  25.763  1.00  0.00     0.021 C 
BRANCH  26  27
ATOM     27  C   UNL A   1      33.226  29.589  26.123  1.00  0.00     0.116 C 
BRANCH  27  28
ATOM     28  N   UNL A   1      33.059  30.960  26.572  1.00  0.00    -0.352 N 
ATOM     29  C   UNL A   1      33.783  31.674  27.491  1.00  0.00     0.251 C 
ATOM     30  H   UNL A   1      32.314  31.449  26.154  1.00  0.00     0.163 HD
ATOM     31  O   UNL A   1      33.360  32.769  27.867  1.00  0.00    -0.269 OA
BRANCH  29  32
ATOM     32  C   UNL A   1      35.043  31.136  28.051  1.00  0.00     0.039 A 
ATOM     33  C   UNL A   1      36.185  31.940  28.019  1.00  0.00     0.014 A 
ATOM     34  C   UNL A   1      35.120  29.840  28.574  1.00  0.00     0.014 A 
ATOM     35  C   UNL A   1      37.385  31.468  28.553  1.00  0.00     0.010 A 
ATOM     36  C   UNL A   1      36.302  29.395  29.167  1.00  0.00     0.010 A 
ATOM     37  C   UNL A   1      37.449  30.202  29.159  1.00  0.00    -0.014 A 
BRANCH  37  38
ATOM     38  C   UNL A   1      38.713  29.728  29.784  1.00  0.00     0.031 A 
ATOM     39  C   UNL A   1      39.155  30.265  31.119  1.00  0.00     0.074 A 
ATOM     40  C   UNL A   1      39.474  28.826  29.133  1.00  0.00     0.049 A 
ATOM     41  N   UNL A   1      40.224  29.972  31.816  1.00  0.00    -0.248 NA
ATOM     42  C   UNL A   1      38.294  31.281  31.741  1.00  0.00     0.031 C 
ATOM     43  C   UNL A   1      39.176  28.269  27.811  1.00  0.00     0.029 A 
ATOM     44  N   UNL A   1      40.650  28.214  29.490  1.00  0.00    -0.354 N 
ATOM     45  C   UNL A   1      40.161  30.759  32.960  1.00  0.00     0.074 A 
ATOM     46  C   UNL A   1      38.986  31.594  32.828  1.00  0.00     0.031 C 
ATOM     47  C   UNL A   1      40.130  27.383  27.481  1.00  0.00     0.029 A 
ATOM     48  C   UNL A   1      41.123  27.331  28.547  1.00  0.00     0.049 A 
ATOM     49  H   UNL A   1      41.111  28.391  30.342  1.00  0.00     0.167 HD
ATOM     50  C   UNL A   1      40.989  30.765  34.036  1.00  0.00     0.034 A 
ATOM     51  C   UNL A   1      42.235  26.568  28.540  1.00  0.00     0.034 A 
ATOM     52  C   UNL A   1      42.160  29.930  34.154  1.00  0.00     0.049 A 
ATOM     53  C   UNL A   1      43.145  26.599  29.742  1.00  0.00     0.074 A 
ATOM     54  C   UNL A   1      43.055  29.839  35.206  1.00  0.00     0.029 A 
ATOM     55  N   UNL A   1      42.603  29.038  33.184  1.00  0.00    -0.354 N 
ATOM     56  N   UNL A   1      43.042  27.317  30.837  1.00  0.00    -0.248 NA
ATOM     57  C   UNL A   1      44.306  25.703  29.715  1.00  0.00     0.031 C 
ATOM     58  C   UNL A   1      44.067  28.941  34.851  1.00  0.00     0.029 A 
ATOM     59  C   UNL A   1      43.767  28.412  33.605  1.00  0.00     0.049 A 
ATOM     60  H   UNL A   1      42.156  28.875  32.322  1.00  0.00     0.167 HD
ATOM     61  C   UNL A   1      44.115  26.938  31.639  1.00  0.00     0.074 A 
ATOM     62  C   UNL A   1      44.831  25.908  30.914  1.00  0.00     0.031 C 
ATOM     63  C   UNL A   1      44.481  27.400  32.863  1.00  0.00     0.034 A 
BRANCH  50  64
ATOM     64  C   UNL A   1      40.658  31.717  35.161  1.00  0.00     0.023 A 
ATOM     65  C   UNL A   1      39.532  31.518  35.981  1.00  0.00     0.031 A 
ATOM     66  C   UNL A   1      41.463  32.841  35.413  1.00  0.00     0.131 A 
ATOM     67  C   UNL A   1      39.205  32.462  36.966  1.00  0.00     0.055 A 
ATOM     68  C   UNL A   1      41.175  33.735  36.446  1.00  0.00     0.041 A 
ATOM     69  F   UNL A   1      42.539  33.096  34.652  1.00  0.00    -0.206 F 
ATOM     70  C   UNL A   1      40.032  33.556  37.222  1.00  0.00     0.022 A 
BRANCH  67  71
ATOM     71  S   UNL A   1      37.612  32.306  37.820  1.00  0.00     0.124 S 
ATOM     72  O   UNL A   1      36.721  33.028  36.915  1.00  0.00    -0.237 OA
ATOM     73  O   UNL A   1      37.427  30.861  37.884  1.00  0.00    -0.237 OA
ATOM     74  O   UNL A   1      37.848  32.962  39.105  1.00  0.00    -0.744 OA
ENDBRANCH  67  71
ENDBRANCH  50  64
BRANCH  51  75
ATOM     75  C   UNL A   1      42.563  25.720  27.358  1.00  0.00     0.023 A 
ATOM     76  C   UNL A   1      42.136  24.385  27.278  1.00  0.00     0.031 A 
ATOM     77  C   UNL A   1      43.361  26.220  26.312  1.00  0.00     0.131 A 
ATOM     78  C   UNL A   1      42.555  23.579  26.208  1.00  0.00     0.055 A 
ATOM     79  C   UNL A   1      43.726  25.430  25.220  1.00  0.00     0.041 A 
ATOM     80  F   UNL A   1      43.791  27.491  26.334  1.00  0.00    -0.206 F 
ATOM     81  C   UNL A   1      43.337  24.095  25.172  1.00  0.00     0.022 A 
BRANCH  78  82
ATOM     82  S   UNL A   1      42.150  21.811  26.242  1.00  0.00     0.124 S 
ATOM     83  O   UNL A   1      42.549  21.440  27.595  1.00  0.00    -0.237 OA
ATOM     84  O   UNL A   1      40.715  21.825  25.978  1.00  0.00    -0.237 OA
ATOM     85  O   UNL A   1      42.973  21.252  25.172  1.00  0.00    -0.744 OA
ENDBRANCH  78  82
ENDBRANCH  51  75
BRANCH  63  86
ATOM     86  C   UNL A   1      45.695  26.762  33.494  1.00  0.00     0.023 A 
ATOM     87  C   UNL A   1      45.583  25.654  34.351  1.00  0.00     0.031 A 
ATOM     88  C   UNL A   1      46.977  27.296  33.266  1.00  0.00     0.131 A 
ATOM     89  C   UNL A   1      46.721  25.159  35.007  1.00  0.00     0.055 A 
ATOM     90  C   UNL A   1      48.114  26.757  33.871  1.00  0.00     0.041 A 
ATOM     91  F   UNL A   1      47.144  28.354  32.458  1.00  0.00    -0.206 F 
ATOM     92  C   UNL A   1      47.987  25.694  34.761  1.00  0.00     0.022 A 
BRANCH  89  93
ATOM     93  S   UNL A   1      46.503  23.880  36.276  1.00  0.00     0.124 S 
ATOM     94  O   UNL A   1      45.767  22.852  35.548  1.00  0.00    -0.237 OA
ATOM     95  O   UNL A   1      47.881  23.551  36.625  1.00  0.00    -0.237 OA
ATOM     96  O   UNL A   1      45.744  24.562  37.323  1.00  0.00    -0.744 OA
ENDBRANCH  89  93
ENDBRANCH  63  86
ENDBRANCH  37  38
ENDBRANCH  29  32
ENDBRANCH  27  28
ENDBRANCH  26  27
ENDBRANCH  25  26
ENDBRANCH   1  25
TORSDOF 19
ENDMDL
MODEL 3
REMARK VINA RESULT:     -11.2      2.647      8.391
REMARK SMILES C[C@H](C(=O)NCCCCCCNC(=O)c1ccc(-c2c3nc(c(-c4cc(S(=O)(=O)[O-])ccc4F)c4ccc([nH]4)c(-c4cc(S(=O)(=O)[O-])ccc4F)c4nc(c(-c5cc(S(=O)(=O)[O-])ccc5F)c5ccc2[nH]5)C=C4)C=C3)cc1)[C@H](C)[N@@H+]1CC[C@H]([NH+]2CCCCC2)C1
REMARK SMILES IDX 8 1 7 2 6 3 5 4 3 5 4 6 2 8 1 9 78 10 79 11 80 12 81 13
REMARK SMILES IDX 90 14 82 16 83 17 84 18 85 19 89 20 86 22 88 23 87 24 9 25
REMARK SMILES IDX 10 26 11 27 12 28 13 29 14 31 15 32 16 33 77 34 17 35 76 36
REMARK SMILES IDX 18 37 19 38 20 39 70 40 21 41 75 42 69 43 71 44 22 45 74 46
REMARK SMILES IDX 68 47 67 48 23 50 55 51 35 52 54 53 36 54 39 55 53 56 72 57
REMARK SMILES IDX 37 58 38 59 52 61 73 62 40 63 24 64 25 65 33 66 26 67 32 68
REMARK SMILES IDX 34 69 31 70 27 71 28 72 29 73 30 74 56 75 57 76 65 77 58 78
REMARK SMILES IDX 64 79 66 80 63 81 59 82 60 83 61 84 62 85 41 86 42 87 50 88
REMARK SMILES IDX 43 89 49 90 51 91 48 92 44 93 45 94 46 95 47 96
REMARK H PARENT 5 7 80 15 84 21 12 30 71 49 39 60
REMARK Flexibility Score: inf
ROOT
ATOM      1  C   UNL A   1      33.374  26.625  24.065  1.00  0.00     0.002 C 
ENDROOT
BRANCH   1   2
ATOM      2  C   UNL A   1      32.868  26.108  22.714  1.00  0.00     0.021 C 
BRANCH   2   3
ATOM      3  C   UNL A   1      31.562  25.318  22.781  1.00  0.00     0.116 C 
BRANCH   3   4
ATOM      4  N   UNL A   1      31.784  23.908  22.545  1.00  0.00    -0.356 N 
ATOM      5  C   UNL A   1      31.972  22.880  23.416  1.00  0.00     0.228 C 
ATOM      6  O   UNL A   1      32.021  21.744  22.936  1.00  0.00    -0.275 OA
ATOM      7  H   UNL A   1      31.803  23.649  21.594  1.00  0.00     0.163 HD
BRANCH   5   8
ATOM      8  C   UNL A   1      32.062  23.142  24.921  1.00  0.00     0.133 C 
ATOM      9  C   UNL A   1      30.815  22.530  25.583  1.00  0.00     0.024 C 
BRANCH   8  10
ATOM     10  C   UNL A   1      33.355  22.591  25.603  1.00  0.00     0.193 C 
ATOM     11  C   UNL A   1      33.811  23.460  26.783  1.00  0.00     0.076 C 
BRANCH  10  12
ATOM     12  N   UNL A   1      34.379  22.218  24.612  1.00  0.00    -0.327 N 
ATOM     13  C   UNL A   1      34.872  20.845  24.728  1.00  0.00     0.269 C 
ATOM     14  C   UNL A   1      35.555  23.094  24.436  1.00  0.00     0.328 C 
ATOM     15  H   UNL A   1      33.803  22.337  23.779  1.00  0.00     0.348 HD
ATOM     16  C   UNL A   1      36.240  20.978  25.365  1.00  0.00     0.132 C 
ATOM     17  C   UNL A   1      36.810  22.207  24.657  1.00  0.00     0.245 C 
BRANCH  17  18
ATOM     18  N   UNL A   1      38.023  22.814  25.250  1.00  0.00    -0.328 N 
ATOM     19  C   UNL A   1      37.763  23.966  26.127  1.00  0.00     0.262 C 
ATOM     20  C   UNL A   1      38.833  21.792  25.940  1.00  0.00     0.262 C 
ATOM     21  H   UNL A   1      38.553  23.192  24.466  1.00  0.00     0.348 HD
ATOM     22  C   UNL A   1      39.060  24.578  26.667  1.00  0.00     0.062 C 
ATOM     23  C   UNL A   1      40.151  22.349  26.476  1.00  0.00     0.062 C 
ATOM     24  C   UNL A   1      39.906  23.541  27.390  1.00  0.00     0.012 C 
ENDBRANCH  17  18
ENDBRANCH  10  12
ENDBRANCH   8  10
ENDBRANCH   5   8
ENDBRANCH   3   4
ENDBRANCH   2   3
ENDBRANCH   1   2
BRANCH   1  25
ATOM     25  C   UNL A   1      32.326  26.691  25.179  1.00  0.00     0.002 C 
BRANCH  25  26
ATOM     26  C   UNL A   1      32.425  27.907  26.103  1.00  0.00     0.021 C 
BRANCH  26  27
ATOM     27  C   UNL A   1      33.277  29.059  25.576  1.00  0.00     0.116 C 
BRANCH  27  28
ATOM     28  N   UNL A   1      32.814  30.350  26.054  1.00  0.00    -0.352 N 
ATOM     29  C   UNL A   1      33.309  31.141  27.058  1.00  0.00     0.251 C 
ATOM     30  H   UNL A   1      32.026  30.711  25.587  1.00  0.00     0.163 HD
ATOM     31  O   UNL A   1      32.655  32.116  27.431  1.00  0.00    -0.269 OA
BRANCH  29  32
ATOM     32  C   UNL A   1      34.599  30.822  27.711  1.00  0.00     0.039 A 
ATOM     33  C   UNL A   1      35.578  31.817  27.776  1.00  0.00     0.014 A 
ATOM     34  C   UNL A   1      34.866  29.549  28.227  1.00  0.00     0.014 A 
ATOM     35  C   UNL A   1      36.799  31.554  28.399  1.00  0.00     0.010 A 
ATOM     36  C   UNL A   1      36.061  29.307  28.907  1.00  0.00     0.010 A 
ATOM     37  C   UNL A   1      37.042  30.305  28.997  1.00  0.00    -0.014 A 
BRANCH  37  38
ATOM     38  C   UNL A   1      38.319  30.049  29.715  1.00  0.00     0.031 A 
ATOM     39  C   UNL A   1      38.560  30.635  31.081  1.00  0.00     0.074 A 
ATOM     40  C   UNL A   1      39.272  29.303  29.123  1.00  0.00     0.049 A 
ATOM     41  N   UNL A   1      39.609  30.523  31.856  1.00  0.00    -0.248 NA
ATOM     42  C   UNL A   1      37.491  31.477  31.637  1.00  0.00     0.031 C 
ATOM     43  C   UNL A   1      39.176  28.723  27.781  1.00  0.00     0.029 A 
ATOM     44  N   UNL A   1      40.507  28.900  29.568  1.00  0.00    -0.354 N 
ATOM     45  C   UNL A   1      39.324  31.270  32.994  1.00  0.00     0.074 A 
ATOM     46  C   UNL A   1      38.034  31.889  32.774  1.00  0.00     0.031 C 
ATOM     47  C   UNL A   1      40.291  28.021  27.523  1.00  0.00     0.029 A 
ATOM     48  C   UNL A   1      41.196  28.127  28.662  1.00  0.00     0.049 A 
ATOM     49  H   UNL A   1      40.865  29.142  30.452  1.00  0.00     0.167 HD
ATOM     50  C   UNL A   1      40.056  31.404  34.129  1.00  0.00     0.034 A 
ATOM     51  C   UNL A   1      42.421  27.569  28.737  1.00  0.00     0.034 A 
ATOM     52  C   UNL A   1      41.343  30.783  34.335  1.00  0.00     0.049 A 
ATOM     53  C   UNL A   1      43.219  27.740  30.005  1.00  0.00     0.074 A 
ATOM     54  C   UNL A   1      42.158  30.834  35.452  1.00  0.00     0.029 A 
ATOM     55  N   UNL A   1      42.006  29.996  33.400  1.00  0.00    -0.354 N 
ATOM     56  N   UNL A   1      42.912  28.413  31.091  1.00  0.00    -0.248 NA
ATOM     57  C   UNL A   1      44.518  27.059  30.066  1.00  0.00     0.031 C 
ATOM     58  C   UNL A   1      43.335  30.130  35.173  1.00  0.00     0.029 A 
ATOM     59  C   UNL A   1      43.226  29.576  33.908  1.00  0.00     0.049 A 
ATOM     60  H   UNL A   1      41.659  29.771  32.507  1.00  0.00     0.167 HD
ATOM     61  C   UNL A   1      43.972  28.214  31.972  1.00  0.00     0.074 A 
ATOM     62  C   UNL A   1      44.908  27.335  31.302  1.00  0.00     0.031 C 
ATOM     63  C   UNL A   1      44.159  28.715  33.220  1.00  0.00     0.034 A 
BRANCH  50  64
ATOM     64  C   UNL A   1      39.481  32.266  35.228  1.00  0.00     0.023 A 
ATOM     65  C   UNL A   1      39.869  33.610  35.383  1.00  0.00     0.031 A 
ATOM     66  C   UNL A   1      38.546  31.744  36.138  1.00  0.00     0.131 A 
ATOM     67  C   UNL A   1      39.378  34.362  36.461  1.00  0.00     0.055 A 
ATOM     68  C   UNL A   1      38.003  32.522  37.163  1.00  0.00     0.041 A 
ATOM     69  F   UNL A   1      38.152  30.463  36.055  1.00  0.00    -0.206 F 
ATOM     70  C   UNL A   1      38.428  33.835  37.338  1.00  0.00     0.022 A 
BRANCH  67  71
ATOM     71  S   UNL A   1      40.099  35.997  36.775  1.00  0.00     0.124 S 
ATOM     72  O   UNL A   1      39.368  36.416  37.969  1.00  0.00    -0.237 OA
ATOM     73  O   UNL A   1      41.511  35.689  36.965  1.00  0.00    -0.237 OA
ATOM     74  O   UNL A   1      39.781  36.749  35.563  1.00  0.00    -0.744 OA
ENDBRANCH  67  71
ENDBRANCH  50  64
BRANCH  51  75
ATOM     75  C   UNL A   1      42.980  26.808  27.583  1.00  0.00     0.023 A 
ATOM     76  C   UNL A   1      43.104  25.410  27.623  1.00  0.00     0.031 A 
ATOM     77  C   UNL A   1      43.451  27.478  26.439  1.00  0.00     0.131 A 
ATOM     78  C   UNL A   1      43.736  24.733  26.568  1.00  0.00     0.055 A 
ATOM     79  C   UNL A   1      44.025  26.794  25.367  1.00  0.00     0.041 A 
ATOM     80  F   UNL A   1      43.350  28.814  26.345  1.00  0.00    -0.206 F 
ATOM     81  C   UNL A   1      44.187  25.414  25.435  1.00  0.00     0.022 A 
BRANCH  78  82
ATOM     82  S   UNL A   1      44.058  22.956  26.746  1.00  0.00     0.124 S 
ATOM     83  O   UNL A   1      43.525  22.430  25.494  1.00  0.00    -0.237 OA
ATOM     84  O   UNL A   1      45.509  22.926  26.889  1.00  0.00    -0.237 OA
ATOM     85  O   UNL A   1      43.307  22.593  27.946  1.00  0.00    -0.744 OA
ENDBRANCH  78  82
ENDBRANCH  51  75
BRANCH  63  86
ATOM     86  C   UNL A   1      45.415  28.289  33.941  1.00  0.00     0.023 A 
ATOM     87  C   UNL A   1      45.420  27.202  34.832  1.00  0.00     0.031 A 
ATOM     88  C   UNL A   1      46.614  29.004  33.763  1.00  0.00     0.131 A 
ATOM     89  C   UNL A   1      46.578  26.906  35.568  1.00  0.00     0.055 A 
ATOM     90  C   UNL A   1      47.780  28.663  34.450  1.00  0.00     0.041 A 
ATOM     91  F   UNL A   1      46.667  30.051  32.925  1.00  0.00    -0.206 F 
ATOM     92  C   UNL A   1      47.762  27.620  35.372  1.00  0.00     0.022 A 
BRANCH  89  93
ATOM     93  S   UNL A   1      46.480  25.648  36.872  1.00  0.00     0.124 S 
ATOM     94  O   UNL A   1      46.493  24.410  36.101  1.00  0.00    -0.237 OA
ATOM     95  O   UNL A   1      47.678  25.922  37.659  1.00  0.00    -0.237 OA
ATOM     96  O   UNL A   1      45.215  25.947  37.543  1.00  0.00    -0.744 OA
ENDBRANCH  89  93
ENDBRANCH  63  86
ENDBRANCH  37  38
ENDBRANCH  29  32
ENDBRANCH  27  28
ENDBRANCH  26  27
ENDBRANCH  25  26
ENDBRANCH   1  25
TORSDOF 19
ENDMDL
