MODEL 1
REMARK VINA RESULT:     -11.4      0.000      0.000
REMARK SMILES Cc1ccccc1CN1C(=O)[C@H](CC(=O)NCCCCCCNC(=O)c2ccc(-c3c4nc(c(-c5cc(S(=O)(=O)[O-])ccc5F)c5ccc([nH]5)c(-c5cc(S(=O)(=O)[O-])ccc5F)c5nc(c(-c6cc(S(=O)(=O)[O-])ccc6F)c6ccc3[nH]6)C=C5)C=C4)cc2)n2c(nc3ccccc32)[C@H]1C
REMARK SMILES IDX 19 1 18 2 17 3 16 4 14 5 15 6 13 8 12 9 9 10 10 11 98 12
REMARK SMILES IDX 11 13 90 14 99 15 89 16 91 17 97 18 92 19 96 20 93 21 95 22
REMARK SMILES IDX 94 23 8 24 7 25 1 26 2 27 3 28 4 29 6 30 5 31 20 32 21 33
REMARK SMILES IDX 22 34 23 35 24 36 25 38 26 39 27 40 88 41 28 42 87 43 29 44
REMARK SMILES IDX 30 45 31 46 81 47 32 48 86 49 80 50 82 51 33 52 85 53 79 54
REMARK SMILES IDX 78 55 34 57 66 58 46 59 65 60 47 61 50 62 64 63 83 64 48 65
REMARK SMILES IDX 49 66 63 68 84 69 51 70 35 71 36 72 44 73 37 74 43 75 45 76
REMARK SMILES IDX 42 77 38 78 39 79 40 80 41 81 67 82 68 83 76 84 69 85 75 86
REMARK SMILES IDX 77 87 74 88 70 89 71 90 72 91 73 92 52 93 53 94 61 95 54 96
REMARK SMILES IDX 60 97 62 98 59 99 55 100 56 101 57 102 58 103
REMARK H PARENT 16 7 23 37 82 56 50 67
REMARK Flexibility Score: inf
ROOT
ATOM      1  C   UNL A   1      34.265  28.962  24.003  1.00  0.00     0.002 C 
ENDROOT
BRANCH   1   2
ATOM      2  C   UNL A   1      34.103  28.527  22.551  1.00  0.00     0.021 C 
BRANCH   2   3
ATOM      3  C   UNL A   1      33.925  27.015  22.341  1.00  0.00     0.116 C 
BRANCH   3   4
ATOM      4  N   UNL A   1      33.017  26.745  21.233  1.00  0.00    -0.356 N 
ATOM      5  C   UNL A   1      32.413  25.592  20.836  1.00  0.00     0.222 C 
ATOM      6  O   UNL A   1      31.751  25.608  19.795  1.00  0.00    -0.275 OA
ATOM      7  H   UNL A   1      32.806  27.530  20.678  1.00  0.00     0.163 HD
BRANCH   5   8
ATOM      8  C   UNL A   1      32.496  24.317  21.650  1.00  0.00     0.135 C 
BRANCH   8   9
ATOM      9  C   UNL A   1      32.388  24.591  23.157  1.00  0.00     0.187 C 
ATOM     10  N   UNL A   1      30.759  24.664  24.942  1.00  0.00    -0.327 N 
ATOM     11  C   UNL A   1      30.915  24.617  23.567  1.00  0.00     0.247 C 
ATOM     12  C   UNL A   1      30.956  23.305  25.443  1.00  0.00     0.149 C 
ATOM     13  O   UNL A   1      29.985  24.240  22.862  1.00  0.00    -0.272 OA
ATOM     14  C   UNL A   1      32.370  22.928  25.048  1.00  0.00     0.133 A 
ATOM     15  C   UNL A   1      30.665  23.000  26.899  1.00  0.00     0.040 C 
ATOM     16  N   UNL A   1      33.026  23.566  23.998  1.00  0.00    -0.313 N 
ATOM     17  N   UNL A   1      33.122  21.982  25.568  1.00  0.00    -0.231 NA
ATOM     18  C   UNL A   1      34.325  23.119  23.989  1.00  0.00     0.069 A 
ATOM     19  C   UNL A   1      34.336  22.107  24.948  1.00  0.00     0.089 A 
ATOM     20  C   UNL A   1      35.470  23.472  23.265  1.00  0.00     0.028 A 
ATOM     21  C   UNL A   1      35.508  21.375  25.179  1.00  0.00     0.030 A 
ATOM     22  C   UNL A   1      36.633  22.729  23.509  1.00  0.00     0.002 A 
ATOM     23  C   UNL A   1      36.653  21.692  24.444  1.00  0.00     0.002 A 
BRANCH  10  24
ATOM     24  C   UNL A   1      29.837  25.636  25.530  1.00  0.00     0.156 C 
BRANCH  24  25
ATOM     25  C   UNL A   1      29.648  26.829  24.612  1.00  0.00    -0.026 A 
ATOM     26  C   UNL A   1      27.146  26.406  24.098  1.00  0.00     0.044 C 
ATOM     27  C   UNL A   1      28.466  27.097  23.889  1.00  0.00    -0.046 A 
ATOM     28  C   UNL A   1      28.470  28.120  22.918  1.00  0.00     0.004 A 
ATOM     29  C   UNL A   1      29.609  28.877  22.666  1.00  0.00     0.000 A 
ATOM     30  C   UNL A   1      30.748  27.683  24.412  1.00  0.00     0.006 A 
ATOM     31  C   UNL A   1      30.746  28.671  23.429  1.00  0.00     0.000 A 
ENDBRANCH  24  25
ENDBRANCH  10  24
ENDBRANCH   8   9
ENDBRANCH   5   8
ENDBRANCH   3   4
ENDBRANCH   2   3
ENDBRANCH   1   2
BRANCH   1  32
ATOM     32  C   UNL A   1      34.163  27.804  25.001  1.00  0.00     0.002 C 
BRANCH  32  33
ATOM     33  C   UNL A   1      33.721  28.186  26.428  1.00  0.00     0.021 C 
BRANCH  33  34
ATOM     34  C   UNL A   1      34.754  28.967  27.268  1.00  0.00     0.116 C 
BRANCH  34  35
ATOM     35  N   UNL A   1      34.644  30.404  27.044  1.00  0.00    -0.352 N 
ATOM     36  C   UNL A   1      34.804  31.396  27.992  1.00  0.00     0.251 C 
ATOM     37  H   UNL A   1      34.435  30.697  26.128  1.00  0.00     0.163 HD
ATOM     38  O   UNL A   1      33.799  32.059  28.265  1.00  0.00    -0.269 OA
BRANCH  36  39
ATOM     39  C   UNL A   1      36.148  31.814  28.536  1.00  0.00     0.039 A 
ATOM     40  C   UNL A   1      36.500  33.168  28.405  1.00  0.00     0.014 A 
ATOM     41  C   UNL A   1      37.094  30.978  29.124  1.00  0.00     0.014 A 
ATOM     42  C   UNL A   1      37.745  33.668  28.866  1.00  0.00     0.010 A 
ATOM     43  C   UNL A   1      38.344  31.489  29.596  1.00  0.00     0.010 A 
ATOM     44  C   UNL A   1      38.702  32.843  29.495  1.00  0.00    -0.014 A 
BRANCH  44  45
ATOM     45  C   UNL A   1      39.702  33.547  30.418  1.00  0.00     0.031 A 
ATOM     46  C   UNL A   1      38.892  33.756  31.736  1.00  0.00     0.074 A 
ATOM     47  C   UNL A   1      41.078  33.514  30.637  1.00  0.00     0.049 A 
ATOM     48  N   UNL A   1      38.397  32.741  32.398  1.00  0.00    -0.248 NA
ATOM     49  C   UNL A   1      38.366  35.021  32.276  1.00  0.00     0.031 C 
ATOM     50  C   UNL A   1      41.783  34.746  31.070  1.00  0.00     0.029 A 
ATOM     51  N   UNL A   1      42.196  32.622  30.490  1.00  0.00    -0.354 N 
ATOM     52  C   UNL A   1      38.008  33.216  33.654  1.00  0.00     0.074 A 
ATOM     53  C   UNL A   1      37.764  34.627  33.425  1.00  0.00     0.031 C 
ATOM     54  C   UNL A   1      43.096  34.520  31.320  1.00  0.00     0.029 A 
ATOM     55  C   UNL A   1      43.412  33.104  31.168  1.00  0.00     0.049 A 
ATOM     56  H   UNL A   1      42.154  31.777  29.987  1.00  0.00     0.167 HD
ATOM     57  C   UNL A   1      38.507  32.584  34.778  1.00  0.00     0.034 A 
ATOM     58  C   UNL A   1      44.466  32.466  31.846  1.00  0.00     0.034 A 
ATOM     59  C   UNL A   1      39.705  31.955  34.331  1.00  0.00     0.049 A 
ATOM     60  C   UNL A   1      44.288  30.967  31.922  1.00  0.00     0.074 A 
ATOM     61  C   UNL A   1      40.834  32.684  34.113  1.00  0.00     0.029 A 
ATOM     62  N   UNL A   1      39.870  30.654  33.912  1.00  0.00    -0.354 N 
ATOM     63  N   UNL A   1      43.681  30.403  32.929  1.00  0.00    -0.248 NA
ATOM     64  C   UNL A   1      44.607  29.987  30.883  1.00  0.00     0.031 C 
ATOM     65  C   UNL A   1      41.565  31.843  33.341  1.00  0.00     0.029 A 
ATOM     66  C   UNL A   1      41.042  30.579  33.185  1.00  0.00     0.049 A 
ATOM     67  H   UNL A   1      39.258  29.907  34.099  1.00  0.00     0.167 HD
ATOM     68  C   UNL A   1      42.938  29.415  32.336  1.00  0.00     0.074 A 
ATOM     69  C   UNL A   1      43.853  28.957  31.310  1.00  0.00     0.031 C 
ATOM     70  C   UNL A   1      41.551  29.446  32.393  1.00  0.00     0.034 A 
BRANCH  57  71
ATOM     71  C   UNL A   1      38.550  32.825  36.280  1.00  0.00     0.023 A 
ATOM     72  C   UNL A   1      37.921  31.853  37.127  1.00  0.00     0.031 A 
ATOM     73  C   UNL A   1      38.917  34.006  36.907  1.00  0.00     0.131 A 
ATOM     74  C   UNL A   1      37.611  32.067  38.466  1.00  0.00     0.055 A 
ATOM     75  C   UNL A   1      38.631  34.223  38.275  1.00  0.00     0.041 A 
ATOM     76  F   UNL A   1      39.493  35.000  36.211  1.00  0.00    -0.206 F 
ATOM     77  C   UNL A   1      37.960  33.266  39.054  1.00  0.00     0.022 A 
BRANCH  74  78
ATOM     78  S   UNL A   1      36.640  30.790  39.327  1.00  0.00     0.124 S 
ATOM     79  O   UNL A   1      35.344  31.441  39.484  1.00  0.00    -0.237 OA
ATOM     80  O   UNL A   1      36.699  29.673  38.390  1.00  0.00    -0.237 OA
ATOM     81  O   UNL A   1      37.381  30.595  40.571  1.00  0.00    -0.744 OA
ENDBRANCH  74  78
ENDBRANCH  57  71
BRANCH  58  82
ATOM     82  C   UNL A   1      45.268  33.014  33.092  1.00  0.00     0.023 A 
ATOM     83  C   UNL A   1      44.698  33.520  34.281  1.00  0.00     0.031 A 
ATOM     84  C   UNL A   1      46.674  33.264  32.989  1.00  0.00     0.131 A 
ATOM     85  C   UNL A   1      45.507  34.231  35.237  1.00  0.00     0.055 A 
ATOM     86  C   UNL A   1      47.452  33.972  33.908  1.00  0.00     0.041 A 
ATOM     87  F   UNL A   1      47.395  32.862  31.952  1.00  0.00    -0.206 F 
ATOM     88  C   UNL A   1      46.869  34.470  35.043  1.00  0.00     0.022 A 
BRANCH  85  89
ATOM     89  S   UNL A   1      44.810  34.857  36.802  1.00  0.00     0.124 S 
ATOM     90  O   UNL A   1      43.592  34.065  36.940  1.00  0.00    -0.237 OA
ATOM     91  O   UNL A   1      45.871  34.566  37.762  1.00  0.00    -0.237 OA
ATOM     92  O   UNL A   1      44.594  36.282  36.552  1.00  0.00    -0.744 OA
ENDBRANCH  85  89
ENDBRANCH  58  82
BRANCH  70  93
ATOM     93  C   UNL A   1      40.655  28.663  31.440  1.00  0.00     0.023 A 
ATOM     94  C   UNL A   1      40.827  28.702  30.050  1.00  0.00     0.031 A 
ATOM     95  C   UNL A   1      39.562  27.872  31.857  1.00  0.00     0.131 A 
ATOM     96  C   UNL A   1      40.017  27.984  29.161  1.00  0.00     0.055 A 
ATOM     97  C   UNL A   1      38.684  27.234  30.966  1.00  0.00     0.041 A 
ATOM     98  F   UNL A   1      39.261  27.678  33.146  1.00  0.00    -0.206 F 
ATOM     99  C   UNL A   1      38.905  27.290  29.602  1.00  0.00     0.022 A 
BRANCH  96 100
ATOM    100  S   UNL A   1      40.625  27.770  27.467  1.00  0.00     0.124 S 
ATOM    101  O   UNL A   1      40.154  28.992  26.812  1.00  0.00    -0.237 OA
ATOM    102  O   UNL A   1      42.071  27.683  27.674  1.00  0.00    -0.237 OA
ATOM    103  O   UNL A   1      39.988  26.535  27.040  1.00  0.00    -0.744 OA
ENDBRANCH  96 100
ENDBRANCH  70  93
ENDBRANCH  44  45
ENDBRANCH  36  39
ENDBRANCH  34  35
ENDBRANCH  33  34
ENDBRANCH  32  33
ENDBRANCH   1  32
TORSDOF 19
ENDMDL
MODEL 2
REMARK VINA RESULT:     -11.1      5.269      7.782
REMARK SMILES Cc1ccccc1CN1C(=O)[C@H](CC(=O)NCCCCCCNC(=O)c2ccc(-c3c4nc(c(-c5cc(S(=O)(=O)[O-])ccc5F)c5ccc([nH]5)c(-c5cc(S(=O)(=O)[O-])ccc5F)c5nc(c(-c6cc(S(=O)(=O)[O-])ccc6F)c6ccc3[nH]6)C=C5)C=C4)cc2)n2c(nc3ccccc32)[C@H]1C
REMARK SMILES IDX 19 1 18 2 17 3 16 4 14 5 15 6 13 8 12 9 9 10 10 11 98 12
REMARK SMILES IDX 11 13 90 14 99 15 89 16 91 17 97 18 92 19 96 20 93 21 95 22
REMARK SMILES IDX 94 23 8 24 7 25 1 26 2 27 3 28 4 29 6 30 5 31 20 32 21 33
REMARK SMILES IDX 22 34 23 35 24 36 25 38 26 39 27 40 88 41 28 42 87 43 29 44
REMARK SMILES IDX 30 45 31 46 81 47 32 48 86 49 80 50 82 51 33 52 85 53 79 54
REMARK SMILES IDX 78 55 34 57 66 58 46 59 65 60 47 61 50 62 64 63 83 64 48 65
REMARK SMILES IDX 49 66 63 68 84 69 51 70 35 71 36 72 44 73 37 74 43 75 45 76
REMARK SMILES IDX 42 77 38 78 39 79 40 80 41 81 67 82 68 83 76 84 69 85 75 86
REMARK SMILES IDX 77 87 74 88 70 89 71 90 72 91 73 92 52 93 53 94 61 95 54 96
REMARK SMILES IDX 60 97 62 98 59 99 55 100 56 101 57 102 58 103
REMARK H PARENT 16 7 23 37 82 56 50 67
REMARK Flexibility Score: inf
ROOT
ATOM      1  C   UNL A   1      35.985  29.968  28.395  1.00  0.00     0.002 C 
ENDROOT
BRANCH   1   2
ATOM      2  C   UNL A   1      35.111  29.476  27.248  1.00  0.00     0.021 C 
BRANCH   2   3
ATOM      3  C   UNL A   1      33.776  30.219  27.082  1.00  0.00     0.116 C 
BRANCH   3   4
ATOM      4  N   UNL A   1      32.683  29.472  27.693  1.00  0.00    -0.356 N 
ATOM      5  C   UNL A   1      32.226  28.211  27.463  1.00  0.00     0.222 C 
ATOM      6  O   UNL A   1      31.211  27.839  28.058  1.00  0.00    -0.275 OA
ATOM      7  H   UNL A   1      32.192  29.964  28.390  1.00  0.00     0.163 HD
BRANCH   5   8
ATOM      8  C   UNL A   1      32.944  27.250  26.538  1.00  0.00     0.135 C 
BRANCH   8   9
ATOM      9  C   UNL A   1      32.098  26.899  25.305  1.00  0.00     0.187 C 
ATOM     10  N   UNL A   1      31.793  27.535  22.992  1.00  0.00    -0.327 N 
ATOM     11  C   UNL A   1      32.376  27.910  24.192  1.00  0.00     0.247 C 
ATOM     12  C   UNL A   1      32.658  26.520  22.394  1.00  0.00     0.149 C 
ATOM     13  O   UNL A   1      33.298  28.718  24.193  1.00  0.00    -0.272 OA
ATOM     14  C   UNL A   1      32.689  25.376  23.389  1.00  0.00     0.133 A 
ATOM     15  C   UNL A   1      32.381  26.047  20.981  1.00  0.00     0.040 C 
ATOM     16  N   UNL A   1      32.392  25.576  24.734  1.00  0.00    -0.313 N 
ATOM     17  N   UNL A   1      33.017  24.124  23.159  1.00  0.00    -0.231 NA
ATOM     18  C   UNL A   1      32.352  24.342  25.337  1.00  0.00     0.069 A 
ATOM     19  C   UNL A   1      32.787  23.470  24.339  1.00  0.00     0.089 A 
ATOM     20  C   UNL A   1      31.997  23.894  26.615  1.00  0.00     0.028 A 
ATOM     21  C   UNL A   1      32.925  22.103  24.616  1.00  0.00     0.030 A 
ATOM     22  C   UNL A   1      32.141  22.524  26.873  1.00  0.00     0.002 A 
ATOM     23  C   UNL A   1      32.604  21.642  25.895  1.00  0.00     0.002 A 
BRANCH  10  24
ATOM     24  C   UNL A   1      31.019  28.516  22.230  1.00  0.00     0.156 C 
BRANCH  24  25
ATOM     25  C   UNL A   1      29.547  28.441  22.586  1.00  0.00    -0.026 A 
ATOM     26  C   UNL A   1      28.875  30.701  21.516  1.00  0.00     0.044 C 
ATOM     27  C   UNL A   1      28.620  29.480  22.358  1.00  0.00    -0.046 A 
ATOM     28  C   UNL A   1      27.323  29.379  22.905  1.00  0.00     0.004 A 
ATOM     29  C   UNL A   1      26.937  28.273  23.655  1.00  0.00     0.000 A 
ATOM     30  C   UNL A   1      29.091  27.289  23.253  1.00  0.00     0.006 A 
ATOM     31  C   UNL A   1      27.817  27.216  23.813  1.00  0.00     0.000 A 
ENDBRANCH  24  25
ENDBRANCH  10  24
ENDBRANCH   8   9
ENDBRANCH   5   8
ENDBRANCH   3   4
ENDBRANCH   2   3
ENDBRANCH   1   2
BRANCH   1  32
ATOM     32  C   UNL A   1      37.454  30.163  28.002  1.00  0.00     0.002 C 
BRANCH  32  33
ATOM     33  C   UNL A   1      38.493  29.744  29.061  1.00  0.00     0.021 C 
BRANCH  33  34
ATOM     34  C   UNL A   1      38.073  29.941  30.534  1.00  0.00     0.116 C 
BRANCH  34  35
ATOM     35  N   UNL A   1      38.707  31.119  31.115  1.00  0.00    -0.352 N 
ATOM     36  C   UNL A   1      39.551  31.141  32.207  1.00  0.00     0.251 C 
ATOM     37  H   UNL A   1      38.513  31.985  30.687  1.00  0.00     0.163 HD
ATOM     38  O   UNL A   1      39.131  31.721  33.213  1.00  0.00    -0.269 OA
BRANCH  36  39
ATOM     39  C   UNL A   1      40.986  30.676  32.155  1.00  0.00     0.039 A 
ATOM     40  C   UNL A   1      41.904  31.331  32.993  1.00  0.00     0.014 A 
ATOM     41  C   UNL A   1      41.499  29.682  31.325  1.00  0.00     0.014 A 
ATOM     42  C   UNL A   1      43.280  30.988  33.014  1.00  0.00     0.010 A 
ATOM     43  C   UNL A   1      42.887  29.333  31.357  1.00  0.00     0.010 A 
ATOM     44  C   UNL A   1      43.812  29.960  32.206  1.00  0.00    -0.014 A 
BRANCH  44  45
ATOM     45  C   UNL A   1      45.113  29.318  32.696  1.00  0.00     0.031 A 
ATOM     46  C   UNL A   1      44.625  28.260  33.735  1.00  0.00     0.074 A 
ATOM     47  C   UNL A   1      46.355  28.996  32.151  1.00  0.00     0.049 A 
ATOM     48  N   UNL A   1      43.817  27.289  33.388  1.00  0.00    -0.248 NA
ATOM     49  C   UNL A   1      44.762  28.310  35.201  1.00  0.00     0.031 C 
ATOM     50  C   UNL A   1      47.566  29.035  33.007  1.00  0.00     0.029 A 
ATOM     51  N   UNL A   1      46.954  28.689  30.880  1.00  0.00    -0.354 N 
ATOM     52  C   UNL A   1      43.815  26.360  34.434  1.00  0.00     0.074 A 
ATOM     53  C   UNL A   1      44.180  27.150  35.593  1.00  0.00     0.031 C 
ATOM     54  C   UNL A   1      48.672  28.613  32.345  1.00  0.00     0.029 A 
ATOM     55  C   UNL A   1      48.326  28.165  31.000  1.00  0.00     0.049 A 
ATOM     56  H   UNL A   1      46.496  28.815  30.019  1.00  0.00     0.167 HD
ATOM     57  C   UNL A   1      44.113  25.043  34.141  1.00  0.00     0.034 A 
ATOM     58  C   UNL A   1      49.069  27.208  30.285  1.00  0.00     0.034 A 
ATOM     59  C   UNL A   1      44.863  25.107  32.931  1.00  0.00     0.049 A 
ATOM     60  C   UNL A   1      48.270  26.557  29.180  1.00  0.00     0.074 A 
ATOM     61  C   UNL A   1      46.164  25.508  32.941  1.00  0.00     0.029 A 
ATOM     62  N   UNL A   1      44.402  24.960  31.643  1.00  0.00    -0.354 N 
ATOM     63  N   UNL A   1      47.595  25.460  29.382  1.00  0.00    -0.248 NA
ATOM     64  C   UNL A   1      48.017  27.092  27.842  1.00  0.00     0.031 C 
ATOM     65  C   UNL A   1      46.370  25.821  31.638  1.00  0.00     0.029 A 
ATOM     66  C   UNL A   1      45.337  25.503  30.784  1.00  0.00     0.049 A 
ATOM     67  H   UNL A   1      43.552  24.540  31.379  1.00  0.00     0.167 HD
ATOM     68  C   UNL A   1      46.437  25.668  28.678  1.00  0.00     0.074 A 
ATOM     69  C   UNL A   1      46.944  26.351  27.506  1.00  0.00     0.031 C 
ATOM     70  C   UNL A   1      45.215  25.737  29.334  1.00  0.00     0.034 A 
BRANCH  57  71
ATOM     71  C   UNL A   1      44.422  23.762  34.902  1.00  0.00     0.023 A 
ATOM     72  C   UNL A   1      45.149  23.880  36.134  1.00  0.00     0.031 A 
ATOM     73  C   UNL A   1      44.293  22.471  34.413  1.00  0.00     0.131 A 
ATOM     74  C   UNL A   1      45.765  22.815  36.782  1.00  0.00     0.055 A 
ATOM     75  C   UNL A   1      44.891  21.377  35.082  1.00  0.00     0.041 A 
ATOM     76  F   UNL A   1      43.653  22.238  33.257  1.00  0.00    -0.206 F 
ATOM     77  C   UNL A   1      45.645  21.545  36.255  1.00  0.00     0.022 A 
BRANCH  74  78
ATOM     78  S   UNL A   1      46.804  23.189  38.229  1.00  0.00     0.124 S 
ATOM     79  O   UNL A   1      46.999  21.869  38.819  1.00  0.00    -0.237 OA
ATOM     80  O   UNL A   1      47.975  23.809  37.617  1.00  0.00    -0.237 OA
ATOM     81  O   UNL A   1      45.965  24.092  39.014  1.00  0.00    -0.744 OA
ENDBRANCH  74  78
ENDBRANCH  57  71
BRANCH  58  82
ATOM     82  C   UNL A   1      50.162  26.224  30.862  1.00  0.00     0.023 A 
ATOM     83  C   UNL A   1      49.935  25.214  31.822  1.00  0.00     0.031 A 
ATOM     84  C   UNL A   1      51.551  26.467  30.614  1.00  0.00     0.131 A 
ATOM     85  C   UNL A   1      51.042  24.555  32.468  1.00  0.00     0.055 A 
ATOM     86  C   UNL A   1      52.622  25.840  31.256  1.00  0.00     0.041 A 
ATOM     87  F   UNL A   1      51.971  27.371  29.741  1.00  0.00    -0.206 F 
ATOM     88  C   UNL A   1      52.373  24.878  32.199  1.00  0.00     0.022 A 
BRANCH  85  89
ATOM     89  S   UNL A   1      50.783  23.215  33.678  1.00  0.00     0.124 S 
ATOM     90  O   UNL A   1      49.467  23.536  34.223  1.00  0.00    -0.237 OA
ATOM     91  O   UNL A   1      50.854  22.017  32.848  1.00  0.00    -0.237 OA
ATOM     92  O   UNL A   1      51.893  23.367  34.620  1.00  0.00    -0.744 OA
ENDBRANCH  85  89
ENDBRANCH  58  82
BRANCH  70  93
ATOM     93  C   UNL A   1      43.969  26.367  28.723  1.00  0.00     0.023 A 
ATOM     94  C   UNL A   1      42.848  25.609  28.361  1.00  0.00     0.031 A 
ATOM     95  C   UNL A   1      43.844  27.744  28.432  1.00  0.00     0.131 A 
ATOM     96  C   UNL A   1      41.694  26.172  27.804  1.00  0.00     0.055 A 
ATOM     97  C   UNL A   1      42.731  28.298  27.780  1.00  0.00     0.041 A 
ATOM     98  F   UNL A   1      44.791  28.636  28.742  1.00  0.00    -0.206 F 
ATOM     99  C   UNL A   1      41.643  27.510  27.456  1.00  0.00     0.022 A 
BRANCH  96 100
ATOM    100  S   UNL A   1      40.188  25.163  27.810  1.00  0.00     0.124 S 
ATOM    101  O   UNL A   1      39.702  25.325  26.438  1.00  0.00    -0.237 OA
ATOM    102  O   UNL A   1      40.713  23.838  28.141  1.00  0.00    -0.237 OA
ATOM    103  O   UNL A   1      39.379  25.782  28.847  1.00  0.00    -0.744 OA
ENDBRANCH  96 100
ENDBRANCH  70  93
ENDBRANCH  44  45
ENDBRANCH  36  39
ENDBRANCH  34  35
ENDBRANCH  33  34
ENDBRANCH  32  33
ENDBRANCH   1  32
TORSDOF 19
ENDMDL
MODEL 3
REMARK VINA RESULT:     -11.0      5.360      7.591
REMARK SMILES Cc1ccccc1CN1C(=O)[C@H](CC(=O)NCCCCCCNC(=O)c2ccc(-c3c4nc(c(-c5cc(S(=O)(=O)[O-])ccc5F)c5ccc([nH]5)c(-c5cc(S(=O)(=O)[O-])ccc5F)c5nc(c(-c6cc(S(=O)(=O)[O-])ccc6F)c6ccc3[nH]6)C=C5)C=C4)cc2)n2c(nc3ccccc32)[C@H]1C
REMARK SMILES IDX 19 1 18 2 17 3 16 4 14 5 15 6 13 8 12 9 9 10 10 11 98 12
REMARK SMILES IDX 11 13 90 14 99 15 89 16 91 17 97 18 92 19 96 20 93 21 95 22
REMARK SMILES IDX 94 23 8 24 7 25 1 26 2 27 3 28 4 29 6 30 5 31 20 32 21 33
REMARK SMILES IDX 22 34 23 35 24 36 25 38 26 39 27 40 88 41 28 42 87 43 29 44
REMARK SMILES IDX 30 45 31 46 81 47 32 48 86 49 80 50 82 51 33 52 85 53 79 54
REMARK SMILES IDX 78 55 34 57 66 58 46 59 65 60 47 61 50 62 64 63 83 64 48 65
REMARK SMILES IDX 49 66 63 68 84 69 51 70 35 71 36 72 44 73 37 74 43 75 45 76
REMARK SMILES IDX 42 77 38 78 39 79 40 80 41 81 67 82 68 83 76 84 69 85 75 86
REMARK SMILES IDX 77 87 74 88 70 89 71 90 72 91 73 92 52 93 53 94 61 95 54 96
REMARK SMILES IDX 60 97 62 98 59 99 55 100 56 101 57 102 58 103
REMARK H PARENT 16 7 23 37 82 56 50 67
REMARK Flexibility Score: inf
ROOT
ATOM      1  C   UNL A   1      35.630  30.841  28.681  1.00  0.00     0.002 C 
ENDROOT
BRANCH   1   2
ATOM      2  C   UNL A   1      35.060  29.902  27.624  1.00  0.00     0.021 C 
BRANCH   2   3
ATOM      3  C   UNL A   1      33.694  30.316  27.055  1.00  0.00     0.116 C 
BRANCH   3   4
ATOM      4  N   UNL A   1      32.619  29.539  27.659  1.00  0.00    -0.356 N 
ATOM      5  C   UNL A   1      32.219  28.255  27.448  1.00  0.00     0.222 C 
ATOM      6  O   UNL A   1      31.208  27.855  28.031  1.00  0.00    -0.275 OA
ATOM      7  H   UNL A   1      32.092  30.025  28.334  1.00  0.00     0.163 HD
BRANCH   5   8
ATOM      8  C   UNL A   1      32.997  27.305  26.562  1.00  0.00     0.135 C 
BRANCH   8   9
ATOM      9  C   UNL A   1      32.180  26.862  25.338  1.00  0.00     0.187 C 
ATOM     10  N   UNL A   1      31.873  27.380  22.997  1.00  0.00    -0.327 N 
ATOM     11  C   UNL A   1      32.426  27.833  24.183  1.00  0.00     0.247 C 
ATOM     12  C   UNL A   1      32.787  26.377  22.453  1.00  0.00     0.149 C 
ATOM     13  O   UNL A   1      33.313  28.680  24.155  1.00  0.00    -0.272 OA
ATOM     14  C   UNL A   1      32.856  25.282  23.499  1.00  0.00     0.133 A 
ATOM     15  C   UNL A   1      32.545  25.830  21.061  1.00  0.00     0.040 C 
ATOM     16  N   UNL A   1      32.537  25.528  24.831  1.00  0.00    -0.313 N 
ATOM     17  N   UNL A   1      33.241  24.035  23.329  1.00  0.00    -0.231 NA
ATOM     18  C   UNL A   1      32.544  24.322  25.488  1.00  0.00     0.069 A 
ATOM     19  C   UNL A   1      33.026  23.426  24.535  1.00  0.00     0.089 A 
ATOM     20  C   UNL A   1      32.194  23.917  26.782  1.00  0.00     0.028 A 
ATOM     21  C   UNL A   1      33.220  22.080  24.875  1.00  0.00     0.030 A 
ATOM     22  C   UNL A   1      32.394  22.568  27.104  1.00  0.00     0.002 A 
ATOM     23  C   UNL A   1      32.905  21.663  26.171  1.00  0.00     0.002 A 
BRANCH  10  24
ATOM     24  C   UNL A   1      31.066  28.291  22.184  1.00  0.00     0.156 C 
BRANCH  24  25
ATOM     25  C   UNL A   1      29.604  28.224  22.583  1.00  0.00    -0.026 A 
ATOM     26  C   UNL A   1      28.918  30.496  21.550  1.00  0.00     0.044 C 
ATOM     27  C   UNL A   1      28.678  29.272  22.390  1.00  0.00    -0.046 A 
ATOM     28  C   UNL A   1      27.398  29.176  22.975  1.00  0.00     0.004 A 
ATOM     29  C   UNL A   1      27.026  28.068  23.729  1.00  0.00     0.000 A 
ATOM     30  C   UNL A   1      29.160  27.071  23.256  1.00  0.00     0.006 A 
ATOM     31  C   UNL A   1      27.902  27.003  23.853  1.00  0.00     0.000 A 
ENDBRANCH  24  25
ENDBRANCH  10  24
ENDBRANCH   8   9
ENDBRANCH   5   8
ENDBRANCH   3   4
ENDBRANCH   2   3
ENDBRANCH   1   2
BRANCH   1  32
ATOM     32  C   UNL A   1      37.113  30.594  28.979  1.00  0.00     0.002 C 
BRANCH  32  33
ATOM     33  C   UNL A   1      37.683  29.250  28.480  1.00  0.00     0.021 C 
BRANCH  33  34
ATOM     34  C   UNL A   1      38.139  28.262  29.576  1.00  0.00     0.116 C 
BRANCH  34  35
ATOM     35  N   UNL A   1      37.976  28.833  30.908  1.00  0.00    -0.352 N 
ATOM     36  C   UNL A   1      38.542  28.362  32.076  1.00  0.00     0.251 C 
ATOM     37  H   UNL A   1      37.407  29.633  30.982  1.00  0.00     0.163 HD
ATOM     38  O   UNL A   1      37.760  27.918  32.922  1.00  0.00    -0.269 OA
BRANCH  36  39
ATOM     39  C   UNL A   1      39.998  28.544  32.425  1.00  0.00     0.039 A 
ATOM     40  C   UNL A   1      40.295  29.049  33.702  1.00  0.00     0.014 A 
ATOM     41  C   UNL A   1      41.082  28.296  31.586  1.00  0.00     0.014 A 
ATOM     42  C   UNL A   1      41.628  29.276  34.130  1.00  0.00     0.010 A 
ATOM     43  C   UNL A   1      42.426  28.518  32.026  1.00  0.00     0.010 A 
ATOM     44  C   UNL A   1      42.741  28.998  33.307  1.00  0.00    -0.014 A 
BRANCH  44  45
ATOM     45  C   UNL A   1      44.069  28.746  34.026  1.00  0.00     0.031 A 
ATOM     46  C   UNL A   1      43.760  27.513  34.932  1.00  0.00     0.074 A 
ATOM     47  C   UNL A   1      45.425  28.859  33.723  1.00  0.00     0.049 A 
ATOM     48  N   UNL A   1      43.371  26.372  34.420  1.00  0.00    -0.248 NA
ATOM     49  C   UNL A   1      43.613  27.488  36.398  1.00  0.00     0.031 C 
ATOM     50  C   UNL A   1      46.392  29.197  34.797  1.00  0.00     0.029 A 
ATOM     51  N   UNL A   1      46.305  28.846  32.586  1.00  0.00    -0.354 N 
ATOM     52  C   UNL A   1      43.474  25.409  35.428  1.00  0.00     0.074 A 
ATOM     53  C   UNL A   1      43.363  26.181  36.650  1.00  0.00     0.031 C 
ATOM     54  C   UNL A   1      47.672  29.183  34.352  1.00  0.00     0.029 A 
ATOM     55  C   UNL A   1      47.728  28.756  32.958  1.00  0.00     0.049 A 
ATOM     56  H   UNL A   1      45.990  28.894  31.655  1.00  0.00     0.167 HD
ATOM     57  C   UNL A   1      44.216  24.270  35.174  1.00  0.00     0.034 A 
ATOM     58  C   UNL A   1      48.847  28.128  32.382  1.00  0.00     0.034 A 
ATOM     59  C   UNL A   1      45.110  24.652  34.132  1.00  0.00     0.049 A 
ATOM     60  C   UNL A   1      48.500  27.352  31.132  1.00  0.00     0.074 A 
ATOM     61  C   UNL A   1      46.198  25.427  34.399  1.00  0.00     0.029 A 
ATOM     62  N   UNL A   1      44.953  24.472  32.777  1.00  0.00    -0.354 N 
ATOM     63  N   UNL A   1      48.177  26.090  31.181  1.00  0.00    -0.248 NA
ATOM     64  C   UNL A   1      48.333  27.886  29.780  1.00  0.00     0.031 C 
ATOM     65  C   UNL A   1      46.522  25.887  33.165  1.00  0.00     0.029 A 
ATOM     66  C   UNL A   1      45.809  25.338  32.123  1.00  0.00     0.049 A 
ATOM     67  H   UNL A   1      44.338  23.835  32.347  1.00  0.00     0.167 HD
ATOM     68  C   UNL A   1      47.156  25.990  30.271  1.00  0.00     0.074 A 
ATOM     69  C   UNL A   1      47.623  26.883  29.231  1.00  0.00     0.031 C 
ATOM     70  C   UNL A   1      45.878  25.634  30.682  1.00  0.00     0.034 A 
BRANCH  57  71
ATOM     71  C   UNL A   1      44.770  23.090  35.957  1.00  0.00     0.023 A 
ATOM     72  C   UNL A   1      45.175  23.323  37.314  1.00  0.00     0.031 A 
ATOM     73  C   UNL A   1      45.156  21.868  35.427  1.00  0.00     0.131 A 
ATOM     74  C   UNL A   1      45.966  22.451  38.054  1.00  0.00     0.055 A 
ATOM     75  C   UNL A   1      45.937  20.961  36.182  1.00  0.00     0.041 A 
ATOM     76  F   UNL A   1      44.855  21.547  34.159  1.00  0.00    -0.206 F 
ATOM     77  C   UNL A   1      46.361  21.255  37.488  1.00  0.00     0.022 A 
BRANCH  74  78
ATOM     78  S   UNL A   1      46.538  23.005  39.691  1.00  0.00     0.124 S 
ATOM     79  O   UNL A   1      47.879  22.434  39.759  1.00  0.00    -0.237 OA
ATOM     80  O   UNL A   1      46.454  24.458  39.572  1.00  0.00    -0.237 OA
ATOM     81  O   UNL A   1      45.568  22.401  40.602  1.00  0.00    -0.744 OA
ENDBRANCH  74  78
ENDBRANCH  57  71
BRANCH  58  82
ATOM     82  C   UNL A   1      50.072  27.480  33.139  1.00  0.00     0.023 A 
ATOM     83  C   UNL A   1      49.989  26.501  34.154  1.00  0.00     0.031 A 
ATOM     84  C   UNL A   1      51.380  28.047  33.007  1.00  0.00     0.131 A 
ATOM     85  C   UNL A   1      51.141  26.175  34.954  1.00  0.00     0.055 A 
ATOM     86  C   UNL A   1      52.491  27.744  33.799  1.00  0.00     0.041 A 
ATOM     87  F   UNL A   1      51.666  28.977  32.107  1.00  0.00    -0.206 F 
ATOM     88  C   UNL A   1      52.377  26.804  34.789  1.00  0.00     0.022 A 
BRANCH  85  89
ATOM     89  S   UNL A   1      51.078  24.883  36.240  1.00  0.00     0.124 S 
ATOM     90  O   UNL A   1      49.650  24.596  36.324  1.00  0.00    -0.237 OA
ATOM     91  O   UNL A   1      51.908  23.826  35.670  1.00  0.00    -0.237 OA
ATOM     92  O   UNL A   1      51.648  25.530  37.423  1.00  0.00    -0.744 OA
ENDBRANCH  85  89
ENDBRANCH  58  82
BRANCH  70  93
ATOM     93  C   UNL A   1      44.627  25.902  29.854  1.00  0.00     0.023 A 
ATOM     94  C   UNL A   1      44.303  27.179  29.379  1.00  0.00     0.031 A 
ATOM     95  C   UNL A   1      43.671  24.914  29.528  1.00  0.00     0.131 A 
ATOM     96  C   UNL A   1      43.161  27.441  28.613  1.00  0.00     0.055 A 
ATOM     97  C   UNL A   1      42.474  25.190  28.849  1.00  0.00     0.041 A 
ATOM     98  F   UNL A   1      43.824  23.626  29.857  1.00  0.00    -0.206 F 
ATOM     99  C   UNL A   1      42.207  26.465  28.388  1.00  0.00     0.022 A 
BRANCH  96 100
ATOM    100  S   UNL A   1      43.108  29.008  27.703  1.00  0.00     0.124 S 
ATOM    101  O   UNL A   1      42.113  28.730  26.665  1.00  0.00    -0.237 OA
ATOM    102  O   UNL A   1      42.688  29.948  28.743  1.00  0.00    -0.237 OA
ATOM    103  O   UNL A   1      44.477  29.170  27.242  1.00  0.00    -0.744 OA
ENDBRANCH  96 100
ENDBRANCH  70  93
ENDBRANCH  44  45
ENDBRANCH  36  39
ENDBRANCH  34  35
ENDBRANCH  33  34
ENDBRANCH  32  33
ENDBRANCH   1  32
TORSDOF 19
ENDMDL
