MODEL 1
REMARK VINA RESULT:     -12.3      0.000      0.000
REMARK SMILES CC1=NN(c2ccccc2)C(=O)/C1=C\c1ccc(-c2cc(C(=O)NCCCCCCNC(=O)c3ccc(-c4c5nc(c(-c6cc(S(=O)(=O)[O-])ccc6F)c6ccc([nH]6)c(-c6cc(S(=O)(=O)[O-])ccc6F)c6nc(c(-c7cc(S(=O)(=O)[O-])ccc7F)c7ccc4[nH]7)C=C6)C=C5)cc3)ccc2Cl)o1
REMARK SMILES IDX 27 1 26 2 25 3 24 4 22 5 23 6 21 8 19 9 20 10 99 11 98 12
REMARK SMILES IDX 100 13 97 14 18 15 15 16 16 17 101 18 17 19 14 20 1 21 2 22
REMARK SMILES IDX 3 23 13 24 4 25 11 26 12 27 5 28 6 29 10 30 7 31 9 32 8 33
REMARK SMILES IDX 28 34 29 35 30 36 31 37 32 38 33 40 34 41 35 42 96 43 36 44
REMARK SMILES IDX 95 45 37 46 38 47 39 48 89 49 40 50 94 51 88 52 90 53 41 54
REMARK SMILES IDX 93 55 87 56 86 57 42 59 74 60 54 61 73 62 55 63 58 64 72 65
REMARK SMILES IDX 91 66 56 67 57 68 71 70 92 71 59 72 43 73 44 74 52 75 45 76
REMARK SMILES IDX 51 77 53 78 50 79 46 80 47 81 48 82 49 83 75 84 76 85 84 86
REMARK SMILES IDX 77 87 83 88 85 89 82 90 78 91 79 92 80 93 81 94 60 95 61 96
REMARK SMILES IDX 69 97 62 98 68 99 70 100 67 101 63 102 64 103 65 104 66 105
REMARK H PARENT 24 7 31 39 90 58 58 69
REMARK Flexibility Score: inf
ROOT
ATOM      1  C   UNL A   1      35.351  30.050  27.280  1.00  0.00     0.002 C 
ENDROOT
BRANCH   1   2
ATOM      2  C   UNL A   1      33.987  29.366  27.204  1.00  0.00     0.021 C 
BRANCH   2   3
ATOM      3  C   UNL A   1      33.069  29.822  26.076  1.00  0.00     0.116 C 
BRANCH   3   4
ATOM      4  N   UNL A   1      33.641  29.675  24.747  1.00  0.00    -0.352 N 
ATOM      5  C   UNL A   1      33.193  28.970  23.651  1.00  0.00     0.251 C 
ATOM      6  O   UNL A   1      33.876  28.952  22.629  1.00  0.00    -0.269 OA
ATOM      7  H   UNL A   1      34.487  30.160  24.607  1.00  0.00     0.163 HD
BRANCH   5   8
ATOM      8  C   UNL A   1      31.923  28.194  23.695  1.00  0.00     0.040 A 
ATOM      9  C   UNL A   1      30.621  26.366  24.658  1.00  0.00     0.037 A 
ATOM     10  C   UNL A   1      31.834  27.067  24.533  1.00  0.00     0.027 A 
ATOM     11  C   UNL A   1      29.483  26.870  23.996  1.00  0.00     0.052 A 
ATOM     12  C   UNL A   1      29.597  27.928  23.095  1.00  0.00     0.022 A 
ATOM     13  Cl  UNL A   1      27.888  26.243  24.251  1.00  0.00    -0.084 Cl
ATOM     14  C   UNL A   1      30.829  28.540  22.897  1.00  0.00     0.015 A 
BRANCH   9  15
ATOM     15  C   UNL A   1      30.574  25.071  25.329  1.00  0.00     0.136 A 
ATOM     16  C   UNL A   1      31.005  22.910  25.578  1.00  0.00     0.128 A 
ATOM     17  C   UNL A   1      30.244  23.324  26.666  1.00  0.00     0.051 A 
ATOM     18  O   UNL A   1      31.236  24.010  24.775  1.00  0.00    -0.457 OA
ATOM     19  C   UNL A   1      29.924  24.675  26.477  1.00  0.00     0.051 A 
BRANCH  16  20
ATOM     20  C   UNL A   1      31.480  21.591  25.332  1.00  0.00     0.063 C 
ATOM     21  C   UNL A   1      32.787  18.964  24.237  1.00  0.00     0.069 C 
ATOM     22  C   UNL A   1      33.489  20.177  24.749  1.00  0.00     0.071 C 
ATOM     23  N   UNL A   1      34.785  20.346  24.694  1.00  0.00    -0.169 NA
ATOM     24  C   UNL A   1      32.797  21.339  25.335  1.00  0.00     0.068 C 
ATOM     25  N   UNL A   1      35.035  21.554  25.339  1.00  0.00    -0.196 N 
ATOM     26  C   UNL A   1      33.895  22.219  25.805  1.00  0.00     0.280 C 
ATOM     27  O   UNL A   1      33.792  23.255  26.427  1.00  0.00    -0.267 OA
BRANCH  25  28
ATOM     28  C   UNL A   1      36.361  21.975  25.556  1.00  0.00     0.069 A 
ATOM     29  C   UNL A   1      36.649  23.312  25.846  1.00  0.00     0.028 A 
ATOM     30  C   UNL A   1      37.410  21.047  25.513  1.00  0.00     0.028 A 
ATOM     31  C   UNL A   1      37.961  23.701  26.132  1.00  0.00     0.002 A 
ATOM     32  C   UNL A   1      38.726  21.446  25.747  1.00  0.00     0.002 A 
ATOM     33  C   UNL A   1      38.999  22.771  26.073  1.00  0.00     0.000 A 
ENDBRANCH  25  28
ENDBRANCH  16  20
ENDBRANCH   9  15
ENDBRANCH   5   8
ENDBRANCH   3   4
ENDBRANCH   2   3
ENDBRANCH   1   2
BRANCH   1  34
ATOM     34  C   UNL A   1      35.415  31.335  28.110  1.00  0.00     0.002 C 
BRANCH  34  35
ATOM     35  C   UNL A   1      34.095  32.086  28.292  1.00  0.00     0.021 C 
BRANCH  35  36
ATOM     36  C   UNL A   1      34.095  33.536  27.821  1.00  0.00     0.116 C 
BRANCH  36  37
ATOM     37  N   UNL A   1      33.351  34.414  28.711  1.00  0.00    -0.352 N 
ATOM     38  C   UNL A   1      33.567  34.676  30.044  1.00  0.00     0.251 C 
ATOM     39  H   UNL A   1      32.589  34.885  28.304  1.00  0.00     0.163 HD
ATOM     40  O   UNL A   1      32.739  35.311  30.688  1.00  0.00    -0.269 OA
BRANCH  38  41
ATOM     41  C   UNL A   1      34.789  34.156  30.697  1.00  0.00     0.039 A 
ATOM     42  C   UNL A   1      34.669  33.196  31.705  1.00  0.00     0.014 A 
ATOM     43  C   UNL A   1      36.050  34.594  30.287  1.00  0.00     0.014 A 
ATOM     44  C   UNL A   1      35.820  32.615  32.246  1.00  0.00     0.010 A 
ATOM     45  C   UNL A   1      37.190  33.962  30.774  1.00  0.00     0.010 A 
ATOM     46  C   UNL A   1      37.089  32.961  31.754  1.00  0.00    -0.014 A 
BRANCH  46  47
ATOM     47  C   UNL A   1      38.330  32.301  32.239  1.00  0.00     0.031 A 
ATOM     48  C   UNL A   1      38.952  31.198  31.426  1.00  0.00     0.074 A 
ATOM     49  C   UNL A   1      38.841  32.624  33.444  1.00  0.00     0.049 A 
ATOM     50  N   UNL A   1      39.926  30.383  31.740  1.00  0.00    -0.248 NA
ATOM     51  C   UNL A   1      38.375  30.962  30.094  1.00  0.00     0.031 C 
ATOM     52  C   UNL A   1      38.322  33.666  34.331  1.00  0.00     0.029 A 
ATOM     53  N   UNL A   1      39.900  32.095  34.142  1.00  0.00    -0.354 N 
ATOM     54  C   UNL A   1      40.067  29.526  30.654  1.00  0.00     0.074 A 
ATOM     55  C   UNL A   1      39.037  29.885  29.702  1.00  0.00     0.031 C 
ATOM     56  C   UNL A   1      39.070  33.708  35.446  1.00  0.00     0.029 A 
ATOM     57  C   UNL A   1      40.082  32.658  35.385  1.00  0.00     0.049 A 
ATOM     58  H   UNL A   1      40.474  31.379  33.786  1.00  0.00     0.167 HD
ATOM     59  C   UNL A   1      40.982  28.544  30.464  1.00  0.00     0.034 A 
ATOM     60  C   UNL A   1      40.944  32.346  36.374  1.00  0.00     0.034 A 
ATOM     61  C   UNL A   1      42.005  28.205  31.423  1.00  0.00     0.049 A 
ATOM     62  C   UNL A   1      41.914  31.209  36.164  1.00  0.00     0.074 A 
ATOM     63  C   UNL A   1      43.006  27.256  31.315  1.00  0.00     0.029 A 
ATOM     64  N   UNL A   1      42.152  28.796  32.672  1.00  0.00    -0.354 N 
ATOM     65  N   UNL A   1      42.051  30.421  35.122  1.00  0.00    -0.248 NA
ATOM     66  C   UNL A   1      42.850  30.921  37.260  1.00  0.00     0.031 C 
ATOM     67  C   UNL A   1      43.705  27.215  32.526  1.00  0.00     0.029 A 
ATOM     68  C   UNL A   1      43.205  28.206  33.355  1.00  0.00     0.049 A 
ATOM     69  H   UNL A   1      41.592  29.526  33.022  1.00  0.00     0.167 HD
ATOM     70  C   UNL A   1      43.119  29.577  35.422  1.00  0.00     0.074 A 
ATOM     71  C   UNL A   1      43.587  29.951  36.738  1.00  0.00     0.031 C 
ATOM     72  C   UNL A   1      43.668  28.590  34.669  1.00  0.00     0.034 A 
BRANCH  59  73
ATOM     73  C   UNL A   1      40.893  27.747  29.183  1.00  0.00     0.023 A 
ATOM     74  C   UNL A   1      41.797  27.942  28.125  1.00  0.00     0.031 A 
ATOM     75  C   UNL A   1      39.871  26.796  29.005  1.00  0.00     0.131 A 
ATOM     76  C   UNL A   1      41.618  27.259  26.913  1.00  0.00     0.055 A 
ATOM     77  C   UNL A   1      39.753  26.052  27.830  1.00  0.00     0.041 A 
ATOM     78  F   UNL A   1      38.961  26.581  29.969  1.00  0.00    -0.206 F 
ATOM     79  C   UNL A   1      40.619  26.294  26.768  1.00  0.00     0.022 A 
BRANCH  76  80
ATOM     80  S   UNL A   1      42.606  27.767  25.480  1.00  0.00     0.124 S 
ATOM     81  O   UNL A   1      42.515  26.585  24.626  1.00  0.00    -0.237 OA
ATOM     82  O   UNL A   1      41.896  28.951  25.010  1.00  0.00    -0.237 OA
ATOM     83  O   UNL A   1      43.930  28.016  26.048  1.00  0.00    -0.744 OA
ENDBRANCH  76  80
ENDBRANCH  59  73
BRANCH  60  84
ATOM     84  C   UNL A   1      40.922  33.099  37.663  1.00  0.00     0.023 A 
ATOM     85  C   UNL A   1      40.090  32.696  38.720  1.00  0.00     0.031 A 
ATOM     86  C   UNL A   1      41.695  34.261  37.840  1.00  0.00     0.131 A 
ATOM     87  C   UNL A   1      40.011  33.476  39.884  1.00  0.00     0.055 A 
ATOM     88  C   UNL A   1      41.658  34.998  39.026  1.00  0.00     0.041 A 
ATOM     89  F   UNL A   1      42.508  34.693  36.863  1.00  0.00    -0.206 F 
ATOM     90  C   UNL A   1      40.800  34.615  40.051  1.00  0.00     0.022 A 
BRANCH  87  91
ATOM     91  S   UNL A   1      38.776  33.037  41.139  1.00  0.00     0.124 S 
ATOM     92  O   UNL A   1      38.610  31.607  40.902  1.00  0.00    -0.237 OA
ATOM     93  O   UNL A   1      39.457  33.408  42.375  1.00  0.00    -0.237 OA
ATOM     94  O   UNL A   1      37.626  33.866  40.790  1.00  0.00    -0.744 OA
ENDBRANCH  87  91
ENDBRANCH  60  84
BRANCH  72  95
ATOM     95  C   UNL A   1      44.889  27.892  35.217  1.00  0.00     0.023 A 
ATOM     96  C   UNL A   1      44.830  26.606  35.781  1.00  0.00     0.031 A 
ATOM     97  C   UNL A   1      46.144  28.527  35.152  1.00  0.00     0.131 A 
ATOM     98  C   UNL A   1      45.994  26.014  36.295  1.00  0.00     0.055 A 
ATOM     99  C   UNL A   1      47.308  27.908  35.605  1.00  0.00     0.041 A 
ATOM    100  F   UNL A   1      46.259  29.759  34.628  1.00  0.00    -0.206 F 
ATOM    101  C   UNL A   1      47.236  26.649  36.190  1.00  0.00     0.022 A 
BRANCH  98 102
ATOM    102  S   UNL A   1      45.857  24.435  37.175  1.00  0.00     0.124 S 
ATOM    103  O   UNL A   1      45.099  23.624  36.227  1.00  0.00    -0.237 OA
ATOM    104  O   UNL A   1      47.254  24.058  37.362  1.00  0.00    -0.237 OA
ATOM    105  O   UNL A   1      45.143  24.785  38.401  1.00  0.00    -0.744 OA
ENDBRANCH  98 102
ENDBRANCH  72  95
ENDBRANCH  46  47
ENDBRANCH  38  41
ENDBRANCH  36  37
ENDBRANCH  35  36
ENDBRANCH  34  35
ENDBRANCH   1  34
TORSDOF 19
ENDMDL
MODEL 2
REMARK VINA RESULT:     -12.3      0.476      7.287
REMARK SMILES CC1=NN(c2ccccc2)C(=O)/C1=C\c1ccc(-c2cc(C(=O)NCCCCCCNC(=O)c3ccc(-c4c5nc(c(-c6cc(S(=O)(=O)[O-])ccc6F)c6ccc([nH]6)c(-c6cc(S(=O)(=O)[O-])ccc6F)c6nc(c(-c7cc(S(=O)(=O)[O-])ccc7F)c7ccc4[nH]7)C=C6)C=C5)cc3)ccc2Cl)o1
REMARK SMILES IDX 27 1 26 2 25 3 24 4 22 5 23 6 21 8 19 9 20 10 99 11 98 12
REMARK SMILES IDX 100 13 97 14 18 15 15 16 16 17 101 18 17 19 14 20 1 21 2 22
REMARK SMILES IDX 3 23 13 24 4 25 11 26 12 27 5 28 6 29 10 30 7 31 9 32 8 33
REMARK SMILES IDX 28 34 29 35 30 36 31 37 32 38 33 40 34 41 35 42 96 43 36 44
REMARK SMILES IDX 95 45 37 46 38 47 39 48 89 49 40 50 94 51 88 52 90 53 41 54
REMARK SMILES IDX 93 55 87 56 86 57 42 59 74 60 54 61 73 62 55 63 58 64 72 65
REMARK SMILES IDX 91 66 56 67 57 68 71 70 92 71 59 72 43 73 44 74 52 75 45 76
REMARK SMILES IDX 51 77 53 78 50 79 46 80 47 81 48 82 49 83 75 84 76 85 84 86
REMARK SMILES IDX 77 87 83 88 85 89 82 90 78 91 79 92 80 93 81 94 60 95 61 96
REMARK SMILES IDX 69 97 62 98 68 99 70 100 67 101 63 102 64 103 65 104 66 105
REMARK H PARENT 24 7 31 39 90 58 58 69
REMARK Flexibility Score: inf
ROOT
ATOM      1  C   UNL A   1      35.154  30.767  27.675  1.00  0.00     0.002 C 
ENDROOT
BRANCH   1   2
ATOM      2  C   UNL A   1      34.703  29.343  27.357  1.00  0.00     0.021 C 
BRANCH   2   3
ATOM      3  C   UNL A   1      33.582  29.207  26.332  1.00  0.00     0.116 C 
BRANCH   3   4
ATOM      4  N   UNL A   1      34.020  29.328  24.951  1.00  0.00    -0.352 N 
ATOM      5  C   UNL A   1      33.440  28.882  23.783  1.00  0.00     0.251 C 
ATOM      6  O   UNL A   1      34.023  29.061  22.717  1.00  0.00    -0.269 OA
ATOM      7  H   UNL A   1      34.872  29.808  24.830  1.00  0.00     0.163 HD
BRANCH   5   8
ATOM      8  C   UNL A   1      32.144  28.149  23.793  1.00  0.00     0.040 A 
ATOM      9  C   UNL A   1      30.762  26.356  24.711  1.00  0.00     0.037 A 
ATOM     10  C   UNL A   1      32.000  27.018  24.617  1.00  0.00     0.027 A 
ATOM     11  C   UNL A   1      29.655  26.906  24.031  1.00  0.00     0.052 A 
ATOM     12  C   UNL A   1      29.822  27.968  23.145  1.00  0.00     0.022 A 
ATOM     13  Cl  UNL A   1      28.034  26.330  24.247  1.00  0.00    -0.084 Cl
ATOM     14  C   UNL A   1      31.079  28.540  22.977  1.00  0.00     0.015 A 
BRANCH   9  15
ATOM     15  C   UNL A   1      30.657  25.058  25.366  1.00  0.00     0.136 A 
ATOM     16  C   UNL A   1      30.993  22.877  25.590  1.00  0.00     0.128 A 
ATOM     17  C   UNL A   1      30.251  23.311  26.684  1.00  0.00     0.051 A 
ATOM     18  O   UNL A   1      31.272  23.975  24.800  1.00  0.00    -0.457 OA
ATOM     19  C   UNL A   1      29.991  24.677  26.510  1.00  0.00     0.051 A 
BRANCH  16  20
ATOM     20  C   UNL A   1      31.409  21.540  25.328  1.00  0.00     0.063 C 
ATOM     21  C   UNL A   1      32.588  18.869  24.197  1.00  0.00     0.069 C 
ATOM     22  C   UNL A   1      33.347  20.049  24.705  1.00  0.00     0.071 C 
ATOM     23  N   UNL A   1      34.649  20.165  24.630  1.00  0.00    -0.169 NA
ATOM     24  C   UNL A   1      32.714  21.235  25.309  1.00  0.00     0.068 C 
ATOM     25  N   UNL A   1      34.958  21.357  25.278  1.00  0.00    -0.196 N 
ATOM     26  C   UNL A   1      33.854  22.066  25.767  1.00  0.00     0.280 C 
ATOM     27  O   UNL A   1      33.804  23.100  26.397  1.00  0.00    -0.267 OA
BRANCH  25  28
ATOM     28  C   UNL A   1      36.304  21.721  25.476  1.00  0.00     0.069 A 
ATOM     29  C   UNL A   1      36.649  23.038  25.798  1.00  0.00     0.028 A 
ATOM     30  C   UNL A   1      37.316  20.756  25.383  1.00  0.00     0.028 A 
ATOM     31  C   UNL A   1      37.981  23.368  26.065  1.00  0.00     0.002 A 
ATOM     32  C   UNL A   1      38.650  21.098  25.598  1.00  0.00     0.002 A 
ATOM     33  C   UNL A   1      38.981  22.401  25.955  1.00  0.00     0.000 A 
ENDBRANCH  25  28
ENDBRANCH  16  20
ENDBRANCH   9  15
ENDBRANCH   5   8
ENDBRANCH   3   4
ENDBRANCH   2   3
ENDBRANCH   1   2
BRANCH   1  34
ATOM     34  C   UNL A   1      34.149  31.640  28.431  1.00  0.00     0.002 C 
BRANCH  34  35
ATOM     35  C   UNL A   1      33.560  32.818  27.652  1.00  0.00     0.021 C 
BRANCH  35  36
ATOM     36  C   UNL A   1      34.143  34.185  27.991  1.00  0.00     0.116 C 
BRANCH  36  37
ATOM     37  N   UNL A   1      33.351  34.902  28.978  1.00  0.00    -0.352 N 
ATOM     38  C   UNL A   1      33.450  34.874  30.349  1.00  0.00     0.251 C 
ATOM     39  H   UNL A   1      32.649  35.488  28.615  1.00  0.00     0.163 HD
ATOM     40  O   UNL A   1      32.589  35.409  31.040  1.00  0.00    -0.269 OA
BRANCH  38  41
ATOM     41  C   UNL A   1      34.586  34.166  30.980  1.00  0.00     0.039 A 
ATOM     42  C   UNL A   1      34.334  33.057  31.792  1.00  0.00     0.014 A 
ATOM     43  C   UNL A   1      35.898  34.579  30.741  1.00  0.00     0.014 A 
ATOM     44  C   UNL A   1      35.404  32.312  32.297  1.00  0.00     0.010 A 
ATOM     45  C   UNL A   1      36.959  33.794  31.183  1.00  0.00     0.010 A 
ATOM     46  C   UNL A   1      36.724  32.649  31.961  1.00  0.00    -0.014 A 
BRANCH  46  47
ATOM     47  C   UNL A   1      37.884  31.830  32.403  1.00  0.00     0.031 A 
ATOM     48  C   UNL A   1      38.571  32.152  33.702  1.00  0.00     0.074 A 
ATOM     49  C   UNL A   1      38.376  30.865  31.599  1.00  0.00     0.049 A 
ATOM     50  N   UNL A   1      39.689  31.680  34.189  1.00  0.00    -0.248 NA
ATOM     51  C   UNL A   1      37.926  33.167  34.548  1.00  0.00     0.031 C 
ATOM     52  C   UNL A   1      37.807  30.467  30.310  1.00  0.00     0.029 A 
ATOM     53  N   UNL A   1      39.478  30.057  31.736  1.00  0.00    -0.354 N 
ATOM     54  C   UNL A   1      39.892  32.352  35.390  1.00  0.00     0.074 A 
ATOM     55  C   UNL A   1      38.812  33.307  35.522  1.00  0.00     0.031 C 
ATOM     56  C   UNL A   1      38.555  29.483  29.784  1.00  0.00     0.029 A 
ATOM     57  C   UNL A   1      39.691  29.222  30.662  1.00  0.00     0.049 A 
ATOM     58  H   UNL A   1      40.061  30.072  32.529  1.00  0.00     0.167 HD
ATOM     59  C   UNL A   1      40.879  32.176  36.303  1.00  0.00     0.034 A 
ATOM     60  C   UNL A   1      40.700  28.366  30.400  1.00  0.00     0.034 A 
ATOM     61  C   UNL A   1      41.944  31.215  36.155  1.00  0.00     0.049 A 
ATOM     62  C   UNL A   1      41.820  28.230  31.403  1.00  0.00     0.074 A 
ATOM     63  C   UNL A   1      42.971  30.927  37.037  1.00  0.00     0.029 A 
ATOM     64  N   UNL A   1      42.128  30.393  35.051  1.00  0.00    -0.354 N 
ATOM     65  N   UNL A   1      41.987  28.856  32.545  1.00  0.00    -0.248 NA
ATOM     66  C   UNL A   1      42.885  27.269  31.086  1.00  0.00     0.031 C 
ATOM     67  C   UNL A   1      43.819  29.993  36.432  1.00  0.00     0.029 A 
ATOM     68  C   UNL A   1      43.269  29.624  35.215  1.00  0.00     0.049 A 
ATOM     69  H   UNL A   1      41.534  30.360  34.266  1.00  0.00     0.167 HD
ATOM     70  C   UNL A   1      43.151  28.329  33.101  1.00  0.00     0.074 A 
ATOM     71  C   UNL A   1      43.643  27.336  32.171  1.00  0.00     0.031 C 
ATOM     72  C   UNL A   1      43.750  28.631  34.281  1.00  0.00     0.034 A 
BRANCH  59  73
ATOM     73  C   UNL A   1      40.865  33.067  37.524  1.00  0.00     0.023 A 
ATOM     74  C   UNL A   1      40.144  32.725  38.681  1.00  0.00     0.031 A 
ATOM     75  C   UNL A   1      41.562  34.289  37.522  1.00  0.00     0.131 A 
ATOM     76  C   UNL A   1      40.070  33.626  39.753  1.00  0.00     0.055 A 
ATOM     77  C   UNL A   1      41.560  35.140  38.629  1.00  0.00     0.041 A 
ATOM     78  F   UNL A   1      42.249  34.683  36.439  1.00  0.00    -0.206 F 
ATOM     79  C   UNL A   1      40.797  34.819  39.747  1.00  0.00     0.022 A 
BRANCH  76  80
ATOM     80  S   UNL A   1      38.885  33.290  41.084  1.00  0.00     0.124 S 
ATOM     81  O   UNL A   1      39.057  34.467  41.934  1.00  0.00    -0.237 OA
ATOM     82  O   UNL A   1      37.619  33.202  40.365  1.00  0.00    -0.237 OA
ATOM     83  O   UNL A   1      39.365  32.037  41.663  1.00  0.00    -0.744 OA
ENDBRANCH  76  80
ENDBRANCH  59  73
BRANCH  60  84
ATOM     84  C   UNL A   1      40.720  27.584  29.128  1.00  0.00     0.023 A 
ATOM     85  C   UNL A   1      41.627  27.896  28.103  1.00  0.00     0.031 A 
ATOM     86  C   UNL A   1      39.798  26.547  28.898  1.00  0.00     0.131 A 
ATOM     87  C   UNL A   1      41.560  27.215  26.878  1.00  0.00     0.055 A 
ATOM     88  C   UNL A   1      39.777  25.830  27.700  1.00  0.00     0.041 A 
ATOM     89  F   UNL A   1      38.906  26.206  29.842  1.00  0.00    -0.206 F 
ATOM     90  C   UNL A   1      40.652  26.174  26.675  1.00  0.00     0.022 A 
BRANCH  87  91
ATOM     91  S   UNL A   1      42.609  27.783  25.512  1.00  0.00     0.124 S 
ATOM     92  O   UNL A   1      43.864  28.065  26.201  1.00  0.00    -0.237 OA
ATOM     93  O   UNL A   1      42.608  26.622  24.628  1.00  0.00    -0.237 OA
ATOM     94  O   UNL A   1      41.899  28.953  25.001  1.00  0.00    -0.744 OA
ENDBRANCH  87  91
ENDBRANCH  60  84
BRANCH  72  95
ATOM     95  C   UNL A   1      44.966  27.826  34.672  1.00  0.00     0.023 A 
ATOM     96  C   UNL A   1      44.871  26.633  35.408  1.00  0.00     0.031 A 
ATOM     97  C   UNL A   1      46.246  28.260  34.278  1.00  0.00     0.131 A 
ATOM     98  C   UNL A   1      46.038  25.936  35.762  1.00  0.00     0.055 A 
ATOM     99  C   UNL A   1      47.396  27.530  34.577  1.00  0.00     0.041 A 
ATOM    100  F   UNL A   1      46.396  29.396  33.578  1.00  0.00    -0.206 F 
ATOM    101  C   UNL A   1      47.297  26.366  35.332  1.00  0.00     0.022 A 
BRANCH  98 102
ATOM    102  S   UNL A   1      45.899  24.500  36.860  1.00  0.00     0.124 S 
ATOM    103  O   UNL A   1      47.164  23.812  36.621  1.00  0.00    -0.237 OA
ATOM    104  O   UNL A   1      45.749  25.121  38.171  1.00  0.00    -0.237 OA
ATOM    105  O   UNL A   1      44.712  23.803  36.367  1.00  0.00    -0.744 OA
ENDBRANCH  98 102
ENDBRANCH  72  95
ENDBRANCH  46  47
ENDBRANCH  38  41
ENDBRANCH  36  37
ENDBRANCH  35  36
ENDBRANCH  34  35
ENDBRANCH   1  34
TORSDOF 19
ENDMDL
MODEL 3
REMARK VINA RESULT:     -11.9      5.911      8.949
REMARK SMILES CC1=NN(c2ccccc2)C(=O)/C1=C\c1ccc(-c2cc(C(=O)NCCCCCCNC(=O)c3ccc(-c4c5nc(c(-c6cc(S(=O)(=O)[O-])ccc6F)c6ccc([nH]6)c(-c6cc(S(=O)(=O)[O-])ccc6F)c6nc(c(-c7cc(S(=O)(=O)[O-])ccc7F)c7ccc4[nH]7)C=C6)C=C5)cc3)ccc2Cl)o1
REMARK SMILES IDX 27 1 26 2 25 3 24 4 22 5 23 6 21 8 19 9 20 10 99 11 98 12
REMARK SMILES IDX 100 13 97 14 18 15 15 16 16 17 101 18 17 19 14 20 1 21 2 22
REMARK SMILES IDX 3 23 13 24 4 25 11 26 12 27 5 28 6 29 10 30 7 31 9 32 8 33
REMARK SMILES IDX 28 34 29 35 30 36 31 37 32 38 33 40 34 41 35 42 96 43 36 44
REMARK SMILES IDX 95 45 37 46 38 47 39 48 89 49 40 50 94 51 88 52 90 53 41 54
REMARK SMILES IDX 93 55 87 56 86 57 42 59 74 60 54 61 73 62 55 63 58 64 72 65
REMARK SMILES IDX 91 66 56 67 57 68 71 70 92 71 59 72 43 73 44 74 52 75 45 76
REMARK SMILES IDX 51 77 53 78 50 79 46 80 47 81 48 82 49 83 75 84 76 85 84 86
REMARK SMILES IDX 77 87 83 88 85 89 82 90 78 91 79 92 80 93 81 94 60 95 61 96
REMARK SMILES IDX 69 97 62 98 68 99 70 100 67 101 63 102 64 103 65 104 66 105
REMARK H PARENT 24 7 31 39 90 58 58 69
REMARK Flexibility Score: inf
ROOT
ATOM      1  C   UNL A   1      39.950  27.446  28.269  1.00  0.00     0.002 C 
ENDROOT
BRANCH   1   2
ATOM      2  C   UNL A   1      39.619  28.535  27.249  1.00  0.00     0.021 C 
BRANCH   2   3
ATOM      3  C   UNL A   1      38.352  29.339  27.515  1.00  0.00     0.116 C 
BRANCH   3   4
ATOM      4  N   UNL A   1      37.937  29.354  28.909  1.00  0.00    -0.352 N 
ATOM      5  C   UNL A   1      36.733  29.702  29.483  1.00  0.00     0.251 C 
ATOM      6  O   UNL A   1      36.624  29.681  30.707  1.00  0.00    -0.269 OA
ATOM      7  H   UNL A   1      38.630  29.068  29.548  1.00  0.00     0.163 HD
BRANCH   5   8
ATOM      8  C   UNL A   1      35.579  30.144  28.654  1.00  0.00     0.040 A 
ATOM      9  C   UNL A   1      33.520  29.581  27.465  1.00  0.00     0.037 A 
ATOM     10  C   UNL A   1      34.665  29.184  28.179  1.00  0.00     0.027 A 
ATOM     11  C   UNL A   1      33.269  30.960  27.314  1.00  0.00     0.052 A 
ATOM     12  C   UNL A   1      34.220  31.902  27.702  1.00  0.00     0.022 A 
ATOM     13  Cl  UNL A   1      31.787  31.584  26.666  1.00  0.00    -0.084 Cl
ATOM     14  C   UNL A   1      35.401  31.486  28.306  1.00  0.00     0.015 A 
BRANCH   9  15
ATOM     15  C   UNL A   1      32.697  28.599  26.769  1.00  0.00     0.136 A 
ATOM     16  C   UNL A   1      32.095  27.315  25.063  1.00  0.00     0.128 A 
ATOM     17  C   UNL A   1      31.193  27.101  26.100  1.00  0.00     0.051 A 
ATOM     18  O   UNL A   1      33.045  28.216  25.502  1.00  0.00    -0.457 OA
ATOM     19  C   UNL A   1      31.542  27.956  27.154  1.00  0.00     0.051 A 
BRANCH  16  20
ATOM     20  C   UNL A   1      32.061  26.708  23.776  1.00  0.00     0.063 C 
ATOM     21  C   UNL A   1      32.633  25.555  20.921  1.00  0.00     0.069 C 
ATOM     22  C   UNL A   1      33.184  25.069  22.219  1.00  0.00     0.071 C 
ATOM     23  N   UNL A   1      34.101  24.139  22.318  1.00  0.00    -0.169 NA
ATOM     24  C   UNL A   1      32.791  25.610  23.532  1.00  0.00     0.068 C 
ATOM     25  N   UNL A   1      34.276  23.929  23.683  1.00  0.00    -0.196 N 
ATOM     26  C   UNL A   1      33.494  24.743  24.510  1.00  0.00     0.280 C 
ATOM     27  O   UNL A   1      33.398  24.770  25.719  1.00  0.00    -0.267 OA
BRANCH  25  28
ATOM     28  C   UNL A   1      35.121  22.896  24.132  1.00  0.00     0.069 A 
ATOM     29  C   UNL A   1      34.591  21.679  24.574  1.00  0.00     0.028 A 
ATOM     30  C   UNL A   1      36.512  23.065  24.113  1.00  0.00     0.028 A 
ATOM     31  C   UNL A   1      35.445  20.637  24.947  1.00  0.00     0.002 A 
ATOM     32  C   UNL A   1      37.361  22.042  24.534  1.00  0.00     0.002 A 
ATOM     33  C   UNL A   1      36.827  20.822  24.936  1.00  0.00     0.000 A 
ENDBRANCH  25  28
ENDBRANCH  16  20
ENDBRANCH   9  15
ENDBRANCH   5   8
ENDBRANCH   3   4
ENDBRANCH   2   3
ENDBRANCH   1   2
BRANCH   1  34
ATOM     34  C   UNL A   1      39.281  26.087  28.046  1.00  0.00     0.002 C 
BRANCH  34  35
ATOM     35  C   UNL A   1      40.030  25.109  27.138  1.00  0.00     0.021 C 
BRANCH  35  36
ATOM     36  C   UNL A   1      40.646  25.719  25.884  1.00  0.00     0.116 C 
BRANCH  36  37
ATOM     37  N   UNL A   1      41.916  25.106  25.529  1.00  0.00    -0.352 N 
ATOM     38  C   UNL A   1      43.176  25.658  25.553  1.00  0.00     0.251 C 
ATOM     39  H   UNL A   1      41.868  24.170  25.232  1.00  0.00     0.163 HD
ATOM     40  O   UNL A   1      44.121  25.053  25.057  1.00  0.00    -0.269 OA
BRANCH  38  41
ATOM     41  C   UNL A   1      43.372  26.996  26.152  1.00  0.00     0.039 A 
ATOM     42  C   UNL A   1      42.743  28.102  25.574  1.00  0.00     0.014 A 
ATOM     43  C   UNL A   1      44.149  27.149  27.302  1.00  0.00     0.014 A 
ATOM     44  C   UNL A   1      42.827  29.350  26.198  1.00  0.00     0.010 A 
ATOM     45  C   UNL A   1      44.169  28.375  27.961  1.00  0.00     0.010 A 
ATOM     46  C   UNL A   1      43.504  29.487  27.420  1.00  0.00    -0.014 A 
BRANCH  46  47
ATOM     47  C   UNL A   1      43.539  30.777  28.162  1.00  0.00     0.031 A 
ATOM     48  C   UNL A   1      44.636  31.767  27.882  1.00  0.00     0.074 A 
ATOM     49  C   UNL A   1      42.647  31.015  29.145  1.00  0.00     0.049 A 
ATOM     50  N   UNL A   1      44.949  32.863  28.523  1.00  0.00    -0.248 NA
ATOM     51  C   UNL A   1      45.519  31.460  26.746  1.00  0.00     0.031 C 
ATOM     52  C   UNL A   1      41.544  30.128  29.521  1.00  0.00     0.029 A 
ATOM     53  N   UNL A   1      42.539  32.066  30.023  1.00  0.00    -0.354 N 
ATOM     54  C   UNL A   1      46.075  33.368  27.881  1.00  0.00     0.074 A 
ATOM     55  C   UNL A   1      46.422  32.424  26.841  1.00  0.00     0.031 C 
ATOM     56  C   UNL A   1      40.866  30.678  30.541  1.00  0.00     0.029 A 
ATOM     57  C   UNL A   1      41.517  31.923  30.936  1.00  0.00     0.049 A 
ATOM     58  H   UNL A   1      43.136  32.848  30.003  1.00  0.00     0.167 HD
ATOM     59  C   UNL A   1      46.744  34.521  28.128  1.00  0.00     0.034 A 
ATOM     60  C   UNL A   1      41.164  32.689  31.987  1.00  0.00     0.034 A 
ATOM     61  C   UNL A   1      46.379  35.453  29.167  1.00  0.00     0.049 A 
ATOM     62  C   UNL A   1      41.961  33.938  32.281  1.00  0.00     0.074 A 
ATOM     63  C   UNL A   1      46.964  36.668  29.478  1.00  0.00     0.029 A 
ATOM     64  N   UNL A   1      45.342  35.269  30.073  1.00  0.00    -0.354 N 
ATOM     65  N   UNL A   1      43.010  34.415  31.651  1.00  0.00    -0.248 NA
ATOM     66  C   UNL A   1      41.524  34.754  33.422  1.00  0.00     0.031 C 
ATOM     67  C   UNL A   1      46.335  37.178  30.618  1.00  0.00     0.029 A 
ATOM     68  C   UNL A   1      45.293  36.331  30.962  1.00  0.00     0.049 A 
ATOM     69  H   UNL A   1      44.730  34.497  30.083  1.00  0.00     0.167 HD
ATOM     70  C   UNL A   1      43.327  35.610  32.293  1.00  0.00     0.074 A 
ATOM     71  C   UNL A   1      42.360  35.780  33.357  1.00  0.00     0.031 C 
ATOM     72  C   UNL A   1      44.321  36.493  32.019  1.00  0.00     0.034 A 
BRANCH  59  73
ATOM     73  C   UNL A   1      47.958  34.818  27.278  1.00  0.00     0.023 A 
ATOM     74  C   UNL A   1      49.259  34.514  27.713  1.00  0.00     0.031 A 
ATOM     75  C   UNL A   1      47.814  35.437  26.023  1.00  0.00     0.131 A 
ATOM     76  C   UNL A   1      50.365  34.901  26.942  1.00  0.00     0.055 A 
ATOM     77  C   UNL A   1      48.915  35.736  25.218  1.00  0.00     0.041 A 
ATOM     78  F   UNL A   1      46.599  35.774  25.562  1.00  0.00    -0.206 F 
ATOM     79  C   UNL A   1      50.201  35.483  25.683  1.00  0.00     0.022 A 
BRANCH  76  80
ATOM     80  S   UNL A   1      52.018  34.777  27.679  1.00  0.00     0.124 S 
ATOM     81  O   UNL A   1      51.697  34.595  29.093  1.00  0.00    -0.237 OA
ATOM     82  O   UNL A   1      52.581  33.616  26.997  1.00  0.00    -0.237 OA
ATOM     83  O   UNL A   1      52.638  36.058  27.348  1.00  0.00    -0.744 OA
ENDBRANCH  76  80
ENDBRANCH  59  73
BRANCH  60  84
ATOM     84  C   UNL A   1      40.018  32.297  32.860  1.00  0.00     0.023 A 
ATOM     85  C   UNL A   1      38.747  32.866  32.683  1.00  0.00     0.031 A 
ATOM     86  C   UNL A   1      40.189  31.385  33.917  1.00  0.00     0.131 A 
ATOM     87  C   UNL A   1      37.711  32.559  33.579  1.00  0.00     0.055 A 
ATOM     88  C   UNL A   1      39.137  31.034  34.768  1.00  0.00     0.041 A 
ATOM     89  F   UNL A   1      41.382  30.809  34.135  1.00  0.00    -0.206 F 
ATOM     90  C   UNL A   1      37.892  31.635  34.610  1.00  0.00     0.022 A 
BRANCH  87  91
ATOM     91  S   UNL A   1      36.148  33.468  33.440  1.00  0.00     0.124 S 
ATOM     92  O   UNL A   1      35.505  33.145  34.709  1.00  0.00    -0.237 OA
ATOM     93  O   UNL A   1      36.611  34.843  33.286  1.00  0.00    -0.237 OA
ATOM     94  O   UNL A   1      35.521  32.887  32.256  1.00  0.00    -0.744 OA
ENDBRANCH  87  91
ENDBRANCH  60  84
BRANCH  72  95
ATOM     95  C   UNL A   1      44.370  37.764  32.833  1.00  0.00     0.023 A 
ATOM     96  C   UNL A   1      43.620  38.903  32.494  1.00  0.00     0.031 A 
ATOM     97  C   UNL A   1      45.173  37.821  33.988  1.00  0.00     0.131 A 
ATOM     98  C   UNL A   1      43.722  40.064  33.276  1.00  0.00     0.055 A 
ATOM     99  C   UNL A   1      45.220  38.956  34.798  1.00  0.00     0.041 A 
ATOM    100  F   UNL A   1      45.915  36.764  34.356  1.00  0.00    -0.206 F 
ATOM    101  C   UNL A   1      44.500  40.089  34.438  1.00  0.00     0.022 A 
BRANCH  98 102
ATOM    102  S   UNL A   1      42.884  41.572  32.716  1.00  0.00     0.124 S 
ATOM    103  O   UNL A   1      41.933  41.809  33.797  1.00  0.00    -0.237 OA
ATOM    104  O   UNL A   1      43.985  42.523  32.615  1.00  0.00    -0.237 OA
ATOM    105  O   UNL A   1      42.288  41.180  31.440  1.00  0.00    -0.744 OA
ENDBRANCH  98 102
ENDBRANCH  72  95
ENDBRANCH  46  47
ENDBRANCH  38  41
ENDBRANCH  36  37
ENDBRANCH  35  36
ENDBRANCH  34  35
ENDBRANCH   1  34
TORSDOF 19
ENDMDL
