MODEL 1
REMARK VINA RESULT:     -11.4      0.000      0.000
REMARK SMILES CCc1ccsc1C(=O)c1c[nH]c(C(=O)NCCCCCCNC(=O)c2ccc(-c3c4nc(c(-c5cc(S(=O)(=O)[O-])ccc5F)c5ccc([nH]5)c(-c5cc(S(=O)(=O)[O-])ccc5F)c5nc(c(-c6cc(S(=O)(=O)[O-])ccc6F)c6ccc3[nH]6)C=C5)C=C4)cc2)c1
REMARK SMILES IDX 19 1 18 2 17 3 16 4 14 5 15 6 13 8 10 9 11 10 89 11 12 12
REMARK SMILES IDX 8 14 9 15 7 16 3 17 4 18 5 19 6 20 2 21 1 22 20 23 21 24
REMARK SMILES IDX 22 25 23 26 24 27 25 29 26 30 27 31 88 32 28 33 87 34 29 35
REMARK SMILES IDX 30 36 31 37 81 38 32 39 86 40 80 41 82 42 33 43 85 44 79 45
REMARK SMILES IDX 78 46 34 48 66 49 46 50 65 51 47 52 50 53 64 54 83 55 48 56
REMARK SMILES IDX 49 57 63 59 84 60 51 61 35 62 36 63 44 64 37 65 43 66 45 67
REMARK SMILES IDX 42 68 38 69 39 70 40 71 41 72 67 73 68 74 76 75 69 76 75 77
REMARK SMILES IDX 77 78 74 79 70 80 71 81 72 82 73 83 52 84 53 85 61 86 54 87
REMARK SMILES IDX 60 88 62 89 59 90 55 91 56 92 57 93 58 94
REMARK H PARENT 16 7 12 13 23 28 82 47 50 58
REMARK Flexibility Score: inf
ROOT
ATOM      1  C   UNL A   1      35.051  22.959  26.081  1.00  0.00     0.002 C 
ENDROOT
BRANCH   1   2
ATOM      2  C   UNL A   1      35.527  21.504  26.139  1.00  0.00     0.021 C 
BRANCH   2   3
ATOM      3  C   UNL A   1      35.201  20.689  24.889  1.00  0.00     0.116 C 
BRANCH   3   4
ATOM      4  N   UNL A   1      34.086  19.795  25.107  1.00  0.00    -0.351 N 
ATOM      5  C   UNL A   1      32.731  19.994  25.104  1.00  0.00     0.267 C 
ATOM      6  O   UNL A   1      32.030  18.984  25.119  1.00  0.00    -0.268 OA
ATOM      7  H   UNL A   1      34.352  18.865  25.294  1.00  0.00     0.163 HD
BRANCH   5   8
ATOM      8  C   UNL A   1      32.126  21.310  25.070  1.00  0.00     0.105 A 
ATOM      9  C   UNL A   1      31.026  23.305  25.317  1.00  0.00     0.042 A 
ATOM     10  C   UNL A   1      31.489  23.223  24.020  1.00  0.00     0.095 A 
ATOM     11  C   UNL A   1      31.450  22.112  25.974  1.00  0.00     0.045 A 
ATOM     12  N   UNL A   1      32.116  22.015  23.876  1.00  0.00    -0.356 N 
ATOM     13  H   UNL A   1      32.510  21.689  23.035  1.00  0.00     0.166 HD
BRANCH   9  14
ATOM     14  C   UNL A   1      30.416  24.464  25.939  1.00  0.00     0.204 C 
ATOM     15  O   UNL A   1      29.721  24.267  26.934  1.00  0.00    -0.288 OA
BRANCH  14  16
ATOM     16  C   UNL A   1      30.620  25.789  25.331  1.00  0.00     0.078 A 
ATOM     17  C   UNL A   1      31.500  26.873  25.482  1.00  0.00    -0.026 A 
ATOM     18  C   UNL A   1      31.130  27.949  24.577  1.00  0.00     0.016 A 
ATOM     19  C   UNL A   1      30.042  27.681  23.792  1.00  0.00     0.066 A 
ATOM     20  S   UNL A   1      29.437  26.135  24.089  1.00  0.00    -0.140 S 
BRANCH  17  21
ATOM     21  C   UNL A   1      32.644  27.157  26.435  1.00  0.00     0.034 C 
ATOM     22  C   UNL A   1      33.990  27.578  25.894  1.00  0.00     0.009 C 
ENDBRANCH  17  21
ENDBRANCH  14  16
ENDBRANCH   9  14
ENDBRANCH   5   8
ENDBRANCH   3   4
ENDBRANCH   2   3
ENDBRANCH   1   2
BRANCH   1  23
ATOM     23  C   UNL A   1      36.061  23.954  25.493  1.00  0.00     0.002 C 
BRANCH  23  24
ATOM     24  C   UNL A   1      37.534  23.518  25.549  1.00  0.00     0.021 C 
BRANCH  24  25
ATOM     25  C   UNL A   1      38.242  23.925  26.838  1.00  0.00     0.116 C 
BRANCH  25  26
ATOM     26  N   UNL A   1      39.650  23.582  26.766  1.00  0.00    -0.352 N 
ATOM     27  C   UNL A   1      40.769  24.369  26.766  1.00  0.00     0.251 C 
ATOM     28  H   UNL A   1      39.832  22.617  26.706  1.00  0.00     0.163 HD
ATOM     29  O   UNL A   1      41.809  23.891  26.317  1.00  0.00    -0.269 OA
BRANCH  27  30
ATOM     30  C   UNL A   1      40.764  25.757  27.277  1.00  0.00     0.039 A 
ATOM     31  C   UNL A   1      40.842  25.929  28.668  1.00  0.00     0.014 A 
ATOM     32  C   UNL A   1      40.571  26.868  26.448  1.00  0.00     0.014 A 
ATOM     33  C   UNL A   1      40.768  27.203  29.217  1.00  0.00     0.010 A 
ATOM     34  C   UNL A   1      40.530  28.148  26.991  1.00  0.00     0.010 A 
ATOM     35  C   UNL A   1      40.631  28.312  28.375  1.00  0.00    -0.014 A 
BRANCH  35  36
ATOM     36  C   UNL A   1      40.771  29.664  28.957  1.00  0.00     0.031 A 
ATOM     37  C   UNL A   1      39.383  30.219  29.371  1.00  0.00     0.074 A 
ATOM     38  C   UNL A   1      42.040  30.185  28.995  1.00  0.00     0.049 A 
ATOM     39  N   UNL A   1      38.928  31.433  29.376  1.00  0.00    -0.248 NA
ATOM     40  C   UNL A   1      38.297  29.258  29.731  1.00  0.00     0.031 C 
ATOM     41  C   UNL A   1      43.271  29.465  28.576  1.00  0.00     0.029 A 
ATOM     42  N   UNL A   1      42.572  31.397  29.383  1.00  0.00    -0.354 N 
ATOM     43  C   UNL A   1      37.640  31.412  29.976  1.00  0.00     0.074 A 
ATOM     44  C   UNL A   1      37.250  30.038  30.013  1.00  0.00     0.031 C 
ATOM     45  C   UNL A   1      44.363  30.264  28.654  1.00  0.00     0.029 A 
ATOM     46  C   UNL A   1      43.970  31.573  29.139  1.00  0.00     0.049 A 
ATOM     47  H   UNL A   1      42.022  32.098  29.802  1.00  0.00     0.167 HD
ATOM     48  C   UNL A   1      37.068  32.511  30.562  1.00  0.00     0.034 A 
ATOM     49  C   UNL A   1      44.737  32.703  29.281  1.00  0.00     0.034 A 
ATOM     50  C   UNL A   1      37.949  33.622  30.416  1.00  0.00     0.049 A 
ATOM     51  C   UNL A   1      43.827  33.664  29.919  1.00  0.00     0.074 A 
ATOM     52  C   UNL A   1      38.362  34.348  29.333  1.00  0.00     0.029 A 
ATOM     53  N   UNL A   1      38.794  33.870  31.476  1.00  0.00    -0.354 N 
ATOM     54  N   UNL A   1      43.465  33.624  31.164  1.00  0.00    -0.248 NA
ATOM     55  C   UNL A   1      43.216  34.710  29.090  1.00  0.00     0.031 C 
ATOM     56  C   UNL A   1      39.726  34.562  29.612  1.00  0.00     0.029 A 
ATOM     57  C   UNL A   1      40.008  34.198  30.937  1.00  0.00     0.049 A 
ATOM     58  H   UNL A   1      38.569  33.819  32.433  1.00  0.00     0.167 HD
ATOM     59  C   UNL A   1      42.352  34.423  31.170  1.00  0.00     0.074 A 
ATOM     60  C   UNL A   1      42.458  35.291  30.016  1.00  0.00     0.031 C 
ATOM     61  C   UNL A   1      41.202  33.952  31.718  1.00  0.00     0.034 A 
BRANCH  48  62
ATOM     62  C   UNL A   1      35.914  32.711  31.524  1.00  0.00     0.023 A 
ATOM     63  C   UNL A   1      34.858  33.540  31.058  1.00  0.00     0.031 A 
ATOM     64  C   UNL A   1      35.923  32.448  32.899  1.00  0.00     0.131 A 
ATOM     65  C   UNL A   1      34.002  34.212  31.938  1.00  0.00     0.055 A 
ATOM     66  C   UNL A   1      35.007  33.057  33.774  1.00  0.00     0.041 A 
ATOM     67  F   UNL A   1      36.853  31.669  33.464  1.00  0.00    -0.206 F 
ATOM     68  C   UNL A   1      34.072  33.980  33.304  1.00  0.00     0.022 A 
BRANCH  65  69
ATOM     69  S   UNL A   1      32.962  35.544  31.267  1.00  0.00     0.124 S 
ATOM     70  O   UNL A   1      33.876  36.680  31.279  1.00  0.00    -0.237 OA
ATOM     71  O   UNL A   1      32.610  35.022  29.951  1.00  0.00    -0.237 OA
ATOM     72  O   UNL A   1      31.857  35.624  32.220  1.00  0.00    -0.744 OA
ENDBRANCH  65  69
ENDBRANCH  48  62
BRANCH  49  73
ATOM     73  C   UNL A   1      46.121  33.262  28.943  1.00  0.00     0.023 A 
ATOM     74  C   UNL A   1      46.551  33.803  27.719  1.00  0.00     0.031 A 
ATOM     75  C   UNL A   1      47.102  33.330  29.990  1.00  0.00     0.131 A 
ATOM     76  C   UNL A   1      47.833  34.432  27.623  1.00  0.00     0.055 A 
ATOM     77  C   UNL A   1      48.304  34.030  29.918  1.00  0.00     0.041 A 
ATOM     78  F   UNL A   1      46.944  32.707  31.166  1.00  0.00    -0.206 F 
ATOM     79  C   UNL A   1      48.672  34.604  28.729  1.00  0.00     0.022 A 
BRANCH  76  80
ATOM     80  S   UNL A   1      48.478  35.072  26.046  1.00  0.00     0.124 S 
ATOM     81  O   UNL A   1      48.426  36.515  26.264  1.00  0.00    -0.237 OA
ATOM     82  O   UNL A   1      49.809  34.481  25.970  1.00  0.00    -0.237 OA
ATOM     83  O   UNL A   1      47.521  34.562  25.063  1.00  0.00    -0.744 OA
ENDBRANCH  76  80
ENDBRANCH  49  73
BRANCH  61  84
ATOM     84  C   UNL A   1      41.393  32.890  32.802  1.00  0.00     0.023 A 
ATOM     85  C   UNL A   1      40.966  31.565  32.576  1.00  0.00     0.031 A 
ATOM     86  C   UNL A   1      41.880  33.161  34.094  1.00  0.00     0.131 A 
ATOM     87  C   UNL A   1      41.000  30.601  33.606  1.00  0.00     0.055 A 
ATOM     88  C   UNL A   1      41.925  32.203  35.118  1.00  0.00     0.041 A 
ATOM     89  F   UNL A   1      42.319  34.375  34.421  1.00  0.00    -0.206 F 
ATOM     90  C   UNL A   1      41.478  30.914  34.878  1.00  0.00     0.022 A 
BRANCH  87  91
ATOM     91  S   UNL A   1      40.428  28.914  33.264  1.00  0.00     0.124 S 
ATOM     92  O   UNL A   1      40.813  28.193  34.472  1.00  0.00    -0.237 OA
ATOM     93  O   UNL A   1      38.995  29.099  33.058  1.00  0.00    -0.237 OA
ATOM     94  O   UNL A   1      41.172  28.539  32.060  1.00  0.00    -0.744 OA
ENDBRANCH  87  91
ENDBRANCH  61  84
ENDBRANCH  35  36
ENDBRANCH  27  30
ENDBRANCH  25  26
ENDBRANCH  24  25
ENDBRANCH  23  24
ENDBRANCH   1  23
TORSDOF 19
ENDMDL
MODEL 2
REMARK VINA RESULT:     -11.1      1.525      2.078
REMARK SMILES CCc1ccsc1C(=O)c1c[nH]c(C(=O)NCCCCCCNC(=O)c2ccc(-c3c4nc(c(-c5cc(S(=O)(=O)[O-])ccc5F)c5ccc([nH]5)c(-c5cc(S(=O)(=O)[O-])ccc5F)c5nc(c(-c6cc(S(=O)(=O)[O-])ccc6F)c6ccc3[nH]6)C=C5)C=C4)cc2)c1
REMARK SMILES IDX 19 1 18 2 17 3 16 4 14 5 15 6 13 8 10 9 11 10 89 11 12 12
REMARK SMILES IDX 8 14 9 15 7 16 3 17 4 18 5 19 6 20 2 21 1 22 20 23 21 24
REMARK SMILES IDX 22 25 23 26 24 27 25 29 26 30 27 31 88 32 28 33 87 34 29 35
REMARK SMILES IDX 30 36 31 37 81 38 32 39 86 40 80 41 82 42 33 43 85 44 79 45
REMARK SMILES IDX 78 46 34 48 66 49 46 50 65 51 47 52 50 53 64 54 83 55 48 56
REMARK SMILES IDX 49 57 63 59 84 60 51 61 35 62 36 63 44 64 37 65 43 66 45 67
REMARK SMILES IDX 42 68 38 69 39 70 40 71 41 72 67 73 68 74 76 75 69 76 75 77
REMARK SMILES IDX 77 78 74 79 70 80 71 81 72 82 73 83 52 84 53 85 61 86 54 87
REMARK SMILES IDX 60 88 62 89 59 90 55 91 56 92 57 93 58 94
REMARK H PARENT 16 7 12 13 23 28 82 47 50 58
REMARK Flexibility Score: inf
ROOT
ATOM      1  C   UNL A   1      35.174  21.269  25.054  1.00  0.00     0.002 C 
ENDROOT
BRANCH   1   2
ATOM      2  C   UNL A   1      33.693  21.069  24.715  1.00  0.00     0.021 C 
BRANCH   2   3
ATOM      3  C   UNL A   1      32.871  22.355  24.723  1.00  0.00     0.116 C 
BRANCH   3   4
ATOM      4  N   UNL A   1      32.148  22.523  25.965  1.00  0.00    -0.351 N 
ATOM      5  C   UNL A   1      31.335  23.522  26.429  1.00  0.00     0.267 C 
ATOM      6  O   UNL A   1      30.697  23.278  27.451  1.00  0.00    -0.268 OA
ATOM      7  H   UNL A   1      32.264  21.778  26.597  1.00  0.00     0.163 HD
BRANCH   5   8
ATOM      8  C   UNL A   1      31.199  24.803  25.765  1.00  0.00     0.105 A 
ATOM      9  C   UNL A   1      31.288  26.906  24.858  1.00  0.00     0.042 A 
ATOM     10  C   UNL A   1      30.010  26.416  24.691  1.00  0.00     0.095 A 
ATOM     11  C   UNL A   1      32.034  25.879  25.512  1.00  0.00     0.045 A 
ATOM     12  N   UNL A   1      29.961  25.173  25.264  1.00  0.00    -0.356 N 
ATOM     13  H   UNL A   1      29.152  24.615  25.312  1.00  0.00     0.166 HD
BRANCH   9  14
ATOM     14  C   UNL A   1      31.818  28.133  24.295  1.00  0.00     0.204 C 
ATOM     15  O   UNL A   1      32.396  28.050  23.213  1.00  0.00    -0.288 OA
BRANCH  14  16
ATOM     16  C   UNL A   1      31.676  29.385  25.056  1.00  0.00     0.078 A 
ATOM     17  C   UNL A   1      32.227  29.963  26.210  1.00  0.00    -0.026 A 
ATOM     18  C   UNL A   1      31.608  31.252  26.471  1.00  0.00     0.016 A 
ATOM     19  C   UNL A   1      30.655  31.618  25.560  1.00  0.00     0.066 A 
ATOM     20  S   UNL A   1      30.480  30.452  24.354  1.00  0.00    -0.140 S 
BRANCH  17  21
ATOM     21  C   UNL A   1      33.225  29.475  27.242  1.00  0.00     0.034 C 
ATOM     22  C   UNL A   1      34.309  28.502  26.842  1.00  0.00     0.009 C 
ENDBRANCH  17  21
ENDBRANCH  14  16
ENDBRANCH   9  14
ENDBRANCH   5   8
ENDBRANCH   3   4
ENDBRANCH   2   3
ENDBRANCH   1   2
BRANCH   1  23
ATOM     23  C   UNL A   1      35.535  22.652  25.614  1.00  0.00     0.002 C 
BRANCH  23  24
ATOM     24  C   UNL A   1      36.891  23.218  25.163  1.00  0.00     0.021 C 
BRANCH  24  25
ATOM     25  C   UNL A   1      37.530  24.158  26.183  1.00  0.00     0.116 C 
BRANCH  25  26
ATOM     26  N   UNL A   1      38.693  23.532  26.782  1.00  0.00    -0.352 N 
ATOM     27  C   UNL A   1      39.839  24.072  27.298  1.00  0.00     0.251 C 
ATOM     28  H   UNL A   1      38.651  22.550  26.826  1.00  0.00     0.163 HD
ATOM     29  O   UNL A   1      40.826  23.344  27.393  1.00  0.00    -0.269 OA
BRANCH  27  30
ATOM     30  C   UNL A   1      39.927  25.483  27.732  1.00  0.00     0.039 A 
ATOM     31  C   UNL A   1      39.613  25.763  29.070  1.00  0.00     0.014 A 
ATOM     32  C   UNL A   1      40.194  26.532  26.845  1.00  0.00     0.014 A 
ATOM     33  C   UNL A   1      39.605  27.077  29.523  1.00  0.00     0.010 A 
ATOM     34  C   UNL A   1      40.220  27.845  27.302  1.00  0.00     0.010 A 
ATOM     35  C   UNL A   1      39.927  28.114  28.642  1.00  0.00    -0.014 A 
BRANCH  35  36
ATOM     36  C   UNL A   1      40.124  29.473  29.189  1.00  0.00     0.031 A 
ATOM     37  C   UNL A   1      38.754  30.158  29.437  1.00  0.00     0.074 A 
ATOM     38  C   UNL A   1      41.422  29.889  29.342  1.00  0.00     0.049 A 
ATOM     39  N   UNL A   1      38.407  31.405  29.354  1.00  0.00    -0.248 NA
ATOM     40  C   UNL A   1      37.559  29.306  29.714  1.00  0.00     0.031 C 
ATOM     41  C   UNL A   1      42.623  29.053  29.078  1.00  0.00     0.029 A 
ATOM     42  N   UNL A   1      42.015  31.069  29.743  1.00  0.00    -0.354 N 
ATOM     43  C   UNL A   1      37.068  31.515  29.816  1.00  0.00     0.074 A 
ATOM     44  C   UNL A   1      36.559  30.181  29.859  1.00  0.00     0.031 C 
ATOM     45  C   UNL A   1      43.766  29.763  29.243  1.00  0.00     0.029 A 
ATOM     46  C   UNL A   1      43.441  31.118  29.641  1.00  0.00     0.049 A 
ATOM     47  H   UNL A   1      41.488  31.830  30.079  1.00  0.00     0.167 HD
ATOM     48  C   UNL A   1      36.537  32.681  30.303  1.00  0.00     0.034 A 
ATOM     49  C   UNL A   1      44.284  32.186  29.824  1.00  0.00     0.034 A 
ATOM     50  C   UNL A   1      37.521  33.708  30.213  1.00  0.00     0.049 A 
ATOM     51  C   UNL A   1      43.401  33.245  30.331  1.00  0.00     0.074 A 
ATOM     52  C   UNL A   1      38.103  34.352  29.155  1.00  0.00     0.029 A 
ATOM     53  N   UNL A   1      38.272  33.931  31.346  1.00  0.00    -0.354 N 
ATOM     54  N   UNL A   1      42.912  33.288  31.532  1.00  0.00    -0.248 NA
ATOM     55  C   UNL A   1      42.969  34.302  29.407  1.00  0.00     0.031 C 
ATOM     56  C   UNL A   1      39.445  34.465  29.568  1.00  0.00     0.029 A 
ATOM     57  C   UNL A   1      39.558  34.135  30.926  1.00  0.00     0.049 A 
ATOM     58  H   UNL A   1      37.948  33.939  32.275  1.00  0.00     0.167 HD
ATOM     59  C   UNL A   1      41.877  34.175  31.394  1.00  0.00     0.074 A 
ATOM     60  C   UNL A   1      42.174  34.982  30.230  1.00  0.00     0.031 C 
ATOM     61  C   UNL A   1      40.641  33.824  31.835  1.00  0.00     0.034 A 
BRANCH  48  62
ATOM     62  C   UNL A   1      35.313  33.016  31.132  1.00  0.00     0.023 A 
ATOM     63  C   UNL A   1      34.559  34.138  30.694  1.00  0.00     0.031 A 
ATOM     64  C   UNL A   1      35.037  32.561  32.426  1.00  0.00     0.131 A 
ATOM     65  C   UNL A   1      33.740  34.865  31.566  1.00  0.00     0.055 A 
ATOM     66  C   UNL A   1      34.146  33.242  33.274  1.00  0.00     0.041 A 
ATOM     67  F   UNL A   1      35.664  31.503  32.953  1.00  0.00    -0.206 F 
ATOM     68  C   UNL A   1      33.530  34.425  32.866  1.00  0.00     0.022 A 
BRANCH  65  69
ATOM     69  S   UNL A   1      33.146  36.494  31.022  1.00  0.00     0.124 S 
ATOM     70  O   UNL A   1      33.953  37.399  31.833  1.00  0.00    -0.237 OA
ATOM     71  O   UNL A   1      33.453  36.470  29.596  1.00  0.00    -0.237 OA
ATOM     72  O   UNL A   1      31.723  36.464  31.352  1.00  0.00    -0.744 OA
ENDBRANCH  65  69
ENDBRANCH  48  62
BRANCH  49  73
ATOM     73  C   UNL A   1      45.738  32.614  29.614  1.00  0.00     0.023 A 
ATOM     74  C   UNL A   1      46.451  32.663  28.403  1.00  0.00     0.031 A 
ATOM     75  C   UNL A   1      46.475  33.103  30.746  1.00  0.00     0.131 A 
ATOM     76  C   UNL A   1      47.758  33.244  28.362  1.00  0.00     0.055 A 
ATOM     77  C   UNL A   1      47.702  33.757  30.682  1.00  0.00     0.041 A 
ATOM     78  F   UNL A   1      46.033  32.968  32.004  1.00  0.00    -0.206 F 
ATOM     79  C   UNL A   1      48.349  33.847  29.477  1.00  0.00     0.022 A 
BRANCH  76  80
ATOM     80  S   UNL A   1      48.761  33.256  26.843  1.00  0.00     0.124 S 
ATOM     81  O   UNL A   1      50.118  33.236  27.380  1.00  0.00    -0.237 OA
ATOM     82  O   UNL A   1      48.326  32.049  26.150  1.00  0.00    -0.237 OA
ATOM     83  O   UNL A   1      48.372  34.510  26.196  1.00  0.00    -0.744 OA
ENDBRANCH  76  80
ENDBRANCH  49  73
BRANCH  61  84
ATOM     84  C   UNL A   1      40.630  32.796  32.968  1.00  0.00     0.023 A 
ATOM     85  C   UNL A   1      40.621  31.418  32.671  1.00  0.00     0.031 A 
ATOM     86  C   UNL A   1      40.513  33.127  34.331  1.00  0.00     0.131 A 
ATOM     87  C   UNL A   1      40.468  30.453  33.689  1.00  0.00     0.055 A 
ATOM     88  C   UNL A   1      40.370  32.170  35.346  1.00  0.00     0.041 A 
ATOM     89  F   UNL A   1      40.517  34.397  34.732  1.00  0.00    -0.206 F 
ATOM     90  C   UNL A   1      40.341  30.822  35.027  1.00  0.00     0.022 A 
BRANCH  87  91
ATOM     91  S   UNL A   1      40.453  28.692  33.250  1.00  0.00     0.124 S 
ATOM     92  O   UNL A   1      41.521  28.598  32.261  1.00  0.00    -0.237 OA
ATOM     93  O   UNL A   1      40.709  28.044  34.532  1.00  0.00    -0.237 OA
ATOM     94  O   UNL A   1      39.104  28.483  32.722  1.00  0.00    -0.744 OA
ENDBRANCH  87  91
ENDBRANCH  61  84
ENDBRANCH  35  36
ENDBRANCH  27  30
ENDBRANCH  25  26
ENDBRANCH  24  25
ENDBRANCH  23  24
ENDBRANCH   1  23
TORSDOF 19
ENDMDL
MODEL 3
REMARK VINA RESULT:     -10.9      4.851      9.811
REMARK SMILES CCc1ccsc1C(=O)c1c[nH]c(C(=O)NCCCCCCNC(=O)c2ccc(-c3c4nc(c(-c5cc(S(=O)(=O)[O-])ccc5F)c5ccc([nH]5)c(-c5cc(S(=O)(=O)[O-])ccc5F)c5nc(c(-c6cc(S(=O)(=O)[O-])ccc6F)c6ccc3[nH]6)C=C5)C=C4)cc2)c1
REMARK SMILES IDX 19 1 18 2 17 3 16 4 14 5 15 6 13 8 10 9 11 10 89 11 12 12
REMARK SMILES IDX 8 14 9 15 7 16 3 17 4 18 5 19 6 20 2 21 1 22 20 23 21 24
REMARK SMILES IDX 22 25 23 26 24 27 25 29 26 30 27 31 88 32 28 33 87 34 29 35
REMARK SMILES IDX 30 36 31 37 81 38 32 39 86 40 80 41 82 42 33 43 85 44 79 45
REMARK SMILES IDX 78 46 34 48 66 49 46 50 65 51 47 52 50 53 64 54 83 55 48 56
REMARK SMILES IDX 49 57 63 59 84 60 51 61 35 62 36 63 44 64 37 65 43 66 45 67
REMARK SMILES IDX 42 68 38 69 39 70 40 71 41 72 67 73 68 74 76 75 69 76 75 77
REMARK SMILES IDX 77 78 74 79 70 80 71 81 72 82 73 83 52 84 53 85 61 86 54 87
REMARK SMILES IDX 60 88 62 89 59 90 55 91 56 92 57 93 58 94
REMARK H PARENT 16 7 12 13 23 28 82 47 50 58
REMARK Flexibility Score: inf
ROOT
ATOM      1  C   UNL A   1      39.895  21.418  26.757  1.00  0.00     0.002 C 
ENDROOT
BRANCH   1   2
ATOM      2  C   UNL A   1      40.481  20.037  26.442  1.00  0.00     0.021 C 
BRANCH   2   3
ATOM      3  C   UNL A   1      41.975  19.914  26.728  1.00  0.00     0.116 C 
BRANCH   3   4
ATOM      4  N   UNL A   1      42.733  19.653  25.524  1.00  0.00    -0.351 N 
ATOM      5  C   UNL A   1      43.796  20.295  24.948  1.00  0.00     0.267 C 
ATOM      6  O   UNL A   1      44.356  19.706  24.025  1.00  0.00    -0.268 OA
ATOM      7  H   UNL A   1      42.424  18.864  25.022  1.00  0.00     0.163 HD
BRANCH   5   8
ATOM      8  C   UNL A   1      44.272  21.590  25.390  1.00  0.00     0.105 A 
ATOM      9  C   UNL A   1      44.807  23.769  25.856  1.00  0.00     0.042 A 
ATOM     10  C   UNL A   1      45.741  22.955  26.461  1.00  0.00     0.095 A 
ATOM     11  C   UNL A   1      43.876  22.905  25.205  1.00  0.00     0.045 A 
ATOM     12  N   UNL A   1      45.428  21.659  26.151  1.00  0.00    -0.356 N 
ATOM     13  H   UNL A   1      45.956  20.877  26.432  1.00  0.00     0.166 HD
BRANCH   9  14
ATOM     14  C   UNL A   1      44.682  25.205  26.023  1.00  0.00     0.204 C 
ATOM     15  O   UNL A   1      44.646  25.888  25.001  1.00  0.00    -0.288 OA
BRANCH  14  16
ATOM     16  C   UNL A   1      44.648  25.762  27.385  1.00  0.00     0.078 A 
ATOM     17  C   UNL A   1      43.924  25.556  28.570  1.00  0.00    -0.026 A 
ATOM     18  C   UNL A   1      44.352  26.501  29.589  1.00  0.00     0.016 A 
ATOM     19  C   UNL A   1      45.341  27.357  29.190  1.00  0.00     0.066 A 
ATOM     20  S   UNL A   1      45.810  27.053  27.599  1.00  0.00    -0.140 S 
BRANCH  17  21
ATOM     21  C   UNL A   1      42.767  24.647  28.937  1.00  0.00     0.034 C 
ATOM     22  C   UNL A   1      42.954  23.148  28.931  1.00  0.00     0.009 C 
ENDBRANCH  17  21
ENDBRANCH  14  16
ENDBRANCH   9  14
ENDBRANCH   5   8
ENDBRANCH   3   4
ENDBRANCH   2   3
ENDBRANCH   1   2
BRANCH   1  23
ATOM     23  C   UNL A   1      38.780  21.886  25.811  1.00  0.00     0.002 C 
BRANCH  23  24
ATOM     24  C   UNL A   1      38.266  23.316  26.045  1.00  0.00     0.021 C 
BRANCH  24  25
ATOM     25  C   UNL A   1      39.175  24.152  26.942  1.00  0.00     0.116 C 
BRANCH  25  26
ATOM     26  N   UNL A   1      40.266  24.712  26.168  1.00  0.00    -0.352 N 
ATOM     27  C   UNL A   1      40.772  25.982  26.117  1.00  0.00     0.251 C 
ATOM     28  H   UNL A   1      40.720  24.070  25.577  1.00  0.00     0.163 HD
ATOM     29  O   UNL A   1      41.427  26.301  25.126  1.00  0.00    -0.269 OA
BRANCH  27  30
ATOM     30  C   UNL A   1      40.555  26.968  27.198  1.00  0.00     0.039 A 
ATOM     31  C   UNL A   1      39.735  26.578  28.267  1.00  0.00     0.014 A 
ATOM     32  C   UNL A   1      41.034  28.281  27.131  1.00  0.00     0.014 A 
ATOM     33  C   UNL A   1      39.432  27.482  29.278  1.00  0.00     0.010 A 
ATOM     34  C   UNL A   1      40.761  29.179  28.157  1.00  0.00     0.010 A 
ATOM     35  C   UNL A   1      39.961  28.776  29.230  1.00  0.00    -0.014 A 
BRANCH  35  36
ATOM     36  C   UNL A   1      39.806  29.649  30.413  1.00  0.00     0.031 A 
ATOM     37  C   UNL A   1      40.742  29.178  31.557  1.00  0.00     0.074 A 
ATOM     38  C   UNL A   1      38.880  30.656  30.312  1.00  0.00     0.049 A 
ATOM     39  N   UNL A   1      40.586  29.218  32.844  1.00  0.00    -0.248 NA
ATOM     40  C   UNL A   1      41.998  28.449  31.210  1.00  0.00     0.031 C 
ATOM     41  C   UNL A   1      38.094  30.975  29.091  1.00  0.00     0.029 A 
ATOM     42  N   UNL A   1      38.400  31.613  31.182  1.00  0.00    -0.354 N 
ATOM     43  C   UNL A   1      41.800  28.783  33.441  1.00  0.00     0.074 A 
ATOM     44  C   UNL A   1      42.554  28.172  32.393  1.00  0.00     0.031 C 
ATOM     45  C   UNL A   1      37.203  31.970  29.321  1.00  0.00     0.029 A 
ATOM     46  C   UNL A   1      37.318  32.413  30.697  1.00  0.00     0.049 A 
ATOM     47  H   UNL A   1      38.780  31.739  32.082  1.00  0.00     0.167 HD
ATOM     48  C   UNL A   1      42.169  29.120  34.717  1.00  0.00     0.034 A 
ATOM     49  C   UNL A   1      36.550  33.330  31.372  1.00  0.00     0.034 A 
ATOM     50  C   UNL A   1      41.136  29.907  35.304  1.00  0.00     0.049 A 
ATOM     51  C   UNL A   1      37.211  33.444  32.679  1.00  0.00     0.074 A 
ATOM     52  C   UNL A   1      39.855  29.622  35.693  1.00  0.00     0.029 A 
ATOM     53  N   UNL A   1      41.289  31.273  35.220  1.00  0.00    -0.354 N 
ATOM     54  N   UNL A   1      38.330  34.065  32.891  1.00  0.00    -0.248 NA
ATOM     55  C   UNL A   1      36.616  32.750  33.828  1.00  0.00     0.031 C 
ATOM     56  C   UNL A   1      39.152  30.776  35.293  1.00  0.00     0.029 A 
ATOM     57  C   UNL A   1      40.055  31.787  34.933  1.00  0.00     0.049 A 
ATOM     58  H   UNL A   1      42.125  31.780  35.341  1.00  0.00     0.167 HD
ATOM     59  C   UNL A   1      38.722  33.556  34.101  1.00  0.00     0.074 A 
ATOM     60  C   UNL A   1      37.526  33.059  34.749  1.00  0.00     0.031 C 
ATOM     61  C   UNL A   1      39.975  33.051  34.233  1.00  0.00     0.034 A 
BRANCH  48  62
ATOM     62  C   UNL A   1      43.481  29.089  35.477  1.00  0.00     0.023 A 
ATOM     63  C   UNL A   1      44.489  29.972  35.006  1.00  0.00     0.031 A 
ATOM     64  C   UNL A   1      43.909  28.086  36.355  1.00  0.00     0.131 A 
ATOM     65  C   UNL A   1      45.849  29.737  35.241  1.00  0.00     0.055 A 
ATOM     66  C   UNL A   1      45.268  27.903  36.661  1.00  0.00     0.041 A 
ATOM     67  F   UNL A   1      43.057  27.199  36.885  1.00  0.00    -0.206 F 
ATOM     68  C   UNL A   1      46.250  28.697  36.068  1.00  0.00     0.022 A 
BRANCH  65  69
ATOM     69  S   UNL A   1      47.060  30.682  34.270  1.00  0.00     0.124 S 
ATOM     70  O   UNL A   1      46.201  31.454  33.379  1.00  0.00    -0.237 OA
ATOM     71  O   UNL A   1      47.754  31.442  35.304  1.00  0.00    -0.237 OA
ATOM     72  O   UNL A   1      47.857  29.644  33.621  1.00  0.00    -0.744 OA
ENDBRANCH  65  69
ENDBRANCH  48  62
BRANCH  49  73
ATOM     73  C   UNL A   1      35.273  34.160  31.228  1.00  0.00     0.023 A 
ATOM     74  C   UNL A   1      34.803  35.166  32.091  1.00  0.00     0.031 A 
ATOM     75  C   UNL A   1      34.470  33.977  30.052  1.00  0.00     0.131 A 
ATOM     76  C   UNL A   1      33.670  35.958  31.721  1.00  0.00     0.055 A 
ATOM     77  C   UNL A   1      33.432  34.815  29.651  1.00  0.00     0.041 A 
ATOM     78  F   UNL A   1      34.652  32.952  29.208  1.00  0.00    -0.206 F 
ATOM     79  C   UNL A   1      33.034  35.829  30.482  1.00  0.00     0.022 A 
BRANCH  76  80
ATOM     80  S   UNL A   1      32.965  37.213  32.835  1.00  0.00     0.124 S 
ATOM     81  O   UNL A   1      31.619  36.696  33.057  1.00  0.00    -0.237 OA
ATOM     82  O   UNL A   1      33.865  37.179  33.983  1.00  0.00    -0.237 OA
ATOM     83  O   UNL A   1      33.032  38.440  32.039  1.00  0.00    -0.744 OA
ENDBRANCH  76  80
ENDBRANCH  49  73
BRANCH  61  84
ATOM     84  C   UNL A   1      41.011  33.642  33.274  1.00  0.00     0.023 A 
ATOM     85  C   UNL A   1      41.594  32.832  32.278  1.00  0.00     0.031 A 
ATOM     86  C   UNL A   1      41.528  34.947  33.378  1.00  0.00     0.131 A 
ATOM     87  C   UNL A   1      42.651  33.309  31.475  1.00  0.00     0.055 A 
ATOM     88  C   UNL A   1      42.572  35.428  32.575  1.00  0.00     0.041 A 
ATOM     89  F   UNL A   1      41.050  35.804  34.277  1.00  0.00    -0.206 F 
ATOM     90  C   UNL A   1      43.144  34.605  31.618  1.00  0.00     0.022 A 
BRANCH  87  91
ATOM     91  S   UNL A   1      43.372  32.221  30.215  1.00  0.00     0.124 S 
ATOM     92  O   UNL A   1      42.202  31.772  29.470  1.00  0.00    -0.237 OA
ATOM     93  O   UNL A   1      44.279  33.116  29.503  1.00  0.00    -0.237 OA
ATOM     94  O   UNL A   1      44.038  31.181  31.002  1.00  0.00    -0.744 OA
ENDBRANCH  87  91
ENDBRANCH  61  84
ENDBRANCH  35  36
ENDBRANCH  27  30
ENDBRANCH  25  26
ENDBRANCH  24  25
ENDBRANCH  23  24
ENDBRANCH   1  23
TORSDOF 19
ENDMDL
