MODEL 1
REMARK VINA RESULT:     -12.1      0.000      0.000
REMARK SMILES COc1ccc2c(c1)c(CC(=O)NCCCCCCNC(=O)c1ccc(-c3c4nc(c(-c5cc(S(=O)(=O)[O-])ccc5F)c5ccc([nH]5)c(-c5cc(S(=O)(=O)[O-])ccc5F)c5nc(c(-c6cc(S(=O)(=O)[O-])ccc6F)c6ccc3[nH]6)C=C5)C=C4)cc1)c(C)n2Cc1ccn(C(F)F)c(=O)c1
REMARK SMILES IDX 16 1 15 2 14 3 13 4 11 5 12 6 10 8 9 9 3 10 4 11 8 12 5 13
REMARK SMILES IDX 7 14 6 15 88 16 86 17 87 18 2 19 1 20 89 21 90 22 91 23
REMARK SMILES IDX 99 24 92 25 97 26 93 27 98 28 94 29 95 30 96 31 17 32 18 33
REMARK SMILES IDX 19 34 20 35 21 36 22 38 23 39 24 40 85 41 25 42 84 43 26 44
REMARK SMILES IDX 27 45 28 46 78 47 29 48 83 49 77 50 79 51 30 52 82 53 76 54
REMARK SMILES IDX 75 55 31 57 63 58 43 59 62 60 44 61 47 62 61 63 80 64 45 65
REMARK SMILES IDX 46 66 60 68 81 69 48 70 32 71 33 72 41 73 34 74 40 75 42 76
REMARK SMILES IDX 39 77 35 78 36 79 37 80 38 81 64 82 65 83 73 84 66 85 72 86
REMARK SMILES IDX 74 87 71 88 67 89 68 90 69 91 70 92 49 93 50 94 58 95 51 96
REMARK SMILES IDX 57 97 59 98 56 99 52 100 53 101 54 102 55 103
REMARK H PARENT 13 7 20 37 79 56 47 67
REMARK Flexibility Score: inf
ROOT
ATOM      1  C   UNL A   1      34.973  21.778  25.726  1.00  0.00     0.002 C 
ENDROOT
BRANCH   1   2
ATOM      2  C   UNL A   1      33.780  21.059  26.369  1.00  0.00     0.021 C 
BRANCH   2   3
ATOM      3  C   UNL A   1      33.185  21.800  27.568  1.00  0.00     0.116 C 
BRANCH   3   4
ATOM      4  N   UNL A   1      31.998  22.549  27.193  1.00  0.00    -0.356 N 
ATOM      5  C   UNL A   1      31.858  23.879  26.921  1.00  0.00     0.224 C 
ATOM      6  O   UNL A   1      30.725  24.313  26.694  1.00  0.00    -0.275 OA
ATOM      7  H   UNL A   1      31.172  22.018  27.127  1.00  0.00     0.163 HD
BRANCH   5   8
ATOM      8  C   UNL A   1      33.077  24.783  26.811  1.00  0.00     0.138 C 
BRANCH   8   9
ATOM      9  C   UNL A   1      33.175  25.511  25.505  1.00  0.00    -0.010 A 
ATOM     10  C   UNL A   1      32.907  23.371  22.363  1.00  0.00     0.119 A 
ATOM     11  C   UNL A   1      32.911  24.424  21.456  1.00  0.00     0.048 A 
ATOM     12  C   UNL A   1      32.934  23.618  23.735  1.00  0.00     0.057 A 
ATOM     13  C   UNL A   1      32.994  25.753  21.898  1.00  0.00     0.031 A 
ATOM     14  C   UNL A   1      33.062  24.943  24.202  1.00  0.00     0.007 A 
ATOM     15  C   UNL A   1      33.096  25.995  23.281  1.00  0.00     0.049 A 
ATOM     16  N   UNL A   1      33.219  27.171  24.011  1.00  0.00    -0.340 N 
ATOM     17  C   UNL A   1      33.472  26.858  25.335  1.00  0.00     0.020 A 
ATOM     18  C   UNL A   1      33.924  27.824  26.377  1.00  0.00     0.065 C 
BRANCH  10  19
ATOM     19  O   UNL A   1      32.813  22.062  21.970  1.00  0.00    -0.497 OA
ATOM     20  C   UNL A   1      32.110  21.265  22.922  1.00  0.00     0.278 C 
ENDBRANCH  10  19
BRANCH  16  21
ATOM     21  C   UNL A   1      33.183  28.522  23.437  1.00  0.00     0.158 C 
BRANCH  21  22
ATOM     22  C   UNL A   1      31.809  29.164  23.434  1.00  0.00    -0.021 A 
ATOM     23  C   UNL A   1      31.398  29.977  24.563  1.00  0.00     0.024 A 
ATOM     24  C   UNL A   1      30.986  29.097  22.373  1.00  0.00     0.077 A 
ATOM     25  C   UNL A   1      30.200  30.574  24.588  1.00  0.00     0.095 A 
ATOM     26  C   UNL A   1      29.671  29.811  22.351  1.00  0.00     0.255 A 
ATOM     27  N   UNL A   1      29.330  30.476  23.521  1.00  0.00    -0.258 N 
ATOM     28  O   UNL A   1      29.010  29.764  21.328  1.00  0.00    -0.269 OA
BRANCH  27  29
ATOM     29  C   UNL A   1      28.109  31.251  23.530  1.00  0.00     0.451 C 
ATOM     30  F   UNL A   1      28.167  32.221  22.587  1.00  0.00    -0.185 F 
ATOM     31  F   UNL A   1      27.020  30.488  23.276  1.00  0.00    -0.185 F 
ENDBRANCH  27  29
ENDBRANCH  21  22
ENDBRANCH  16  21
ENDBRANCH   8   9
ENDBRANCH   5   8
ENDBRANCH   3   4
ENDBRANCH   2   3
ENDBRANCH   1   2
BRANCH   1  32
ATOM     32  C   UNL A   1      36.125  20.864  25.288  1.00  0.00     0.002 C 
BRANCH  32  33
ATOM     33  C   UNL A   1      37.344  21.586  24.699  1.00  0.00     0.021 C 
BRANCH  33  34
ATOM     34  C   UNL A   1      38.173  22.345  25.735  1.00  0.00     0.116 C 
BRANCH  34  35
ATOM     35  N   UNL A   1      39.505  21.816  25.913  1.00  0.00    -0.352 N 
ATOM     36  C   UNL A   1      40.644  22.262  26.526  1.00  0.00     0.251 C 
ATOM     37  H   UNL A   1      39.621  20.930  25.498  1.00  0.00     0.163 HD
ATOM     38  O   UNL A   1      41.564  21.442  26.603  1.00  0.00    -0.269 OA
BRANCH  36  39
ATOM     39  C   UNL A   1      40.873  23.650  27.023  1.00  0.00     0.039 A 
ATOM     40  C   UNL A   1      41.787  24.027  28.006  1.00  0.00     0.014 A 
ATOM     41  C   UNL A   1      40.028  24.640  26.485  1.00  0.00     0.014 A 
ATOM     42  C   UNL A   1      41.778  25.320  28.520  1.00  0.00     0.010 A 
ATOM     43  C   UNL A   1      40.028  25.940  26.983  1.00  0.00     0.010 A 
ATOM     44  C   UNL A   1      40.862  26.261  28.048  1.00  0.00    -0.014 A 
BRANCH  44  45
ATOM     45  C   UNL A   1      40.846  27.570  28.698  1.00  0.00     0.031 A 
ATOM     46  C   UNL A   1      41.849  28.558  28.206  1.00  0.00     0.074 A 
ATOM     47  C   UNL A   1      39.944  27.916  29.638  1.00  0.00     0.049 A 
ATOM     48  N   UNL A   1      42.822  29.118  28.853  1.00  0.00    -0.248 NA
ATOM     49  C   UNL A   1      41.818  28.885  26.774  1.00  0.00     0.031 C 
ATOM     50  C   UNL A   1      38.717  27.216  30.027  1.00  0.00     0.029 A 
ATOM     51  N   UNL A   1      39.895  29.056  30.381  1.00  0.00    -0.354 N 
ATOM     52  C   UNL A   1      43.436  29.994  27.954  1.00  0.00     0.074 A 
ATOM     53  C   UNL A   1      42.856  29.714  26.664  1.00  0.00     0.031 C 
ATOM     54  C   UNL A   1      37.933  28.060  30.737  1.00  0.00     0.029 A 
ATOM     55  C   UNL A   1      38.669  29.288  30.983  1.00  0.00     0.049 A 
ATOM     56  H   UNL A   1      40.664  29.664  30.481  1.00  0.00     0.167 HD
ATOM     57  C   UNL A   1      44.276  30.995  28.350  1.00  0.00     0.034 A 
ATOM     58  C   UNL A   1      38.258  30.446  31.556  1.00  0.00     0.034 A 
ATOM     59  C   UNL A   1      44.733  30.807  29.697  1.00  0.00     0.049 A 
ATOM     60  C   UNL A   1      39.455  31.267  31.860  1.00  0.00     0.074 A 
ATOM     61  C   UNL A   1      45.506  29.859  30.335  1.00  0.00     0.029 A 
ATOM     62  N   UNL A   1      44.122  31.522  30.697  1.00  0.00    -0.354 N 
ATOM     63  N   UNL A   1      40.329  30.982  32.784  1.00  0.00    -0.248 NA
ATOM     64  C   UNL A   1      39.906  32.198  30.838  1.00  0.00     0.031 C 
ATOM     65  C   UNL A   1      44.938  29.735  31.634  1.00  0.00     0.029 A 
ATOM     66  C   UNL A   1      43.882  30.646  31.724  1.00  0.00     0.049 A 
ATOM     67  H   UNL A   1      43.899  32.481  30.680  1.00  0.00     0.167 HD
ATOM     68  C   UNL A   1      41.550  31.326  32.225  1.00  0.00     0.074 A 
ATOM     69  C   UNL A   1      41.219  32.166  31.076  1.00  0.00     0.031 C 
ATOM     70  C   UNL A   1      42.704  30.681  32.568  1.00  0.00     0.034 A 
BRANCH  57  71
ATOM     71  C   UNL A   1      44.485  32.288  27.596  1.00  0.00     0.023 A 
ATOM     72  C   UNL A   1      43.801  33.473  27.922  1.00  0.00     0.031 A 
ATOM     73  C   UNL A   1      45.537  32.424  26.664  1.00  0.00     0.131 A 
ATOM     74  C   UNL A   1      44.130  34.700  27.331  1.00  0.00     0.055 A 
ATOM     75  C   UNL A   1      45.910  33.663  26.124  1.00  0.00     0.041 A 
ATOM     76  F   UNL A   1      46.270  31.365  26.288  1.00  0.00    -0.206 F 
ATOM     77  C   UNL A   1      45.203  34.810  26.455  1.00  0.00     0.022 A 
BRANCH  74  78
ATOM     78  S   UNL A   1      43.152  36.182  27.705  1.00  0.00     0.124 S 
ATOM     79  O   UNL A   1      42.169  35.659  28.650  1.00  0.00    -0.237 OA
ATOM     80  O   UNL A   1      44.166  37.068  28.274  1.00  0.00    -0.237 OA
ATOM     81  O   UNL A   1      42.638  36.588  26.404  1.00  0.00    -0.744 OA
ENDBRANCH  74  78
ENDBRANCH  57  71
BRANCH  58  82
ATOM     82  C   UNL A   1      36.925  31.067  31.373  1.00  0.00     0.023 A 
ATOM     83  C   UNL A   1      36.407  31.240  30.076  1.00  0.00     0.031 A 
ATOM     84  C   UNL A   1      36.310  31.780  32.415  1.00  0.00     0.131 A 
ATOM     85  C   UNL A   1      35.358  32.138  29.841  1.00  0.00     0.055 A 
ATOM     86  C   UNL A   1      35.251  32.666  32.182  1.00  0.00     0.041 A 
ATOM     87  F   UNL A   1      36.777  31.687  33.671  1.00  0.00    -0.206 F 
ATOM     88  C   UNL A   1      34.780  32.859  30.885  1.00  0.00     0.022 A 
BRANCH  85  89
ATOM     89  S   UNL A   1      34.787  32.442  28.147  1.00  0.00     0.124 S 
ATOM     90  O   UNL A   1      34.759  31.094  27.581  1.00  0.00    -0.237 OA
ATOM     91  O   UNL A   1      33.484  33.054  28.380  1.00  0.00    -0.237 OA
ATOM     92  O   UNL A   1      35.815  33.320  27.595  1.00  0.00    -0.744 OA
ENDBRANCH  85  89
ENDBRANCH  58  82
BRANCH  70  93
ATOM     93  C   UNL A   1      42.696  29.713  33.734  1.00  0.00     0.023 A 
ATOM     94  C   UNL A   1      43.228  30.165  34.955  1.00  0.00     0.031 A 
ATOM     95  C   UNL A   1      42.422  28.336  33.618  1.00  0.00     0.131 A 
ATOM     96  C   UNL A   1      43.515  29.258  35.983  1.00  0.00     0.055 A 
ATOM     97  C   UNL A   1      42.636  27.446  34.676  1.00  0.00     0.041 A 
ATOM     98  F   UNL A   1      42.032  27.792  32.459  1.00  0.00    -0.206 F 
ATOM     99  C   UNL A   1      43.203  27.902  35.860  1.00  0.00     0.022 A 
BRANCH  96 100
ATOM    100  S   UNL A   1      44.462  29.788  37.434  1.00  0.00     0.124 S 
ATOM    101  O   UNL A   1      45.687  30.304  36.832  1.00  0.00    -0.237 OA
ATOM    102  O   UNL A   1      43.582  30.798  38.024  1.00  0.00    -0.237 OA
ATOM    103  O   UNL A   1      44.615  28.571  38.223  1.00  0.00    -0.744 OA
ENDBRANCH  96 100
ENDBRANCH  70  93
ENDBRANCH  44  45
ENDBRANCH  36  39
ENDBRANCH  34  35
ENDBRANCH  33  34
ENDBRANCH  32  33
ENDBRANCH   1  32
TORSDOF 21
ENDMDL
MODEL 2
REMARK VINA RESULT:     -11.0      2.675      3.587
REMARK SMILES COc1ccc2c(c1)c(CC(=O)NCCCCCCNC(=O)c1ccc(-c3c4nc(c(-c5cc(S(=O)(=O)[O-])ccc5F)c5ccc([nH]5)c(-c5cc(S(=O)(=O)[O-])ccc5F)c5nc(c(-c6cc(S(=O)(=O)[O-])ccc6F)c6ccc3[nH]6)C=C5)C=C4)cc1)c(C)n2Cc1ccn(C(F)F)c(=O)c1
REMARK SMILES IDX 16 1 15 2 14 3 13 4 11 5 12 6 10 8 9 9 3 10 4 11 8 12 5 13
REMARK SMILES IDX 7 14 6 15 88 16 86 17 87 18 2 19 1 20 89 21 90 22 91 23
REMARK SMILES IDX 99 24 92 25 97 26 93 27 98 28 94 29 95 30 96 31 17 32 18 33
REMARK SMILES IDX 19 34 20 35 21 36 22 38 23 39 24 40 85 41 25 42 84 43 26 44
REMARK SMILES IDX 27 45 28 46 78 47 29 48 83 49 77 50 79 51 30 52 82 53 76 54
REMARK SMILES IDX 75 55 31 57 63 58 43 59 62 60 44 61 47 62 61 63 80 64 45 65
REMARK SMILES IDX 46 66 60 68 81 69 48 70 32 71 33 72 41 73 34 74 40 75 42 76
REMARK SMILES IDX 39 77 35 78 36 79 37 80 38 81 64 82 65 83 73 84 66 85 72 86
REMARK SMILES IDX 74 87 71 88 67 89 68 90 69 91 70 92 49 93 50 94 58 95 51 96
REMARK SMILES IDX 57 97 59 98 56 99 52 100 53 101 54 102 55 103
REMARK H PARENT 13 7 20 37 79 56 47 67
REMARK Flexibility Score: inf
ROOT
ATOM      1  C   UNL A   1      34.596  23.211  25.957  1.00  0.00     0.002 C 
ENDROOT
BRANCH   1   2
ATOM      2  C   UNL A   1      33.869  22.993  27.291  1.00  0.00     0.021 C 
BRANCH   2   3
ATOM      3  C   UNL A   1      32.368  23.279  27.229  1.00  0.00     0.116 C 
BRANCH   3   4
ATOM      4  N   UNL A   1      31.853  23.121  25.880  1.00  0.00    -0.356 N 
ATOM      5  C   UNL A   1      30.938  23.876  25.203  1.00  0.00     0.224 C 
ATOM      6  O   UNL A   1      30.593  23.506  24.078  1.00  0.00    -0.275 OA
ATOM      7  H   UNL A   1      32.218  22.356  25.379  1.00  0.00     0.163 HD
BRANCH   5   8
ATOM      8  C   UNL A   1      30.427  25.185  25.786  1.00  0.00     0.138 C 
BRANCH   8   9
ATOM      9  C   UNL A   1      31.267  26.374  25.433  1.00  0.00    -0.010 A 
ATOM     10  C   UNL A   1      33.119  26.196  22.106  1.00  0.00     0.119 A 
ATOM     11  C   UNL A   1      33.621  27.491  22.137  1.00  0.00     0.048 A 
ATOM     12  C   UNL A   1      32.280  25.737  23.121  1.00  0.00     0.057 A 
ATOM     13  C   UNL A   1      33.336  28.346  23.211  1.00  0.00     0.031 A 
ATOM     14  C   UNL A   1      32.015  26.563  24.234  1.00  0.00     0.007 A 
ATOM     15  C   UNL A   1      32.549  27.855  24.270  1.00  0.00     0.049 A 
ATOM     16  N   UNL A   1      32.127  28.436  25.461  1.00  0.00    -0.340 N 
ATOM     17  C   UNL A   1      31.527  27.468  26.248  1.00  0.00     0.020 A 
ATOM     18  C   UNL A   1      31.183  27.624  27.690  1.00  0.00     0.065 C 
BRANCH  10  19
ATOM     19  O   UNL A   1      33.363  25.336  21.068  1.00  0.00    -0.497 OA
ATOM     20  C   UNL A   1      32.554  25.626  19.929  1.00  0.00     0.278 C 
ENDBRANCH  10  19
BRANCH  16  21
ATOM     21  C   UNL A   1      32.375  29.830  25.847  1.00  0.00     0.158 C 
BRANCH  21  22
ATOM     22  C   UNL A   1      33.638  30.037  26.662  1.00  0.00    -0.021 A 
ATOM     23  C   UNL A   1      34.490  28.902  26.962  1.00  0.00     0.024 A 
ATOM     24  C   UNL A   1      34.061  31.257  27.035  1.00  0.00     0.077 A 
ATOM     25  C   UNL A   1      35.620  29.049  27.663  1.00  0.00     0.095 A 
ATOM     26  C   UNL A   1      35.355  31.454  27.761  1.00  0.00     0.255 A 
ATOM     27  N   UNL A   1      36.042  30.293  28.088  1.00  0.00    -0.258 N 
ATOM     28  O   UNL A   1      35.708  32.596  28.004  1.00  0.00    -0.269 OA
BRANCH  27  29
ATOM     29  C   UNL A   1      37.336  30.425  28.717  1.00  0.00     0.451 C 
ATOM     30  F   UNL A   1      37.639  29.295  29.399  1.00  0.00    -0.185 F 
ATOM     31  F   UNL A   1      38.322  30.642  27.815  1.00  0.00    -0.185 F 
ENDBRANCH  27  29
ENDBRANCH  21  22
ENDBRANCH  16  21
ENDBRANCH   8   9
ENDBRANCH   5   8
ENDBRANCH   3   4
ENDBRANCH   2   3
ENDBRANCH   1   2
BRANCH   1  32
ATOM     32  C   UNL A   1      35.540  22.077  25.537  1.00  0.00     0.002 C 
BRANCH  32  33
ATOM     33  C   UNL A   1      36.751  22.510  24.700  1.00  0.00     0.021 C 
BRANCH  33  34
ATOM     34  C   UNL A   1      37.780  23.330  25.480  1.00  0.00     0.116 C 
BRANCH  34  35
ATOM     35  N   UNL A   1      38.743  22.524  26.194  1.00  0.00    -0.352 N 
ATOM     36  C   UNL A   1      39.652  22.766  27.188  1.00  0.00     0.251 C 
ATOM     37  H   UNL A   1      38.746  21.585  25.899  1.00  0.00     0.163 HD
ATOM     38  O   UNL A   1      40.205  21.768  27.659  1.00  0.00    -0.269 OA
BRANCH  36  39
ATOM     39  C   UNL A   1      40.065  24.115  27.672  1.00  0.00     0.039 A 
ATOM     40  C   UNL A   1      41.366  24.507  27.990  1.00  0.00     0.014 A 
ATOM     41  C   UNL A   1      39.022  25.036  27.887  1.00  0.00     0.014 A 
ATOM     42  C   UNL A   1      41.603  25.729  28.611  1.00  0.00     0.010 A 
ATOM     43  C   UNL A   1      39.257  26.268  28.491  1.00  0.00     0.010 A 
ATOM     44  C   UNL A   1      40.543  26.586  28.911  1.00  0.00    -0.014 A 
BRANCH  44  45
ATOM     45  C   UNL A   1      40.855  27.810  29.648  1.00  0.00     0.031 A 
ATOM     46  C   UNL A   1      41.714  28.801  28.937  1.00  0.00     0.074 A 
ATOM     47  C   UNL A   1      40.352  28.085  30.868  1.00  0.00     0.049 A 
ATOM     48  N   UNL A   1      42.890  29.236  29.262  1.00  0.00    -0.248 NA
ATOM     49  C   UNL A   1      41.232  29.293  27.639  1.00  0.00     0.031 C 
ATOM     50  C   UNL A   1      39.272  27.402  31.585  1.00  0.00     0.029 A 
ATOM     51  N   UNL A   1      40.650  29.132  31.686  1.00  0.00    -0.354 N 
ATOM     52  C   UNL A   1      43.238  30.182  28.294  1.00  0.00     0.074 A 
ATOM     53  C   UNL A   1      42.238  30.081  27.260  1.00  0.00     0.031 C 
ATOM     54  C   UNL A   1      38.845  28.193  32.597  1.00  0.00     0.029 A 
ATOM     55  C   UNL A   1      39.720  29.349  32.690  1.00  0.00     0.049 A 
ATOM     56  H   UNL A   1      41.455  29.687  31.573  1.00  0.00     0.167 HD
ATOM     57  C   UNL A   1      44.242  31.090  28.470  1.00  0.00     0.034 A 
ATOM     58  C   UNL A   1      39.622  30.449  33.475  1.00  0.00     0.034 A 
ATOM     59  C   UNL A   1      45.106  30.725  29.556  1.00  0.00     0.049 A 
ATOM     60  C   UNL A   1      40.916  31.173  33.427  1.00  0.00     0.074 A 
ATOM     61  C   UNL A   1      45.968  29.675  29.799  1.00  0.00     0.029 A 
ATOM     62  N   UNL A   1      44.928  31.347  30.767  1.00  0.00    -0.354 N 
ATOM     63  N   UNL A   1      42.022  30.742  33.965  1.00  0.00    -0.248 NA
ATOM     64  C   UNL A   1      41.074  32.196  32.404  1.00  0.00     0.031 C 
ATOM     65  C   UNL A   1      45.858  29.426  31.196  1.00  0.00     0.029 A 
ATOM     66  C   UNL A   1      44.974  30.368  31.727  1.00  0.00     0.049 A 
ATOM     67  H   UNL A   1      44.793  32.310  30.917  1.00  0.00     0.167 HD
ATOM     68  C   UNL A   1      43.010  31.092  33.057  1.00  0.00     0.074 A 
ATOM     69  C   UNL A   1      42.383  32.075  32.175  1.00  0.00     0.031 C 
ATOM     70  C   UNL A   1      44.154  30.359  32.922  1.00  0.00     0.034 A 
BRANCH  57  71
ATOM     71  C   UNL A   1      44.293  32.450  27.815  1.00  0.00     0.023 A 
ATOM     72  C   UNL A   1      43.551  33.547  28.290  1.00  0.00     0.031 A 
ATOM     73  C   UNL A   1      45.253  32.744  26.823  1.00  0.00     0.131 A 
ATOM     74  C   UNL A   1      43.738  34.839  27.782  1.00  0.00     0.055 A 
ATOM     75  C   UNL A   1      45.489  34.048  26.364  1.00  0.00     0.041 A 
ATOM     76  F   UNL A   1      46.032  31.781  26.305  1.00  0.00    -0.206 F 
ATOM     77  C   UNL A   1      44.727  35.105  26.842  1.00  0.00     0.022 A 
BRANCH  74  78
ATOM     78  S   UNL A   1      42.686  36.204  28.351  1.00  0.00     0.124 S 
ATOM     79  O   UNL A   1      43.591  36.927  29.240  1.00  0.00    -0.237 OA
ATOM     80  O   UNL A   1      42.368  36.875  27.092  1.00  0.00    -0.237 OA
ATOM     81  O   UNL A   1      41.566  35.527  28.990  1.00  0.00    -0.744 OA
ENDBRANCH  74  78
ENDBRANCH  57  71
BRANCH  58  82
ATOM     82  C   UNL A   1      38.362  31.149  33.818  1.00  0.00     0.023 A 
ATOM     83  C   UNL A   1      37.402  31.390  32.817  1.00  0.00     0.031 A 
ATOM     84  C   UNL A   1      38.234  31.861  35.022  1.00  0.00     0.131 A 
ATOM     85  C   UNL A   1      36.402  32.352  33.007  1.00  0.00     0.055 A 
ATOM     86  C   UNL A   1      37.224  32.811  35.216  1.00  0.00     0.041 A 
ATOM     87  F   UNL A   1      39.136  31.703  36.004  1.00  0.00    -0.206 F 
ATOM     88  C   UNL A   1      36.310  33.070  34.199  1.00  0.00     0.022 A 
BRANCH  85  89
ATOM     89  S   UNL A   1      35.251  32.741  31.660  1.00  0.00     0.124 S 
ATOM     90  O   UNL A   1      35.102  31.448  30.995  1.00  0.00    -0.237 OA
ATOM     91  O   UNL A   1      34.083  33.209  32.396  1.00  0.00    -0.237 OA
ATOM     92  O   UNL A   1      35.965  33.752  30.886  1.00  0.00    -0.744 OA
ENDBRANCH  85  89
ENDBRANCH  58  82
BRANCH  70  93
ATOM     93  C   UNL A   1      44.456  29.264  33.924  1.00  0.00     0.023 A 
ATOM     94  C   UNL A   1      43.449  28.314  34.171  1.00  0.00     0.031 A 
ATOM     95  C   UNL A   1      45.565  29.269  34.793  1.00  0.00     0.131 A 
ATOM     96  C   UNL A   1      43.539  27.452  35.271  1.00  0.00     0.055 A 
ATOM     97  C   UNL A   1      45.689  28.355  35.844  1.00  0.00     0.041 A 
ATOM     98  F   UNL A   1      46.513  30.212  34.717  1.00  0.00    -0.206 F 
ATOM     99  C   UNL A   1      44.664  27.452  36.099  1.00  0.00     0.022 A 
BRANCH  96 100
ATOM    100  S   UNL A   1      42.120  26.436  35.758  1.00  0.00     0.124 S 
ATOM    101  O   UNL A   1      42.668  25.085  35.686  1.00  0.00    -0.237 OA
ATOM    102  O   UNL A   1      41.838  26.926  37.107  1.00  0.00    -0.237 OA
ATOM    103  O   UNL A   1      41.099  26.752  34.764  1.00  0.00    -0.744 OA
ENDBRANCH  96 100
ENDBRANCH  70  93
ENDBRANCH  44  45
ENDBRANCH  36  39
ENDBRANCH  34  35
ENDBRANCH  33  34
ENDBRANCH  32  33
ENDBRANCH   1  32
TORSDOF 21
ENDMDL
MODEL 3
REMARK VINA RESULT:     -10.5      2.692      3.490
REMARK SMILES COc1ccc2c(c1)c(CC(=O)NCCCCCCNC(=O)c1ccc(-c3c4nc(c(-c5cc(S(=O)(=O)[O-])ccc5F)c5ccc([nH]5)c(-c5cc(S(=O)(=O)[O-])ccc5F)c5nc(c(-c6cc(S(=O)(=O)[O-])ccc6F)c6ccc3[nH]6)C=C5)C=C4)cc1)c(C)n2Cc1ccn(C(F)F)c(=O)c1
REMARK SMILES IDX 16 1 15 2 14 3 13 4 11 5 12 6 10 8 9 9 3 10 4 11 8 12 5 13
REMARK SMILES IDX 7 14 6 15 88 16 86 17 87 18 2 19 1 20 89 21 90 22 91 23
REMARK SMILES IDX 99 24 92 25 97 26 93 27 98 28 94 29 95 30 96 31 17 32 18 33
REMARK SMILES IDX 19 34 20 35 21 36 22 38 23 39 24 40 85 41 25 42 84 43 26 44
REMARK SMILES IDX 27 45 28 46 78 47 29 48 83 49 77 50 79 51 30 52 82 53 76 54
REMARK SMILES IDX 75 55 31 57 63 58 43 59 62 60 44 61 47 62 61 63 80 64 45 65
REMARK SMILES IDX 46 66 60 68 81 69 48 70 32 71 33 72 41 73 34 74 40 75 42 76
REMARK SMILES IDX 39 77 35 78 36 79 37 80 38 81 64 82 65 83 73 84 66 85 72 86
REMARK SMILES IDX 74 87 71 88 67 89 68 90 69 91 70 92 49 93 50 94 58 95 51 96
REMARK SMILES IDX 57 97 59 98 56 99 52 100 53 101 54 102 55 103
REMARK H PARENT 13 7 20 37 79 56 47 67
REMARK Flexibility Score: inf
ROOT
ATOM      1  C   UNL A   1      34.806  22.119  26.077  1.00  0.00     0.002 C 
ENDROOT
BRANCH   1   2
ATOM      2  C   UNL A   1      33.808  21.061  26.564  1.00  0.00     0.021 C 
BRANCH   2   3
ATOM      3  C   UNL A   1      33.046  20.365  25.435  1.00  0.00     0.116 C 
BRANCH   3   4
ATOM      4  N   UNL A   1      33.335  20.973  24.147  1.00  0.00    -0.356 N 
ATOM      5  C   UNL A   1      32.593  21.852  23.413  1.00  0.00     0.224 C 
ATOM      6  O   UNL A   1      33.008  22.181  22.299  1.00  0.00    -0.275 OA
ATOM      7  H   UNL A   1      34.194  20.711  23.744  1.00  0.00     0.163 HD
BRANCH   5   8
ATOM      8  C   UNL A   1      31.332  22.479  23.993  1.00  0.00     0.138 C 
BRANCH   8   9
ATOM      9  C   UNL A   1      31.461  23.944  24.278  1.00  0.00    -0.010 A 
ATOM     10  C   UNL A   1      32.718  26.112  21.406  1.00  0.00     0.119 A 
ATOM     11  C   UNL A   1      32.551  27.333  22.047  1.00  0.00     0.048 A 
ATOM     12  C   UNL A   1      32.336  24.925  22.031  1.00  0.00     0.057 A 
ATOM     13  C   UNL A   1      32.045  27.395  23.353  1.00  0.00     0.031 A 
ATOM     14  C   UNL A   1      31.865  24.958  23.361  1.00  0.00     0.007 A 
ATOM     15  C   UNL A   1      31.730  26.190  24.009  1.00  0.00     0.049 A 
ATOM     16  N   UNL A   1      31.247  25.926  25.286  1.00  0.00    -0.340 N 
ATOM     17  C   UNL A   1      31.283  24.561  25.510  1.00  0.00     0.020 A 
ATOM     18  C   UNL A   1      31.101  23.901  26.834  1.00  0.00     0.065 C 
BRANCH  10  19
ATOM     19  O   UNL A   1      33.196  26.012  20.126  1.00  0.00    -0.497 OA
ATOM     20  C   UNL A   1      32.232  25.453  19.234  1.00  0.00     0.278 C 
ENDBRANCH  10  19
BRANCH  16  21
ATOM     21  C   UNL A   1      30.861  26.950  26.264  1.00  0.00     0.158 C 
BRANCH  21  22
ATOM     22  C   UNL A   1      31.973  27.912  26.635  1.00  0.00    -0.021 A 
ATOM     23  C   UNL A   1      33.351  27.456  26.606  1.00  0.00     0.024 A 
ATOM     24  C   UNL A   1      31.745  29.211  26.893  1.00  0.00     0.077 A 
ATOM     25  C   UNL A   1      34.360  28.281  26.911  1.00  0.00     0.095 A 
ATOM     26  C   UNL A   1      32.863  30.167  27.171  1.00  0.00     0.255 A 
ATOM     27  N   UNL A   1      34.132  29.607  27.219  1.00  0.00    -0.258 N 
ATOM     28  O   UNL A   1      32.586  31.344  27.326  1.00  0.00    -0.269 OA
BRANCH  27  29
ATOM     29  C   UNL A   1      35.259  30.495  27.402  1.00  0.00     0.451 C 
ATOM     30  F   UNL A   1      34.874  31.779  27.213  1.00  0.00    -0.185 F 
ATOM     31  F   UNL A   1      35.786  30.398  28.645  1.00  0.00    -0.185 F 
ENDBRANCH  27  29
ENDBRANCH  21  22
ENDBRANCH  16  21
ENDBRANCH   8   9
ENDBRANCH   5   8
ENDBRANCH   3   4
ENDBRANCH   2   3
ENDBRANCH   1   2
BRANCH   1  32
ATOM     32  C   UNL A   1      36.199  21.584  25.719  1.00  0.00     0.002 C 
BRANCH  32  33
ATOM     33  C   UNL A   1      37.145  22.605  25.072  1.00  0.00     0.021 C 
BRANCH  33  34
ATOM     34  C   UNL A   1      37.914  23.460  26.079  1.00  0.00     0.116 C 
BRANCH  34  35
ATOM     35  N   UNL A   1      39.053  22.788  26.659  1.00  0.00    -0.352 N 
ATOM     36  C   UNL A   1      40.099  23.177  27.453  1.00  0.00     0.251 C 
ATOM     37  H   UNL A   1      39.086  21.830  26.433  1.00  0.00     0.163 HD
ATOM     38  O   UNL A   1      40.810  22.263  27.882  1.00  0.00    -0.269 OA
BRANCH  36  39
ATOM     39  C   UNL A   1      40.474  24.587  27.761  1.00  0.00     0.039 A 
ATOM     40  C   UNL A   1      41.660  25.006  28.362  1.00  0.00     0.014 A 
ATOM     41  C   UNL A   1      39.495  25.558  27.473  1.00  0.00     0.014 A 
ATOM     42  C   UNL A   1      41.817  26.326  28.771  1.00  0.00     0.010 A 
ATOM     43  C   UNL A   1      39.655  26.885  27.863  1.00  0.00     0.010 A 
ATOM     44  C   UNL A   1      40.793  27.253  28.571  1.00  0.00    -0.014 A 
BRANCH  44  45
ATOM     45  C   UNL A   1      40.988  28.598  29.110  1.00  0.00     0.031 A 
ATOM     46  C   UNL A   1      42.211  29.317  28.649  1.00  0.00     0.074 A 
ATOM     47  C   UNL A   1      40.097  29.206  29.919  1.00  0.00     0.049 A 
ATOM     48  N   UNL A   1      43.217  29.737  29.349  1.00  0.00    -0.248 NA
ATOM     49  C   UNL A   1      42.373  29.499  27.200  1.00  0.00     0.031 C 
ATOM     50  C   UNL A   1      38.724  28.801  30.231  1.00  0.00     0.029 A 
ATOM     51  N   UNL A   1      40.218  30.401  30.559  1.00  0.00    -0.354 N 
ATOM     52  C   UNL A   1      44.074  30.383  28.452  1.00  0.00     0.074 A 
ATOM     53  C   UNL A   1      43.564  30.095  27.135  1.00  0.00     0.031 C 
ATOM     54  C   UNL A   1      38.070  29.849  30.785  1.00  0.00     0.029 A 
ATOM     55  C   UNL A   1      39.018  30.927  31.008  1.00  0.00     0.049 A 
ATOM     56  H   UNL A   1      41.083  30.853  30.690  1.00  0.00     0.167 HD
ATOM     57  C   UNL A   1      45.063  31.234  28.853  1.00  0.00     0.034 A 
ATOM     58  C   UNL A   1      38.803  32.194  31.440  1.00  0.00     0.034 A 
ATOM     59  C   UNL A   1      45.352  31.095  30.252  1.00  0.00     0.049 A 
ATOM     60  C   UNL A   1      40.112  32.791  31.803  1.00  0.00     0.074 A 
ATOM     61  C   UNL A   1      45.857  30.082  31.041  1.00  0.00     0.029 A 
ATOM     62  N   UNL A   1      44.816  32.012  31.122  1.00  0.00    -0.354 N 
ATOM     63  N   UNL A   1      40.825  32.434  32.833  1.00  0.00    -0.248 NA
ATOM     64  C   UNL A   1      40.831  33.510  30.762  1.00  0.00     0.031 C 
ATOM     65  C   UNL A   1      45.164  30.201  32.278  1.00  0.00     0.029 A 
ATOM     66  C   UNL A   1      44.313  31.306  32.184  1.00  0.00     0.049 A 
ATOM     67  H   UNL A   1      44.796  32.989  31.005  1.00  0.00     0.167 HD
ATOM     68  C   UNL A   1      42.135  32.475  32.381  1.00  0.00     0.074 A 
ATOM     69  C   UNL A   1      42.083  33.245  31.139  1.00  0.00     0.031 C 
ATOM     70  C   UNL A   1      43.098  31.654  32.893  1.00  0.00     0.034 A 
BRANCH  57  71
ATOM     71  C   UNL A   1      45.597  32.379  28.025  1.00  0.00     0.023 A 
ATOM     72  C   UNL A   1      46.948  32.472  27.643  1.00  0.00     0.031 A 
ATOM     73  C   UNL A   1      44.723  33.303  27.412  1.00  0.00     0.131 A 
ATOM     74  C   UNL A   1      47.393  33.442  26.736  1.00  0.00     0.055 A 
ATOM     75  C   UNL A   1      45.156  34.228  26.452  1.00  0.00     0.041 A 
ATOM     76  F   UNL A   1      43.409  33.299  27.686  1.00  0.00    -0.206 F 
ATOM     77  C   UNL A   1      46.499  34.304  26.111  1.00  0.00     0.022 A 
BRANCH  74  78
ATOM     78  S   UNL A   1      49.160  33.590  26.353  1.00  0.00     0.124 S 
ATOM     79  O   UNL A   1      49.548  32.191  26.192  1.00  0.00    -0.237 OA
ATOM     80  O   UNL A   1      49.130  34.383  25.125  1.00  0.00    -0.237 OA
ATOM     81  O   UNL A   1      49.704  34.276  27.517  1.00  0.00    -0.744 OA
ENDBRANCH  74  78
ENDBRANCH  57  71
BRANCH  58  82
ATOM     82  C   UNL A   1      37.647  33.043  31.069  1.00  0.00     0.023 A 
ATOM     83  C   UNL A   1      36.732  33.449  32.059  1.00  0.00     0.031 A 
ATOM     84  C   UNL A   1      37.254  33.185  29.728  1.00  0.00     0.131 A 
ATOM     85  C   UNL A   1      35.460  33.916  31.705  1.00  0.00     0.055 A 
ATOM     86  C   UNL A   1      35.988  33.667  29.375  1.00  0.00     0.041 A 
ATOM     87  F   UNL A   1      38.065  32.785  28.735  1.00  0.00    -0.206 F 
ATOM     88  C   UNL A   1      35.078  34.022  30.368  1.00  0.00     0.022 A 
BRANCH  85  89
ATOM     89  S   UNL A   1      34.250  34.315  32.995  1.00  0.00     0.124 S 
ATOM     90  O   UNL A   1      33.578  35.488  32.440  1.00  0.00    -0.237 OA
ATOM     91  O   UNL A   1      33.452  33.095  33.038  1.00  0.00    -0.237 OA
ATOM     92  O   UNL A   1      35.079  34.578  34.168  1.00  0.00    -0.744 OA
ENDBRANCH  85  89
ENDBRANCH  58  82
BRANCH  70  93
ATOM     93  C   UNL A   1      42.790  30.827  34.125  1.00  0.00     0.023 A 
ATOM     94  C   UNL A   1      43.423  31.194  35.327  1.00  0.00     0.031 A 
ATOM     95  C   UNL A   1      42.118  29.590  34.101  1.00  0.00     0.131 A 
ATOM     96  C   UNL A   1      43.416  30.327  36.426  1.00  0.00     0.055 A 
ATOM     97  C   UNL A   1      42.046  28.763  35.226  1.00  0.00     0.041 A 
ATOM     98  F   UNL A   1      41.592  29.097  32.973  1.00  0.00    -0.206 F 
ATOM     99  C   UNL A   1      42.713  29.121  36.392  1.00  0.00     0.022 A 
BRANCH  96 100
ATOM    100  S   UNL A   1      44.466  30.663  37.864  1.00  0.00     0.124 S 
ATOM    101  O   UNL A   1      45.749  30.978  37.243  1.00  0.00    -0.237 OA
ATOM    102  O   UNL A   1      43.780  31.793  38.490  1.00  0.00    -0.237 OA
ATOM    103  O   UNL A   1      44.429  29.421  38.630  1.00  0.00    -0.744 OA
ENDBRANCH  96 100
ENDBRANCH  70  93
ENDBRANCH  44  45
ENDBRANCH  36  39
ENDBRANCH  34  35
ENDBRANCH  33  34
ENDBRANCH  32  33
ENDBRANCH   1  32
TORSDOF 21
ENDMDL
