MODEL 1
REMARK VINA RESULT:     -11.7      0.000      0.000
REMARK SMILES Cc1nc(-c2ccc(S(=O)(=O)N3CC[NH2+][C@H](C(=O)NCCCCCCNC(=O)c4ccc(-c5c6nc(c(-c7cc(S(=O)(=O)[O-])ccc7F)c7ccc([nH]7)c(-c7cc(S(=O)(=O)[O-])ccc7F)c7nc(c(-c8cc(S(=O)(=O)[O-])ccc8F)c8ccc5[nH]8)C=C7)C=C6)cc4)C3)s2)cs1
REMARK SMILES IDX 22 1 21 2 20 3 19 4 17 5 18 6 16 8 12 9 13 10 92 11 14 12
REMARK SMILES IDX 15 13 9 16 10 17 11 18 8 19 5 20 6 21 93 22 7 23 4 24 1 25
REMARK SMILES IDX 2 26 3 27 95 28 94 29 23 30 24 31 25 32 26 33 27 34 28 36
REMARK SMILES IDX 29 37 30 38 91 39 31 40 90 41 32 42 33 43 34 44 84 45 35 46
REMARK SMILES IDX 89 47 83 48 85 49 36 50 88 51 82 52 81 53 37 55 69 56 49 57
REMARK SMILES IDX 68 58 50 59 53 60 67 61 86 62 51 63 52 64 66 66 87 67 54 68
REMARK SMILES IDX 38 69 39 70 47 71 40 72 46 73 48 74 45 75 41 76 42 77 43 78
REMARK SMILES IDX 44 79 70 80 71 81 79 82 72 83 78 84 80 85 77 86 73 87 74 88
REMARK SMILES IDX 75 89 76 90 55 91 56 92 64 93 57 94 63 95 65 96 62 97 58 98
REMARK SMILES IDX 59 99 60 100 61 101
REMARK H PARENT 19 7 15 14 15 15 26 35 85 54 53 65
REMARK Flexibility Score: inf
ROOT
ATOM      1  C   UNL A   1      33.091  29.876  26.636  1.00  0.00     0.002 C 
ENDROOT
BRANCH   1   2
ATOM      2  C   UNL A   1      33.514  28.915  25.515  1.00  0.00     0.021 C 
BRANCH   2   3
ATOM      3  C   UNL A   1      32.317  28.184  24.902  1.00  0.00     0.116 C 
BRANCH   3   4
ATOM      4  N   UNL A   1      32.605  27.890  23.514  1.00  0.00    -0.351 N 
ATOM      5  C   UNL A   1      33.187  26.786  22.970  1.00  0.00     0.279 C 
ATOM      6  O   UNL A   1      33.906  26.990  21.984  1.00  0.00    -0.268 OA
ATOM      7  H   UNL A   1      32.343  28.588  22.872  1.00  0.00     0.163 HD
BRANCH   5   8
ATOM      8  C   UNL A   1      32.825  25.342  23.417  1.00  0.00     0.287 C 
ATOM      9  N   UNL A   1      33.194  22.921  23.598  1.00  0.00    -0.185 NA
ATOM     10  C   UNL A   1      31.839  22.553  23.158  1.00  0.00     0.164 C 
ATOM     11  C   UNL A   1      33.663  24.164  22.932  1.00  0.00     0.178 C 
ATOM     12  C   UNL A   1      30.862  23.739  23.252  1.00  0.00     0.278 C 
ATOM     13  N   UNL A   1      31.369  25.114  23.124  1.00  0.00    -0.334 N 
ATOM     14  H   UNL A   1      30.832  25.700  23.765  1.00  0.00     0.347 HD
ATOM     15  H   UNL A   1      31.262  25.343  22.136  1.00  0.00     0.347 HD
BRANCH   9  16
ATOM     16  S   UNL A   1      33.728  22.557  25.168  1.00  0.00     0.253 S 
ATOM     17  O   UNL A   1      33.531  21.131  25.353  1.00  0.00    -0.206 OA
ATOM     18  O   UNL A   1      33.134  23.527  26.058  1.00  0.00    -0.206 OA
BRANCH  16  19
ATOM     19  C   UNL A   1      35.492  22.792  25.404  1.00  0.00     0.135 A 
ATOM     20  C   UNL A   1      37.869  22.202  25.810  1.00  0.00     0.055 A 
ATOM     21  C   UNL A   1      37.658  23.557  25.849  1.00  0.00     0.023 A 
ATOM     22  S   UNL A   1      36.450  21.347  25.414  1.00  0.00    -0.121 S 
ATOM     23  C   UNL A   1      36.308  23.888  25.604  1.00  0.00     0.034 A 
BRANCH  20  24
ATOM     24  C   UNL A   1      39.217  21.649  26.138  1.00  0.00     0.091 A 
ATOM     25  C   UNL A   1      42.268  22.307  28.012  1.00  0.00     0.079 C 
ATOM     26  C   UNL A   1      41.187  21.772  27.142  1.00  0.00     0.090 A 
ATOM     27  N   UNL A   1      40.100  22.445  26.853  1.00  0.00    -0.241 NA
ATOM     28  S   UNL A   1      41.281  20.204  26.448  1.00  0.00    -0.127 S 
ATOM     29  C   UNL A   1      39.693  20.398  25.811  1.00  0.00     0.096 A 
ENDBRANCH  20  24
ENDBRANCH  16  19
ENDBRANCH   9  16
ENDBRANCH   5   8
ENDBRANCH   3   4
ENDBRANCH   2   3
ENDBRANCH   1   2
BRANCH   1  30
ATOM     30  C   UNL A   1      31.677  30.444  26.474  1.00  0.00     0.002 C 
BRANCH  30  31
ATOM     31  C   UNL A   1      31.563  31.948  26.742  1.00  0.00     0.021 C 
BRANCH  31  32
ATOM     32  C   UNL A   1      32.877  32.603  27.154  1.00  0.00     0.116 C 
BRANCH  32  33
ATOM     33  N   UNL A   1      32.665  33.966  27.608  1.00  0.00    -0.352 N 
ATOM     34  C   UNL A   1      33.200  34.600  28.700  1.00  0.00     0.251 C 
ATOM     35  H   UNL A   1      32.054  34.509  27.057  1.00  0.00     0.163 HD
ATOM     36  O   UNL A   1      32.712  35.654  29.095  1.00  0.00    -0.269 OA
BRANCH  34  37
ATOM     37  C   UNL A   1      34.356  33.999  29.396  1.00  0.00     0.039 A 
ATOM     38  C   UNL A   1      35.647  34.355  29.001  1.00  0.00     0.014 A 
ATOM     39  C   UNL A   1      34.162  33.068  30.423  1.00  0.00     0.014 A 
ATOM     40  C   UNL A   1      36.746  33.800  29.659  1.00  0.00     0.010 A 
ATOM     41  C   UNL A   1      35.257  32.569  31.121  1.00  0.00     0.010 A 
ATOM     42  C   UNL A   1      36.559  32.917  30.735  1.00  0.00    -0.014 A 
BRANCH  42  43
ATOM     43  C   UNL A   1      37.719  32.313  31.439  1.00  0.00     0.031 A 
ATOM     44  C   UNL A   1      38.474  31.181  30.800  1.00  0.00     0.074 A 
ATOM     45  C   UNL A   1      38.056  32.751  32.668  1.00  0.00     0.049 A 
ATOM     46  N   UNL A   1      39.472  30.478  31.271  1.00  0.00    -0.248 NA
ATOM     47  C   UNL A   1      38.023  30.761  29.464  1.00  0.00     0.031 C 
ATOM     48  C   UNL A   1      37.368  33.814  33.405  1.00  0.00     0.029 A 
ATOM     49  N   UNL A   1      39.056  32.353  33.517  1.00  0.00    -0.354 N 
ATOM     50  C   UNL A   1      39.760  29.527  30.297  1.00  0.00     0.074 A 
ATOM     51  C   UNL A   1      38.786  29.703  29.241  1.00  0.00     0.031 C 
ATOM     52  C   UNL A   1      37.983  33.998  34.584  1.00  0.00     0.029 A 
ATOM     53  C   UNL A   1      39.080  33.044  34.705  1.00  0.00     0.049 A 
ATOM     54  H   UNL A   1      39.697  31.639  33.297  1.00  0.00     0.167 HD
ATOM     55  C   UNL A   1      40.758  28.609  30.275  1.00  0.00     0.034 A 
ATOM     56  C   UNL A   1      39.892  32.917  35.774  1.00  0.00     0.034 A 
ATOM     57  C   UNL A   1      41.729  28.459  31.333  1.00  0.00     0.049 A 
ATOM     58  C   UNL A   1      40.993  31.888  35.729  1.00  0.00     0.074 A 
ATOM     59  C   UNL A   1      42.812  27.601  31.396  1.00  0.00     0.029 A 
ATOM     60  N   UNL A   1      41.731  29.187  32.517  1.00  0.00    -0.354 N 
ATOM     61  N   UNL A   1      41.283  31.027  34.780  1.00  0.00    -0.248 NA
ATOM     62  C   UNL A   1      41.883  31.823  36.894  1.00  0.00     0.031 C 
ATOM     63  C   UNL A   1      43.431  27.765  32.642  1.00  0.00     0.029 A 
ATOM     64  C   UNL A   1      42.779  28.778  33.327  1.00  0.00     0.049 A 
ATOM     65  H   UNL A   1      41.081  29.890  32.748  1.00  0.00     0.167 HD
ATOM     66  C   UNL A   1      42.409  30.340  35.224  1.00  0.00     0.074 A 
ATOM     67  C   UNL A   1      42.754  30.900  36.515  1.00  0.00     0.031 C 
ATOM     68  C   UNL A   1      43.100  29.339  34.619  1.00  0.00     0.034 A 
BRANCH  55  69
ATOM     69  C   UNL A   1      40.825  27.686  29.081  1.00  0.00     0.023 A 
ATOM     70  C   UNL A   1      41.763  27.877  28.051  1.00  0.00     0.031 A 
ATOM     71  C   UNL A   1      39.914  26.623  28.948  1.00  0.00     0.131 A 
ATOM     72  C   UNL A   1      41.715  27.078  26.899  1.00  0.00     0.055 A 
ATOM     73  C   UNL A   1      39.926  25.776  27.838  1.00  0.00     0.041 A 
ATOM     74  F   UNL A   1      38.981  26.401  29.887  1.00  0.00    -0.206 F 
ATOM     75  C   UNL A   1      40.820  26.011  26.797  1.00  0.00     0.022 A 
BRANCH  72  76
ATOM     76  S   UNL A   1      42.735  27.548  25.475  1.00  0.00     0.124 S 
ATOM     77  O   UNL A   1      43.998  27.898  26.121  1.00  0.00    -0.237 OA
ATOM     78  O   UNL A   1      42.742  26.328  24.676  1.00  0.00    -0.237 OA
ATOM     79  O   UNL A   1      42.010  28.674  24.890  1.00  0.00    -0.744 OA
ENDBRANCH  72  76
ENDBRANCH  55  69
BRANCH  56  80
ATOM     80  C   UNL A   1      39.702  33.779  36.974  1.00  0.00     0.023 A 
ATOM     81  C   UNL A   1      39.056  33.289  38.121  1.00  0.00     0.031 A 
ATOM     82  C   UNL A   1      40.129  35.119  36.979  1.00  0.00     0.131 A 
ATOM     83  C   UNL A   1      38.812  34.145  39.206  1.00  0.00     0.055 A 
ATOM     84  C   UNL A   1      39.929  35.953  38.081  1.00  0.00     0.041 A 
ATOM     85  F   UNL A   1      40.760  35.634  35.911  1.00  0.00    -0.206 F 
ATOM     86  C   UNL A   1      39.254  35.470  39.198  1.00  0.00     0.022 A 
BRANCH  83  87
ATOM     87  S   UNL A   1      37.833  33.523  40.599  1.00  0.00     0.124 S 
ATOM     88  O   UNL A   1      36.655  32.992  39.922  1.00  0.00    -0.237 OA
ATOM     89  O   UNL A   1      38.734  32.536  41.185  1.00  0.00    -0.237 OA
ATOM     90  O   UNL A   1      37.602  34.714  41.413  1.00  0.00    -0.744 OA
ENDBRANCH  83  87
ENDBRANCH  56  80
BRANCH  68  91
ATOM     91  C   UNL A   1      44.320  28.823  35.341  1.00  0.00     0.023 A 
ATOM     92  C   UNL A   1      44.250  27.735  36.229  1.00  0.00     0.031 A 
ATOM     93  C   UNL A   1      45.567  29.446  35.155  1.00  0.00     0.131 A 
ATOM     94  C   UNL A   1      45.390  27.345  36.947  1.00  0.00     0.055 A 
ATOM     95  C   UNL A   1      46.712  29.013  35.825  1.00  0.00     0.041 A 
ATOM     96  F   UNL A   1      45.693  30.490  34.320  1.00  0.00    -0.206 F 
ATOM     97  C   UNL A   1      46.624  27.967  36.739  1.00  0.00     0.022 A 
BRANCH  94  98
ATOM     98  S   UNL A   1      45.216  26.080  38.235  1.00  0.00     0.124 S 
ATOM     99  O   UNL A   1      46.291  25.152  37.897  1.00  0.00    -0.237 OA
ATOM    100  O   UNL A   1      45.402  26.853  39.459  1.00  0.00    -0.237 OA
ATOM    101  O   UNL A   1      43.864  25.564  38.029  1.00  0.00    -0.744 OA
ENDBRANCH  94  98
ENDBRANCH  68  91
ENDBRANCH  42  43
ENDBRANCH  34  37
ENDBRANCH  32  33
ENDBRANCH  31  32
ENDBRANCH  30  31
ENDBRANCH   1  30
TORSDOF 19
ENDMDL
MODEL 2
REMARK VINA RESULT:     -11.6      5.610     10.341
REMARK SMILES Cc1nc(-c2ccc(S(=O)(=O)N3CC[NH2+][C@H](C(=O)NCCCCCCNC(=O)c4ccc(-c5c6nc(c(-c7cc(S(=O)(=O)[O-])ccc7F)c7ccc([nH]7)c(-c7cc(S(=O)(=O)[O-])ccc7F)c7nc(c(-c8cc(S(=O)(=O)[O-])ccc8F)c8ccc5[nH]8)C=C7)C=C6)cc4)C3)s2)cs1
REMARK SMILES IDX 22 1 21 2 20 3 19 4 17 5 18 6 16 8 12 9 13 10 92 11 14 12
REMARK SMILES IDX 15 13 9 16 10 17 11 18 8 19 5 20 6 21 93 22 7 23 4 24 1 25
REMARK SMILES IDX 2 26 3 27 95 28 94 29 23 30 24 31 25 32 26 33 27 34 28 36
REMARK SMILES IDX 29 37 30 38 91 39 31 40 90 41 32 42 33 43 34 44 84 45 35 46
REMARK SMILES IDX 89 47 83 48 85 49 36 50 88 51 82 52 81 53 37 55 69 56 49 57
REMARK SMILES IDX 68 58 50 59 53 60 67 61 86 62 51 63 52 64 66 66 87 67 54 68
REMARK SMILES IDX 38 69 39 70 47 71 40 72 46 73 48 74 45 75 41 76 42 77 43 78
REMARK SMILES IDX 44 79 70 80 71 81 79 82 72 83 78 84 80 85 77 86 73 87 74 88
REMARK SMILES IDX 75 89 76 90 55 91 56 92 64 93 57 94 63 95 65 96 62 97 58 98
REMARK SMILES IDX 59 99 60 100 61 101
REMARK H PARENT 19 7 15 14 15 15 26 35 85 54 53 65
REMARK Flexibility Score: inf
ROOT
ATOM      1  C   UNL A   1      40.652  22.521  26.820  1.00  0.00     0.002 C 
ENDROOT
BRANCH   1   2
ATOM      2  C   UNL A   1      39.460  23.414  27.195  1.00  0.00     0.021 C 
BRANCH   2   3
ATOM      3  C   UNL A   1      38.347  23.356  26.146  1.00  0.00     0.116 C 
BRANCH   3   4
ATOM      4  N   UNL A   1      38.505  22.152  25.359  1.00  0.00    -0.351 N 
ATOM      5  C   UNL A   1      37.622  21.137  25.148  1.00  0.00     0.279 C 
ATOM      6  O   UNL A   1      38.116  20.007  25.051  1.00  0.00    -0.268 OA
ATOM      7  H   UNL A   1      39.376  22.052  24.911  1.00  0.00     0.163 HD
BRANCH   5   8
ATOM      8  C   UNL A   1      36.117  21.386  24.847  1.00  0.00     0.287 C 
ATOM      9  N   UNL A   1      34.009  22.637  24.982  1.00  0.00    -0.185 NA
ATOM     10  C   UNL A   1      33.193  21.472  25.357  1.00  0.00     0.164 C 
ATOM     11  C   UNL A   1      35.386  22.537  25.531  1.00  0.00     0.178 C 
ATOM     12  C   UNL A   1      33.910  20.145  25.050  1.00  0.00     0.278 C 
ATOM     13  N   UNL A   1      35.381  20.093  25.053  1.00  0.00    -0.334 N 
ATOM     14  H   UNL A   1      35.667  19.455  24.308  1.00  0.00     0.347 HD
ATOM     15  H   UNL A   1      35.631  19.796  25.996  1.00  0.00     0.347 HD
BRANCH   9  16
ATOM     16  S   UNL A   1      33.749  23.445  23.511  1.00  0.00     0.253 S 
ATOM     17  O   UNL A   1      32.418  23.075  23.065  1.00  0.00    -0.206 OA
ATOM     18  O   UNL A   1      34.915  23.223  22.688  1.00  0.00    -0.206 OA
BRANCH  16  19
ATOM     19  C   UNL A   1      33.678  25.232  23.671  1.00  0.00     0.135 A 
ATOM     20  C   UNL A   1      33.378  27.446  24.753  1.00  0.00     0.055 A 
ATOM     21  C   UNL A   1      33.499  27.548  23.389  1.00  0.00     0.023 A 
ATOM     22  S   UNL A   1      33.554  25.839  25.289  1.00  0.00    -0.121 S 
ATOM     23  C   UNL A   1      33.682  26.288  22.780  1.00  0.00     0.034 A 
BRANCH  20  24
ATOM     24  C   UNL A   1      33.084  28.663  25.566  1.00  0.00     0.091 A 
ATOM     25  C   UNL A   1      34.568  31.082  27.846  1.00  0.00     0.079 C 
ATOM     26  C   UNL A   1      33.684  30.261  26.977  1.00  0.00     0.090 A 
ATOM     27  N   UNL A   1      34.066  29.136  26.424  1.00  0.00    -0.241 NA
ATOM     28  S   UNL A   1      32.073  30.739  26.623  1.00  0.00    -0.127 S 
ATOM     29  C   UNL A   1      31.919  29.397  25.552  1.00  0.00     0.096 A 
ENDBRANCH  20  24
ENDBRANCH  16  19
ENDBRANCH   9  16
ENDBRANCH   5   8
ENDBRANCH   3   4
ENDBRANCH   2   3
ENDBRANCH   1   2
BRANCH   1  30
ATOM     30  C   UNL A   1      41.077  21.547  27.925  1.00  0.00     0.002 C 
BRANCH  30  31
ATOM     31  C   UNL A   1      41.541  20.178  27.419  1.00  0.00     0.021 C 
BRANCH  31  32
ATOM     32  C   UNL A   1      41.514  20.038  25.901  1.00  0.00     0.116 C 
BRANCH  32  33
ATOM     33  N   UNL A   1      42.769  19.507  25.399  1.00  0.00    -0.352 N 
ATOM     34  C   UNL A   1      43.916  20.181  25.071  1.00  0.00     0.251 C 
ATOM     35  H   UNL A   1      42.800  18.529  25.280  1.00  0.00     0.163 HD
ATOM     36  O   UNL A   1      44.786  19.623  24.410  1.00  0.00    -0.269 OA
BRANCH  34  37
ATOM     37  C   UNL A   1      44.088  21.582  25.511  1.00  0.00     0.039 A 
ATOM     38  C   UNL A   1      43.751  22.615  24.636  1.00  0.00     0.014 A 
ATOM     39  C   UNL A   1      44.603  21.869  26.781  1.00  0.00     0.014 A 
ATOM     40  C   UNL A   1      43.899  23.941  25.045  1.00  0.00     0.010 A 
ATOM     41  C   UNL A   1      44.686  23.190  27.211  1.00  0.00     0.010 A 
ATOM     42  C   UNL A   1      44.352  24.238  26.342  1.00  0.00    -0.014 A 
BRANCH  42  43
ATOM     43  C   UNL A   1      44.523  25.644  26.789  1.00  0.00     0.031 A 
ATOM     44  C   UNL A   1      45.883  26.284  26.737  1.00  0.00     0.074 A 
ATOM     45  C   UNL A   1      43.468  26.321  27.282  1.00  0.00     0.049 A 
ATOM     46  N   UNL A   1      46.256  27.473  27.135  1.00  0.00    -0.248 NA
ATOM     47  C   UNL A   1      46.977  25.461  26.197  1.00  0.00     0.031 C 
ATOM     48  C   UNL A   1      42.111  25.787  27.420  1.00  0.00     0.029 A 
ATOM     49  N   UNL A   1      43.372  27.600  27.768  1.00  0.00    -0.354 N 
ATOM     50  C   UNL A   1      47.627  27.537  26.905  1.00  0.00     0.074 A 
ATOM     51  C   UNL A   1      48.026  26.242  26.396  1.00  0.00     0.031 C 
ATOM     52  C   UNL A   1      41.315  26.741  27.931  1.00  0.00     0.029 A 
ATOM     53  C   UNL A   1      42.110  27.936  28.194  1.00  0.00     0.049 A 
ATOM     54  H   UNL A   1      44.136  28.220  27.807  1.00  0.00     0.167 HD
ATOM     55  C   UNL A   1      48.470  28.586  27.080  1.00  0.00     0.034 A 
ATOM     56  C   UNL A   1      41.647  29.078  28.740  1.00  0.00     0.034 A 
ATOM     57  C   UNL A   1      48.048  29.875  27.575  1.00  0.00     0.049 A 
ATOM     58  C   UNL A   1      42.601  30.230  28.929  1.00  0.00     0.074 A 
ATOM     59  C   UNL A   1      48.800  31.023  27.744  1.00  0.00     0.029 A 
ATOM     60  N   UNL A   1      46.756  30.184  27.985  1.00  0.00    -0.354 N 
ATOM     61  N   UNL A   1      43.886  30.292  28.661  1.00  0.00    -0.248 NA
ATOM     62  C   UNL A   1      42.039  31.469  29.478  1.00  0.00     0.031 C 
ATOM     63  C   UNL A   1      47.981  32.006  28.313  1.00  0.00     0.029 A 
ATOM     64  C   UNL A   1      46.698  31.496  28.430  1.00  0.00     0.049 A 
ATOM     65  H   UNL A   1      45.994  29.561  27.963  1.00  0.00     0.167 HD
ATOM     66  C   UNL A   1      44.278  31.588  28.984  1.00  0.00     0.074 A 
ATOM     67  C   UNL A   1      43.089  32.276  29.446  1.00  0.00     0.031 C 
ATOM     68  C   UNL A   1      45.506  32.161  28.902  1.00  0.00     0.034 A 
BRANCH  55  69
ATOM     69  C   UNL A   1      49.928  28.365  26.755  1.00  0.00     0.023 A 
ATOM     70  C   UNL A   1      50.460  28.681  25.493  1.00  0.00     0.031 A 
ATOM     71  C   UNL A   1      50.793  27.793  27.705  1.00  0.00     0.131 A 
ATOM     72  C   UNL A   1      51.788  28.348  25.186  1.00  0.00     0.055 A 
ATOM     73  C   UNL A   1      52.137  27.542  27.423  1.00  0.00     0.041 A 
ATOM     74  F   UNL A   1      50.341  27.449  28.922  1.00  0.00    -0.206 F 
ATOM     75  C   UNL A   1      52.638  27.804  26.151  1.00  0.00     0.022 A 
BRANCH  72  76
ATOM     76  S   UNL A   1      52.342  28.493  23.465  1.00  0.00     0.124 S 
ATOM     77  O   UNL A   1      52.527  27.091  23.097  1.00  0.00    -0.237 OA
ATOM     78  O   UNL A   1      51.224  29.179  22.829  1.00  0.00    -0.237 OA
ATOM     79  O   UNL A   1      53.576  29.271  23.566  1.00  0.00    -0.744 OA
ENDBRANCH  72  76
ENDBRANCH  55  69
BRANCH  56  80
ATOM     80  C   UNL A   1      40.219  29.196  29.150  1.00  0.00     0.023 A 
ATOM     81  C   UNL A   1      39.846  29.109  30.501  1.00  0.00     0.031 A 
ATOM     82  C   UNL A   1      39.202  29.358  28.193  1.00  0.00     0.131 A 
ATOM     83  C   UNL A   1      38.488  29.136  30.855  1.00  0.00     0.055 A 
ATOM     84  C   UNL A   1      37.856  29.436  28.554  1.00  0.00     0.041 A 
ATOM     85  F   UNL A   1      39.506  29.456  26.889  1.00  0.00    -0.206 F 
ATOM     86  C   UNL A   1      37.491  29.310  29.892  1.00  0.00     0.022 A 
BRANCH  83  87
ATOM     87  S   UNL A   1      38.037  28.857  32.588  1.00  0.00     0.124 S 
ATOM     88  O   UNL A   1      38.167  27.409  32.701  1.00  0.00    -0.237 OA
ATOM     89  O   UNL A   1      39.041  29.648  33.293  1.00  0.00    -0.237 OA
ATOM     90  O   UNL A   1      36.671  29.370  32.672  1.00  0.00    -0.744 OA
ENDBRANCH  83  87
ENDBRANCH  56  80
BRANCH  68  91
ATOM     91  C   UNL A   1      45.604  33.617  29.287  1.00  0.00     0.023 A 
ATOM     92  C   UNL A   1      45.359  34.646  28.360  1.00  0.00     0.031 A 
ATOM     93  C   UNL A   1      45.972  33.978  30.595  1.00  0.00     0.131 A 
ATOM     94  C   UNL A   1      45.549  35.984  28.737  1.00  0.00     0.055 A 
ATOM     95  C   UNL A   1      46.098  35.313  30.981  1.00  0.00     0.041 A 
ATOM     96  F   UNL A   1      46.219  33.037  31.521  1.00  0.00    -0.206 F 
ATOM     97  C   UNL A   1      45.901  36.325  30.045  1.00  0.00     0.022 A 
BRANCH  94  98
ATOM     98  S   UNL A   1      45.429  37.271  27.464  1.00  0.00     0.124 S 
ATOM     99  O   UNL A   1      44.061  37.099  26.986  1.00  0.00    -0.237 OA
ATOM    100  O   UNL A   1      45.690  38.489  28.226  1.00  0.00    -0.237 OA
ATOM    101  O   UNL A   1      46.471  36.906  26.507  1.00  0.00    -0.744 OA
ENDBRANCH  94  98
ENDBRANCH  68  91
ENDBRANCH  42  43
ENDBRANCH  34  37
ENDBRANCH  32  33
ENDBRANCH  31  32
ENDBRANCH  30  31
ENDBRANCH   1  30
TORSDOF 19
ENDMDL
MODEL 3
REMARK VINA RESULT:     -11.4      5.698     11.455
REMARK SMILES Cc1nc(-c2ccc(S(=O)(=O)N3CC[NH2+][C@H](C(=O)NCCCCCCNC(=O)c4ccc(-c5c6nc(c(-c7cc(S(=O)(=O)[O-])ccc7F)c7ccc([nH]7)c(-c7cc(S(=O)(=O)[O-])ccc7F)c7nc(c(-c8cc(S(=O)(=O)[O-])ccc8F)c8ccc5[nH]8)C=C7)C=C6)cc4)C3)s2)cs1
REMARK SMILES IDX 22 1 21 2 20 3 19 4 17 5 18 6 16 8 12 9 13 10 92 11 14 12
REMARK SMILES IDX 15 13 9 16 10 17 11 18 8 19 5 20 6 21 93 22 7 23 4 24 1 25
REMARK SMILES IDX 2 26 3 27 95 28 94 29 23 30 24 31 25 32 26 33 27 34 28 36
REMARK SMILES IDX 29 37 30 38 91 39 31 40 90 41 32 42 33 43 34 44 84 45 35 46
REMARK SMILES IDX 89 47 83 48 85 49 36 50 88 51 82 52 81 53 37 55 69 56 49 57
REMARK SMILES IDX 68 58 50 59 53 60 67 61 86 62 51 63 52 64 66 66 87 67 54 68
REMARK SMILES IDX 38 69 39 70 47 71 40 72 46 73 48 74 45 75 41 76 42 77 43 78
REMARK SMILES IDX 44 79 70 80 71 81 79 82 72 83 78 84 80 85 77 86 73 87 74 88
REMARK SMILES IDX 75 89 76 90 55 91 56 92 64 93 57 94 63 95 65 96 62 97 58 98
REMARK SMILES IDX 59 99 60 100 61 101
REMARK H PARENT 19 7 15 14 15 15 26 35 85 54 53 65
REMARK Flexibility Score: inf
ROOT
ATOM      1  C   UNL A   1      39.742  23.499  26.405  1.00  0.00     0.002 C 
ENDROOT
BRANCH   1   2
ATOM      2  C   UNL A   1      38.303  23.986  26.635  1.00  0.00     0.021 C 
BRANCH   2   3
ATOM      3  C   UNL A   1      37.271  23.049  26.003  1.00  0.00     0.116 C 
BRANCH   3   4
ATOM      4  N   UNL A   1      37.243  23.277  24.573  1.00  0.00    -0.351 N 
ATOM      5  C   UNL A   1      36.181  23.277  23.721  1.00  0.00     0.279 C 
ATOM      6  O   UNL A   1      36.405  22.837  22.586  1.00  0.00    -0.268 OA
ATOM      7  H   UNL A   1      38.117  23.458  24.158  1.00  0.00     0.163 HD
BRANCH   5   8
ATOM      8  C   UNL A   1      34.830  23.961  24.067  1.00  0.00     0.287 C 
ATOM      9  N   UNL A   1      32.610  24.872  23.543  1.00  0.00    -0.185 NA
ATOM     10  C   UNL A   1      32.825  26.144  24.250  1.00  0.00     0.164 C 
ATOM     11  C   UNL A   1      33.872  24.360  22.949  1.00  0.00     0.178 C 
ATOM     12  C   UNL A   1      34.009  26.065  25.230  1.00  0.00     0.278 C 
ATOM     13  N   UNL A   1      35.116  25.132  24.964  1.00  0.00    -0.334 N 
ATOM     14  H   UNL A   1      35.427  24.761  25.862  1.00  0.00     0.347 HD
ATOM     15  H   UNL A   1      35.809  25.685  24.460  1.00  0.00     0.347 HD
BRANCH   9  16
ATOM     16  S   UNL A   1      31.423  23.776  24.065  1.00  0.00     0.253 S 
ATOM     17  O   UNL A   1      30.230  24.055  23.287  1.00  0.00    -0.206 OA
ATOM     18  O   UNL A   1      31.414  23.810  25.509  1.00  0.00    -0.206 OA
BRANCH  16  19
ATOM     19  C   UNL A   1      31.805  22.063  23.686  1.00  0.00     0.135 A 
ATOM     20  C   UNL A   1      32.558  19.726  24.055  1.00  0.00     0.055 A 
ATOM     21  C   UNL A   1      32.347  19.999  22.726  1.00  0.00     0.023 A 
ATOM     22  S   UNL A   1      32.159  21.051  25.048  1.00  0.00    -0.121 S 
ATOM     23  C   UNL A   1      31.907  21.325  22.523  1.00  0.00     0.034 A 
BRANCH  20  24
ATOM     24  C   UNL A   1      33.116  18.403  24.463  1.00  0.00     0.091 A 
ATOM     25  C   UNL A   1      32.221  15.152  25.835  1.00  0.00     0.079 C 
ATOM     26  C   UNL A   1      32.895  16.361  25.292  1.00  0.00     0.090 A 
ATOM     27  N   UNL A   1      32.277  17.501  25.100  1.00  0.00    -0.241 NA
ATOM     28  S   UNL A   1      34.557  16.351  24.862  1.00  0.00    -0.127 S 
ATOM     29  C   UNL A   1      34.405  17.959  24.262  1.00  0.00     0.096 A 
ENDBRANCH  20  24
ENDBRANCH  16  19
ENDBRANCH   9  16
ENDBRANCH   5   8
ENDBRANCH   3   4
ENDBRANCH   2   3
ENDBRANCH   1   2
BRANCH   1  30
ATOM     30  C   UNL A   1      40.142  22.297  27.267  1.00  0.00     0.002 C 
BRANCH  30  31
ATOM     31  C   UNL A   1      40.187  20.964  26.514  1.00  0.00     0.021 C 
BRANCH  31  32
ATOM     32  C   UNL A   1      41.011  19.888  27.214  1.00  0.00     0.116 C 
BRANCH  32  33
ATOM     33  N   UNL A   1      41.996  19.313  26.315  1.00  0.00    -0.352 N 
ATOM     34  C   UNL A   1      42.988  19.946  25.612  1.00  0.00     0.251 C 
ATOM     35  H   UNL A   1      41.945  18.336  26.194  1.00  0.00     0.163 HD
ATOM     36  O   UNL A   1      43.556  19.362  24.694  1.00  0.00    -0.269 OA
BRANCH  34  37
ATOM     37  C   UNL A   1      43.358  21.333  25.963  1.00  0.00     0.039 A 
ATOM     38  C   UNL A   1      43.244  22.332  24.995  1.00  0.00     0.014 A 
ATOM     39  C   UNL A   1      43.835  21.639  27.243  1.00  0.00     0.014 A 
ATOM     40  C   UNL A   1      43.580  23.647  25.319  1.00  0.00     0.010 A 
ATOM     41  C   UNL A   1      44.105  22.961  27.583  1.00  0.00     0.010 A 
ATOM     42  C   UNL A   1      43.997  23.975  26.620  1.00  0.00    -0.014 A 
BRANCH  42  43
ATOM     43  C   UNL A   1      44.366  25.367  26.978  1.00  0.00     0.031 A 
ATOM     44  C   UNL A   1      43.327  26.293  27.548  1.00  0.00     0.074 A 
ATOM     45  C   UNL A   1      45.618  25.808  26.744  1.00  0.00     0.049 A 
ATOM     46  N   UNL A   1      43.428  27.558  27.868  1.00  0.00    -0.248 NA
ATOM     47  C   UNL A   1      41.984  25.727  27.754  1.00  0.00     0.031 C 
ATOM     48  C   UNL A   1      46.697  25.012  26.155  1.00  0.00     0.029 A 
ATOM     49  N   UNL A   1      46.192  27.033  26.965  1.00  0.00    -0.354 N 
ATOM     50  C   UNL A   1      42.162  27.942  28.301  1.00  0.00     0.074 A 
ATOM     51  C   UNL A   1      41.298  26.792  28.137  1.00  0.00     0.031 C 
ATOM     52  C   UNL A   1      47.808  25.763  26.085  1.00  0.00     0.029 A 
ATOM     53  C   UNL A   1      47.511  27.101  26.585  1.00  0.00     0.049 A 
ATOM     54  H   UNL A   1      45.706  27.792  27.360  1.00  0.00     0.167 HD
ATOM     55  C   UNL A   1      41.764  29.135  28.809  1.00  0.00     0.034 A 
ATOM     56  C   UNL A   1      48.382  28.129  26.630  1.00  0.00     0.034 A 
ATOM     57  C   UNL A   1      42.646  30.265  28.978  1.00  0.00     0.049 A 
ATOM     58  C   UNL A   1      47.917  29.448  27.196  1.00  0.00     0.074 A 
ATOM     59  C   UNL A   1      42.368  31.503  29.529  1.00  0.00     0.029 A 
ATOM     60  N   UNL A   1      43.982  30.294  28.594  1.00  0.00    -0.354 N 
ATOM     61  N   UNL A   1      46.729  29.782  27.647  1.00  0.00    -0.248 NA
ATOM     62  C   UNL A   1      48.915  30.521  27.273  1.00  0.00     0.031 C 
ATOM     63  C   UNL A   1      43.513  32.300  29.421  1.00  0.00     0.029 A 
ATOM     64  C   UNL A   1      44.531  31.536  28.871  1.00  0.00     0.049 A 
ATOM     65  H   UNL A   1      44.467  29.542  28.184  1.00  0.00     0.167 HD
ATOM     66  C   UNL A   1      46.847  31.097  28.087  1.00  0.00     0.074 A 
ATOM     67  C   UNL A   1      48.226  31.485  27.866  1.00  0.00     0.031 C 
ATOM     68  C   UNL A   1      45.905  31.910  28.630  1.00  0.00     0.034 A 
BRANCH  55  69
ATOM     69  C   UNL A   1      40.309  29.274  29.190  1.00  0.00     0.023 A 
ATOM     70  C   UNL A   1      39.890  29.235  30.532  1.00  0.00     0.031 A 
ATOM     71  C   UNL A   1      39.321  29.409  28.199  1.00  0.00     0.131 A 
ATOM     72  C   UNL A   1      38.522  29.243  30.841  1.00  0.00     0.055 A 
ATOM     73  C   UNL A   1      37.965  29.504  28.518  1.00  0.00     0.041 A 
ATOM     74  F   UNL A   1      39.655  29.432  26.899  1.00  0.00    -0.206 F 
ATOM     75  C   UNL A   1      37.556  29.404  29.845  1.00  0.00     0.022 A 
BRANCH  72  76
ATOM     76  S   UNL A   1      38.017  28.888  32.546  1.00  0.00     0.124 S 
ATOM     77  O   UNL A   1      38.967  29.694  33.309  1.00  0.00    -0.237 OA
ATOM     78  O   UNL A   1      36.631  29.343  32.567  1.00  0.00    -0.237 OA
ATOM     79  O   UNL A   1      38.201  27.443  32.665  1.00  0.00    -0.744 OA
ENDBRANCH  72  76
ENDBRANCH  55  69
BRANCH  56  80
ATOM     80  C   UNL A   1      49.775  27.964  26.129  1.00  0.00     0.023 A 
ATOM     81  C   UNL A   1      50.066  28.060  24.758  1.00  0.00     0.031 A 
ATOM     82  C   UNL A   1      50.831  27.668  27.009  1.00  0.00     0.131 A 
ATOM     83  C   UNL A   1      51.370  27.814  24.301  1.00  0.00     0.055 A 
ATOM     84  C   UNL A   1      52.137  27.475  26.555  1.00  0.00     0.041 A 
ATOM     85  F   UNL A   1      50.608  27.574  28.329  1.00  0.00    -0.206 F 
ATOM     86  C   UNL A   1      52.409  27.533  25.191  1.00  0.00     0.022 A 
BRANCH  83  87
ATOM     87  S   UNL A   1      51.672  27.787  22.514  1.00  0.00     0.124 S 
ATOM     88  O   UNL A   1      52.206  29.123  22.281  1.00  0.00    -0.237 OA
ATOM     89  O   UNL A   1      52.620  26.685  22.384  1.00  0.00    -0.237 OA
ATOM     90  O   UNL A   1      50.348  27.536  21.948  1.00  0.00    -0.744 OA
ENDBRANCH  83  87
ENDBRANCH  56  80
BRANCH  68  91
ATOM     91  C   UNL A   1      46.358  33.286  29.055  1.00  0.00     0.023 A 
ATOM     92  C   UNL A   1      46.272  34.393  28.192  1.00  0.00     0.031 A 
ATOM     93  C   UNL A   1      46.908  33.485  30.334  1.00  0.00     0.131 A 
ATOM     94  C   UNL A   1      46.786  35.634  28.595  1.00  0.00     0.055 A 
ATOM     95  C   UNL A   1      47.360  34.737  30.752  1.00  0.00     0.041 A 
ATOM     96  F   UNL A   1      47.015  32.464  31.199  1.00  0.00    -0.206 F 
ATOM     97  C   UNL A   1      47.316  35.817  29.875  1.00  0.00     0.022 A 
BRANCH  94  98
ATOM     98  S   UNL A   1      46.849  36.984  27.384  1.00  0.00     0.124 S 
ATOM     99  O   UNL A   1      48.194  37.513  27.590  1.00  0.00    -0.237 OA
ATOM    100  O   UNL A   1      46.626  36.282  26.123  1.00  0.00    -0.237 OA
ATOM    101  O   UNL A   1      45.763  37.869  27.800  1.00  0.00    -0.744 OA
ENDBRANCH  94  98
ENDBRANCH  68  91
ENDBRANCH  42  43
ENDBRANCH  34  37
ENDBRANCH  32  33
ENDBRANCH  31  32
ENDBRANCH  30  31
ENDBRANCH   1  30
TORSDOF 19
ENDMDL
