MODEL 1
REMARK VINA RESULT:     -11.6      0.000      0.000
REMARK SMILES O=C(CC[N@H+]1CCC[C@@H](C(=O)NCCCCCCNC(=O)c2ccc(-c3c4nc(c(-c5cc(S(=O)(=O)[O-])ccc5F)c5ccc([nH]5)c(-c5cc(S(=O)(=O)[O-])ccc5F)c5nc(c(-c6cc(S(=O)(=O)[O-])ccc6F)c6ccc3[nH]6)C=C5)C=C4)cc2)C1)Nc1cccc(F)c1
REMARK SMILES IDX 15 1 14 2 13 3 12 4 10 5 11 6 9 8 5 9 6 10 85 11 7 13 8 14
REMARK SMILES IDX 4 15 3 16 2 17 1 18 86 19 87 21 88 22 93 23 89 24 91 25
REMARK SMILES IDX 90 26 92 27 16 28 17 29 18 30 19 31 20 32 21 34 22 35 23 36
REMARK SMILES IDX 84 37 24 38 83 39 25 40 26 41 27 42 77 43 28 44 82 45 76 46
REMARK SMILES IDX 78 47 29 48 81 49 75 50 74 51 30 53 62 54 42 55 61 56 43 57
REMARK SMILES IDX 46 58 60 59 79 60 44 61 45 62 59 64 80 65 47 66 31 67 32 68
REMARK SMILES IDX 40 69 33 70 39 71 41 72 38 73 34 74 35 75 36 76 37 77 63 78
REMARK SMILES IDX 64 79 72 80 65 81 71 82 73 83 70 84 66 85 67 86 68 87 69 88
REMARK SMILES IDX 48 89 49 90 57 91 50 92 56 93 58 94 55 95 51 96 52 97 53 98
REMARK SMILES IDX 54 99
REMARK H PARENT 12 7 5 12 86 20 19 33 78 52 46 63
REMARK Flexibility Score: inf
ROOT
ATOM      1  C   UNL A   1      32.597  29.302  26.539  1.00  0.00     0.002 C 
ENDROOT
BRANCH   1   2
ATOM      2  C   UNL A   1      32.452  27.816  26.901  1.00  0.00     0.021 C 
BRANCH   2   3
ATOM      3  C   UNL A   1      31.496  27.016  26.013  1.00  0.00     0.116 C 
BRANCH   3   4
ATOM      4  N   UNL A   1      30.965  25.856  26.702  1.00  0.00    -0.356 N 
ATOM      5  C   UNL A   1      31.189  24.530  26.512  1.00  0.00     0.228 C 
ATOM      6  O   UNL A   1      30.531  23.741  27.194  1.00  0.00    -0.275 OA
ATOM      7  H   UNL A   1      30.337  26.065  27.430  1.00  0.00     0.163 HD
BRANCH   5   8
ATOM      8  C   UNL A   1      32.270  24.059  25.544  1.00  0.00     0.133 C 
ATOM      9  N   UNL A   1      33.269  24.692  23.303  1.00  0.00    -0.334 N 
ATOM     10  C   UNL A   1      34.535  25.041  23.975  1.00  0.00     0.262 C 
ATOM     11  C   UNL A   1      32.140  24.886  24.253  1.00  0.00     0.275 C 
ATOM     12  H   UNL A   1      33.340  23.718  23.007  1.00  0.00     0.348 HD
ATOM     13  C   UNL A   1      34.769  24.107  25.160  1.00  0.00     0.062 C 
ATOM     14  C   UNL A   1      33.654  24.242  26.185  1.00  0.00     0.025 C 
BRANCH   9  15
ATOM     15  C   UNL A   1      33.022  25.521  22.096  1.00  0.00     0.272 C 
BRANCH  15  16
ATOM     16  C   UNL A   1      33.489  26.978  22.145  1.00  0.00     0.161 C 
BRANCH  16  17
ATOM     17  C   UNL A   1      32.473  28.038  22.538  1.00  0.00     0.230 C 
ATOM     18  O   UNL A   1      32.869  29.155  22.868  1.00  0.00    -0.275 OA
ATOM     19  N   UNL A   1      31.154  27.664  22.396  1.00  0.00    -0.326 N 
ATOM     20  H   UNL A   1      30.990  26.709  22.217  1.00  0.00     0.169 HD
BRANCH  19  21
ATOM     21  C   UNL A   1      30.014  28.487  22.476  1.00  0.00     0.044 A 
ATOM     22  C   UNL A   1      30.139  29.804  22.013  1.00  0.00     0.026 A 
ATOM     23  C   UNL A   1      28.797  28.074  23.018  1.00  0.00     0.065 A 
ATOM     24  C   UNL A   1      29.057  30.689  22.071  1.00  0.00     0.005 A 
ATOM     25  C   UNL A   1      27.730  28.967  23.086  1.00  0.00     0.125 A 
ATOM     26  C   UNL A   1      27.847  30.268  22.613  1.00  0.00     0.039 A 
ATOM     27  F   UNL A   1      26.572  28.569  23.629  1.00  0.00    -0.207 F 
ENDBRANCH  19  21
ENDBRANCH  16  17
ENDBRANCH  15  16
ENDBRANCH   9  15
ENDBRANCH   5   8
ENDBRANCH   3   4
ENDBRANCH   2   3
ENDBRANCH   1   2
BRANCH   1  28
ATOM     28  C   UNL A   1      31.360  29.972  25.933  1.00  0.00     0.002 C 
BRANCH  28  29
ATOM     29  C   UNL A   1      31.221  31.471  26.202  1.00  0.00     0.021 C 
BRANCH  29  30
ATOM     30  C   UNL A   1      32.521  32.199  26.528  1.00  0.00     0.116 C 
BRANCH  30  31
ATOM     31  N   UNL A   1      32.303  33.484  27.177  1.00  0.00    -0.352 N 
ATOM     32  C   UNL A   1      33.017  34.068  28.199  1.00  0.00     0.251 C 
ATOM     33  H   UNL A   1      31.542  34.006  26.838  1.00  0.00     0.163 HD
ATOM     34  O   UNL A   1      32.602  35.101  28.719  1.00  0.00    -0.269 OA
BRANCH  32  35
ATOM     35  C   UNL A   1      34.258  33.428  28.693  1.00  0.00     0.039 A 
ATOM     36  C   UNL A   1      35.451  34.156  28.679  1.00  0.00     0.014 A 
ATOM     37  C   UNL A   1      34.238  32.123  29.191  1.00  0.00     0.014 A 
ATOM     38  C   UNL A   1      36.605  33.606  29.243  1.00  0.00     0.010 A 
ATOM     39  C   UNL A   1      35.371  31.605  29.814  1.00  0.00     0.010 A 
ATOM     40  C   UNL A   1      36.564  32.343  29.856  1.00  0.00    -0.014 A 
BRANCH  40  41
ATOM     41  C   UNL A   1      37.748  31.774  30.552  1.00  0.00     0.031 A 
ATOM     42  C   UNL A   1      38.601  30.740  29.869  1.00  0.00     0.074 A 
ATOM     43  C   UNL A   1      38.005  32.120  31.829  1.00  0.00     0.049 A 
ATOM     44  N   UNL A   1      39.595  30.036  30.345  1.00  0.00    -0.248 NA
ATOM     45  C   UNL A   1      38.260  30.440  28.472  1.00  0.00     0.031 C 
ATOM     46  C   UNL A   1      37.239  33.090  32.614  1.00  0.00     0.029 A 
ATOM     47  N   UNL A   1      38.976  31.685  32.695  1.00  0.00    -0.354 N 
ATOM     48  C   UNL A   1      39.993  29.196  29.310  1.00  0.00     0.074 A 
ATOM     49  C   UNL A   1      39.081  29.435  28.209  1.00  0.00     0.031 C 
ATOM     50  C   UNL A   1      37.787  33.197  33.835  1.00  0.00     0.029 A 
ATOM     51  C   UNL A   1      38.909  32.269  33.939  1.00  0.00     0.049 A 
ATOM     52  H   UNL A   1      39.659  31.019  32.450  1.00  0.00     0.167 HD
ATOM     53  C   UNL A   1      41.035  28.327  29.269  1.00  0.00     0.034 A 
ATOM     54  C   UNL A   1      39.657  32.071  35.042  1.00  0.00     0.034 A 
ATOM     55  C   UNL A   1      41.935  28.100  30.377  1.00  0.00     0.049 A 
ATOM     56  C   UNL A   1      40.773  31.060  34.999  1.00  0.00     0.074 A 
ATOM     57  C   UNL A   1      43.044  27.275  30.435  1.00  0.00     0.029 A 
ATOM     58  N   UNL A   1      41.822  28.696  31.629  1.00  0.00    -0.354 N 
ATOM     59  N   UNL A   1      41.157  30.293  34.005  1.00  0.00    -0.248 NA
ATOM     60  C   UNL A   1      41.558  30.892  36.228  1.00  0.00     0.031 C 
ATOM     61  C   UNL A   1      43.562  27.323  31.735  1.00  0.00     0.029 A 
ATOM     62  C   UNL A   1      42.821  28.233  32.471  1.00  0.00     0.049 A 
ATOM     63  H   UNL A   1      41.131  29.351  31.880  1.00  0.00     0.167 HD
ATOM     64  C   UNL A   1      42.252  29.577  34.480  1.00  0.00     0.074 A 
ATOM     65  C   UNL A   1      42.467  30.007  35.847  1.00  0.00     0.031 C 
ATOM     66  C   UNL A   1      43.017  28.656  33.839  1.00  0.00     0.034 A 
BRANCH  53  67
ATOM     67  C   UNL A   1      41.221  27.541  27.992  1.00  0.00     0.023 A 
ATOM     68  C   UNL A   1      40.874  26.180  27.910  1.00  0.00     0.031 A 
ATOM     69  C   UNL A   1      41.819  28.132  26.865  1.00  0.00     0.131 A 
ATOM     70  C   UNL A   1      41.228  25.431  26.778  1.00  0.00     0.055 A 
ATOM     71  C   UNL A   1      42.078  27.404  25.700  1.00  0.00     0.041 A 
ATOM     72  F   UNL A   1      42.189  29.422  26.883  1.00  0.00    -0.206 F 
ATOM     73  C   UNL A   1      41.804  26.039  25.662  1.00  0.00     0.022 A 
BRANCH  70  74
ATOM     74  S   UNL A   1      41.107  23.624  26.870  1.00  0.00     0.124 S 
ATOM     75  O   UNL A   1      42.071  23.211  25.853  1.00  0.00    -0.237 OA
ATOM     76  O   UNL A   1      41.481  23.354  28.253  1.00  0.00    -0.237 OA
ATOM     77  O   UNL A   1      39.709  23.357  26.535  1.00  0.00    -0.744 OA
ENDBRANCH  70  74
ENDBRANCH  53  67
BRANCH  54  78
ATOM     78  C   UNL A   1      39.384  32.847  36.283  1.00  0.00     0.023 A 
ATOM     79  C   UNL A   1      40.021  34.077  36.510  1.00  0.00     0.031 A 
ATOM     80  C   UNL A   1      38.504  32.364  37.267  1.00  0.00     0.131 A 
ATOM     81  C   UNL A   1      39.795  34.769  37.710  1.00  0.00     0.055 A 
ATOM     82  C   UNL A   1      38.249  33.076  38.440  1.00  0.00     0.041 A 
ATOM     83  F   UNL A   1      37.864  31.196  37.092  1.00  0.00    -0.206 F 
ATOM     84  C   UNL A   1      38.905  34.283  38.671  1.00  0.00     0.022 A 
BRANCH  81  85
ATOM     85  S   UNL A   1      40.726  36.294  38.020  1.00  0.00     0.124 S 
ATOM     86  O   UNL A   1      39.662  37.220  38.393  1.00  0.00    -0.237 OA
ATOM     87  O   UNL A   1      41.628  35.886  39.091  1.00  0.00    -0.237 OA
ATOM     88  O   UNL A   1      41.370  36.565  36.736  1.00  0.00    -0.744 OA
ENDBRANCH  81  85
ENDBRANCH  54  78
BRANCH  66  89
ATOM     89  C   UNL A   1      44.190  28.092  34.604  1.00  0.00     0.023 A 
ATOM     90  C   UNL A   1      44.091  26.903  35.347  1.00  0.00     0.031 A 
ATOM     91  C   UNL A   1      45.422  28.771  34.602  1.00  0.00     0.131 A 
ATOM     92  C   UNL A   1      45.188  26.456  36.100  1.00  0.00     0.055 A 
ATOM     93  C   UNL A   1      46.527  28.292  35.307  1.00  0.00     0.041 A 
ATOM     94  F   UNL A   1      45.572  29.913  33.911  1.00  0.00    -0.206 F 
ATOM     95  C   UNL A   1      46.409  27.134  36.072  1.00  0.00     0.022 A 
BRANCH  92  96
ATOM     96  S   UNL A   1      44.973  25.019  37.187  1.00  0.00     0.124 S 
ATOM     97  O   UNL A   1      44.614  23.971  36.237  1.00  0.00    -0.237 OA
ATOM     98  O   UNL A   1      46.289  24.896  37.805  1.00  0.00    -0.237 OA
ATOM     99  O   UNL A   1      43.901  25.430  38.091  1.00  0.00    -0.744 OA
ENDBRANCH  92  96
ENDBRANCH  66  89
ENDBRANCH  40  41
ENDBRANCH  32  35
ENDBRANCH  30  31
ENDBRANCH  29  30
ENDBRANCH  28  29
ENDBRANCH   1  28
TORSDOF 20
ENDMDL
MODEL 2
REMARK VINA RESULT:     -11.4      3.016      5.353
REMARK SMILES O=C(CC[N@H+]1CCC[C@@H](C(=O)NCCCCCCNC(=O)c2ccc(-c3c4nc(c(-c5cc(S(=O)(=O)[O-])ccc5F)c5ccc([nH]5)c(-c5cc(S(=O)(=O)[O-])ccc5F)c5nc(c(-c6cc(S(=O)(=O)[O-])ccc6F)c6ccc3[nH]6)C=C5)C=C4)cc2)C1)Nc1cccc(F)c1
REMARK SMILES IDX 15 1 14 2 13 3 12 4 10 5 11 6 9 8 5 9 6 10 85 11 7 13 8 14
REMARK SMILES IDX 4 15 3 16 2 17 1 18 86 19 87 21 88 22 93 23 89 24 91 25
REMARK SMILES IDX 90 26 92 27 16 28 17 29 18 30 19 31 20 32 21 34 22 35 23 36
REMARK SMILES IDX 84 37 24 38 83 39 25 40 26 41 27 42 77 43 28 44 82 45 76 46
REMARK SMILES IDX 78 47 29 48 81 49 75 50 74 51 30 53 62 54 42 55 61 56 43 57
REMARK SMILES IDX 46 58 60 59 79 60 44 61 45 62 59 64 80 65 47 66 31 67 32 68
REMARK SMILES IDX 40 69 33 70 39 71 41 72 38 73 34 74 35 75 36 76 37 77 63 78
REMARK SMILES IDX 64 79 72 80 65 81 71 82 73 83 70 84 66 85 67 86 68 87 69 88
REMARK SMILES IDX 48 89 49 90 57 91 50 92 56 93 58 94 55 95 51 96 52 97 53 98
REMARK SMILES IDX 54 99
REMARK H PARENT 12 7 5 12 86 20 19 33 78 52 46 63
REMARK Flexibility Score: inf
ROOT
ATOM      1  C   UNL A   1      35.034  29.188  27.125  1.00  0.00     0.002 C 
ENDROOT
BRANCH   1   2
ATOM      2  C   UNL A   1      33.832  28.765  26.268  1.00  0.00     0.021 C 
BRANCH   2   3
ATOM      3  C   UNL A   1      33.829  27.301  25.820  1.00  0.00     0.116 C 
BRANCH   3   4
ATOM      4  N   UNL A   1      32.808  26.531  26.504  1.00  0.00    -0.356 N 
ATOM      5  C   UNL A   1      32.179  25.379  26.154  1.00  0.00     0.228 C 
ATOM      6  O   UNL A   1      31.276  24.980  26.891  1.00  0.00    -0.275 OA
ATOM      7  H   UNL A   1      32.524  26.906  27.369  1.00  0.00     0.163 HD
BRANCH   5   8
ATOM      8  C   UNL A   1      32.640  24.588  24.934  1.00  0.00     0.133 C 
ATOM      9  N   UNL A   1      34.032  22.549  24.363  1.00  0.00    -0.334 N 
ATOM     10  C   UNL A   1      32.816  21.857  23.898  1.00  0.00     0.262 C 
ATOM     11  C   UNL A   1      33.664  23.541  25.409  1.00  0.00     0.275 C 
ATOM     12  H   UNL A   1      34.451  23.005  23.552  1.00  0.00     0.348 HD
ATOM     13  C   UNL A   1      31.859  22.861  23.259  1.00  0.00     0.062 C 
ATOM     14  C   UNL A   1      31.430  23.918  24.264  1.00  0.00     0.025 C 
BRANCH   9  15
ATOM     15  C   UNL A   1      35.035  21.612  24.931  1.00  0.00     0.272 C 
BRANCH  15  16
ATOM     16  C   UNL A   1      36.312  22.227  25.509  1.00  0.00     0.161 C 
BRANCH  16  17
ATOM     17  C   UNL A   1      37.589  21.403  25.448  1.00  0.00     0.230 C 
ATOM     18  O   UNL A   1      37.660  20.466  24.655  1.00  0.00    -0.275 OA
ATOM     19  N   UNL A   1      38.614  21.856  26.249  1.00  0.00    -0.326 N 
ATOM     20  H   UNL A   1      38.380  22.557  26.901  1.00  0.00     0.169 HD
BRANCH  19  21
ATOM     21  C   UNL A   1      39.958  21.435  26.245  1.00  0.00     0.044 A 
ATOM     22  C   UNL A   1      40.944  22.432  26.210  1.00  0.00     0.026 A 
ATOM     23  C   UNL A   1      40.351  20.097  26.238  1.00  0.00     0.065 A 
ATOM     24  C   UNL A   1      42.302  22.095  26.190  1.00  0.00     0.005 A 
ATOM     25  C   UNL A   1      41.705  19.771  26.201  1.00  0.00     0.125 A 
ATOM     26  C   UNL A   1      42.683  20.758  26.182  1.00  0.00     0.039 A 
ATOM     27  F   UNL A   1      42.072  18.483  26.171  1.00  0.00    -0.207 F 
ENDBRANCH  19  21
ENDBRANCH  16  17
ENDBRANCH  15  16
ENDBRANCH   9  15
ENDBRANCH   5   8
ENDBRANCH   3   4
ENDBRANCH   2   3
ENDBRANCH   1   2
BRANCH   1  28
ATOM     28  C   UNL A   1      34.827  30.416  28.017  1.00  0.00     0.002 C 
BRANCH  28  29
ATOM     29  C   UNL A   1      34.282  31.660  27.315  1.00  0.00     0.021 C 
BRANCH  29  30
ATOM     30  C   UNL A   1      32.838  32.019  27.652  1.00  0.00     0.116 C 
BRANCH  30  31
ATOM     31  N   UNL A   1      32.615  33.455  27.732  1.00  0.00    -0.352 N 
ATOM     32  C   UNL A   1      33.256  34.389  28.514  1.00  0.00     0.251 C 
ATOM     33  H   UNL A   1      31.909  33.807  27.144  1.00  0.00     0.163 HD
ATOM     34  O   UNL A   1      32.838  35.544  28.553  1.00  0.00    -0.269 OA
BRANCH  32  35
ATOM     35  C   UNL A   1      34.420  33.987  29.337  1.00  0.00     0.039 A 
ATOM     36  C   UNL A   1      34.207  33.237  30.497  1.00  0.00     0.014 A 
ATOM     37  C   UNL A   1      35.719  34.328  28.950  1.00  0.00     0.014 A 
ATOM     38  C   UNL A   1      35.301  32.757  31.223  1.00  0.00     0.010 A 
ATOM     39  C   UNL A   1      36.806  33.792  29.636  1.00  0.00     0.010 A 
ATOM     40  C   UNL A   1      36.610  32.993  30.773  1.00  0.00    -0.014 A 
BRANCH  40  41
ATOM     41  C   UNL A   1      37.791  32.412  31.466  1.00  0.00     0.031 A 
ATOM     42  C   UNL A   1      38.533  31.256  30.852  1.00  0.00     0.074 A 
ATOM     43  C   UNL A   1      38.141  32.863  32.686  1.00  0.00     0.049 A 
ATOM     44  N   UNL A   1      39.502  30.533  31.349  1.00  0.00    -0.248 NA
ATOM     45  C   UNL A   1      38.095  30.844  29.512  1.00  0.00     0.031 C 
ATOM     46  C   UNL A   1      37.487  33.960  33.403  1.00  0.00     0.029 A 
ATOM     47  N   UNL A   1      39.128  32.448  33.545  1.00  0.00    -0.354 N 
ATOM     48  C   UNL A   1      39.785  29.568  30.389  1.00  0.00     0.074 A 
ATOM     49  C   UNL A   1      38.831  29.761  29.315  1.00  0.00     0.031 C 
ATOM     50  C   UNL A   1      38.108  34.148  34.579  1.00  0.00     0.029 A 
ATOM     51  C   UNL A   1      39.169  33.157  34.723  1.00  0.00     0.049 A 
ATOM     52  H   UNL A   1      39.750  31.713  33.337  1.00  0.00     0.167 HD
ATOM     53  C   UNL A   1      40.763  28.626  30.387  1.00  0.00     0.034 A 
ATOM     54  C   UNL A   1      39.964  33.016  35.802  1.00  0.00     0.034 A 
ATOM     55  C   UNL A   1      41.706  28.446  31.467  1.00  0.00     0.049 A 
ATOM     56  C   UNL A   1      41.006  31.928  35.810  1.00  0.00     0.074 A 
ATOM     57  C   UNL A   1      42.759  27.553  31.556  1.00  0.00     0.029 A 
ATOM     58  N   UNL A   1      41.703  29.170  32.655  1.00  0.00    -0.354 N 
ATOM     59  N   UNL A   1      41.281  31.040  34.883  1.00  0.00    -0.248 NA
ATOM     60  C   UNL A   1      41.845  31.827  37.010  1.00  0.00     0.031 C 
ATOM     61  C   UNL A   1      43.351  27.693  32.817  1.00  0.00     0.029 A 
ATOM     62  C   UNL A   1      42.715  28.723  33.491  1.00  0.00     0.049 A 
ATOM     63  H   UNL A   1      41.073  29.895  32.870  1.00  0.00     0.167 HD
ATOM     64  C   UNL A   1      42.350  30.297  35.375  1.00  0.00     0.074 A 
ATOM     65  C   UNL A   1      42.670  30.845  36.679  1.00  0.00     0.031 C 
ATOM     66  C   UNL A   1      43.015  29.264  34.796  1.00  0.00     0.034 A 
BRANCH  53  67
ATOM     67  C   UNL A   1      40.824  27.705  29.190  1.00  0.00     0.023 A 
ATOM     68  C   UNL A   1      41.779  27.887  28.173  1.00  0.00     0.031 A 
ATOM     69  C   UNL A   1      39.877  26.680  29.022  1.00  0.00     0.131 A 
ATOM     70  C   UNL A   1      41.696  27.138  26.989  1.00  0.00     0.055 A 
ATOM     71  C   UNL A   1      39.861  25.869  27.884  1.00  0.00     0.041 A 
ATOM     72  F   UNL A   1      38.929  26.464  29.948  1.00  0.00    -0.206 F 
ATOM     73  C   UNL A   1      40.760  26.113  26.848  1.00  0.00     0.022 A 
BRANCH  70  74
ATOM     74  S   UNL A   1      42.695  27.662  25.569  1.00  0.00     0.124 S 
ATOM     75  O   UNL A   1      41.848  28.697  24.978  1.00  0.00    -0.237 OA
ATOM     76  O   UNL A   1      43.924  28.125  26.202  1.00  0.00    -0.237 OA
ATOM     77  O   UNL A   1      42.821  26.444  24.771  1.00  0.00    -0.744 OA
ENDBRANCH  70  74
ENDBRANCH  53  67
BRANCH  54  78
ATOM     78  C   UNL A   1      39.813  33.929  36.969  1.00  0.00     0.023 A 
ATOM     79  C   UNL A   1      39.198  33.483  38.150  1.00  0.00     0.031 A 
ATOM     80  C   UNL A   1      40.257  35.262  36.915  1.00  0.00     0.131 A 
ATOM     81  C   UNL A   1      39.013  34.372  39.219  1.00  0.00     0.055 A 
ATOM     82  C   UNL A   1      40.110  36.130  37.998  1.00  0.00     0.041 A 
ATOM     83  F   UNL A   1      40.859  35.733  35.811  1.00  0.00    -0.206 F 
ATOM     84  C   UNL A   1      39.475  35.689  39.156  1.00  0.00     0.022 A 
BRANCH  81  85
ATOM     85  S   UNL A   1      38.110  33.793  40.682  1.00  0.00     0.124 S 
ATOM     86  O   UNL A   1      37.838  35.046  41.377  1.00  0.00    -0.237 OA
ATOM     87  O   UNL A   1      36.958  33.128  40.082  1.00  0.00    -0.237 OA
ATOM     88  O   UNL A   1      39.065  32.906  41.341  1.00  0.00    -0.744 OA
ENDBRANCH  81  85
ENDBRANCH  54  78
BRANCH  66  89
ATOM     89  C   UNL A   1      44.188  28.697  35.557  1.00  0.00     0.023 A 
ATOM     90  C   UNL A   1      44.043  27.626  36.456  1.00  0.00     0.031 A 
ATOM     91  C   UNL A   1      45.470  29.252  35.391  1.00  0.00     0.131 A 
ATOM     92  C   UNL A   1      45.150  27.178  37.194  1.00  0.00     0.055 A 
ATOM     93  C   UNL A   1      46.578  28.767  36.085  1.00  0.00     0.041 A 
ATOM     94  F   UNL A   1      45.664  30.279  34.547  1.00  0.00    -0.206 F 
ATOM     95  C   UNL A   1      46.419  27.731  37.003  1.00  0.00     0.022 A 
BRANCH  92  96
ATOM     96  S   UNL A   1      44.895  25.917  38.473  1.00  0.00     0.124 S 
ATOM     97  O   UNL A   1      44.047  24.951  37.782  1.00  0.00    -0.237 OA
ATOM     98  O   UNL A   1      46.258  25.480  38.758  1.00  0.00    -0.237 OA
ATOM     99  O   UNL A   1      44.243  26.653  39.555  1.00  0.00    -0.744 OA
ENDBRANCH  92  96
ENDBRANCH  66  89
ENDBRANCH  40  41
ENDBRANCH  32  35
ENDBRANCH  30  31
ENDBRANCH  29  30
ENDBRANCH  28  29
ENDBRANCH   1  28
TORSDOF 20
ENDMDL
MODEL 3
REMARK VINA RESULT:     -11.4      2.372      4.246
REMARK SMILES O=C(CC[N@H+]1CCC[C@@H](C(=O)NCCCCCCNC(=O)c2ccc(-c3c4nc(c(-c5cc(S(=O)(=O)[O-])ccc5F)c5ccc([nH]5)c(-c5cc(S(=O)(=O)[O-])ccc5F)c5nc(c(-c6cc(S(=O)(=O)[O-])ccc6F)c6ccc3[nH]6)C=C5)C=C4)cc2)C1)Nc1cccc(F)c1
REMARK SMILES IDX 15 1 14 2 13 3 12 4 10 5 11 6 9 8 5 9 6 10 85 11 7 13 8 14
REMARK SMILES IDX 4 15 3 16 2 17 1 18 86 19 87 21 88 22 93 23 89 24 91 25
REMARK SMILES IDX 90 26 92 27 16 28 17 29 18 30 19 31 20 32 21 34 22 35 23 36
REMARK SMILES IDX 84 37 24 38 83 39 25 40 26 41 27 42 77 43 28 44 82 45 76 46
REMARK SMILES IDX 78 47 29 48 81 49 75 50 74 51 30 53 62 54 42 55 61 56 43 57
REMARK SMILES IDX 46 58 60 59 79 60 44 61 45 62 59 64 80 65 47 66 31 67 32 68
REMARK SMILES IDX 40 69 33 70 39 71 41 72 38 73 34 74 35 75 36 76 37 77 63 78
REMARK SMILES IDX 64 79 72 80 65 81 71 82 73 83 70 84 66 85 67 86 68 87 69 88
REMARK SMILES IDX 48 89 49 90 57 91 50 92 56 93 58 94 55 95 51 96 52 97 53 98
REMARK SMILES IDX 54 99
REMARK H PARENT 12 7 5 12 86 20 19 33 78 52 46 63
REMARK Flexibility Score: inf
ROOT
ATOM      1  C   UNL A   1      33.379  29.341  25.718  1.00  0.00     0.002 C 
ENDROOT
BRANCH   1   2
ATOM      2  C   UNL A   1      33.109  28.853  24.286  1.00  0.00     0.021 C 
BRANCH   2   3
ATOM      3  C   UNL A   1      33.353  27.362  24.044  1.00  0.00     0.116 C 
BRANCH   3   4
ATOM      4  N   UNL A   1      33.149  27.001  22.655  1.00  0.00    -0.356 N 
ATOM      5  C   UNL A   1      32.231  26.185  22.075  1.00  0.00     0.228 C 
ATOM      6  O   UNL A   1      32.337  25.984  20.863  1.00  0.00    -0.275 OA
ATOM      7  H   UNL A   1      33.781  27.419  22.027  1.00  0.00     0.163 HD
BRANCH   5   8
ATOM      8  C   UNL A   1      31.080  25.611  22.894  1.00  0.00     0.133 C 
ATOM      9  N   UNL A   1      30.681  23.993  24.803  1.00  0.00    -0.334 N 
ATOM     10  C   UNL A   1      30.245  25.116  25.654  1.00  0.00     0.262 C 
ATOM     11  C   UNL A   1      31.646  24.493  23.787  1.00  0.00     0.275 C 
ATOM     12  H   UNL A   1      29.847  23.605  24.361  1.00  0.00     0.348 HD
ATOM     13  C   UNL A   1      29.518  26.158  24.807  1.00  0.00     0.062 C 
ATOM     14  C   UNL A   1      30.438  26.724  23.736  1.00  0.00     0.025 C 
BRANCH   9  15
ATOM     15  C   UNL A   1      31.332  22.911  25.584  1.00  0.00     0.272 C 
BRANCH  15  16
ATOM     16  C   UNL A   1      32.007  23.312  26.898  1.00  0.00     0.161 C 
BRANCH  16  17
ATOM     17  C   UNL A   1      33.475  22.960  27.080  1.00  0.00     0.230 C 
ATOM     18  O   UNL A   1      33.864  22.560  28.176  1.00  0.00    -0.275 OA
ATOM     19  N   UNL A   1      34.240  23.040  25.937  1.00  0.00    -0.326 N 
ATOM     20  H   UNL A   1      33.815  23.468  25.158  1.00  0.00     0.169 HD
BRANCH  19  21
ATOM     21  C   UNL A   1      35.558  22.579  25.751  1.00  0.00     0.044 A 
ATOM     22  C   UNL A   1      36.599  23.465  26.064  1.00  0.00     0.026 A 
ATOM     23  C   UNL A   1      35.874  21.317  25.247  1.00  0.00     0.065 A 
ATOM     24  C   UNL A   1      37.935  23.088  25.895  1.00  0.00     0.005 A 
ATOM     25  C   UNL A   1      37.207  20.957  25.067  1.00  0.00     0.125 A 
ATOM     26  C   UNL A   1      38.240  21.828  25.391  1.00  0.00     0.039 A 
ATOM     27  F   UNL A   1      37.501  19.752  24.560  1.00  0.00    -0.207 F 
ENDBRANCH  19  21
ENDBRANCH  16  17
ENDBRANCH  15  16
ENDBRANCH   9  15
ENDBRANCH   5   8
ENDBRANCH   3   4
ENDBRANCH   2   3
ENDBRANCH   1   2
BRANCH   1  28
ATOM     28  C   UNL A   1      32.147  29.728  26.542  1.00  0.00     0.002 C 
BRANCH  28  29
ATOM     29  C   UNL A   1      31.899  31.229  26.697  1.00  0.00     0.021 C 
BRANCH  29  30
ATOM     30  C   UNL A   1      33.053  32.021  27.303  1.00  0.00     0.116 C 
BRANCH  30  31
ATOM     31  N   UNL A   1      32.718  33.417  27.544  1.00  0.00    -0.352 N 
ATOM     32  C   UNL A   1      33.249  34.288  28.468  1.00  0.00     0.251 C 
ATOM     33  H   UNL A   1      32.015  33.789  26.966  1.00  0.00     0.163 HD
ATOM     34  O   UNL A   1      32.743  35.396  28.624  1.00  0.00    -0.269 OA
BRANCH  32  35
ATOM     35  C   UNL A   1      34.402  33.869  29.298  1.00  0.00     0.039 A 
ATOM     36  C   UNL A   1      34.180  33.044  30.405  1.00  0.00     0.014 A 
ATOM     37  C   UNL A   1      35.700  34.268  28.970  1.00  0.00     0.014 A 
ATOM     38  C   UNL A   1      35.268  32.551  31.131  1.00  0.00     0.010 A 
ATOM     39  C   UNL A   1      36.784  33.721  29.653  1.00  0.00     0.010 A 
ATOM     40  C   UNL A   1      36.581  32.849  30.734  1.00  0.00    -0.014 A 
BRANCH  40  41
ATOM     41  C   UNL A   1      37.759  32.259  31.425  1.00  0.00     0.031 A 
ATOM     42  C   UNL A   1      38.508  31.117  30.796  1.00  0.00     0.074 A 
ATOM     43  C   UNL A   1      38.100  32.691  32.654  1.00  0.00     0.049 A 
ATOM     44  N   UNL A   1      39.476  30.388  31.286  1.00  0.00    -0.248 NA
ATOM     45  C   UNL A   1      38.080  30.726  29.446  1.00  0.00     0.031 C 
ATOM     46  C   UNL A   1      37.438  33.773  33.386  1.00  0.00     0.029 A 
ATOM     47  N   UNL A   1      39.083  32.264  33.512  1.00  0.00    -0.354 N 
ATOM     48  C   UNL A   1      39.768  29.440  30.311  1.00  0.00     0.074 A 
ATOM     49  C   UNL A   1      38.820  29.649  29.235  1.00  0.00     0.031 C 
ATOM     50  C   UNL A   1      38.052  33.943  34.568  1.00  0.00     0.029 A 
ATOM     51  C   UNL A   1      39.115  32.953  34.703  1.00  0.00     0.049 A 
ATOM     52  H   UNL A   1      39.708  31.535  33.295  1.00  0.00     0.167 HD
ATOM     53  C   UNL A   1      40.749  28.501  30.300  1.00  0.00     0.034 A 
ATOM     54  C   UNL A   1      39.903  32.795  35.784  1.00  0.00     0.034 A 
ATOM     55  C   UNL A   1      41.685  28.306  31.382  1.00  0.00     0.049 A 
ATOM     56  C   UNL A   1      40.948  31.710  35.780  1.00  0.00     0.074 A 
ATOM     57  C   UNL A   1      42.740  27.414  31.462  1.00  0.00     0.029 A 
ATOM     58  N   UNL A   1      41.673  29.009  32.582  1.00  0.00    -0.354 N 
ATOM     59  N   UNL A   1      41.231  30.839  34.839  1.00  0.00    -0.248 NA
ATOM     60  C   UNL A   1      41.780  31.591  36.983  1.00  0.00     0.031 C 
ATOM     61  C   UNL A   1      43.324  27.533  32.730  1.00  0.00     0.029 A 
ATOM     62  C   UNL A   1      42.681  28.550  33.417  1.00  0.00     0.049 A 
ATOM     63  H   UNL A   1      41.039  29.728  32.806  1.00  0.00     0.167 HD
ATOM     64  C   UNL A   1      42.299  30.091  35.325  1.00  0.00     0.074 A 
ATOM     65  C   UNL A   1      42.610  30.617  36.640  1.00  0.00     0.031 C 
ATOM     66  C   UNL A   1      42.971  29.070  34.733  1.00  0.00     0.034 A 
BRANCH  53  67
ATOM     67  C   UNL A   1      40.820  27.601  29.087  1.00  0.00     0.023 A 
ATOM     68  C   UNL A   1      41.791  27.793  28.087  1.00  0.00     0.031 A 
ATOM     69  C   UNL A   1      39.867  26.587  28.887  1.00  0.00     0.131 A 
ATOM     70  C   UNL A   1      41.719  27.066  26.890  1.00  0.00     0.055 A 
ATOM     71  C   UNL A   1      39.862  25.797  27.735  1.00  0.00     0.041 A 
ATOM     72  F   UNL A   1      38.904  26.363  29.795  1.00  0.00    -0.206 F 
ATOM     73  C   UNL A   1      40.777  26.052  26.717  1.00  0.00     0.022 A 
BRANCH  70  74
ATOM     74  S   UNL A   1      42.743  27.607  25.493  1.00  0.00     0.124 S 
ATOM     75  O   UNL A   1      44.006  27.920  26.158  1.00  0.00    -0.237 OA
ATOM     76  O   UNL A   1      42.747  26.431  24.632  1.00  0.00    -0.237 OA
ATOM     77  O   UNL A   1      42.022  28.766  24.969  1.00  0.00    -0.744 OA
ENDBRANCH  70  74
ENDBRANCH  53  67
BRANCH  54  78
ATOM     78  C   UNL A   1      39.742  33.688  36.965  1.00  0.00     0.023 A 
ATOM     79  C   UNL A   1      40.645  34.738  37.195  1.00  0.00     0.031 A 
ATOM     80  C   UNL A   1      38.702  33.494  37.890  1.00  0.00     0.131 A 
ATOM     81  C   UNL A   1      40.513  35.535  38.341  1.00  0.00     0.055 A 
ATOM     82  C   UNL A   1      38.549  34.317  39.007  1.00  0.00     0.041 A 
ATOM     83  F   UNL A   1      37.807  32.509  37.710  1.00  0.00    -0.206 F 
ATOM     84  C   UNL A   1      39.464  35.340  39.243  1.00  0.00     0.022 A 
BRANCH  81  85
ATOM     85  S   UNL A   1      41.768  36.804  38.665  1.00  0.00     0.124 S 
ATOM     86  O   UNL A   1      42.288  37.055  37.326  1.00  0.00    -0.237 OA
ATOM     87  O   UNL A   1      40.971  37.873  39.256  1.00  0.00    -0.237 OA
ATOM     88  O   UNL A   1      42.692  36.140  39.582  1.00  0.00    -0.744 OA
ENDBRANCH  81  85
ENDBRANCH  54  78
BRANCH  66  89
ATOM     89  C   UNL A   1      44.141  28.492  35.491  1.00  0.00     0.023 A 
ATOM     90  C   UNL A   1      43.988  27.430  36.398  1.00  0.00     0.031 A 
ATOM     91  C   UNL A   1      45.429  29.031  35.314  1.00  0.00     0.131 A 
ATOM     92  C   UNL A   1      45.093  26.973  37.133  1.00  0.00     0.055 A 
ATOM     93  C   UNL A   1      46.535  28.536  36.006  1.00  0.00     0.041 A 
ATOM     94  F   UNL A   1      45.632  30.049  34.462  1.00  0.00    -0.206 F 
ATOM     95  C   UNL A   1      46.367  27.509  36.932  1.00  0.00     0.022 A 
BRANCH  92  96
ATOM     96  S   UNL A   1      44.829  25.725  38.423  1.00  0.00     0.124 S 
ATOM     97  O   UNL A   1      43.921  24.792  37.761  1.00  0.00    -0.237 OA
ATOM     98  O   UNL A   1      46.182  25.234  38.664  1.00  0.00    -0.237 OA
ATOM     99  O   UNL A   1      44.241  26.487  39.523  1.00  0.00    -0.744 OA
ENDBRANCH  92  96
ENDBRANCH  66  89
ENDBRANCH  40  41
ENDBRANCH  32  35
ENDBRANCH  30  31
ENDBRANCH  29  30
ENDBRANCH  28  29
ENDBRANCH   1  28
TORSDOF 20
ENDMDL
