MODEL 1
REMARK VINA RESULT:     -11.7      0.000      0.000
REMARK SMILES O=C(NCCCCCCNC(=O)[C@H]1CCC(=O)N(C2CCCCC2)[C@H]1c1ccccc1)c1ccc(-c2c3nc(c(-c4cc(S(=O)(=O)[O-])ccc4F)c4ccc([nH]4)c(-c4cc(S(=O)(=O)[O-])ccc4F)c4nc(c(-c5cc(S(=O)(=O)[O-])ccc5F)c5ccc2[nH]5)C=C4)C=C3)cc1
REMARK SMILES IDX 5 1 4 2 3 3 1 4 2 5 32 7 33 8 94 9 34 10 93 11 35 12 36 13
REMARK SMILES IDX 37 14 87 15 38 16 92 17 86 18 88 19 39 20 91 21 85 22 84 23
REMARK SMILES IDX 40 25 72 26 52 27 71 28 53 29 56 30 70 31 89 32 54 33 55 34
REMARK SMILES IDX 69 36 90 37 57 38 41 39 42 40 50 41 43 42 49 43 51 44 48 45
REMARK SMILES IDX 44 46 45 47 46 48 47 49 73 50 74 51 82 52 75 53 81 54 83 55
REMARK SMILES IDX 80 56 76 57 77 58 78 59 79 60 58 61 59 62 67 63 60 64 66 65
REMARK SMILES IDX 68 66 65 67 61 68 62 69 63 70 64 71 6 72 7 73 8 74 9 75
REMARK SMILES IDX 10 76 11 77 12 79 13 80 14 81 25 82 15 83 18 84 16 85 17 86
REMARK SMILES IDX 26 87 27 88 31 89 28 90 30 91 29 92 19 93 20 94 24 95 21 96
REMARK SMILES IDX 23 97 22 98
REMARK H PARENT 3 6 88 24 56 35 10 78
REMARK Flexibility Score: inf
ROOT
ATOM      1  C   UNL A   1      37.885  20.213  24.992  1.00  0.00     0.021 C 
ENDROOT
BRANCH   1   2
ATOM      2  C   UNL A   1      39.074  20.592  25.863  1.00  0.00     0.116 C 
BRANCH   2   3
ATOM      3  N   UNL A   1      40.049  19.518  25.953  1.00  0.00    -0.352 N 
ATOM      4  O   UNL A   1      42.118  18.622  25.995  1.00  0.00    -0.269 OA
ATOM      5  C   UNL A   1      41.405  19.613  26.137  1.00  0.00     0.251 C 
ATOM      6  H   UNL A   1      39.689  18.604  25.872  1.00  0.00     0.163 HD
BRANCH   5   7
ATOM      7  C   UNL A   1      41.998  20.918  26.500  1.00  0.00     0.039 A 
ATOM      8  C   UNL A   1      42.285  21.860  25.507  1.00  0.00     0.014 A 
ATOM      9  C   UNL A   1      42.250  21.209  27.843  1.00  0.00     0.014 A 
ATOM     10  C   UNL A   1      42.913  23.053  25.845  1.00  0.00     0.010 A 
ATOM     11  C   UNL A   1      42.806  22.443  28.189  1.00  0.00     0.010 A 
ATOM     12  C   UNL A   1      43.142  23.373  27.193  1.00  0.00    -0.014 A 
BRANCH  12  13
ATOM     13  C   UNL A   1      43.596  24.741  27.546  1.00  0.00     0.031 A 
ATOM     14  C   UNL A   1      42.632  25.785  28.031  1.00  0.00     0.074 A 
ATOM     15  C   UNL A   1      44.906  25.027  27.400  1.00  0.00     0.049 A 
ATOM     16  N   UNL A   1      42.863  27.036  28.330  1.00  0.00    -0.248 NA
ATOM     17  C   UNL A   1      41.228  25.377  28.196  1.00  0.00     0.031 C 
ATOM     18  C   UNL A   1      45.923  24.080  26.928  1.00  0.00     0.029 A 
ATOM     19  N   UNL A   1      45.611  26.182  27.622  1.00  0.00    -0.354 N 
ATOM     20  C   UNL A   1      41.636  27.576  28.697  1.00  0.00     0.074 A 
ATOM     21  C   UNL A   1      40.658  26.515  28.574  1.00  0.00     0.031 C 
ATOM     22  C   UNL A   1      47.118  24.687  26.914  1.00  0.00     0.029 A 
ATOM     23  C   UNL A   1      46.943  26.082  27.292  1.00  0.00     0.049 A 
ATOM     24  H   UNL A   1      45.204  27.002  27.982  1.00  0.00     0.167 HD
ATOM     25  C   UNL A   1      41.362  28.843  29.095  1.00  0.00     0.034 A 
ATOM     26  C   UNL A   1      47.910  27.020  27.247  1.00  0.00     0.034 A 
ATOM     27  C   UNL A   1      42.361  29.878  29.217  1.00  0.00     0.049 A 
ATOM     28  C   UNL A   1      47.555  28.430  27.637  1.00  0.00     0.074 A 
ATOM     29  C   UNL A   1      42.205  31.169  29.694  1.00  0.00     0.029 A 
ATOM     30  N   UNL A   1      43.691  29.756  28.836  1.00  0.00    -0.354 N 
ATOM     31  N   UNL A   1      46.403  28.905  28.051  1.00  0.00    -0.248 NA
ATOM     32  C   UNL A   1      48.625  29.431  27.550  1.00  0.00     0.031 C 
ATOM     33  C   UNL A   1      43.413  31.850  29.518  1.00  0.00     0.029 A 
ATOM     34  C   UNL A   1      44.349  30.964  29.009  1.00  0.00     0.049 A 
ATOM     35  H   UNL A   1      44.105  28.932  28.492  1.00  0.00     0.167 HD
ATOM     36  C   UNL A   1      46.616  30.258  28.286  1.00  0.00     0.074 A 
ATOM     37  C   UNL A   1      48.011  30.516  27.998  1.00  0.00     0.031 C 
ATOM     38  C   UNL A   1      45.737  31.207  28.696  1.00  0.00     0.034 A 
BRANCH  25  39
ATOM     39  C   UNL A   1      39.926  29.210  29.378  1.00  0.00     0.023 A 
ATOM     40  C   UNL A   1      39.430  29.343  30.686  1.00  0.00     0.031 A 
ATOM     41  C   UNL A   1      39.052  29.481  28.309  1.00  0.00     0.131 A 
ATOM     42  C   UNL A   1      38.088  29.705  30.890  1.00  0.00     0.055 A 
ATOM     43  C   UNL A   1      37.738  29.901  28.519  1.00  0.00     0.041 A 
ATOM     44  F   UNL A   1      39.466  29.352  27.039  1.00  0.00    -0.206 F 
ATOM     45  C   UNL A   1      37.247  30.009  29.817  1.00  0.00     0.022 A 
BRANCH  42  46
ATOM     46  S   UNL A   1      37.430  29.689  32.580  1.00  0.00     0.124 S 
ATOM     47  O   UNL A   1      38.434  30.472  33.297  1.00  0.00    -0.237 OA
ATOM     48  O   UNL A   1      36.126  30.320  32.417  1.00  0.00    -0.237 OA
ATOM     49  O   UNL A   1      37.398  28.268  32.924  1.00  0.00    -0.744 OA
ENDBRANCH  42  46
ENDBRANCH  25  39
BRANCH  26  50
ATOM     50  C   UNL A   1      49.272  26.680  26.746  1.00  0.00     0.023 A 
ATOM     51  C   UNL A   1      49.730  27.159  25.509  1.00  0.00     0.031 A 
ATOM     52  C   UNL A   1      50.115  25.816  27.470  1.00  0.00     0.131 A 
ATOM     53  C   UNL A   1      50.967  26.724  25.008  1.00  0.00     0.055 A 
ATOM     54  C   UNL A   1      51.374  25.444  26.999  1.00  0.00     0.041 A 
ATOM     55  F   UNL A   1      49.727  25.324  28.658  1.00  0.00    -0.206 F 
ATOM     56  C   UNL A   1      51.799  25.885  25.751  1.00  0.00     0.022 A 
BRANCH  53  57
ATOM     57  S   UNL A   1      51.414  27.173  23.309  1.00  0.00     0.124 S 
ATOM     58  O   UNL A   1      50.163  26.929  22.599  1.00  0.00    -0.237 OA
ATOM     59  O   UNL A   1      51.804  28.571  23.460  1.00  0.00    -0.237 OA
ATOM     60  O   UNL A   1      52.503  26.253  22.990  1.00  0.00    -0.744 OA
ENDBRANCH  53  57
ENDBRANCH  26  50
BRANCH  38  61
ATOM     61  C   UNL A   1      46.276  32.602  28.872  1.00  0.00     0.023 A 
ATOM     62  C   UNL A   1      46.155  33.568  27.859  1.00  0.00     0.031 A 
ATOM     63  C   UNL A   1      46.925  32.969  30.064  1.00  0.00     0.131 A 
ATOM     64  C   UNL A   1      46.718  34.839  28.035  1.00  0.00     0.055 A 
ATOM     65  C   UNL A   1      47.429  34.256  30.258  1.00  0.00     0.041 A 
ATOM     66  F   UNL A   1      47.074  32.083  31.062  1.00  0.00    -0.206 F 
ATOM     67  C   UNL A   1      47.337  35.196  29.235  1.00  0.00     0.022 A 
BRANCH  64  68
ATOM     68  S   UNL A   1      46.697  36.002  26.643  1.00  0.00     0.124 S 
ATOM     69  O   UNL A   1      45.268  36.239  26.469  1.00  0.00    -0.237 OA
ATOM     70  O   UNL A   1      47.471  37.126  27.161  1.00  0.00    -0.237 OA
ATOM     71  O   UNL A   1      47.339  35.254  25.563  1.00  0.00    -0.744 OA
ENDBRANCH  64  68
ENDBRANCH  38  61
ENDBRANCH  12  13
ENDBRANCH   5   7
ENDBRANCH   2   3
ENDBRANCH   1   2
BRANCH   1  72
ATOM     72  C   UNL A   1      37.103  21.402  24.433  1.00  0.00     0.002 C 
BRANCH  72  73
ATOM     73  C   UNL A   1      37.270  22.714  25.205  1.00  0.00     0.002 C 
BRANCH  73  74
ATOM     74  C   UNL A   1      36.185  23.770  24.951  1.00  0.00     0.021 C 
BRANCH  74  75
ATOM     75  C   UNL A   1      34.934  23.620  25.812  1.00  0.00     0.116 C 
BRANCH  75  76
ATOM     76  N   UNL A   1      33.837  23.042  25.059  1.00  0.00    -0.356 N 
ATOM     77  C   UNL A   1      33.164  23.534  23.981  1.00  0.00     0.225 C 
ATOM     78  H   UNL A   1      33.533  22.160  25.374  1.00  0.00     0.163 HD
ATOM     79  O   UNL A   1      32.327  22.810  23.442  1.00  0.00    -0.275 OA
BRANCH  77  80
ATOM     80  C   UNL A   1      33.481  24.932  23.486  1.00  0.00     0.106 C 
ATOM     81  C   UNL A   1      32.999  25.145  22.059  1.00  0.00     0.026 C 
ATOM     82  C   UNL A   1      32.935  26.069  24.373  1.00  0.00     0.128 C 
ATOM     83  C   UNL A   1      33.609  26.426  21.536  1.00  0.00     0.101 C 
ATOM     84  N   UNL A   1      33.362  27.393  23.841  1.00  0.00    -0.332 N 
ATOM     85  C   UNL A   1      33.600  27.612  22.484  1.00  0.00     0.223 C 
ATOM     86  O   UNL A   1      33.880  28.720  22.022  1.00  0.00    -0.275 OA
BRANCH  82  87
ATOM     87  C   UNL A   1      31.427  26.006  24.643  1.00  0.00    -0.025 A 
ATOM     88  C   UNL A   1      30.471  26.402  23.694  1.00  0.00     0.006 A 
ATOM     89  C   UNL A   1      30.958  25.541  25.885  1.00  0.00     0.006 A 
ATOM     90  C   UNL A   1      29.105  26.372  23.986  1.00  0.00     0.000 A 
ATOM     91  C   UNL A   1      29.590  25.477  26.164  1.00  0.00     0.000 A 
ATOM     92  C   UNL A   1      28.664  25.905  25.219  1.00  0.00     0.000 A 
ENDBRANCH  82  87
BRANCH  84  93
ATOM     93  C   UNL A   1      33.473  28.524  24.802  1.00  0.00     0.085 C 
ATOM     94  C   UNL A   1      32.134  29.279  24.933  1.00  0.00     0.025 C 
ATOM     95  C   UNL A   1      34.053  28.107  26.171  1.00  0.00     0.025 C 
ATOM     96  C   UNL A   1      32.184  30.389  25.980  1.00  0.00     0.002 C 
ATOM     97  C   UNL A   1      34.050  29.238  27.193  1.00  0.00     0.002 C 
ATOM     98  C   UNL A   1      32.670  29.866  27.327  1.00  0.00     0.000 C 
ENDBRANCH  84  93
ENDBRANCH  77  80
ENDBRANCH  75  76
ENDBRANCH  74  75
ENDBRANCH  73  74
ENDBRANCH  72  73
ENDBRANCH   1  72
TORSDOF 18
ENDMDL
MODEL 2
REMARK VINA RESULT:     -11.7      5.327     11.261
REMARK SMILES O=C(NCCCCCCNC(=O)[C@H]1CCC(=O)N(C2CCCCC2)[C@H]1c1ccccc1)c1ccc(-c2c3nc(c(-c4cc(S(=O)(=O)[O-])ccc4F)c4ccc([nH]4)c(-c4cc(S(=O)(=O)[O-])ccc4F)c4nc(c(-c5cc(S(=O)(=O)[O-])ccc5F)c5ccc2[nH]5)C=C4)C=C3)cc1
REMARK SMILES IDX 5 1 4 2 3 3 1 4 2 5 32 7 33 8 94 9 34 10 93 11 35 12 36 13
REMARK SMILES IDX 37 14 87 15 38 16 92 17 86 18 88 19 39 20 91 21 85 22 84 23
REMARK SMILES IDX 40 25 72 26 52 27 71 28 53 29 56 30 70 31 89 32 54 33 55 34
REMARK SMILES IDX 69 36 90 37 57 38 41 39 42 40 50 41 43 42 49 43 51 44 48 45
REMARK SMILES IDX 44 46 45 47 46 48 47 49 73 50 74 51 82 52 75 53 81 54 83 55
REMARK SMILES IDX 80 56 76 57 77 58 78 59 79 60 58 61 59 62 67 63 60 64 66 65
REMARK SMILES IDX 68 66 65 67 61 68 62 69 63 70 64 71 6 72 7 73 8 74 9 75
REMARK SMILES IDX 10 76 11 77 12 79 13 80 14 81 25 82 15 83 18 84 16 85 17 86
REMARK SMILES IDX 26 87 27 88 31 89 28 90 30 91 29 92 19 93 20 94 24 95 21 96
REMARK SMILES IDX 23 97 22 98
REMARK H PARENT 3 6 88 24 56 35 10 78
REMARK Flexibility Score: inf
ROOT
ATOM      1  C   UNL A   1      31.758  31.566  27.186  1.00  0.00     0.021 C 
ENDROOT
BRANCH   1   2
ATOM      2  C   UNL A   1      32.975  32.479  27.143  1.00  0.00     0.116 C 
BRANCH   2   3
ATOM      3  N   UNL A   1      32.662  33.828  27.583  1.00  0.00    -0.352 N 
ATOM      4  O   UNL A   1      32.689  35.583  28.999  1.00  0.00    -0.269 OA
ATOM      5  C   UNL A   1      33.199  34.525  28.636  1.00  0.00     0.251 C 
ATOM      6  H   UNL A   1      31.978  34.303  27.058  1.00  0.00     0.163 HD
BRANCH   5   7
ATOM      7  C   UNL A   1      34.387  33.988  29.331  1.00  0.00     0.039 A 
ATOM      8  C   UNL A   1      34.237  33.056  30.363  1.00  0.00     0.014 A 
ATOM      9  C   UNL A   1      35.661  34.404  28.937  1.00  0.00     0.014 A 
ATOM     10  C   UNL A   1      35.352  32.613  31.064  1.00  0.00     0.010 A 
ATOM     11  C   UNL A   1      36.787  33.894  29.589  1.00  0.00     0.010 A 
ATOM     12  C   UNL A   1      36.640  32.996  30.658  1.00  0.00    -0.014 A 
BRANCH  12  13
ATOM     13  C   UNL A   1      37.820  32.333  31.266  1.00  0.00     0.031 A 
ATOM     14  C   UNL A   1      38.528  31.205  30.573  1.00  0.00     0.074 A 
ATOM     15  C   UNL A   1      38.229  32.763  32.477  1.00  0.00     0.049 A 
ATOM     16  N   UNL A   1      39.539  30.491  30.995  1.00  0.00    -0.248 NA
ATOM     17  C   UNL A   1      38.039  30.824  29.239  1.00  0.00     0.031 C 
ATOM     18  C   UNL A   1      37.601  33.851  33.236  1.00  0.00     0.029 A 
ATOM     19  N   UNL A   1      39.254  32.348  33.287  1.00  0.00    -0.354 N 
ATOM     20  C   UNL A   1      39.796  29.561  29.994  1.00  0.00     0.074 A 
ATOM     21  C   UNL A   1      38.825  29.796  28.945  1.00  0.00     0.031 C 
ATOM     22  C   UNL A   1      38.263  34.025  34.388  1.00  0.00     0.029 A 
ATOM     23  C   UNL A   1      39.307  33.014  34.490  1.00  0.00     0.049 A 
ATOM     24  H   UNL A   1      39.890  31.642  33.033  1.00  0.00     0.167 HD
ATOM     25  C   UNL A   1      40.753  28.601  29.967  1.00  0.00     0.034 A 
ATOM     26  C   UNL A   1      40.072  32.804  35.578  1.00  0.00     0.034 A 
ATOM     27  C   UNL A   1      41.713  28.396  31.026  1.00  0.00     0.049 A 
ATOM     28  C   UNL A   1      41.083  31.690  35.536  1.00  0.00     0.074 A 
ATOM     29  C   UNL A   1      42.777  27.512  31.060  1.00  0.00     0.029 A 
ATOM     30  N   UNL A   1      41.712  29.060  32.246  1.00  0.00    -0.354 N 
ATOM     31  N   UNL A   1      41.360  30.867  34.551  1.00  0.00    -0.248 NA
ATOM     32  C   UNL A   1      41.882  31.471  36.748  1.00  0.00     0.031 C 
ATOM     33  C   UNL A   1      43.362  27.577  32.328  1.00  0.00     0.029 A 
ATOM     34  C   UNL A   1      42.717  28.560  33.061  1.00  0.00     0.049 A 
ATOM     35  H   UNL A   1      41.088  29.779  32.496  1.00  0.00     0.167 HD
ATOM     36  C   UNL A   1      42.374  30.041  35.023  1.00  0.00     0.074 A 
ATOM     37  C   UNL A   1      42.681  30.486  36.366  1.00  0.00     0.031 C 
ATOM     38  C   UNL A   1      42.994  29.004  34.406  1.00  0.00     0.034 A 
BRANCH  25  39
ATOM     39  C   UNL A   1      40.789  27.659  28.789  1.00  0.00     0.023 A 
ATOM     40  C   UNL A   1      41.762  27.757  27.781  1.00  0.00     0.031 A 
ATOM     41  C   UNL A   1      39.855  26.610  28.707  1.00  0.00     0.131 A 
ATOM     42  C   UNL A   1      41.759  26.840  26.716  1.00  0.00     0.055 A 
ATOM     43  C   UNL A   1      39.895  25.665  27.680  1.00  0.00     0.041 A 
ATOM     44  F   UNL A   1      38.892  26.480  29.632  1.00  0.00    -0.206 F 
ATOM     45  C   UNL A   1      40.849  25.781  26.673  1.00  0.00     0.022 A 
BRANCH  42  46
ATOM     46  S   UNL A   1      42.910  27.102  25.339  1.00  0.00     0.124 S 
ATOM     47  O   UNL A   1      42.274  28.209  24.627  1.00  0.00    -0.237 OA
ATOM     48  O   UNL A   1      44.157  27.416  26.025  1.00  0.00    -0.237 OA
ATOM     49  O   UNL A   1      42.892  25.824  24.629  1.00  0.00    -0.744 OA
ENDBRANCH  42  46
ENDBRANCH  25  39
BRANCH  26  50
ATOM     50  C   UNL A   1      39.863  33.606  36.818  1.00  0.00     0.023 A 
ATOM     51  C   UNL A   1      39.203  33.061  37.930  1.00  0.00     0.031 A 
ATOM     52  C   UNL A   1      40.265  34.952  36.886  1.00  0.00     0.131 A 
ATOM     53  C   UNL A   1      38.913  33.875  39.036  1.00  0.00     0.055 A 
ATOM     54  C   UNL A   1      40.037  35.737  38.016  1.00  0.00     0.041 A 
ATOM     55  F   UNL A   1      40.898  35.527  35.850  1.00  0.00    -0.206 F 
ATOM     56  C   UNL A   1      39.340  35.204  39.094  1.00  0.00     0.022 A 
BRANCH  53  57
ATOM     57  S   UNL A   1      37.853  33.204  40.346  1.00  0.00     0.124 S 
ATOM     58  O   UNL A   1      38.562  31.980  40.702  1.00  0.00    -0.237 OA
ATOM     59  O   UNL A   1      37.885  34.275  41.336  1.00  0.00    -0.237 OA
ATOM     60  O   UNL A   1      36.569  33.010  39.677  1.00  0.00    -0.744 OA
ENDBRANCH  53  57
ENDBRANCH  26  50
BRANCH  38  61
ATOM     61  C   UNL A   1      44.075  28.300  35.183  1.00  0.00     0.023 A 
ATOM     62  C   UNL A   1      43.809  27.130  35.914  1.00  0.00     0.031 A 
ATOM     63  C   UNL A   1      45.386  28.808  35.198  1.00  0.00     0.131 A 
ATOM     64  C   UNL A   1      44.828  26.533  36.670  1.00  0.00     0.055 A 
ATOM     65  C   UNL A   1      46.410  28.174  35.903  1.00  0.00     0.041 A 
ATOM     66  F   UNL A   1      45.693  29.926  34.522  1.00  0.00    -0.206 F 
ATOM     67  C   UNL A   1      46.131  27.036  36.654  1.00  0.00     0.022 A 
BRANCH  64  68
ATOM     68  S   UNL A   1      44.409  25.129  37.739  1.00  0.00     0.124 S 
ATOM     69  O   UNL A   1      43.021  24.872  37.371  1.00  0.00    -0.237 OA
ATOM     70  O   UNL A   1      45.377  24.118  37.323  1.00  0.00    -0.237 OA
ATOM     71  O   UNL A   1      44.607  25.655  39.089  1.00  0.00    -0.744 OA
ENDBRANCH  64  68
ENDBRANCH  38  61
ENDBRANCH  12  13
ENDBRANCH   5   7
ENDBRANCH   2   3
ENDBRANCH   1   2
BRANCH   1  72
ATOM     72  C   UNL A   1      31.087  31.337  25.832  1.00  0.00     0.002 C 
BRANCH  72  73
ATOM     73  C   UNL A   1      31.400  29.992  25.168  1.00  0.00     0.002 C 
BRANCH  73  74
ATOM     74  C   UNL A   1      32.212  29.010  26.022  1.00  0.00     0.021 C 
BRANCH  74  75
ATOM     75  C   UNL A   1      32.829  27.849  25.247  1.00  0.00     0.116 C 
BRANCH  75  76
ATOM     76  N   UNL A   1      31.849  27.197  24.397  1.00  0.00    -0.356 N 
ATOM     77  C   UNL A   1      31.319  25.945  24.479  1.00  0.00     0.225 C 
ATOM     78  H   UNL A   1      31.516  27.744  23.649  1.00  0.00     0.163 HD
ATOM     79  O   UNL A   1      30.417  25.646  23.697  1.00  0.00    -0.275 OA
BRANCH  77  80
ATOM     80  C   UNL A   1      31.845  24.986  25.530  1.00  0.00     0.106 C 
ATOM     81  C   UNL A   1      30.765  24.025  26.004  1.00  0.00     0.026 C 
ATOM     82  C   UNL A   1      33.082  24.173  25.098  1.00  0.00     0.128 C 
ATOM     83  C   UNL A   1      31.266  23.319  27.244  1.00  0.00     0.101 C 
ATOM     84  N   UNL A   1      33.561  23.320  26.222  1.00  0.00    -0.332 N 
ATOM     85  C   UNL A   1      32.702  22.826  27.203  1.00  0.00     0.223 C 
ATOM     86  O   UNL A   1      33.072  22.058  28.094  1.00  0.00    -0.275 OA
BRANCH  82  87
ATOM     87  C   UNL A   1      32.909  23.381  23.796  1.00  0.00    -0.025 A 
ATOM     88  C   UNL A   1      33.478  23.792  22.580  1.00  0.00     0.006 A 
ATOM     89  C   UNL A   1      32.152  22.196  23.794  1.00  0.00     0.006 A 
ATOM     90  C   UNL A   1      33.268  23.071  21.402  1.00  0.00     0.000 A 
ATOM     91  C   UNL A   1      31.972  21.455  22.622  1.00  0.00     0.000 A 
ATOM     92  C   UNL A   1      32.519  21.899  21.424  1.00  0.00     0.000 A 
ENDBRANCH  82  87
BRANCH  84  93
ATOM     93  C   UNL A   1      35.001  22.943  26.243  1.00  0.00     0.085 C 
ATOM     94  C   UNL A   1      35.241  21.612  25.502  1.00  0.00     0.025 C 
ATOM     95  C   UNL A   1      35.933  24.071  25.749  1.00  0.00     0.025 C 
ATOM     96  C   UNL A   1      36.720  21.241  25.423  1.00  0.00     0.002 C 
ATOM     97  C   UNL A   1      37.393  23.643  25.654  1.00  0.00     0.002 C 
ATOM     98  C   UNL A   1      37.549  22.373  24.829  1.00  0.00     0.000 C 
ENDBRANCH  84  93
ENDBRANCH  77  80
ENDBRANCH  75  76
ENDBRANCH  74  75
ENDBRANCH  73  74
ENDBRANCH  72  73
ENDBRANCH   1  72
TORSDOF 18
ENDMDL
MODEL 3
REMARK VINA RESULT:     -11.6      2.148      3.174
REMARK SMILES O=C(NCCCCCCNC(=O)[C@H]1CCC(=O)N(C2CCCCC2)[C@H]1c1ccccc1)c1ccc(-c2c3nc(c(-c4cc(S(=O)(=O)[O-])ccc4F)c4ccc([nH]4)c(-c4cc(S(=O)(=O)[O-])ccc4F)c4nc(c(-c5cc(S(=O)(=O)[O-])ccc5F)c5ccc2[nH]5)C=C4)C=C3)cc1
REMARK SMILES IDX 5 1 4 2 3 3 1 4 2 5 32 7 33 8 94 9 34 10 93 11 35 12 36 13
REMARK SMILES IDX 37 14 87 15 38 16 92 17 86 18 88 19 39 20 91 21 85 22 84 23
REMARK SMILES IDX 40 25 72 26 52 27 71 28 53 29 56 30 70 31 89 32 54 33 55 34
REMARK SMILES IDX 69 36 90 37 57 38 41 39 42 40 50 41 43 42 49 43 51 44 48 45
REMARK SMILES IDX 44 46 45 47 46 48 47 49 73 50 74 51 82 52 75 53 81 54 83 55
REMARK SMILES IDX 80 56 76 57 77 58 78 59 79 60 58 61 59 62 67 63 60 64 66 65
REMARK SMILES IDX 68 66 65 67 61 68 62 69 63 70 64 71 6 72 7 73 8 74 9 75
REMARK SMILES IDX 10 76 11 77 12 79 13 80 14 81 25 82 15 83 18 84 16 85 17 86
REMARK SMILES IDX 26 87 27 88 31 89 28 90 30 91 29 92 19 93 20 94 24 95 21 96
REMARK SMILES IDX 23 97 22 98
REMARK H PARENT 3 6 88 24 56 35 10 78
REMARK Flexibility Score: inf
ROOT
ATOM      1  C   UNL A   1      38.185  19.275  25.091  1.00  0.00     0.021 C 
ENDROOT
BRANCH   1   2
ATOM      2  C   UNL A   1      39.250  20.016  25.886  1.00  0.00     0.116 C 
BRANCH   2   3
ATOM      3  N   UNL A   1      40.423  19.192  26.128  1.00  0.00    -0.352 N 
ATOM      4  O   UNL A   1      42.626  18.779  26.376  1.00  0.00    -0.269 OA
ATOM      5  C   UNL A   1      41.708  19.596  26.389  1.00  0.00     0.251 C 
ATOM      6  H   UNL A   1      40.275  18.218  26.102  1.00  0.00     0.163 HD
BRANCH   5   7
ATOM      7  C   UNL A   1      41.975  21.021  26.677  1.00  0.00     0.039 A 
ATOM      8  C   UNL A   1      42.205  21.441  27.991  1.00  0.00     0.014 A 
ATOM      9  C   UNL A   1      42.016  21.939  25.625  1.00  0.00     0.014 A 
ATOM     10  C   UNL A   1      42.380  22.793  28.265  1.00  0.00     0.010 A 
ATOM     11  C   UNL A   1      42.273  23.286  25.894  1.00  0.00     0.010 A 
ATOM     12  C   UNL A   1      42.456  23.722  27.216  1.00  0.00    -0.014 A 
BRANCH  12  13
ATOM     13  C   UNL A   1      42.873  25.115  27.510  1.00  0.00     0.031 A 
ATOM     14  C   UNL A   1      41.927  26.101  28.133  1.00  0.00     0.074 A 
ATOM     15  C   UNL A   1      44.129  25.479  27.179  1.00  0.00     0.049 A 
ATOM     16  N   UNL A   1      42.123  27.365  28.404  1.00  0.00    -0.248 NA
ATOM     17  C   UNL A   1      40.589  25.610  28.494  1.00  0.00     0.031 C 
ATOM     18  C   UNL A   1      45.123  24.594  26.562  1.00  0.00     0.029 A 
ATOM     19  N   UNL A   1      44.788  26.674  27.306  1.00  0.00    -0.354 N 
ATOM     20  C   UNL A   1      40.931  27.831  28.945  1.00  0.00     0.074 A 
ATOM     21  C   UNL A   1      40.011  26.713  28.956  1.00  0.00     0.031 C 
ATOM     22  C   UNL A   1      46.265  25.271  26.381  1.00  0.00     0.029 A 
ATOM     23  C   UNL A   1      46.064  26.654  26.789  1.00  0.00     0.049 A 
ATOM     24  H   UNL A   1      44.389  27.470  27.726  1.00  0.00     0.167 HD
ATOM     25  C   UNL A   1      40.642  29.080  29.386  1.00  0.00     0.034 A 
ATOM     26  C   UNL A   1      46.956  27.648  26.613  1.00  0.00     0.034 A 
ATOM     27  C   UNL A   1      41.584  30.174  29.371  1.00  0.00     0.049 A 
ATOM     28  C   UNL A   1      46.578  29.035  27.057  1.00  0.00     0.074 A 
ATOM     29  C   UNL A   1      41.422  31.454  29.873  1.00  0.00     0.029 A 
ATOM     30  N   UNL A   1      42.851  30.130  28.803  1.00  0.00    -0.354 N 
ATOM     31  N   UNL A   1      45.470  29.441  27.634  1.00  0.00    -0.248 NA
ATOM     32  C   UNL A   1      47.563  30.098  26.825  1.00  0.00     0.031 C 
ATOM     33  C   UNL A   1      42.549  32.206  29.531  1.00  0.00     0.029 A 
ATOM     34  C   UNL A   1      43.454  31.376  28.888  1.00  0.00     0.049 A 
ATOM     35  H   UNL A   1      43.260  29.331  28.399  1.00  0.00     0.167 HD
ATOM     36  C   UNL A   1      45.633  30.806  27.845  1.00  0.00     0.074 A 
ATOM     37  C   UNL A   1      46.955  31.146  27.362  1.00  0.00     0.031 C 
ATOM     38  C   UNL A   1      44.767  31.701  28.382  1.00  0.00     0.034 A 
BRANCH  25  39
ATOM     39  C   UNL A   1      39.242  29.361  29.873  1.00  0.00     0.023 A 
ATOM     40  C   UNL A   1      38.276  29.978  29.062  1.00  0.00     0.031 A 
ATOM     41  C   UNL A   1      38.858  28.953  31.164  1.00  0.00     0.131 A 
ATOM     42  C   UNL A   1      36.981  30.198  29.561  1.00  0.00     0.055 A 
ATOM     43  C   UNL A   1      37.553  29.118  31.632  1.00  0.00     0.041 A 
ATOM     44  F   UNL A   1      39.745  28.376  31.989  1.00  0.00    -0.206 F 
ATOM     45  C   UNL A   1      36.607  29.750  30.830  1.00  0.00     0.022 A 
BRANCH  42  46
ATOM     46  S   UNL A   1      35.813  31.159  28.560  1.00  0.00     0.124 S 
ATOM     47  O   UNL A   1      36.668  32.229  28.051  1.00  0.00    -0.237 OA
ATOM     48  O   UNL A   1      35.361  30.181  27.577  1.00  0.00    -0.237 OA
ATOM     49  O   UNL A   1      34.802  31.586  29.526  1.00  0.00    -0.744 OA
ENDBRANCH  42  46
ENDBRANCH  25  39
BRANCH  26  50
ATOM     50  C   UNL A   1      48.251  27.389  25.920  1.00  0.00     0.023 A 
ATOM     51  C   UNL A   1      48.380  27.564  24.534  1.00  0.00     0.031 A 
ATOM     52  C   UNL A   1      49.365  26.899  26.628  1.00  0.00     0.131 A 
ATOM     53  C   UNL A   1      49.573  27.197  23.893  1.00  0.00     0.055 A 
ATOM     54  C   UNL A   1      50.572  26.604  25.995  1.00  0.00     0.041 A 
ATOM     55  F   UNL A   1      49.298  26.709  27.956  1.00  0.00    -0.206 F 
ATOM     56  C   UNL A   1      50.675  26.734  24.615  1.00  0.00     0.022 A 
BRANCH  53  57
ATOM     57  S   UNL A   1      49.617  27.212  22.080  1.00  0.00     0.124 S 
ATOM     58  O   UNL A   1      51.018  26.900  21.816  1.00  0.00    -0.237 OA
ATOM     59  O   UNL A   1      48.653  26.169  21.747  1.00  0.00    -0.237 OA
ATOM     60  O   UNL A   1      49.207  28.573  21.742  1.00  0.00    -0.744 OA
ENDBRANCH  53  57
ENDBRANCH  26  50
BRANCH  38  61
ATOM     61  C   UNL A   1      45.241  33.127  28.487  1.00  0.00     0.023 A 
ATOM     62  C   UNL A   1      45.979  33.573  29.597  1.00  0.00     0.031 A 
ATOM     63  C   UNL A   1      44.947  34.051  27.470  1.00  0.00     0.131 A 
ATOM     64  C   UNL A   1      46.357  34.920  29.687  1.00  0.00     0.055 A 
ATOM     65  C   UNL A   1      45.379  35.376  27.537  1.00  0.00     0.041 A 
ATOM     66  F   UNL A   1      44.240  33.679  26.391  1.00  0.00    -0.206 F 
ATOM     67  C   UNL A   1      46.079  35.820  28.656  1.00  0.00     0.022 A 
BRANCH  64  68
ATOM     68  S   UNL A   1      47.153  35.500  31.210  1.00  0.00     0.124 S 
ATOM     69  O   UNL A   1      48.241  34.541  31.367  1.00  0.00    -0.237 OA
ATOM     70  O   UNL A   1      47.547  36.861  30.859  1.00  0.00    -0.237 OA
ATOM     71  O   UNL A   1      46.091  35.403  32.210  1.00  0.00    -0.744 OA
ENDBRANCH  64  68
ENDBRANCH  38  61
ENDBRANCH  12  13
ENDBRANCH   5   7
ENDBRANCH   2   3
ENDBRANCH   1   2
BRANCH   1  72
ATOM     72  C   UNL A   1      37.017  20.146  24.628  1.00  0.00     0.002 C 
BRANCH  72  73
ATOM     73  C   UNL A   1      35.624  19.591  24.941  1.00  0.00     0.002 C 
BRANCH  73  74
ATOM     74  C   UNL A   1      34.653  20.582  25.596  1.00  0.00     0.021 C 
BRANCH  74  75
ATOM     75  C   UNL A   1      33.175  20.267  25.376  1.00  0.00     0.116 C 
BRANCH  75  76
ATOM     76  N   UNL A   1      32.803  20.411  23.981  1.00  0.00    -0.356 N 
ATOM     77  C   UNL A   1      32.152  21.429  23.353  1.00  0.00     0.225 C 
ATOM     78  H   UNL A   1      33.061  19.659  23.401  1.00  0.00     0.163 HD
ATOM     79  O   UNL A   1      32.037  21.374  22.129  1.00  0.00    -0.275 OA
BRANCH  77  80
ATOM     80  C   UNL A   1      31.616  22.585  24.177  1.00  0.00     0.106 C 
ATOM     81  C   UNL A   1      31.577  22.247  25.659  1.00  0.00     0.026 C 
ATOM     82  C   UNL A   1      32.372  23.915  23.987  1.00  0.00     0.128 C 
ATOM     83  C   UNL A   1      30.762  23.306  26.368  1.00  0.00     0.101 C 
ATOM     84  N   UNL A   1      31.726  24.998  24.780  1.00  0.00    -0.332 N 
ATOM     85  C   UNL A   1      31.033  24.745  25.964  1.00  0.00     0.223 C 
ATOM     86  O   UNL A   1      30.558  25.638  26.668  1.00  0.00    -0.275 OA
BRANCH  82  87
ATOM     87  C   UNL A   1      33.884  23.836  24.231  1.00  0.00    -0.025 A 
ATOM     88  C   UNL A   1      34.792  23.447  23.233  1.00  0.00     0.006 A 
ATOM     89  C   UNL A   1      34.406  24.157  25.498  1.00  0.00     0.006 A 
ATOM     90  C   UNL A   1      36.160  23.345  23.499  1.00  0.00     0.000 A 
ATOM     91  C   UNL A   1      35.779  24.091  25.752  1.00  0.00     0.000 A 
ATOM     92  C   UNL A   1      36.654  23.672  24.757  1.00  0.00     0.000 A 
ENDBRANCH  82  87
BRANCH  84  93
ATOM     93  C   UNL A   1      31.890  26.399  24.306  1.00  0.00     0.085 C 
ATOM     94  C   UNL A   1      30.527  27.037  23.968  1.00  0.00     0.025 C 
ATOM     95  C   UNL A   1      32.731  27.272  25.261  1.00  0.00     0.025 C 
ATOM     96  C   UNL A   1      30.647  28.505  23.566  1.00  0.00     0.002 C 
ATOM     97  C   UNL A   1      32.794  28.735  24.837  1.00  0.00     0.002 C 
ATOM     98  C   UNL A   1      31.403  29.312  24.615  1.00  0.00     0.000 C 
ENDBRANCH  84  93
ENDBRANCH  77  80
ENDBRANCH  75  76
ENDBRANCH  74  75
ENDBRANCH  73  74
ENDBRANCH  72  73
ENDBRANCH   1  72
TORSDOF 18
ENDMDL
