MODEL 1
REMARK VINA RESULT:     -13.0      0.000      0.000
REMARK SMILES CCc1nn2c(C)c(CCC(=O)NCCCCCCNC(=O)c3ccc(-c4c5nc(c(-c6cc(S(=O)(=O)[O-])ccc6F)c6ccc([nH]6)c(-c6cc(S(=O)(=O)[O-])ccc6F)c6nc(c(-c7cc(S(=O)(=O)[O-])ccc7F)c7ccc4[nH]7)C=C6)C=C5)cc3)c(C)nc2c1-c1ccccc1
REMARK SMILES IDX 16 1 15 2 14 3 13 4 11 5 12 6 10 8 9 9 8 10 3 11 4 12 90 13
REMARK SMILES IDX 5 14 89 15 6 16 88 17 7 18 86 19 87 20 2 21 1 22 91 23 92 24
REMARK SMILES IDX 96 25 93 26 95 27 94 28 17 29 18 30 19 31 20 32 21 33 22 35
REMARK SMILES IDX 23 36 24 37 85 38 25 39 84 40 26 41 27 42 28 43 78 44 29 45
REMARK SMILES IDX 83 46 77 47 79 48 30 49 82 50 76 51 75 52 31 54 63 55 43 56
REMARK SMILES IDX 62 57 44 58 47 59 61 60 80 61 45 62 46 63 60 65 81 66 48 67
REMARK SMILES IDX 32 68 33 69 41 70 34 71 40 72 42 73 39 74 35 75 36 76 37 77
REMARK SMILES IDX 38 78 64 79 65 80 73 81 66 82 72 83 74 84 71 85 67 86 68 87
REMARK SMILES IDX 69 88 70 89 49 90 50 91 58 92 51 93 57 94 59 95 56 96 52 97
REMARK SMILES IDX 53 98 54 99 55 100
REMARK H PARENT 13 7 20 34 79 53 47 64
REMARK Flexibility Score: inf
ROOT
ATOM      1  C   UNL A   1      32.064  30.415  26.198  1.00  0.00     0.002 C 
ENDROOT
BRANCH   1   2
ATOM      2  C   UNL A   1      31.094  30.200  25.026  1.00  0.00     0.021 C 
BRANCH   2   3
ATOM      3  C   UNL A   1      31.263  28.928  24.192  1.00  0.00     0.116 C 
BRANCH   3   4
ATOM      4  N   UNL A   1      30.428  27.824  24.634  1.00  0.00    -0.356 N 
ATOM      5  C   UNL A   1      30.711  26.545  24.994  1.00  0.00     0.220 C 
ATOM      6  O   UNL A   1      29.770  25.831  25.351  1.00  0.00    -0.275 OA
ATOM      7  H   UNL A   1      29.470  28.046  24.681  1.00  0.00     0.163 HD
BRANCH   5   8
ATOM      8  C   UNL A   1      32.123  25.989  24.976  1.00  0.00     0.105 C 
BRANCH   8   9
ATOM      9  C   UNL A   1      32.345  24.953  26.096  1.00  0.00     0.049 C 
BRANCH   9  10
ATOM     10  C   UNL A   1      32.736  23.621  25.506  1.00  0.00    -0.005 A 
ATOM     11  C   UNL A   1      35.542  20.187  24.882  1.00  0.00     0.073 A 
ATOM     12  N   UNL A   1      35.661  21.518  24.767  1.00  0.00    -0.171 NA
ATOM     13  C   UNL A   1      34.195  19.801  25.038  1.00  0.00     0.050 A 
ATOM     14  N   UNL A   1      34.381  22.002  24.911  1.00  0.00    -0.219 N 
ATOM     15  C   UNL A   1      33.483  20.966  25.181  1.00  0.00     0.163 A 
ATOM     16  C   UNL A   1      33.955  23.352  24.978  1.00  0.00     0.046 A 
ATOM     17  N   UNL A   1      32.166  21.195  25.441  1.00  0.00    -0.233 NA
ATOM     18  C   UNL A   1      34.922  24.433  24.577  1.00  0.00     0.067 C 
ATOM     19  C   UNL A   1      31.804  22.432  25.597  1.00  0.00     0.045 A 
ATOM     20  C   UNL A   1      30.313  22.644  25.760  1.00  0.00     0.067 C 
BRANCH  11  21
ATOM     21  C   UNL A   1      36.689  19.241  24.702  1.00  0.00     0.055 C 
ATOM     22  C   UNL A   1      38.067  19.794  25.033  1.00  0.00     0.011 C 
ENDBRANCH  11  21
BRANCH  13  23
ATOM     23  C   UNL A   1      33.637  18.489  24.815  1.00  0.00    -0.013 A 
ATOM     24  C   UNL A   1      32.830  17.877  25.778  1.00  0.00     0.009 A 
ATOM     25  C   UNL A   1      34.158  17.738  23.755  1.00  0.00     0.009 A 
ATOM     26  C   UNL A   1      32.593  16.504  25.706  1.00  0.00     0.001 A 
ATOM     27  C   UNL A   1      33.909  16.373  23.681  1.00  0.00     0.001 A 
ATOM     28  C   UNL A   1      33.146  15.752  24.667  1.00  0.00     0.000 A 
ENDBRANCH  13  23
ENDBRANCH   9  10
ENDBRANCH   8   9
ENDBRANCH   5   8
ENDBRANCH   3   4
ENDBRANCH   2   3
ENDBRANCH   1   2
BRANCH   1  29
ATOM     29  C   UNL A   1      32.083  29.280  27.228  1.00  0.00     0.002 C 
BRANCH  29  30
ATOM     30  C   UNL A   1      33.339  28.406  27.267  1.00  0.00     0.021 C 
BRANCH  30  31
ATOM     31  C   UNL A   1      34.684  29.134  27.118  1.00  0.00     0.116 C 
BRANCH  31  32
ATOM     32  N   UNL A   1      34.926  30.016  28.263  1.00  0.00    -0.352 N 
ATOM     33  C   UNL A   1      35.973  30.210  29.134  1.00  0.00     0.251 C 
ATOM     34  H   UNL A   1      34.161  30.605  28.453  1.00  0.00     0.163 HD
ATOM     35  O   UNL A   1      35.746  30.899  30.131  1.00  0.00    -0.269 OA
BRANCH  33  36
ATOM     36  C   UNL A   1      37.329  29.628  28.955  1.00  0.00     0.039 A 
ATOM     37  C   UNL A   1      37.842  28.782  29.959  1.00  0.00     0.014 A 
ATOM     38  C   UNL A   1      38.120  29.896  27.843  1.00  0.00     0.014 A 
ATOM     39  C   UNL A   1      39.115  28.210  29.840  1.00  0.00     0.010 A 
ATOM     40  C   UNL A   1      39.326  29.224  27.669  1.00  0.00     0.010 A 
ATOM     41  C   UNL A   1      39.875  28.439  28.691  1.00  0.00    -0.014 A 
BRANCH  41  42
ATOM     42  C   UNL A   1      41.244  27.896  28.556  1.00  0.00     0.031 A 
ATOM     43  C   UNL A   1      41.438  26.543  27.930  1.00  0.00     0.074 A 
ATOM     44  C   UNL A   1      42.327  28.676  28.796  1.00  0.00     0.049 A 
ATOM     45  N   UNL A   1      42.186  25.562  28.336  1.00  0.00    -0.248 NA
ATOM     46  C   UNL A   1      40.709  26.237  26.688  1.00  0.00     0.031 C 
ATOM     47  C   UNL A   1      42.338  30.090  29.196  1.00  0.00     0.029 A 
ATOM     48  N   UNL A   1      43.654  28.417  28.595  1.00  0.00    -0.354 N 
ATOM     49  C   UNL A   1      42.170  24.594  27.329  1.00  0.00     0.074 A 
ATOM     50  C   UNL A   1      41.179  25.027  26.379  1.00  0.00     0.031 C 
ATOM     51  C   UNL A   1      43.547  30.626  28.941  1.00  0.00     0.029 A 
ATOM     52  C   UNL A   1      44.447  29.562  28.542  1.00  0.00     0.049 A 
ATOM     53  H   UNL A   1      44.016  27.507  28.496  1.00  0.00     0.167 HD
ATOM     54  C   UNL A   1      43.077  23.577  27.256  1.00  0.00     0.034 A 
ATOM     55  C   UNL A   1      45.750  29.660  28.184  1.00  0.00     0.034 A 
ATOM     56  C   UNL A   1      43.698  23.317  28.524  1.00  0.00     0.049 A 
ATOM     57  C   UNL A   1      46.349  28.327  28.395  1.00  0.00     0.074 A 
ATOM     58  C   UNL A   1      43.240  22.925  29.766  1.00  0.00     0.029 A 
ATOM     59  N   UNL A   1      44.977  23.768  28.730  1.00  0.00    -0.354 N 
ATOM     60  N   UNL A   1      46.456  27.757  29.562  1.00  0.00    -0.248 NA
ATOM     61  C   UNL A   1      46.495  27.442  27.253  1.00  0.00     0.031 C 
ATOM     62  C   UNL A   1      44.049  23.642  30.694  1.00  0.00     0.029 A 
ATOM     63  C   UNL A   1      44.984  24.376  29.961  1.00  0.00     0.049 A 
ATOM     64  H   UNL A   1      45.740  23.674  28.116  1.00  0.00     0.167 HD
ATOM     65  C   UNL A   1      46.253  26.411  29.319  1.00  0.00     0.074 A 
ATOM     66  C   UNL A   1      46.416  26.263  27.874  1.00  0.00     0.031 C 
ATOM     67  C   UNL A   1      45.707  25.595  30.265  1.00  0.00     0.034 A 
BRANCH  54  68
ATOM     68  C   UNL A   1      43.607  22.980  25.971  1.00  0.00     0.023 A 
ATOM     69  C   UNL A   1      43.644  21.577  25.815  1.00  0.00     0.031 A 
ATOM     70  C   UNL A   1      44.337  23.726  25.020  1.00  0.00     0.131 A 
ATOM     71  C   UNL A   1      44.399  20.984  24.782  1.00  0.00     0.055 A 
ATOM     72  C   UNL A   1      45.036  23.136  23.962  1.00  0.00     0.041 A 
ATOM     73  F   UNL A   1      44.489  25.052  25.129  1.00  0.00    -0.206 F 
ATOM     74  C   UNL A   1      45.086  21.757  23.848  1.00  0.00     0.022 A 
BRANCH  71  75
ATOM     75  S   UNL A   1      44.600  19.178  24.756  1.00  0.00     0.124 S 
ATOM     76  O   UNL A   1      45.618  18.974  25.781  1.00  0.00    -0.237 OA
ATOM     77  O   UNL A   1      43.254  18.718  25.083  1.00  0.00    -0.237 OA
ATOM     78  O   UNL A   1      45.033  18.903  23.387  1.00  0.00    -0.744 OA
ENDBRANCH  71  75
ENDBRANCH  54  68
BRANCH  55  79
ATOM     79  C   UNL A   1      46.433  30.767  27.467  1.00  0.00     0.023 A 
ATOM     80  C   UNL A   1      45.709  31.831  26.892  1.00  0.00     0.031 A 
ATOM     81  C   UNL A   1      47.834  30.930  27.555  1.00  0.00     0.131 A 
ATOM     82  C   UNL A   1      46.377  32.994  26.452  1.00  0.00     0.055 A 
ATOM     83  C   UNL A   1      48.493  32.076  27.104  1.00  0.00     0.041 A 
ATOM     84  F   UNL A   1      48.605  30.016  28.168  1.00  0.00    -0.206 F 
ATOM     85  C   UNL A   1      47.764  33.122  26.562  1.00  0.00     0.022 A 
BRANCH  82  86
ATOM     86  S   UNL A   1      45.428  34.429  25.858  1.00  0.00     0.124 S 
ATOM     87  O   UNL A   1      45.468  34.246  24.414  1.00  0.00    -0.237 OA
ATOM     88  O   UNL A   1      44.129  34.240  26.500  1.00  0.00    -0.237 OA
ATOM     89  O   UNL A   1      46.194  35.569  26.361  1.00  0.00    -0.744 OA
ENDBRANCH  82  86
ENDBRANCH  55  79
BRANCH  67  90
ATOM     90  C   UNL A   1      45.624  26.091  31.694  1.00  0.00     0.023 A 
ATOM     91  C   UNL A   1      44.453  26.591  32.308  1.00  0.00     0.031 A 
ATOM     92  C   UNL A   1      46.756  25.895  32.505  1.00  0.00     0.131 A 
ATOM     93  C   UNL A   1      44.450  26.878  33.689  1.00  0.00     0.055 A 
ATOM     94  C   UNL A   1      46.742  26.158  33.874  1.00  0.00     0.041 A 
ATOM     95  F   UNL A   1      47.887  25.391  31.984  1.00  0.00    -0.206 F 
ATOM     96  C   UNL A   1      45.589  26.653  34.471  1.00  0.00     0.022 A 
BRANCH  93  97
ATOM     97  S   UNL A   1      42.953  27.530  34.499  1.00  0.00     0.124 S 
ATOM     98  O   UNL A   1      42.321  26.338  35.051  1.00  0.00    -0.237 OA
ATOM     99  O   UNL A   1      43.497  28.477  35.468  1.00  0.00    -0.237 OA
ATOM    100  O   UNL A   1      42.213  28.154  33.398  1.00  0.00    -0.744 OA
ENDBRANCH  93  97
ENDBRANCH  67  90
ENDBRANCH  41  42
ENDBRANCH  33  36
ENDBRANCH  31  32
ENDBRANCH  30  31
ENDBRANCH  29  30
ENDBRANCH   1  29
TORSDOF 20
ENDMDL
MODEL 2
REMARK VINA RESULT:     -12.7      2.176      6.650
REMARK SMILES CCc1nn2c(C)c(CCC(=O)NCCCCCCNC(=O)c3ccc(-c4c5nc(c(-c6cc(S(=O)(=O)[O-])ccc6F)c6ccc([nH]6)c(-c6cc(S(=O)(=O)[O-])ccc6F)c6nc(c(-c7cc(S(=O)(=O)[O-])ccc7F)c7ccc4[nH]7)C=C6)C=C5)cc3)c(C)nc2c1-c1ccccc1
REMARK SMILES IDX 16 1 15 2 14 3 13 4 11 5 12 6 10 8 9 9 8 10 3 11 4 12 90 13
REMARK SMILES IDX 5 14 89 15 6 16 88 17 7 18 86 19 87 20 2 21 1 22 91 23 92 24
REMARK SMILES IDX 96 25 93 26 95 27 94 28 17 29 18 30 19 31 20 32 21 33 22 35
REMARK SMILES IDX 23 36 24 37 85 38 25 39 84 40 26 41 27 42 28 43 78 44 29 45
REMARK SMILES IDX 83 46 77 47 79 48 30 49 82 50 76 51 75 52 31 54 63 55 43 56
REMARK SMILES IDX 62 57 44 58 47 59 61 60 80 61 45 62 46 63 60 65 81 66 48 67
REMARK SMILES IDX 32 68 33 69 41 70 34 71 40 72 42 73 39 74 35 75 36 76 37 77
REMARK SMILES IDX 38 78 64 79 65 80 73 81 66 82 72 83 74 84 71 85 67 86 68 87
REMARK SMILES IDX 69 88 70 89 49 90 50 91 58 92 51 93 57 94 59 95 56 96 52 97
REMARK SMILES IDX 53 98 54 99 55 100
REMARK H PARENT 13 7 20 34 79 53 47 64
REMARK Flexibility Score: inf
ROOT
ATOM      1  C   UNL A   1      30.925  29.762  24.597  1.00  0.00     0.002 C 
ENDROOT
BRANCH   1   2
ATOM      2  C   UNL A   1      30.725  29.098  23.227  1.00  0.00     0.021 C 
BRANCH   2   3
ATOM      3  C   UNL A   1      30.361  27.612  23.207  1.00  0.00     0.116 C 
BRANCH   3   4
ATOM      4  N   UNL A   1      29.983  27.085  24.507  1.00  0.00    -0.356 N 
ATOM      5  C   UNL A   1      30.668  26.388  25.451  1.00  0.00     0.220 C 
ATOM      6  O   UNL A   1      30.069  26.090  26.488  1.00  0.00    -0.275 OA
ATOM      7  H   UNL A   1      29.046  27.267  24.751  1.00  0.00     0.163 HD
BRANCH   5   8
ATOM      8  C   UNL A   1      32.120  25.985  25.270  1.00  0.00     0.105 C 
BRANCH   8   9
ATOM      9  C   UNL A   1      32.573  24.978  26.346  1.00  0.00     0.049 C 
BRANCH   9  10
ATOM     10  C   UNL A   1      32.933  23.660  25.709  1.00  0.00    -0.005 A 
ATOM     11  C   UNL A   1      35.643  20.169  24.986  1.00  0.00     0.073 A 
ATOM     12  N   UNL A   1      35.804  21.499  24.926  1.00  0.00    -0.171 NA
ATOM     13  C   UNL A   1      34.283  19.818  25.109  1.00  0.00     0.050 A 
ATOM     14  N   UNL A   1      34.537  22.016  25.071  1.00  0.00    -0.219 N 
ATOM     15  C   UNL A   1      33.604  20.997  25.289  1.00  0.00     0.163 A 
ATOM     16  C   UNL A   1      34.150  23.374  25.186  1.00  0.00     0.046 A 
ATOM     17  N   UNL A   1      32.291  21.256  25.539  1.00  0.00    -0.233 NA
ATOM     18  C   UNL A   1      35.156  24.439  24.842  1.00  0.00     0.067 C 
ATOM     19  C   UNL A   1      31.964  22.497  25.739  1.00  0.00     0.045 A 
ATOM     20  C   UNL A   1      30.478  22.747  25.891  1.00  0.00     0.067 C 
BRANCH  11  21
ATOM     21  C   UNL A   1      36.764  19.196  24.785  1.00  0.00     0.055 C 
ATOM     22  C   UNL A   1      38.169  19.750  24.966  1.00  0.00     0.011 C 
ENDBRANCH  11  21
BRANCH  13  23
ATOM     23  C   UNL A   1      33.689  18.533  24.826  1.00  0.00    -0.013 A 
ATOM     24  C   UNL A   1      32.920  17.870  25.785  1.00  0.00     0.009 A 
ATOM     25  C   UNL A   1      34.142  17.849  23.692  1.00  0.00     0.009 A 
ATOM     26  C   UNL A   1      32.653  16.509  25.632  1.00  0.00     0.001 A 
ATOM     27  C   UNL A   1      33.863  16.496  23.539  1.00  0.00     0.001 A 
ATOM     28  C   UNL A   1      33.138  15.821  24.518  1.00  0.00     0.000 A 
ENDBRANCH  13  23
ENDBRANCH   9  10
ENDBRANCH   8   9
ENDBRANCH   5   8
ENDBRANCH   3   4
ENDBRANCH   2   3
ENDBRANCH   1   2
BRANCH   1  29
ATOM     29  C   UNL A   1      32.358  29.693  25.138  1.00  0.00     0.002 C 
BRANCH  29  30
ATOM     30  C   UNL A   1      32.521  29.678  26.660  1.00  0.00     0.021 C 
BRANCH  30  31
ATOM     31  C   UNL A   1      33.961  29.741  27.194  1.00  0.00     0.116 C 
BRANCH  31  32
ATOM     32  N   UNL A   1      34.412  31.131  27.300  1.00  0.00    -0.352 N 
ATOM     33  C   UNL A   1      35.531  31.752  27.805  1.00  0.00     0.251 C 
ATOM     34  H   UNL A   1      33.765  31.769  26.922  1.00  0.00     0.163 HD
ATOM     35  O   UNL A   1      35.482  32.978  27.923  1.00  0.00    -0.269 OA
BRANCH  33  36
ATOM     36  C   UNL A   1      36.764  31.037  28.231  1.00  0.00     0.039 A 
ATOM     37  C   UNL A   1      37.757  31.755  28.926  1.00  0.00     0.014 A 
ATOM     38  C   UNL A   1      36.984  29.691  27.958  1.00  0.00     0.014 A 
ATOM     39  C   UNL A   1      38.938  31.129  29.347  1.00  0.00     0.010 A 
ATOM     40  C   UNL A   1      38.095  29.046  28.490  1.00  0.00     0.010 A 
ATOM     41  C   UNL A   1      39.120  29.763  29.119  1.00  0.00    -0.014 A 
BRANCH  41  42
ATOM     42  C   UNL A   1      40.377  29.083  29.501  1.00  0.00     0.031 A 
ATOM     43  C   UNL A   1      40.744  28.984  30.955  1.00  0.00     0.074 A 
ATOM     44  C   UNL A   1      41.089  28.377  28.589  1.00  0.00     0.049 A 
ATOM     45  N   UNL A   1      41.892  29.212  31.519  1.00  0.00    -0.248 NA
ATOM     46  C   UNL A   1      39.703  28.575  31.912  1.00  0.00     0.031 C 
ATOM     47  C   UNL A   1      40.767  28.171  27.169  1.00  0.00     0.029 A 
ATOM     48  N   UNL A   1      42.179  27.570  28.762  1.00  0.00    -0.354 N 
ATOM     49  C   UNL A   1      41.777  28.809  32.852  1.00  0.00     0.074 A 
ATOM     50  C   UNL A   1      40.386  28.505  33.056  1.00  0.00     0.031 C 
ATOM     51  C   UNL A   1      41.449  27.110  26.697  1.00  0.00     0.029 A 
ATOM     52  C   UNL A   1      42.391  26.681  27.711  1.00  0.00     0.049 A 
ATOM     53  H   UNL A   1      42.759  27.614  29.556  1.00  0.00     0.167 HD
ATOM     54  C   UNL A   1      42.855  28.602  33.664  1.00  0.00     0.034 A 
ATOM     55  C   UNL A   1      43.263  25.644  27.656  1.00  0.00     0.034 A 
ATOM     56  C   UNL A   1      44.024  29.292  33.196  1.00  0.00     0.049 A 
ATOM     57  C   UNL A   1      44.328  25.934  28.637  1.00  0.00     0.074 A 
ATOM     58  C   UNL A   1      44.345  30.616  32.974  1.00  0.00     0.029 A 
ATOM     59  N   UNL A   1      45.000  28.566  32.561  1.00  0.00    -0.354 N 
ATOM     60  N   UNL A   1      45.143  26.947  28.542  1.00  0.00    -0.248 NA
ATOM     61  C   UNL A   1      44.257  25.312  29.946  1.00  0.00     0.031 C 
ATOM     62  C   UNL A   1      45.163  30.600  31.808  1.00  0.00     0.029 A 
ATOM     63  C   UNL A   1      45.336  29.267  31.430  1.00  0.00     0.049 A 
ATOM     64  H   UNL A   1      45.384  27.711  32.859  1.00  0.00     0.167 HD
ATOM     65  C   UNL A   1      45.353  27.355  29.847  1.00  0.00     0.074 A 
ATOM     66  C   UNL A   1      44.895  26.236  30.667  1.00  0.00     0.031 C 
ATOM     67  C   UNL A   1      45.624  28.657  30.147  1.00  0.00     0.034 A 
BRANCH  54  68
ATOM     68  C   UNL A   1      42.930  27.554  34.753  1.00  0.00     0.023 A 
ATOM     69  C   UNL A   1      43.696  26.386  34.546  1.00  0.00     0.031 A 
ATOM     70  C   UNL A   1      42.052  27.529  35.858  1.00  0.00     0.131 A 
ATOM     71  C   UNL A   1      43.549  25.266  35.391  1.00  0.00     0.055 A 
ATOM     72  C   UNL A   1      41.953  26.439  36.728  1.00  0.00     0.041 A 
ATOM     73  F   UNL A   1      41.179  28.519  36.089  1.00  0.00    -0.206 F 
ATOM     74  C   UNL A   1      42.689  25.291  36.488  1.00  0.00     0.022 A 
BRANCH  71  75
ATOM     75  S   UNL A   1      44.386  23.713  34.956  1.00  0.00     0.124 S 
ATOM     76  O   UNL A   1      43.336  22.729  35.197  1.00  0.00    -0.237 OA
ATOM     77  O   UNL A   1      44.747  23.942  33.562  1.00  0.00    -0.237 OA
ATOM     78  O   UNL A   1      45.512  23.660  35.888  1.00  0.00    -0.744 OA
ENDBRANCH  71  75
ENDBRANCH  54  68
BRANCH  55  79
ATOM     79  C   UNL A   1      43.101  24.333  26.977  1.00  0.00     0.023 A 
ATOM     80  C   UNL A   1      44.028  23.882  26.016  1.00  0.00     0.031 A 
ATOM     81  C   UNL A   1      42.167  23.384  27.451  1.00  0.00     0.131 A 
ATOM     82  C   UNL A   1      44.008  22.539  25.581  1.00  0.00     0.055 A 
ATOM     83  C   UNL A   1      42.142  22.060  27.006  1.00  0.00     0.041 A 
ATOM     84  F   UNL A   1      41.302  23.687  28.433  1.00  0.00    -0.206 F 
ATOM     85  C   UNL A   1      43.073  21.627  26.076  1.00  0.00     0.022 A 
BRANCH  82  86
ATOM     86  S   UNL A   1      45.302  21.917  24.461  1.00  0.00     0.124 S 
ATOM     87  O   UNL A   1      46.384  21.608  25.386  1.00  0.00    -0.237 OA
ATOM     88  O   UNL A   1      44.651  20.776  23.822  1.00  0.00    -0.237 OA
ATOM     89  O   UNL A   1      45.549  23.052  23.573  1.00  0.00    -0.744 OA
ENDBRANCH  82  86
ENDBRANCH  55  79
BRANCH  67  90
ATOM     90  C   UNL A   1      46.016  29.597  29.025  1.00  0.00     0.023 A 
ATOM     91  C   UNL A   1      45.112  30.402  28.294  1.00  0.00     0.031 A 
ATOM     92  C   UNL A   1      47.391  29.788  28.803  1.00  0.00     0.131 A 
ATOM     93  C   UNL A   1      45.603  31.356  27.379  1.00  0.00     0.055 A 
ATOM     94  C   UNL A   1      47.872  30.748  27.914  1.00  0.00     0.041 A 
ATOM     95  F   UNL A   1      48.297  29.075  29.492  1.00  0.00    -0.206 F 
ATOM     96  C   UNL A   1      46.979  31.535  27.196  1.00  0.00     0.022 A 
BRANCH  93  97
ATOM     97  S   UNL A   1      44.455  32.400  26.421  1.00  0.00     0.124 S 
ATOM     98  O   UNL A   1      43.895  33.295  27.427  1.00  0.00    -0.237 OA
ATOM     99  O   UNL A   1      45.332  33.016  25.429  1.00  0.00    -0.237 OA
ATOM    100  O   UNL A   1      43.500  31.438  25.866  1.00  0.00    -0.744 OA
ENDBRANCH  93  97
ENDBRANCH  67  90
ENDBRANCH  41  42
ENDBRANCH  33  36
ENDBRANCH  31  32
ENDBRANCH  30  31
ENDBRANCH  29  30
ENDBRANCH   1  29
TORSDOF 20
ENDMDL
MODEL 3
REMARK VINA RESULT:     -12.5      1.987      7.056
REMARK SMILES CCc1nn2c(C)c(CCC(=O)NCCCCCCNC(=O)c3ccc(-c4c5nc(c(-c6cc(S(=O)(=O)[O-])ccc6F)c6ccc([nH]6)c(-c6cc(S(=O)(=O)[O-])ccc6F)c6nc(c(-c7cc(S(=O)(=O)[O-])ccc7F)c7ccc4[nH]7)C=C6)C=C5)cc3)c(C)nc2c1-c1ccccc1
REMARK SMILES IDX 16 1 15 2 14 3 13 4 11 5 12 6 10 8 9 9 8 10 3 11 4 12 90 13
REMARK SMILES IDX 5 14 89 15 6 16 88 17 7 18 86 19 87 20 2 21 1 22 91 23 92 24
REMARK SMILES IDX 96 25 93 26 95 27 94 28 17 29 18 30 19 31 20 32 21 33 22 35
REMARK SMILES IDX 23 36 24 37 85 38 25 39 84 40 26 41 27 42 28 43 78 44 29 45
REMARK SMILES IDX 83 46 77 47 79 48 30 49 82 50 76 51 75 52 31 54 63 55 43 56
REMARK SMILES IDX 62 57 44 58 47 59 61 60 80 61 45 62 46 63 60 65 81 66 48 67
REMARK SMILES IDX 32 68 33 69 41 70 34 71 40 72 42 73 39 74 35 75 36 76 37 77
REMARK SMILES IDX 38 78 64 79 65 80 73 81 66 82 72 83 74 84 71 85 67 86 68 87
REMARK SMILES IDX 69 88 70 89 49 90 50 91 58 92 51 93 57 94 59 95 56 96 52 97
REMARK SMILES IDX 53 98 54 99 55 100
REMARK H PARENT 13 7 20 34 79 53 47 64
REMARK Flexibility Score: inf
ROOT
ATOM      1  C   UNL A   1      31.198  30.157  25.323  1.00  0.00     0.002 C 
ENDROOT
BRANCH   1   2
ATOM      2  C   UNL A   1      30.648  29.664  23.976  1.00  0.00     0.021 C 
BRANCH   2   3
ATOM      3  C   UNL A   1      30.654  28.156  23.718  1.00  0.00     0.116 C 
BRANCH   3   4
ATOM      4  N   UNL A   1      30.185  27.367  24.844  1.00  0.00    -0.356 N 
ATOM      5  C   UNL A   1      30.784  26.429  25.622  1.00  0.00     0.220 C 
ATOM      6  O   UNL A   1      30.120  25.938  26.539  1.00  0.00    -0.275 OA
ATOM      7  H   UNL A   1      29.249  27.548  25.091  1.00  0.00     0.163 HD
BRANCH   5   8
ATOM      8  C   UNL A   1      32.219  25.987  25.404  1.00  0.00     0.105 C 
BRANCH   8   9
ATOM      9  C   UNL A   1      32.665  24.949  26.453  1.00  0.00     0.049 C 
BRANCH   9  10
ATOM     10  C   UNL A   1      33.013  23.644  25.782  1.00  0.00    -0.005 A 
ATOM     11  C   UNL A   1      35.734  20.202  24.888  1.00  0.00     0.073 A 
ATOM     12  N   UNL A   1      35.874  21.534  24.839  1.00  0.00    -0.171 NA
ATOM     13  C   UNL A   1      34.386  19.830  25.068  1.00  0.00     0.050 A 
ATOM     14  N   UNL A   1      34.608  22.032  25.049  1.00  0.00    -0.219 N 
ATOM     15  C   UNL A   1      33.700  20.997  25.295  1.00  0.00     0.163 A 
ATOM     16  C   UNL A   1      34.209  23.383  25.201  1.00  0.00     0.046 A 
ATOM     17  N   UNL A   1      32.397  21.234  25.610  1.00  0.00    -0.233 NA
ATOM     18  C   UNL A   1      35.183  24.467  24.825  1.00  0.00     0.067 C 
ATOM     19  C   UNL A   1      32.063  22.468  25.841  1.00  0.00     0.045 A 
ATOM     20  C   UNL A   1      30.582  22.695  26.065  1.00  0.00     0.067 C 
BRANCH  11  21
ATOM     21  C   UNL A   1      36.858  19.247  24.622  1.00  0.00     0.055 C 
ATOM     22  C   UNL A   1      38.155  19.520  25.368  1.00  0.00     0.011 C 
ENDBRANCH  11  21
BRANCH  13  23
ATOM     23  C   UNL A   1      33.797  18.541  24.796  1.00  0.00    -0.013 A 
ATOM     24  C   UNL A   1      32.954  17.925  25.723  1.00  0.00     0.009 A 
ATOM     25  C   UNL A   1      34.321  17.806  23.725  1.00  0.00     0.009 A 
ATOM     26  C   UNL A   1      32.681  16.561  25.607  1.00  0.00     0.001 A 
ATOM     27  C   UNL A   1      34.036  16.451  23.607  1.00  0.00     0.001 A 
ATOM     28  C   UNL A   1      33.235  15.824  24.559  1.00  0.00     0.000 A 
ENDBRANCH  13  23
ENDBRANCH   9  10
ENDBRANCH   8   9
ENDBRANCH   5   8
ENDBRANCH   3   4
ENDBRANCH   2   3
ENDBRANCH   1   2
BRANCH   1  29
ATOM     29  C   UNL A   1      32.641  29.733  25.617  1.00  0.00     0.002 C 
BRANCH  29  30
ATOM     30  C   UNL A   1      33.070  29.718  27.087  1.00  0.00     0.021 C 
BRANCH  30  31
ATOM     31  C   UNL A   1      34.574  29.873  27.362  1.00  0.00     0.116 C 
BRANCH  31  32
ATOM     32  N   UNL A   1      34.827  31.042  28.209  1.00  0.00    -0.352 N 
ATOM     33  C   UNL A   1      35.774  31.372  29.150  1.00  0.00     0.251 C 
ATOM     34  H   UNL A   1      34.165  31.758  28.073  1.00  0.00     0.163 HD
ATOM     35  O   UNL A   1      35.554  32.373  29.835  1.00  0.00    -0.269 OA
BRANCH  33  36
ATOM     36  C   UNL A   1      37.013  30.588  29.400  1.00  0.00     0.039 A 
ATOM     37  C   UNL A   1      38.256  31.251  29.353  1.00  0.00     0.014 A 
ATOM     38  C   UNL A   1      36.998  29.222  29.662  1.00  0.00     0.014 A 
ATOM     39  C   UNL A   1      39.452  30.558  29.578  1.00  0.00     0.010 A 
ATOM     40  C   UNL A   1      38.175  28.568  30.013  1.00  0.00     0.010 A 
ATOM     41  C   UNL A   1      39.419  29.200  29.900  1.00  0.00    -0.014 A 
BRANCH  41  42
ATOM     42  C   UNL A   1      40.665  28.426  30.090  1.00  0.00     0.031 A 
ATOM     43  C   UNL A   1      41.201  28.229  31.481  1.00  0.00     0.074 A 
ATOM     44  C   UNL A   1      41.210  27.726  29.065  1.00  0.00     0.049 A 
ATOM     45  N   UNL A   1      42.423  28.358  31.904  1.00  0.00    -0.248 NA
ATOM     46  C   UNL A   1      40.261  27.836  32.543  1.00  0.00     0.031 C 
ATOM     47  C   UNL A   1      40.703  27.613  27.690  1.00  0.00     0.029 A 
ATOM     48  N   UNL A   1      42.257  26.846  29.064  1.00  0.00    -0.354 N 
ATOM     49  C   UNL A   1      42.447  27.895  33.222  1.00  0.00     0.074 A 
ATOM     50  C   UNL A   1      41.074  27.665  33.587  1.00  0.00     0.031 C 
ATOM     51  C   UNL A   1      41.249  26.539  27.089  1.00  0.00     0.029 A 
ATOM     52  C   UNL A   1      42.278  26.001  27.957  1.00  0.00     0.049 A 
ATOM     53  H   UNL A   1      42.933  26.814  29.779  1.00  0.00     0.167 HD
ATOM     54  C   UNL A   1      43.600  27.582  33.882  1.00  0.00     0.034 A 
ATOM     55  C   UNL A   1      43.066  24.918  27.747  1.00  0.00     0.034 A 
ATOM     56  C   UNL A   1      44.746  28.222  33.300  1.00  0.00     0.049 A 
ATOM     57  C   UNL A   1      44.261  25.092  28.597  1.00  0.00     0.074 A 
ATOM     58  C   UNL A   1      45.124  29.534  33.097  1.00  0.00     0.029 A 
ATOM     59  N   UNL A   1      45.585  27.473  32.516  1.00  0.00    -0.354 N 
ATOM     60  N   UNL A   1      45.124  26.057  28.444  1.00  0.00    -0.248 NA
ATOM     61  C   UNL A   1      44.310  24.408  29.876  1.00  0.00     0.031 C 
ATOM     62  C   UNL A   1      45.790  29.529  31.837  1.00  0.00     0.029 A 
ATOM     63  C   UNL A   1      45.825  28.209  31.383  1.00  0.00     0.049 A 
ATOM     64  H   UNL A   1      45.946  26.581  32.725  1.00  0.00     0.167 HD
ATOM     65  C   UNL A   1      45.520  26.383  29.728  1.00  0.00     0.074 A 
ATOM     66  C   UNL A   1      45.093  25.254  30.550  1.00  0.00     0.031 C 
ATOM     67  C   UNL A   1      45.911  27.650  30.048  1.00  0.00     0.034 A 
BRANCH  54  68
ATOM     68  C   UNL A   1      43.739  26.476  34.905  1.00  0.00     0.023 A 
ATOM     69  C   UNL A   1      44.158  26.787  36.218  1.00  0.00     0.031 A 
ATOM     70  C   UNL A   1      43.752  25.107  34.561  1.00  0.00     0.131 A 
ATOM     71  C   UNL A   1      44.589  25.774  37.098  1.00  0.00     0.055 A 
ATOM     72  C   UNL A   1      44.124  24.100  35.457  1.00  0.00     0.041 A 
ATOM     73  F   UNL A   1      43.503  24.690  33.313  1.00  0.00    -0.206 F 
ATOM     74  C   UNL A   1      44.563  24.430  36.728  1.00  0.00     0.022 A 
BRANCH  71  75
ATOM     75  S   UNL A   1      45.328  26.240  38.691  1.00  0.00     0.124 S 
ATOM     76  O   UNL A   1      44.170  26.734  39.427  1.00  0.00    -0.237 OA
ATOM     77  O   UNL A   1      45.890  24.974  39.148  1.00  0.00    -0.237 OA
ATOM     78  O   UNL A   1      46.311  27.258  38.326  1.00  0.00    -0.744 OA
ENDBRANCH  71  75
ENDBRANCH  54  68
BRANCH  55  79
ATOM     79  C   UNL A   1      42.735  23.656  27.037  1.00  0.00     0.023 A 
ATOM     80  C   UNL A   1      43.697  22.966  26.273  1.00  0.00     0.031 A 
ATOM     81  C   UNL A   1      41.530  22.969  27.309  1.00  0.00     0.131 A 
ATOM     82  C   UNL A   1      43.447  21.649  25.829  1.00  0.00     0.055 A 
ATOM     83  C   UNL A   1      41.281  21.671  26.855  1.00  0.00     0.041 A 
ATOM     84  F   UNL A   1      40.588  23.500  28.104  1.00  0.00    -0.206 F 
ATOM     85  C   UNL A   1      42.246  20.999  26.123  1.00  0.00     0.022 A 
BRANCH  82  86
ATOM     86  S   UNL A   1      44.749  20.703  24.981  1.00  0.00     0.124 S 
ATOM     87  O   UNL A   1      44.518  21.049  23.584  1.00  0.00    -0.237 OA
ATOM     88  O   UNL A   1      45.972  21.230  25.584  1.00  0.00    -0.237 OA
ATOM     89  O   UNL A   1      44.443  19.318  25.337  1.00  0.00    -0.744 OA
ENDBRANCH  82  86
ENDBRANCH  55  79
BRANCH  67  90
ATOM     90  C   UNL A   1      46.224  28.621  28.927  1.00  0.00     0.023 A 
ATOM     91  C   UNL A   1      45.292  29.512  28.350  1.00  0.00     0.031 A 
ATOM     92  C   UNL A   1      47.571  28.744  28.546  1.00  0.00     0.131 A 
ATOM     93  C   UNL A   1      45.727  30.481  27.422  1.00  0.00     0.055 A 
ATOM     94  C   UNL A   1      48.001  29.717  27.646  1.00  0.00     0.041 A 
ATOM     95  F   UNL A   1      48.507  27.945  29.087  1.00  0.00    -0.206 F 
ATOM     96  C   UNL A   1      47.080  30.590  27.079  1.00  0.00     0.022 A 
BRANCH  93  97
ATOM     97  S   UNL A   1      44.541  31.637  26.660  1.00  0.00     0.124 S 
ATOM     98  O   UNL A   1      44.227  32.561  27.743  1.00  0.00    -0.237 OA
ATOM     99  O   UNL A   1      45.301  32.189  25.542  1.00  0.00    -0.237 OA
ATOM    100  O   UNL A   1      43.428  30.770  26.261  1.00  0.00    -0.744 OA
ENDBRANCH  93  97
ENDBRANCH  67  90
ENDBRANCH  41  42
ENDBRANCH  33  36
ENDBRANCH  31  32
ENDBRANCH  30  31
ENDBRANCH  29  30
ENDBRANCH   1  29
TORSDOF 20
ENDMDL
