MODEL 1
REMARK VINA RESULT:     -12.5      0.000      0.000
REMARK SMILES CCOc1ccc(-c2ccc(C(=O)NCCCCCCNC(=O)c3ccc(-c4c5nc(c(-c6cc(S(=O)(=O)[O-])ccc6F)c6ccc([nH]6)c(-c6cc(S(=O)(=O)[O-])ccc6F)c6nc(c(-c7cc(S(=O)(=O)[O-])ccc7F)c7ccc4[nH]7)C=C6)C=C5)cc3)cn2)c(C)c1
REMARK SMILES IDX 17 1 16 2 15 3 14 4 12 5 13 6 11 8 8 9 9 10 88 11 10 12
REMARK SMILES IDX 87 13 7 14 4 15 5 16 91 17 6 18 89 19 90 20 3 21 2 22 1 23
REMARK SMILES IDX 18 24 19 25 20 26 21 27 22 28 23 30 24 31 25 32 86 33 26 34
REMARK SMILES IDX 85 35 27 36 28 37 29 38 79 39 30 40 84 41 78 42 80 43 31 44
REMARK SMILES IDX 83 45 77 46 76 47 32 49 64 50 44 51 63 52 45 53 48 54 62 55
REMARK SMILES IDX 81 56 46 57 47 58 61 60 82 61 49 62 33 63 34 64 42 65 35 66
REMARK SMILES IDX 41 67 43 68 40 69 36 70 37 71 38 72 39 73 65 74 66 75 74 76
REMARK SMILES IDX 67 77 73 78 75 79 72 80 68 81 69 82 70 83 71 84 50 85 51 86
REMARK SMILES IDX 59 87 52 88 58 89 60 90 57 91 53 92 54 93 55 94 56 95
REMARK H PARENT 14 7 21 29 80 48 48 59
REMARK Flexibility Score: inf
ROOT
ATOM      1  C   UNL A   1      35.288  20.871  25.353  1.00  0.00     0.002 C 
ENDROOT
BRANCH   1   2
ATOM      2  C   UNL A   1      34.449  19.688  24.845  1.00  0.00     0.021 C 
BRANCH   2   3
ATOM      3  C   UNL A   1      32.937  19.918  24.889  1.00  0.00     0.116 C 
BRANCH   3   4
ATOM      4  N   UNL A   1      32.394  20.097  23.555  1.00  0.00    -0.352 N 
ATOM      5  C   UNL A   1      32.301  21.196  22.743  1.00  0.00     0.252 C 
ATOM      6  O   UNL A   1      31.915  21.044  21.585  1.00  0.00    -0.269 OA
ATOM      7  H   UNL A   1      32.023  19.274  23.160  1.00  0.00     0.163 HD
BRANCH   5   8
ATOM      8  C   UNL A   1      32.696  22.552  23.182  1.00  0.00     0.058 A 
ATOM      9  C   UNL A   1      33.166  25.110  24.110  1.00  0.00     0.070 A 
ATOM     10  C   UNL A   1      34.213  24.392  23.535  1.00  0.00     0.030 A 
ATOM     11  N   UNL A   1      31.926  24.591  24.262  1.00  0.00    -0.255 NA
ATOM     12  C   UNL A   1      33.978  23.089  23.086  1.00  0.00     0.018 A 
ATOM     13  C   UNL A   1      31.724  23.330  23.803  1.00  0.00     0.125 A 
BRANCH   9  14
ATOM     14  C   UNL A   1      33.363  26.455  24.660  1.00  0.00     0.003 A 
ATOM     15  C   UNL A   1      33.841  28.955  25.855  1.00  0.00     0.119 A 
ATOM     16  C   UNL A   1      33.661  27.834  26.655  1.00  0.00     0.047 A 
ATOM     17  C   UNL A   1      33.720  28.857  24.471  1.00  0.00     0.050 A 
ATOM     18  C   UNL A   1      33.441  26.593  26.059  1.00  0.00     0.014 A 
ATOM     19  C   UNL A   1      33.467  27.615  23.859  1.00  0.00    -0.038 A 
ATOM     20  C   UNL A   1      33.322  27.580  22.361  1.00  0.00     0.045 C 
BRANCH  15  21
ATOM     21  O   UNL A   1      34.036  30.185  26.418  1.00  0.00    -0.494 OA
BRANCH  21  22
ATOM     22  C   UNL A   1      32.936  30.580  27.248  1.00  0.00     0.226 C 
ATOM     23  C   UNL A   1      31.716  30.947  26.416  1.00  0.00     0.049 C 
ENDBRANCH  21  22
ENDBRANCH  15  21
ENDBRANCH   9  14
ENDBRANCH   5   8
ENDBRANCH   3   4
ENDBRANCH   2   3
ENDBRANCH   1   2
BRANCH   1  24
ATOM     24  C   UNL A   1      36.791  20.834  25.024  1.00  0.00     0.002 C 
BRANCH  24  25
ATOM     25  C   UNL A   1      37.447  22.187  24.736  1.00  0.00     0.021 C 
BRANCH  25  26
ATOM     26  C   UNL A   1      37.941  22.902  25.989  1.00  0.00     0.116 C 
BRANCH  26  27
ATOM     27  N   UNL A   1      39.353  22.697  26.267  1.00  0.00    -0.352 N 
ATOM     28  C   UNL A   1      40.329  23.616  26.630  1.00  0.00     0.251 C 
ATOM     29  H   UNL A   1      39.666  21.768  26.185  1.00  0.00     0.163 HD
ATOM     30  O   UNL A   1      41.493  23.288  26.696  1.00  0.00    -0.269 OA
BRANCH  28  31
ATOM     31  C   UNL A   1      39.916  24.985  27.041  1.00  0.00     0.039 A 
ATOM     32  C   UNL A   1      40.447  26.064  26.320  1.00  0.00     0.014 A 
ATOM     33  C   UNL A   1      39.171  25.216  28.194  1.00  0.00     0.014 A 
ATOM     34  C   UNL A   1      40.410  27.345  26.866  1.00  0.00     0.010 A 
ATOM     35  C   UNL A   1      39.213  26.464  28.781  1.00  0.00     0.010 A 
ATOM     36  C   UNL A   1      39.880  27.515  28.143  1.00  0.00    -0.014 A 
BRANCH  36  37
ATOM     37  C   UNL A   1      40.040  28.726  28.937  1.00  0.00     0.031 A 
ATOM     38  C   UNL A   1      39.015  29.785  28.897  1.00  0.00     0.074 A 
ATOM     39  C   UNL A   1      41.090  28.834  29.776  1.00  0.00     0.049 A 
ATOM     40  N   UNL A   1      39.194  30.994  29.308  1.00  0.00    -0.248 NA
ATOM     41  C   UNL A   1      37.702  29.576  28.300  1.00  0.00     0.031 C 
ATOM     42  C   UNL A   1      41.275  29.799  30.856  1.00  0.00     0.029 A 
ATOM     43  N   UNL A   1      42.340  28.244  29.618  1.00  0.00    -0.354 N 
ATOM     44  C   UNL A   1      37.974  31.628  29.310  1.00  0.00     0.074 A 
ATOM     45  C   UNL A   1      37.112  30.743  28.568  1.00  0.00     0.031 C 
ATOM     46  C   UNL A   1      42.588  29.935  31.094  1.00  0.00     0.029 A 
ATOM     47  C   UNL A   1      43.289  29.178  30.072  1.00  0.00     0.049 A 
ATOM     48  H   UNL A   1      42.526  27.346  29.257  1.00  0.00     0.167 HD
ATOM     49  C   UNL A   1      37.825  32.757  30.063  1.00  0.00     0.034 A 
ATOM     50  C   UNL A   1      44.229  29.688  29.225  1.00  0.00     0.034 A 
ATOM     51  C   UNL A   1      39.128  33.247  30.536  1.00  0.00     0.049 A 
ATOM     52  C   UNL A   1      44.165  31.193  29.089  1.00  0.00     0.074 A 
ATOM     53  C   UNL A   1      39.773  33.218  31.761  1.00  0.00     0.029 A 
ATOM     54  N   UNL A   1      40.084  33.642  29.603  1.00  0.00    -0.354 N 
ATOM     55  N   UNL A   1      43.131  31.921  29.411  1.00  0.00    -0.248 NA
ATOM     56  C   UNL A   1      45.273  31.992  28.580  1.00  0.00     0.031 C 
ATOM     57  C   UNL A   1      41.143  33.540  31.545  1.00  0.00     0.029 A 
ATOM     58  C   UNL A   1      41.322  33.800  30.197  1.00  0.00     0.049 A 
ATOM     59  H   UNL A   1      39.902  33.789  28.646  1.00  0.00     0.167 HD
ATOM     60  C   UNL A   1      43.403  33.247  29.172  1.00  0.00     0.074 A 
ATOM     61  C   UNL A   1      44.767  33.235  28.667  1.00  0.00     0.031 C 
ATOM     62  C   UNL A   1      42.476  34.229  29.409  1.00  0.00     0.034 A 
BRANCH  49  63
ATOM     63  C   UNL A   1      36.499  33.279  30.609  1.00  0.00     0.023 A 
ATOM     64  C   UNL A   1      35.594  33.904  29.720  1.00  0.00     0.031 A 
ATOM     65  C   UNL A   1      36.094  33.293  31.960  1.00  0.00     0.131 A 
ATOM     66  C   UNL A   1      34.431  34.560  30.179  1.00  0.00     0.055 A 
ATOM     67  C   UNL A   1      34.949  33.960  32.420  1.00  0.00     0.041 A 
ATOM     68  F   UNL A   1      36.752  32.643  32.920  1.00  0.00    -0.206 F 
ATOM     69  C   UNL A   1      34.115  34.609  31.532  1.00  0.00     0.022 A 
BRANCH  66  70
ATOM     70  S   UNL A   1      33.339  35.385  28.988  1.00  0.00     0.124 S 
ATOM     71  O   UNL A   1      32.742  34.256  28.282  1.00  0.00    -0.237 OA
ATOM     72  O   UNL A   1      32.455  36.152  29.857  1.00  0.00    -0.237 OA
ATOM     73  O   UNL A   1      34.262  36.191  28.186  1.00  0.00    -0.744 OA
ENDBRANCH  66  70
ENDBRANCH  49  63
BRANCH  50  74
ATOM     74  C   UNL A   1      44.641  28.724  28.161  1.00  0.00     0.023 A 
ATOM     75  C   UNL A   1      45.481  27.661  28.561  1.00  0.00     0.031 A 
ATOM     76  C   UNL A   1      43.928  28.581  26.964  1.00  0.00     0.131 A 
ATOM     77  C   UNL A   1      45.437  26.434  27.887  1.00  0.00     0.055 A 
ATOM     78  C   UNL A   1      43.959  27.380  26.241  1.00  0.00     0.041 A 
ATOM     79  F   UNL A   1      43.095  29.544  26.544  1.00  0.00    -0.206 F 
ATOM     80  C   UNL A   1      44.674  26.284  26.729  1.00  0.00     0.022 A 
BRANCH  77  81
ATOM     81  S   UNL A   1      46.134  24.970  28.716  1.00  0.00     0.124 S 
ATOM     82  O   UNL A   1      45.142  24.708  29.753  1.00  0.00    -0.237 OA
ATOM     83  O   UNL A   1      46.201  23.988  27.634  1.00  0.00    -0.237 OA
ATOM     84  O   UNL A   1      47.436  25.431  29.189  1.00  0.00    -0.744 OA
ENDBRANCH  77  81
ENDBRANCH  50  74
BRANCH  62  85
ATOM     85  C   UNL A   1      42.582  35.697  29.011  1.00  0.00     0.023 A 
ATOM     86  C   UNL A   1      43.314  36.657  29.724  1.00  0.00     0.031 A 
ATOM     87  C   UNL A   1      41.972  36.174  27.821  1.00  0.00     0.131 A 
ATOM     88  C   UNL A   1      43.361  38.005  29.314  1.00  0.00     0.055 A 
ATOM     89  C   UNL A   1      42.077  37.497  27.376  1.00  0.00     0.041 A 
ATOM     90  F   UNL A   1      41.256  35.373  27.017  1.00  0.00    -0.206 F 
ATOM     91  C   UNL A   1      42.763  38.430  28.133  1.00  0.00     0.022 A 
BRANCH  88  92
ATOM     92  S   UNL A   1      44.191  39.203  30.394  1.00  0.00     0.124 S 
ATOM     93  O   UNL A   1      44.763  38.336  31.420  1.00  0.00    -0.237 OA
ATOM     94  O   UNL A   1      45.151  39.828  29.489  1.00  0.00    -0.237 OA
ATOM     95  O   UNL A   1      43.108  40.072  30.847  1.00  0.00    -0.744 OA
ENDBRANCH  88  92
ENDBRANCH  62  85
ENDBRANCH  36  37
ENDBRANCH  28  31
ENDBRANCH  26  27
ENDBRANCH  25  26
ENDBRANCH  24  25
ENDBRANCH   1  24
TORSDOF 19
ENDMDL
MODEL 2
REMARK VINA RESULT:     -12.1      2.082      2.561
REMARK SMILES CCOc1ccc(-c2ccc(C(=O)NCCCCCCNC(=O)c3ccc(-c4c5nc(c(-c6cc(S(=O)(=O)[O-])ccc6F)c6ccc([nH]6)c(-c6cc(S(=O)(=O)[O-])ccc6F)c6nc(c(-c7cc(S(=O)(=O)[O-])ccc7F)c7ccc4[nH]7)C=C6)C=C5)cc3)cn2)c(C)c1
REMARK SMILES IDX 17 1 16 2 15 3 14 4 12 5 13 6 11 8 8 9 9 10 88 11 10 12
REMARK SMILES IDX 87 13 7 14 4 15 5 16 91 17 6 18 89 19 90 20 3 21 2 22 1 23
REMARK SMILES IDX 18 24 19 25 20 26 21 27 22 28 23 30 24 31 25 32 86 33 26 34
REMARK SMILES IDX 85 35 27 36 28 37 29 38 79 39 30 40 84 41 78 42 80 43 31 44
REMARK SMILES IDX 83 45 77 46 76 47 32 49 64 50 44 51 63 52 45 53 48 54 62 55
REMARK SMILES IDX 81 56 46 57 47 58 61 60 82 61 49 62 33 63 34 64 42 65 35 66
REMARK SMILES IDX 41 67 43 68 40 69 36 70 37 71 38 72 39 73 65 74 66 75 74 76
REMARK SMILES IDX 67 77 73 78 75 79 72 80 68 81 69 82 70 83 71 84 50 85 51 86
REMARK SMILES IDX 59 87 52 88 58 89 60 90 57 91 53 92 54 93 55 94 56 95
REMARK H PARENT 14 7 21 29 80 48 48 59
REMARK Flexibility Score: inf
ROOT
ATOM      1  C   UNL A   1      35.349  22.931  23.584  1.00  0.00     0.002 C 
ENDROOT
BRANCH   1   2
ATOM      2  C   UNL A   1      34.275  22.592  24.628  1.00  0.00     0.021 C 
BRANCH   2   3
ATOM      3  C   UNL A   1      34.287  23.491  25.866  1.00  0.00     0.116 C 
BRANCH   3   4
ATOM      4  N   UNL A   1      33.189  23.170  26.759  1.00  0.00    -0.352 N 
ATOM      5  C   UNL A   1      31.923  23.681  26.877  1.00  0.00     0.252 C 
ATOM      6  O   UNL A   1      31.131  23.127  27.637  1.00  0.00    -0.269 OA
ATOM      7  H   UNL A   1      33.391  22.449  27.400  1.00  0.00     0.163 HD
BRANCH   5   8
ATOM      8  C   UNL A   1      31.451  24.840  26.088  1.00  0.00     0.058 A 
ATOM      9  C   UNL A   1      30.462  26.811  24.426  1.00  0.00     0.070 A 
ATOM     10  C   UNL A   1      31.036  27.173  25.644  1.00  0.00     0.030 A 
ATOM     11  N   UNL A   1      30.340  25.523  24.034  1.00  0.00    -0.255 NA
ATOM     12  C   UNL A   1      31.516  26.171  26.493  1.00  0.00     0.018 A 
ATOM     13  C   UNL A   1      30.828  24.573  24.873  1.00  0.00     0.125 A 
BRANCH   9  14
ATOM     14  C   UNL A   1      29.881  27.808  23.520  1.00  0.00     0.003 A 
ATOM     15  C   UNL A   1      28.623  29.735  21.906  1.00  0.00     0.119 A 
ATOM     16  C   UNL A   1      27.852  28.829  22.622  1.00  0.00     0.047 A 
ATOM     17  C   UNL A   1      30.013  29.650  21.932  1.00  0.00     0.050 A 
ATOM     18  C   UNL A   1      28.478  27.886  23.434  1.00  0.00     0.014 A 
ATOM     19  C   UNL A   1      30.657  28.681  22.725  1.00  0.00    -0.038 A 
ATOM     20  C   UNL A   1      32.161  28.624  22.692  1.00  0.00     0.045 C 
BRANCH  15  21
ATOM     21  O   UNL A   1      28.031  30.655  21.086  1.00  0.00    -0.494 OA
BRANCH  21  22
ATOM     22  C   UNL A   1      27.985  31.959  21.682  1.00  0.00     0.226 C 
ATOM     23  C   UNL A   1      27.759  33.040  20.637  1.00  0.00     0.049 C 
ENDBRANCH  21  22
ENDBRANCH  15  21
ENDBRANCH   9  14
ENDBRANCH   5   8
ENDBRANCH   3   4
ENDBRANCH   2   3
ENDBRANCH   1   2
BRANCH   1  24
ATOM     24  C   UNL A   1      36.772  22.421  23.874  1.00  0.00     0.002 C 
BRANCH  24  25
ATOM     25  C   UNL A   1      37.666  23.357  24.690  1.00  0.00     0.021 C 
BRANCH  25  26
ATOM     26  C   UNL A   1      38.084  22.779  26.038  1.00  0.00     0.116 C 
BRANCH  26  27
ATOM     27  N   UNL A   1      39.522  22.652  26.205  1.00  0.00    -0.352 N 
ATOM     28  C   UNL A   1      40.471  23.622  26.498  1.00  0.00     0.251 C 
ATOM     29  H   UNL A   1      39.878  21.741  26.094  1.00  0.00     0.163 HD
ATOM     30  O   UNL A   1      41.653  23.359  26.472  1.00  0.00    -0.269 OA
BRANCH  28  31
ATOM     31  C   UNL A   1      40.017  24.965  26.947  1.00  0.00     0.039 A 
ATOM     32  C   UNL A   1      40.489  26.078  26.236  1.00  0.00     0.014 A 
ATOM     33  C   UNL A   1      39.292  25.144  28.122  1.00  0.00     0.014 A 
ATOM     34  C   UNL A   1      40.416  27.346  26.810  1.00  0.00     0.010 A 
ATOM     35  C   UNL A   1      39.300  26.381  28.734  1.00  0.00     0.010 A 
ATOM     36  C   UNL A   1      39.910  27.470  28.103  1.00  0.00    -0.014 A 
BRANCH  36  37
ATOM     37  C   UNL A   1      40.044  28.669  28.918  1.00  0.00     0.031 A 
ATOM     38  C   UNL A   1      39.012  29.722  28.871  1.00  0.00     0.074 A 
ATOM     39  C   UNL A   1      41.074  28.773  29.782  1.00  0.00     0.049 A 
ATOM     40  N   UNL A   1      39.172  30.925  29.304  1.00  0.00    -0.248 NA
ATOM     41  C   UNL A   1      37.713  29.511  28.242  1.00  0.00     0.031 C 
ATOM     42  C   UNL A   1      41.227  29.722  30.879  1.00  0.00     0.029 A 
ATOM     43  N   UNL A   1      42.332  28.194  29.642  1.00  0.00    -0.354 N 
ATOM     44  C   UNL A   1      37.947  31.550  29.288  1.00  0.00     0.074 A 
ATOM     45  C   UNL A   1      37.108  30.670  28.514  1.00  0.00     0.031 C 
ATOM     46  C   UNL A   1      42.534  29.864  31.148  1.00  0.00     0.029 A 
ATOM     47  C   UNL A   1      43.263  29.129  30.131  1.00  0.00     0.049 A 
ATOM     48  H   UNL A   1      42.533  27.304  29.273  1.00  0.00     0.167 HD
ATOM     49  C   UNL A   1      37.772  32.667  30.054  1.00  0.00     0.034 A 
ATOM     50  C   UNL A   1      44.217  29.658  29.313  1.00  0.00     0.034 A 
ATOM     51  C   UNL A   1      39.061  33.159  30.564  1.00  0.00     0.049 A 
ATOM     52  C   UNL A   1      44.145  31.165  29.198  1.00  0.00     0.074 A 
ATOM     53  C   UNL A   1      39.680  33.116  31.802  1.00  0.00     0.029 A 
ATOM     54  N   UNL A   1      40.035  33.576  29.658  1.00  0.00    -0.354 N 
ATOM     55  N   UNL A   1      43.098  31.880  29.508  1.00  0.00    -0.248 NA
ATOM     56  C   UNL A   1      45.257  31.980  28.726  1.00  0.00     0.031 C 
ATOM     57  C   UNL A   1      41.051  33.452  31.621  1.00  0.00     0.029 A 
ATOM     58  C   UNL A   1      41.258  33.734  30.282  1.00  0.00     0.049 A 
ATOM     59  H   UNL A   1      39.873  33.736  28.700  1.00  0.00     0.167 HD
ATOM     60  C   UNL A   1      43.366  33.211  29.295  1.00  0.00     0.074 A 
ATOM     61  C   UNL A   1      44.740  33.217  28.821  1.00  0.00     0.031 C 
ATOM     62  C   UNL A   1      42.426  34.183  29.527  1.00  0.00     0.034 A 
BRANCH  49  63
ATOM     63  C   UNL A   1      36.431  33.170  30.578  1.00  0.00     0.023 A 
ATOM     64  C   UNL A   1      35.620  33.959  29.730  1.00  0.00     0.031 A 
ATOM     65  C   UNL A   1      35.927  33.012  31.886  1.00  0.00     0.131 A 
ATOM     66  C   UNL A   1      34.452  34.599  30.199  1.00  0.00     0.055 A 
ATOM     67  C   UNL A   1      34.777  33.662  32.360  1.00  0.00     0.041 A 
ATOM     68  F   UNL A   1      36.486  32.200  32.784  1.00  0.00    -0.206 F 
ATOM     69  C   UNL A   1      34.038  34.471  31.520  1.00  0.00     0.022 A 
BRANCH  66  70
ATOM     70  S   UNL A   1      33.486  35.639  29.069  1.00  0.00     0.124 S 
ATOM     71  O   UNL A   1      32.487  34.701  28.566  1.00  0.00    -0.237 OA
ATOM     72  O   UNL A   1      33.003  36.693  29.952  1.00  0.00    -0.237 OA
ATOM     73  O   UNL A   1      34.474  36.071  28.080  1.00  0.00    -0.744 OA
ENDBRANCH  66  70
ENDBRANCH  49  63
BRANCH  50  74
ATOM     74  C   UNL A   1      44.660  28.714  28.245  1.00  0.00     0.023 A 
ATOM     75  C   UNL A   1      45.501  27.652  28.647  1.00  0.00     0.031 A 
ATOM     76  C   UNL A   1      43.975  28.583  27.030  1.00  0.00     0.131 A 
ATOM     77  C   UNL A   1      45.482  26.435  27.954  1.00  0.00     0.055 A 
ATOM     78  C   UNL A   1      44.032  27.393  26.290  1.00  0.00     0.041 A 
ATOM     79  F   UNL A   1      43.143  29.544  26.606  1.00  0.00    -0.206 F 
ATOM     80  C   UNL A   1      44.745  26.295  26.778  1.00  0.00     0.022 A 
BRANCH  77  81
ATOM     81  S   UNL A   1      46.173  24.964  28.777  1.00  0.00     0.124 S 
ATOM     82  O   UNL A   1      47.128  25.557  29.706  1.00  0.00    -0.237 OA
ATOM     83  O   UNL A   1      44.992  24.349  29.382  1.00  0.00    -0.237 OA
ATOM     84  O   UNL A   1      46.753  24.197  27.678  1.00  0.00    -0.744 OA
ENDBRANCH  77  81
ENDBRANCH  50  74
BRANCH  62  85
ATOM     85  C   UNL A   1      42.528  35.657  29.153  1.00  0.00     0.023 A 
ATOM     86  C   UNL A   1      43.363  36.580  29.801  1.00  0.00     0.031 A 
ATOM     87  C   UNL A   1      41.804  36.181  28.049  1.00  0.00     0.131 A 
ATOM     88  C   UNL A   1      43.403  37.936  29.420  1.00  0.00     0.055 A 
ATOM     89  C   UNL A   1      41.897  37.512  27.626  1.00  0.00     0.041 A 
ATOM     90  F   UNL A   1      40.981  35.420  27.313  1.00  0.00    -0.206 F 
ATOM     91  C   UNL A   1      42.690  38.406  28.323  1.00  0.00     0.022 A 
BRANCH  88  92
ATOM     92  S   UNL A   1      44.382  39.083  30.426  1.00  0.00     0.124 S 
ATOM     93  O   UNL A   1      44.179  40.347  29.725  1.00  0.00    -0.237 OA
ATOM     94  O   UNL A   1      43.744  38.976  31.734  1.00  0.00    -0.237 OA
ATOM     95  O   UNL A   1      45.738  38.542  30.350  1.00  0.00    -0.744 OA
ENDBRANCH  88  92
ENDBRANCH  62  85
ENDBRANCH  36  37
ENDBRANCH  28  31
ENDBRANCH  26  27
ENDBRANCH  25  26
ENDBRANCH  24  25
ENDBRANCH   1  24
TORSDOF 19
ENDMDL
MODEL 3
REMARK VINA RESULT:     -11.1      3.037      4.186
REMARK SMILES CCOc1ccc(-c2ccc(C(=O)NCCCCCCNC(=O)c3ccc(-c4c5nc(c(-c6cc(S(=O)(=O)[O-])ccc6F)c6ccc([nH]6)c(-c6cc(S(=O)(=O)[O-])ccc6F)c6nc(c(-c7cc(S(=O)(=O)[O-])ccc7F)c7ccc4[nH]7)C=C6)C=C5)cc3)cn2)c(C)c1
REMARK SMILES IDX 17 1 16 2 15 3 14 4 12 5 13 6 11 8 8 9 9 10 88 11 10 12
REMARK SMILES IDX 87 13 7 14 4 15 5 16 91 17 6 18 89 19 90 20 3 21 2 22 1 23
REMARK SMILES IDX 18 24 19 25 20 26 21 27 22 28 23 30 24 31 25 32 86 33 26 34
REMARK SMILES IDX 85 35 27 36 28 37 29 38 79 39 30 40 84 41 78 42 80 43 31 44
REMARK SMILES IDX 83 45 77 46 76 47 32 49 64 50 44 51 63 52 45 53 48 54 62 55
REMARK SMILES IDX 81 56 46 57 47 58 61 60 82 61 49 62 33 63 34 64 42 65 35 66
REMARK SMILES IDX 41 67 43 68 40 69 36 70 37 71 38 72 39 73 65 74 66 75 74 76
REMARK SMILES IDX 67 77 73 78 75 79 72 80 68 81 69 82 70 83 71 84 50 85 51 86
REMARK SMILES IDX 59 87 52 88 58 89 60 90 57 91 53 92 54 93 55 94 56 95
REMARK H PARENT 14 7 21 29 80 48 48 59
REMARK Flexibility Score: inf
ROOT
ATOM      1  C   UNL A   1      37.149  22.020  24.259  1.00  0.00     0.002 C 
ENDROOT
BRANCH   1   2
ATOM      2  C   UNL A   1      35.634  22.098  24.503  1.00  0.00     0.021 C 
BRANCH   2   3
ATOM      3  C   UNL A   1      35.187  21.605  25.880  1.00  0.00     0.116 C 
BRANCH   3   4
ATOM      4  N   UNL A   1      34.059  20.698  25.772  1.00  0.00    -0.352 N 
ATOM      5  C   UNL A   1      32.751  20.900  25.416  1.00  0.00     0.252 C 
ATOM      6  O   UNL A   1      32.021  19.921  25.269  1.00  0.00    -0.269 OA
ATOM      7  H   UNL A   1      34.273  19.763  25.997  1.00  0.00     0.163 HD
BRANCH   5   8
ATOM      8  C   UNL A   1      32.192  22.243  25.147  1.00  0.00     0.058 A 
ATOM      9  C   UNL A   1      31.091  24.655  24.376  1.00  0.00     0.070 A 
ATOM     10  C   UNL A   1      31.477  24.476  25.703  1.00  0.00     0.030 A 
ATOM     11  N   UNL A   1      31.206  23.678  23.447  1.00  0.00    -0.255 NA
ATOM     12  C   UNL A   1      32.014  23.247  26.096  1.00  0.00     0.018 A 
ATOM     13  C   UNL A   1      31.744  22.500  23.855  1.00  0.00     0.125 A 
BRANCH   9  14
ATOM     14  C   UNL A   1      30.462  25.897  23.915  1.00  0.00     0.003 A 
ATOM     15  C   UNL A   1      29.124  28.253  23.166  1.00  0.00     0.119 A 
ATOM     16  C   UNL A   1      28.393  27.161  23.615  1.00  0.00     0.047 A 
ATOM     17  C   UNL A   1      30.507  28.163  23.023  1.00  0.00     0.050 A 
ATOM     18  C   UNL A   1      29.061  26.000  24.000  1.00  0.00     0.014 A 
ATOM     19  C   UNL A   1      31.190  26.985  23.381  1.00  0.00    -0.038 A 
ATOM     20  C   UNL A   1      32.681  26.941  23.179  1.00  0.00     0.045 C 
BRANCH  15  21
ATOM     21  O   UNL A   1      28.489  29.395  22.761  1.00  0.00    -0.494 OA
BRANCH  21  22
ATOM     22  C   UNL A   1      29.298  30.176  21.871  1.00  0.00     0.226 C 
ATOM     23  C   UNL A   1      28.689  31.548  21.628  1.00  0.00     0.049 C 
ENDBRANCH  21  22
ENDBRANCH  15  21
ENDBRANCH   9  14
ENDBRANCH   5   8
ENDBRANCH   3   4
ENDBRANCH   2   3
ENDBRANCH   1   2
BRANCH   1  24
ATOM     24  C   UNL A   1      37.972  21.249  25.306  1.00  0.00     0.002 C 
BRANCH  24  25
ATOM     25  C   UNL A   1      39.164  21.998  25.906  1.00  0.00     0.021 C 
BRANCH  25  26
ATOM     26  C   UNL A   1      40.024  21.137  26.825  1.00  0.00     0.116 C 
BRANCH  26  27
ATOM     27  N   UNL A   1      41.114  20.456  26.145  1.00  0.00    -0.352 N 
ATOM     28  C   UNL A   1      42.442  20.832  25.999  1.00  0.00     0.251 C 
ATOM     29  H   UNL A   1      40.875  19.598  25.724  1.00  0.00     0.163 HD
ATOM     30  O   UNL A   1      43.189  20.201  25.284  1.00  0.00    -0.269 OA
BRANCH  28  31
ATOM     31  C   UNL A   1      42.968  21.960  26.813  1.00  0.00     0.039 A 
ATOM     32  C   UNL A   1      42.684  21.954  28.186  1.00  0.00     0.014 A 
ATOM     33  C   UNL A   1      43.573  23.071  26.232  1.00  0.00     0.014 A 
ATOM     34  C   UNL A   1      42.812  23.129  28.924  1.00  0.00     0.010 A 
ATOM     35  C   UNL A   1      43.614  24.258  26.934  1.00  0.00     0.010 A 
ATOM     36  C   UNL A   1      43.181  24.299  28.264  1.00  0.00    -0.014 A 
BRANCH  36  37
ATOM     37  C   UNL A   1      43.072  25.630  28.844  1.00  0.00     0.031 A 
ATOM     38  C   UNL A   1      41.901  26.478  28.553  1.00  0.00     0.074 A 
ATOM     39  C   UNL A   1      44.008  26.050  29.720  1.00  0.00     0.049 A 
ATOM     40  N   UNL A   1      41.848  27.749  28.760  1.00  0.00    -0.248 NA
ATOM     41  C   UNL A   1      40.700  25.953  27.915  1.00  0.00     0.031 C 
ATOM     42  C   UNL A   1      43.935  27.191  30.626  1.00  0.00     0.029 A 
ATOM     43  N   UNL A   1      45.345  25.665  29.750  1.00  0.00    -0.354 N 
ATOM     44  C   UNL A   1      40.548  28.157  28.570  1.00  0.00     0.074 A 
ATOM     45  C   UNL A   1      39.910  27.030  27.937  1.00  0.00     0.031 C 
ATOM     46  C   UNL A   1      45.182  27.587  30.924  1.00  0.00     0.029 A 
ATOM     47  C   UNL A   1      46.087  26.809  30.098  1.00  0.00     0.049 A 
ATOM     48  H   UNL A   1      45.704  24.767  29.564  1.00  0.00     0.167 HD
ATOM     49  C   UNL A   1      40.152  29.349  29.105  1.00  0.00     0.034 A 
ATOM     50  C   UNL A   1      47.010  27.330  29.240  1.00  0.00     0.034 A 
ATOM     51  C   UNL A   1      41.311  30.124  29.572  1.00  0.00     0.049 A 
ATOM     52  C   UNL A   1      46.723  28.761  28.841  1.00  0.00     0.074 A 
ATOM     53  C   UNL A   1      41.834  30.403  30.824  1.00  0.00     0.029 A 
ATOM     54  N   UNL A   1      42.276  30.524  28.650  1.00  0.00    -0.354 N 
ATOM     55  N   UNL A   1      45.561  29.342  28.963  1.00  0.00    -0.248 NA
ATOM     56  C   UNL A   1      47.733  29.646  28.277  1.00  0.00     0.031 C 
ATOM     57  C   UNL A   1      43.149  30.916  30.646  1.00  0.00     0.029 A 
ATOM     58  C   UNL A   1      43.412  30.985  29.289  1.00  0.00     0.049 A 
ATOM     59  H   UNL A   1      42.165  30.483  27.673  1.00  0.00     0.167 HD
ATOM     60  C   UNL A   1      45.642  30.640  28.516  1.00  0.00     0.074 A 
ATOM     61  C   UNL A   1      47.032  30.782  28.113  1.00  0.00     0.031 C 
ATOM     62  C   UNL A   1      44.553  31.474  28.518  1.00  0.00     0.034 A 
BRANCH  49  63
ATOM     63  C   UNL A   1      38.714  29.716  29.462  1.00  0.00     0.023 A 
ATOM     64  C   UNL A   1      38.190  30.947  29.004  1.00  0.00     0.031 A 
ATOM     65  C   UNL A   1      37.846  28.988  30.302  1.00  0.00     0.131 A 
ATOM     66  C   UNL A   1      36.935  31.429  29.435  1.00  0.00     0.055 A 
ATOM     67  C   UNL A   1      36.607  29.474  30.747  1.00  0.00     0.041 A 
ATOM     68  F   UNL A   1      38.115  27.752  30.725  1.00  0.00    -0.206 F 
ATOM     69  C   UNL A   1      36.149  30.705  30.324  1.00  0.00     0.022 A 
BRANCH  66  70
ATOM     70  S   UNL A   1      36.346  33.041  28.846  1.00  0.00     0.124 S 
ATOM     71  O   UNL A   1      35.516  33.492  29.959  1.00  0.00    -0.237 OA
ATOM     72  O   UNL A   1      37.592  33.766  28.628  1.00  0.00    -0.237 OA
ATOM     73  O   UNL A   1      35.608  32.706  27.627  1.00  0.00    -0.744 OA
ENDBRANCH  66  70
ENDBRANCH  49  63
BRANCH  50  74
ATOM     74  C   UNL A   1      47.668  26.294  28.389  1.00  0.00     0.023 A 
ATOM     75  C   UNL A   1      47.325  26.289  27.019  1.00  0.00     0.031 A 
ATOM     76  C   UNL A   1      48.856  25.657  28.770  1.00  0.00     0.131 A 
ATOM     77  C   UNL A   1      48.246  25.843  26.062  1.00  0.00     0.055 A 
ATOM     78  C   UNL A   1      49.734  25.129  27.812  1.00  0.00     0.041 A 
ATOM     79  F   UNL A   1      49.249  25.650  30.051  1.00  0.00    -0.206 F 
ATOM     80  C   UNL A   1      49.455  25.267  26.450  1.00  0.00     0.022 A 
BRANCH  77  81
ATOM     81  S   UNL A   1      47.977  26.312  24.323  1.00  0.00     0.124 S 
ATOM     82  O   UNL A   1      46.719  27.047  24.398  1.00  0.00    -0.237 OA
ATOM     83  O   UNL A   1      49.164  27.111  24.017  1.00  0.00    -0.237 OA
ATOM     84  O   UNL A   1      47.920  25.031  23.626  1.00  0.00    -0.744 OA
ENDBRANCH  77  81
ENDBRANCH  50  74
BRANCH  62  85
ATOM     85  C   UNL A   1      44.462  32.855  27.879  1.00  0.00     0.023 A 
ATOM     86  C   UNL A   1      44.140  34.028  28.578  1.00  0.00     0.031 A 
ATOM     87  C   UNL A   1      44.770  33.044  26.506  1.00  0.00     0.131 A 
ATOM     88  C   UNL A   1      44.056  35.276  27.928  1.00  0.00     0.055 A 
ATOM     89  C   UNL A   1      44.755  34.294  25.876  1.00  0.00     0.041 A 
ATOM     90  F   UNL A   1      45.118  32.024  25.708  1.00  0.00    -0.206 F 
ATOM     91  C   UNL A   1      44.380  35.422  26.584  1.00  0.00     0.022 A 
BRANCH  88  92
ATOM     92  S   UNL A   1      43.467  36.702  28.881  1.00  0.00     0.124 S 
ATOM     93  O   UNL A   1      44.045  36.443  30.197  1.00  0.00    -0.237 OA
ATOM     94  O   UNL A   1      44.042  37.827  28.149  1.00  0.00    -0.237 OA
ATOM     95  O   UNL A   1      42.012  36.591  28.809  1.00  0.00    -0.744 OA
ENDBRANCH  88  92
ENDBRANCH  62  85
ENDBRANCH  36  37
ENDBRANCH  28  31
ENDBRANCH  26  27
ENDBRANCH  25  26
ENDBRANCH  24  25
ENDBRANCH   1  24
TORSDOF 19
ENDMDL
