MODEL 1
REMARK VINA RESULT:     -11.7      0.000      0.000
REMARK SMILES CCc1ccc2c(c1)C=C(C(=O)NCCCCCCNC(=O)c1ccc(-c3c4nc(c(-c5cc(S(=O)(=O)[O-])ccc5F)c5ccc([nH]5)c(-c5cc(S(=O)(=O)[O-])ccc5F)c5nc(c(-c6cc(S(=O)(=O)[O-])ccc6F)c6ccc3[nH]6)C=C5)C=C4)cc1)[C@H](C(F)(F)F)O2
REMARK SMILES IDX 17 1 16 2 15 3 14 4 13 5 11 6 12 7 10 9 3 10 4 11 8 12 5 13
REMARK SMILES IDX 7 14 6 15 9 16 91 17 86 18 2 19 1 20 87 21 88 22 89 23 90 24
REMARK SMILES IDX 18 25 19 26 20 27 21 28 22 30 23 31 24 32 85 33 25 34 84 35
REMARK SMILES IDX 26 36 27 37 28 38 78 39 29 40 83 41 77 42 79 43 30 44 82 45
REMARK SMILES IDX 76 46 75 47 31 49 63 50 43 51 62 52 44 53 47 54 61 55 80 56
REMARK SMILES IDX 45 57 46 58 60 60 81 61 48 62 32 63 33 64 41 65 34 66 40 67
REMARK SMILES IDX 42 68 39 69 35 70 36 71 37 72 38 73 64 74 65 75 73 76 66 77
REMARK SMILES IDX 72 78 74 79 71 80 67 81 68 82 69 83 70 84 49 85 50 86 58 87
REMARK SMILES IDX 51 88 57 89 59 90 56 91 52 92 53 93 54 94 55 95
REMARK H PARENT 13 8 20 29 79 48 47 59
REMARK Flexibility Score: inf
ROOT
ATOM      1  C   UNL A   1      31.932  28.927  27.238  1.00  0.00     0.002 C 
ENDROOT
BRANCH   1   2
ATOM      2  C   UNL A   1      32.263  27.479  26.861  1.00  0.00     0.002 C 
BRANCH   2   3
ATOM      3  C   UNL A   1      33.695  27.266  26.347  1.00  0.00     0.021 C 
BRANCH   3   4
ATOM      4  C   UNL A   1      33.838  26.017  25.469  1.00  0.00     0.116 C 
BRANCH   4   5
ATOM      5  N   UNL A   1      34.085  26.418  24.093  1.00  0.00    -0.352 N 
ATOM      6  C   UNL A   1      33.263  26.786  23.076  1.00  0.00     0.251 C 
ATOM      7  O   UNL A   1      33.745  26.871  21.948  1.00  0.00    -0.270 OA
ATOM      8  H   UNL A   1      35.039  26.423  23.850  1.00  0.00     0.163 HD
BRANCH   6   9
ATOM      9  C   UNL A   1      31.845  27.174  23.291  1.00  0.00     0.067 C 
ATOM     10  C   UNL A   1      28.191  30.342  23.174  1.00  0.00    -0.047 A 
ATOM     11  C   UNL A   1      27.281  29.280  23.223  1.00  0.00     0.007 A 
ATOM     12  C   UNL A   1      29.562  30.063  23.258  1.00  0.00     0.015 A 
ATOM     13  C   UNL A   1      27.736  27.962  23.323  1.00  0.00     0.047 A 
ATOM     14  C   UNL A   1      30.019  28.743  23.354  1.00  0.00     0.017 A 
ATOM     15  C   UNL A   1      29.103  27.696  23.376  1.00  0.00     0.128 A 
ATOM     16  C   UNL A   1      31.443  28.452  23.298  1.00  0.00     0.025 C 
ATOM     17  O   UNL A   1      29.471  26.383  23.365  1.00  0.00    -0.475 OA
ATOM     18  C   UNL A   1      30.864  26.062  23.659  1.00  0.00     0.314 C 
BRANCH  10  19
ATOM     19  C   UNL A   1      27.714  31.764  23.004  1.00  0.00     0.032 C 
ATOM     20  C   UNL A   1      28.308  32.436  21.770  1.00  0.00     0.009 C 
ENDBRANCH  10  19
BRANCH  18  21
ATOM     21  C   UNL A   1      31.130  24.652  23.086  1.00  0.00     0.429 C 
ATOM     22  F   UNL A   1      31.884  23.883  23.903  1.00  0.00    -0.167 F 
ATOM     23  F   UNL A   1      29.963  23.966  22.936  1.00  0.00    -0.167 F 
ATOM     24  F   UNL A   1      31.717  24.685  21.868  1.00  0.00    -0.167 F 
ENDBRANCH  18  21
ENDBRANCH   6   9
ENDBRANCH   4   5
ENDBRANCH   3   4
ENDBRANCH   2   3
ENDBRANCH   1   2
BRANCH   1  25
ATOM     25  C   UNL A   1      32.636  29.989  26.390  1.00  0.00     0.021 C 
BRANCH  25  26
ATOM     26  C   UNL A   1      33.980  30.443  26.948  1.00  0.00     0.116 C 
BRANCH  26  27
ATOM     27  N   UNL A   1      33.852  31.678  27.704  1.00  0.00    -0.352 N 
ATOM     28  C   UNL A   1      34.579  32.112  28.785  1.00  0.00     0.251 C 
ATOM     29  H   UNL A   1      33.144  32.290  27.398  1.00  0.00     0.163 HD
ATOM     30  O   UNL A   1      34.165  33.050  29.458  1.00  0.00    -0.269 OA
BRANCH  28  31
ATOM     31  C   UNL A   1      35.845  31.434  29.137  1.00  0.00     0.039 A 
ATOM     32  C   UNL A   1      37.051  31.982  28.699  1.00  0.00     0.014 A 
ATOM     33  C   UNL A   1      35.840  30.253  29.886  1.00  0.00     0.014 A 
ATOM     34  C   UNL A   1      38.256  31.370  29.051  1.00  0.00     0.010 A 
ATOM     35  C   UNL A   1      37.043  29.688  30.301  1.00  0.00     0.010 A 
ATOM     36  C   UNL A   1      38.264  30.234  29.880  1.00  0.00    -0.014 A 
BRANCH  36  37
ATOM     37  C   UNL A   1      39.545  29.608  30.302  1.00  0.00     0.031 A 
ATOM     38  C   UNL A   1      40.299  30.151  31.486  1.00  0.00     0.074 A 
ATOM     39  C   UNL A   1      40.043  28.576  29.595  1.00  0.00     0.049 A 
ATOM     40  N   UNL A   1      41.439  29.754  31.993  1.00  0.00    -0.248 NA
ATOM     41  C   UNL A   1      39.710  31.311  32.172  1.00  0.00     0.031 C 
ATOM     42  C   UNL A   1      39.424  27.995  28.400  1.00  0.00     0.029 A 
ATOM     43  N   UNL A   1      41.180  27.828  29.774  1.00  0.00    -0.354 N 
ATOM     44  C   UNL A   1      41.706  30.619  33.051  1.00  0.00     0.074 A 
ATOM     45  C   UNL A   1      40.645  31.602  33.063  1.00  0.00     0.031 C 
ATOM     46  C   UNL A   1      40.168  26.961  27.978  1.00  0.00     0.029 A 
ATOM     47  C   UNL A   1      41.338  26.829  28.840  1.00  0.00     0.049 A 
ATOM     48  H   UNL A   1      41.821  27.990  30.502  1.00  0.00     0.167 HD
ATOM     49  C   UNL A   1      42.726  30.577  33.943  1.00  0.00     0.034 A 
ATOM     50  C   UNL A   1      42.317  25.914  28.692  1.00  0.00     0.034 A 
ATOM     51  C   UNL A   1      43.773  29.583  33.919  1.00  0.00     0.049 A 
ATOM     52  C   UNL A   1      43.448  25.897  29.689  1.00  0.00     0.074 A 
ATOM     53  C   UNL A   1      44.829  29.419  34.797  1.00  0.00     0.029 A 
ATOM     54  N   UNL A   1      43.899  28.585  32.959  1.00  0.00    -0.354 N 
ATOM     55  N   UNL A   1      43.658  26.689  30.716  1.00  0.00    -0.248 NA
ATOM     56  C   UNL A   1      44.463  24.851  29.518  1.00  0.00     0.031 C 
ATOM     57  C   UNL A   1      45.631  28.374  34.330  1.00  0.00     0.029 A 
ATOM     58  C   UNL A   1      45.031  27.823  33.210  1.00  0.00     0.049 A 
ATOM     59  H   UNL A   1      43.277  28.441  32.210  1.00  0.00     0.167 HD
ATOM     60  C   UNL A   1      44.809  26.208  31.336  1.00  0.00     0.074 A 
ATOM     61  C   UNL A   1      45.236  25.052  30.575  1.00  0.00     0.031 C 
ATOM     62  C   UNL A   1      45.450  26.676  32.438  1.00  0.00     0.034 A 
BRANCH  49  63
ATOM     63  C   UNL A   1      42.767  31.655  35.003  1.00  0.00     0.023 A 
ATOM     64  C   UNL A   1      41.885  31.650  36.099  1.00  0.00     0.031 A 
ATOM     65  C   UNL A   1      43.684  32.718  34.906  1.00  0.00     0.131 A 
ATOM     66  C   UNL A   1      41.884  32.722  37.004  1.00  0.00     0.055 A 
ATOM     67  C   UNL A   1      43.737  33.736  35.861  1.00  0.00     0.041 A 
ATOM     68  F   UNL A   1      44.537  32.793  33.872  1.00  0.00    -0.206 F 
ATOM     69  C   UNL A   1      42.822  33.751  36.909  1.00  0.00     0.022 A 
BRANCH  66  70
ATOM     70  S   UNL A   1      40.537  32.830  38.215  1.00  0.00     0.124 S 
ATOM     71  O   UNL A   1      40.267  34.265  38.229  1.00  0.00    -0.237 OA
ATOM     72  O   UNL A   1      39.506  31.990  37.616  1.00  0.00    -0.237 OA
ATOM     73  O   UNL A   1      41.137  32.306  39.441  1.00  0.00    -0.744 OA
ENDBRANCH  66  70
ENDBRANCH  49  63
BRANCH  50  74
ATOM     74  C   UNL A   1      42.275  24.936  27.567  1.00  0.00     0.023 A 
ATOM     75  C   UNL A   1      41.486  23.777  27.643  1.00  0.00     0.031 A 
ATOM     76  C   UNL A   1      43.056  25.126  26.413  1.00  0.00     0.131 A 
ATOM     77  C   UNL A   1      41.536  22.827  26.612  1.00  0.00     0.055 A 
ATOM     78  C   UNL A   1      43.056  24.206  25.363  1.00  0.00     0.041 A 
ATOM     79  F   UNL A   1      43.824  26.220  26.285  1.00  0.00    -0.206 F 
ATOM     80  C   UNL A   1      42.304  23.040  25.465  1.00  0.00     0.022 A 
BRANCH  77  81
ATOM     81  S   UNL A   1      40.653  21.257  26.832  1.00  0.00     0.124 S 
ATOM     82  O   UNL A   1      41.464  20.347  26.031  1.00  0.00    -0.237 OA
ATOM     83  O   UNL A   1      40.721  21.074  28.279  1.00  0.00    -0.237 OA
ATOM     84  O   UNL A   1      39.321  21.539  26.303  1.00  0.00    -0.744 OA
ENDBRANCH  77  81
ENDBRANCH  50  74
BRANCH  62  85
ATOM     85  C   UNL A   1      46.651  25.893  32.917  1.00  0.00     0.023 A 
ATOM     86  C   UNL A   1      47.915  26.026  32.318  1.00  0.00     0.031 A 
ATOM     87  C   UNL A   1      46.517  24.980  33.979  1.00  0.00     0.131 A 
ATOM     88  C   UNL A   1      48.977  25.210  32.737  1.00  0.00     0.055 A 
ATOM     89  C   UNL A   1      47.595  24.222  34.438  1.00  0.00     0.041 A 
ATOM     90  F   UNL A   1      45.333  24.808  34.588  1.00  0.00    -0.206 F 
ATOM     91  C   UNL A   1      48.830  24.322  33.805  1.00  0.00     0.022 A 
BRANCH  88  92
ATOM     92  S   UNL A   1      50.523  25.240  31.788  1.00  0.00     0.124 S 
ATOM     93  O   UNL A   1      50.093  25.827  30.524  1.00  0.00    -0.237 OA
ATOM     94  O   UNL A   1      51.383  26.077  32.620  1.00  0.00    -0.237 OA
ATOM     95  O   UNL A   1      50.910  23.831  31.718  1.00  0.00    -0.744 OA
ENDBRANCH  88  92
ENDBRANCH  62  85
ENDBRANCH  36  37
ENDBRANCH  28  31
ENDBRANCH  26  27
ENDBRANCH  25  26
ENDBRANCH   1  25
TORSDOF 18
ENDMDL
MODEL 2
REMARK VINA RESULT:     -11.6      3.189      8.732
REMARK SMILES CCc1ccc2c(c1)C=C(C(=O)NCCCCCCNC(=O)c1ccc(-c3c4nc(c(-c5cc(S(=O)(=O)[O-])ccc5F)c5ccc([nH]5)c(-c5cc(S(=O)(=O)[O-])ccc5F)c5nc(c(-c6cc(S(=O)(=O)[O-])ccc6F)c6ccc3[nH]6)C=C5)C=C4)cc1)[C@H](C(F)(F)F)O2
REMARK SMILES IDX 17 1 16 2 15 3 14 4 13 5 11 6 12 7 10 9 3 10 4 11 8 12 5 13
REMARK SMILES IDX 7 14 6 15 9 16 91 17 86 18 2 19 1 20 87 21 88 22 89 23 90 24
REMARK SMILES IDX 18 25 19 26 20 27 21 28 22 30 23 31 24 32 85 33 25 34 84 35
REMARK SMILES IDX 26 36 27 37 28 38 78 39 29 40 83 41 77 42 79 43 30 44 82 45
REMARK SMILES IDX 76 46 75 47 31 49 63 50 43 51 62 52 44 53 47 54 61 55 80 56
REMARK SMILES IDX 45 57 46 58 60 60 81 61 48 62 32 63 33 64 41 65 34 66 40 67
REMARK SMILES IDX 42 68 39 69 35 70 36 71 37 72 38 73 64 74 65 75 73 76 66 77
REMARK SMILES IDX 72 78 74 79 71 80 67 81 68 82 69 83 70 84 49 85 50 86 58 87
REMARK SMILES IDX 51 88 57 89 59 90 56 91 52 92 53 93 54 94 55 95
REMARK H PARENT 13 8 20 29 79 48 47 59
REMARK Flexibility Score: inf
ROOT
ATOM      1  C   UNL A   1      30.721  29.135  24.158  1.00  0.00     0.002 C 
ENDROOT
BRANCH   1   2
ATOM      2  C   UNL A   1      29.866  27.965  23.660  1.00  0.00     0.002 C 
BRANCH   2   3
ATOM      3  C   UNL A   1      30.638  26.908  22.856  1.00  0.00     0.021 C 
BRANCH   3   4
ATOM      4  C   UNL A   1      30.383  25.477  23.345  1.00  0.00     0.116 C 
BRANCH   4   5
ATOM      5  N   UNL A   1      30.031  25.502  24.756  1.00  0.00    -0.352 N 
ATOM      6  C   UNL A   1      30.341  24.690  25.800  1.00  0.00     0.251 C 
ATOM      7  O   UNL A   1      29.723  24.842  26.851  1.00  0.00    -0.270 OA
ATOM      8  H   UNL A   1      29.452  26.258  25.003  1.00  0.00     0.163 HD
BRANCH   6   9
ATOM      9  C   UNL A   1      31.449  23.701  25.746  1.00  0.00     0.067 C 
ATOM     10  C   UNL A   1      33.287  19.364  24.646  1.00  0.00    -0.047 A 
ATOM     11  C   UNL A   1      34.576  19.905  24.708  1.00  0.00     0.007 A 
ATOM     12  C   UNL A   1      32.194  20.180  24.971  1.00  0.00     0.015 A 
ATOM     13  C   UNL A   1      34.765  21.245  25.059  1.00  0.00     0.047 A 
ATOM     14  C   UNL A   1      32.382  21.523  25.318  1.00  0.00     0.017 A 
ATOM     15  C   UNL A   1      33.668  22.053  25.350  1.00  0.00     0.128 A 
ATOM     16  C   UNL A   1      31.238  22.398  25.514  1.00  0.00     0.025 C 
ATOM     17  O   UNL A   1      33.924  23.373  25.579  1.00  0.00    -0.475 OA
ATOM     18  C   UNL A   1      32.846  24.194  26.118  1.00  0.00     0.314 C 
BRANCH  10  19
ATOM     19  C   UNL A   1      33.066  17.936  24.209  1.00  0.00     0.032 C 
ATOM     20  C   UNL A   1      34.362  17.242  23.803  1.00  0.00     0.009 C 
ENDBRANCH  10  19
BRANCH  18  21
ATOM     21  C   UNL A   1      33.197  25.665  25.794  1.00  0.00     0.429 C 
ATOM     22  F   UNL A   1      32.400  26.551  26.432  1.00  0.00    -0.167 F 
ATOM     23  F   UNL A   1      34.459  25.961  26.215  1.00  0.00    -0.167 F 
ATOM     24  F   UNL A   1      33.159  25.931  24.469  1.00  0.00    -0.167 F 
ENDBRANCH  18  21
ENDBRANCH   6   9
ENDBRANCH   4   5
ENDBRANCH   3   4
ENDBRANCH   2   3
ENDBRANCH   1   2
BRANCH   1  25
ATOM     25  C   UNL A   1      32.231  28.935  24.013  1.00  0.00     0.021 C 
BRANCH  25  26
ATOM     26  C   UNL A   1      33.044  29.424  25.207  1.00  0.00     0.116 C 
BRANCH  26  27
ATOM     27  N   UNL A   1      32.546  30.696  25.702  1.00  0.00    -0.352 N 
ATOM     28  C   UNL A   1      32.906  31.386  26.834  1.00  0.00     0.251 C 
ATOM     29  H   UNL A   1      31.853  31.125  25.149  1.00  0.00     0.163 HD
ATOM     30  O   UNL A   1      32.201  32.306  27.234  1.00  0.00    -0.269 OA
BRANCH  28  31
ATOM     31  C   UNL A   1      34.131  31.003  27.568  1.00  0.00     0.039 A 
ATOM     32  C   UNL A   1      35.096  31.977  27.830  1.00  0.00     0.014 A 
ATOM     33  C   UNL A   1      34.333  29.682  27.983  1.00  0.00     0.014 A 
ATOM     34  C   UNL A   1      36.243  31.636  28.550  1.00  0.00     0.010 A 
ATOM     35  C   UNL A   1      35.439  29.362  28.767  1.00  0.00     0.010 A 
ATOM     36  C   UNL A   1      36.411  30.332  29.050  1.00  0.00    -0.014 A 
BRANCH  36  37
ATOM     37  C   UNL A   1      37.604  29.975  29.862  1.00  0.00     0.031 A 
ATOM     38  C   UNL A   1      38.655  29.056  29.301  1.00  0.00     0.074 A 
ATOM     39  C   UNL A   1      37.718  30.451  31.117  1.00  0.00     0.049 A 
ATOM     40  N   UNL A   1      39.752  28.613  29.861  1.00  0.00    -0.248 NA
ATOM     41  C   UNL A   1      38.428  28.541  27.941  1.00  0.00     0.031 C 
ATOM     42  C   UNL A   1      36.739  31.312  31.786  1.00  0.00     0.029 A 
ATOM     43  N   UNL A   1      38.705  30.283  32.056  1.00  0.00    -0.354 N 
ATOM     44  C   UNL A   1      40.341  27.765  28.927  1.00  0.00     0.074 A 
ATOM     45  C   UNL A   1      39.441  27.701  27.797  1.00  0.00     0.031 C 
ATOM     46  C   UNL A   1      37.192  31.625  33.009  1.00  0.00     0.029 A 
ATOM     47  C   UNL A   1      38.469  30.956  33.233  1.00  0.00     0.049 A 
ATOM     48  H   UNL A   1      39.507  29.734  31.902  1.00  0.00     0.167 HD
ATOM     49  C   UNL A   1      41.534  27.123  28.998  1.00  0.00     0.034 A 
ATOM     50  C   UNL A   1      39.196  31.023  34.366  1.00  0.00     0.034 A 
ATOM     51  C   UNL A   1      42.422  27.205  30.133  1.00  0.00     0.049 A 
ATOM     52  C   UNL A   1      40.513  30.289  34.426  1.00  0.00     0.074 A 
ATOM     53  C   UNL A   1      43.671  26.634  30.295  1.00  0.00     0.029 A 
ATOM     54  N   UNL A   1      42.150  27.898  31.308  1.00  0.00    -0.354 N 
ATOM     55  N   UNL A   1      41.081  29.534  33.513  1.00  0.00    -0.248 NA
ATOM     56  C   UNL A   1      41.293  30.433  35.660  1.00  0.00     0.031 C 
ATOM     57  C   UNL A   1      44.122  26.919  31.588  1.00  0.00     0.029 A 
ATOM     58  C   UNL A   1      43.196  27.744  32.205  1.00  0.00     0.049 A 
ATOM     59  H   UNL A   1      41.334  28.422  31.477  1.00  0.00     0.167 HD
ATOM     60  C   UNL A   1      42.306  29.147  34.051  1.00  0.00     0.074 A 
ATOM     61  C   UNL A   1      42.396  29.764  35.359  1.00  0.00     0.031 C 
ATOM     62  C   UNL A   1      43.271  28.359  33.510  1.00  0.00     0.034 A 
BRANCH  49  63
ATOM     63  C   UNL A   1      41.929  26.259  27.822  1.00  0.00     0.023 A 
ATOM     64  C   UNL A   1      41.530  24.914  27.724  1.00  0.00     0.031 A 
ATOM     65  C   UNL A   1      42.740  26.777  26.795  1.00  0.00     0.131 A 
ATOM     66  C   UNL A   1      42.003  24.115  26.672  1.00  0.00     0.055 A 
ATOM     67  C   UNL A   1      43.134  26.001  25.703  1.00  0.00     0.041 A 
ATOM     68  F   UNL A   1      43.174  28.047  26.841  1.00  0.00    -0.206 F 
ATOM     69  C   UNL A   1      42.779  24.656  25.645  1.00  0.00     0.022 A 
BRANCH  66  70
ATOM     70  S   UNL A   1      41.717  22.325  26.748  1.00  0.00     0.124 S 
ATOM     71  O   UNL A   1      40.267  22.265  26.911  1.00  0.00    -0.237 OA
ATOM     72  O   UNL A   1      42.237  21.868  25.465  1.00  0.00    -0.237 OA
ATOM     73  O   UNL A   1      42.485  21.906  27.920  1.00  0.00    -0.744 OA
ENDBRANCH  66  70
ENDBRANCH  49  63
BRANCH  50  74
ATOM     74  C   UNL A   1      38.708  31.813  35.533  1.00  0.00     0.023 A 
ATOM     75  C   UNL A   1      38.181  31.177  36.669  1.00  0.00     0.031 A 
ATOM     76  C   UNL A   1      38.724  33.219  35.515  1.00  0.00     0.131 A 
ATOM     77  C   UNL A   1      37.641  31.943  37.714  1.00  0.00     0.055 A 
ATOM     78  C   UNL A   1      38.240  33.976  36.583  1.00  0.00     0.041 A 
ATOM     79  F   UNL A   1      39.222  33.878  34.457  1.00  0.00    -0.206 F 
ATOM     80  C   UNL A   1      37.681  33.339  37.685  1.00  0.00     0.022 A 
BRANCH  77  81
ATOM     81  S   UNL A   1      36.798  31.088  39.073  1.00  0.00     0.124 S 
ATOM     82  O   UNL A   1      35.584  31.883  39.215  1.00  0.00    -0.237 OA
ATOM     83  O   UNL A   1      36.626  29.746  38.525  1.00  0.00    -0.237 OA
ATOM     84  O   UNL A   1      37.746  31.191  40.180  1.00  0.00    -0.744 OA
ENDBRANCH  77  81
ENDBRANCH  50  74
BRANCH  62  85
ATOM     85  C   UNL A   1      44.535  28.172  34.317  1.00  0.00     0.023 A 
ATOM     86  C   UNL A   1      44.687  27.115  35.231  1.00  0.00     0.031 A 
ATOM     87  C   UNL A   1      45.597  29.085  34.182  1.00  0.00     0.131 A 
ATOM     88  C   UNL A   1      45.842  27.037  36.024  1.00  0.00     0.055 A 
ATOM     89  C   UNL A   1      46.773  28.961  34.923  1.00  0.00     0.041 A 
ATOM     90  F   UNL A   1      45.507  30.116  33.326  1.00  0.00    -0.206 F 
ATOM     91  C   UNL A   1      46.894  27.942  35.863  1.00  0.00     0.022 A 
BRANCH  88  92
ATOM     92  S   UNL A   1      45.903  25.804  37.353  1.00  0.00     0.124 S 
ATOM     93  O   UNL A   1      46.512  24.662  36.681  1.00  0.00    -0.237 OA
ATOM     94  O   UNL A   1      46.729  26.469  38.356  1.00  0.00    -0.237 OA
ATOM     95  O   UNL A   1      44.499  25.630  37.724  1.00  0.00    -0.744 OA
ENDBRANCH  88  92
ENDBRANCH  62  85
ENDBRANCH  36  37
ENDBRANCH  28  31
ENDBRANCH  26  27
ENDBRANCH  25  26
ENDBRANCH   1  25
TORSDOF 18
ENDMDL
MODEL 3
REMARK VINA RESULT:     -11.6      3.143      5.003
REMARK SMILES CCc1ccc2c(c1)C=C(C(=O)NCCCCCCNC(=O)c1ccc(-c3c4nc(c(-c5cc(S(=O)(=O)[O-])ccc5F)c5ccc([nH]5)c(-c5cc(S(=O)(=O)[O-])ccc5F)c5nc(c(-c6cc(S(=O)(=O)[O-])ccc6F)c6ccc3[nH]6)C=C5)C=C4)cc1)[C@H](C(F)(F)F)O2
REMARK SMILES IDX 17 1 16 2 15 3 14 4 13 5 11 6 12 7 10 9 3 10 4 11 8 12 5 13
REMARK SMILES IDX 7 14 6 15 9 16 91 17 86 18 2 19 1 20 87 21 88 22 89 23 90 24
REMARK SMILES IDX 18 25 19 26 20 27 21 28 22 30 23 31 24 32 85 33 25 34 84 35
REMARK SMILES IDX 26 36 27 37 28 38 78 39 29 40 83 41 77 42 79 43 30 44 82 45
REMARK SMILES IDX 76 46 75 47 31 49 63 50 43 51 62 52 44 53 47 54 61 55 80 56
REMARK SMILES IDX 45 57 46 58 60 60 81 61 48 62 32 63 33 64 41 65 34 66 40 67
REMARK SMILES IDX 42 68 39 69 35 70 36 71 37 72 38 73 64 74 65 75 73 76 66 77
REMARK SMILES IDX 72 78 74 79 71 80 67 81 68 82 69 83 70 84 49 85 50 86 58 87
REMARK SMILES IDX 51 88 57 89 59 90 56 91 52 92 53 93 54 94 55 95
REMARK H PARENT 13 8 20 29 79 48 47 59
REMARK Flexibility Score: inf
ROOT
ATOM      1  C   UNL A   1      31.101  28.280  24.253  1.00  0.00     0.002 C 
ENDROOT
BRANCH   1   2
ATOM      2  C   UNL A   1      30.297  27.287  23.406  1.00  0.00     0.002 C 
BRANCH   2   3
ATOM      3  C   UNL A   1      31.112  26.102  22.867  1.00  0.00     0.021 C 
BRANCH   3   4
ATOM      4  C   UNL A   1      30.664  24.754  23.444  1.00  0.00     0.116 C 
BRANCH   4   5
ATOM      5  N   UNL A   1      30.479  24.879  24.881  1.00  0.00    -0.352 N 
ATOM      6  C   UNL A   1      30.884  24.124  25.935  1.00  0.00     0.251 C 
ATOM      7  O   UNL A   1      30.396  24.363  27.037  1.00  0.00    -0.270 OA
ATOM      8  H   UNL A   1      29.953  25.670  25.142  1.00  0.00     0.163 HD
BRANCH   6   9
ATOM      9  C   UNL A   1      31.950  23.095  25.821  1.00  0.00     0.067 C 
ATOM     10  C   UNL A   1      33.555  18.681  24.664  1.00  0.00    -0.047 A 
ATOM     11  C   UNL A   1      34.864  19.176  24.631  1.00  0.00     0.007 A 
ATOM     12  C   UNL A   1      32.516  19.540  25.049  1.00  0.00     0.015 A 
ATOM     13  C   UNL A   1      35.123  20.512  24.949  1.00  0.00     0.047 A 
ATOM     14  C   UNL A   1      32.775  20.879  25.363  1.00  0.00     0.017 A 
ATOM     15  C   UNL A   1      34.078  21.363  25.301  1.00  0.00     0.128 A 
ATOM     16  C   UNL A   1      31.678  21.798  25.623  1.00  0.00     0.025 C 
ATOM     17  O   UNL A   1      34.395  22.675  25.493  1.00  0.00    -0.475 OA
ATOM     18  C   UNL A   1      33.386  23.542  26.091  1.00  0.00     0.314 C 
BRANCH  10  19
ATOM     19  C   UNL A   1      33.255  17.256  24.264  1.00  0.00     0.032 C 
ATOM     20  C   UNL A   1      34.020  16.826  23.017  1.00  0.00     0.009 C 
ENDBRANCH  10  19
BRANCH  18  21
ATOM     21  C   UNL A   1      33.766  24.994  25.723  1.00  0.00     0.429 C 
ATOM     22  F   UNL A   1      33.081  25.916  26.436  1.00  0.00    -0.167 F 
ATOM     23  F   UNL A   1      35.077  25.234  26.005  1.00  0.00    -0.167 F 
ATOM     24  F   UNL A   1      33.599  25.260  24.407  1.00  0.00    -0.167 F 
ENDBRANCH  18  21
ENDBRANCH   6   9
ENDBRANCH   4   5
ENDBRANCH   3   4
ENDBRANCH   2   3
ENDBRANCH   1   2
BRANCH   1  25
ATOM     25  C   UNL A   1      32.605  28.297  23.968  1.00  0.00     0.021 C 
BRANCH  25  26
ATOM     26  C   UNL A   1      33.442  28.940  25.069  1.00  0.00     0.116 C 
BRANCH  26  27
ATOM     27  N   UNL A   1      32.845  30.180  25.534  1.00  0.00    -0.352 N 
ATOM     28  C   UNL A   1      33.132  30.912  26.660  1.00  0.00     0.251 C 
ATOM     29  H   UNL A   1      32.132  30.548  24.962  1.00  0.00     0.163 HD
ATOM     30  O   UNL A   1      32.356  31.785  27.032  1.00  0.00    -0.269 OA
BRANCH  28  31
ATOM     31  C   UNL A   1      34.368  30.630  27.421  1.00  0.00     0.039 A 
ATOM     32  C   UNL A   1      34.556  29.358  27.962  1.00  0.00     0.014 A 
ATOM     33  C   UNL A   1      35.331  31.626  27.615  1.00  0.00     0.014 A 
ATOM     34  C   UNL A   1      35.733  29.069  28.656  1.00  0.00     0.010 A 
ATOM     35  C   UNL A   1      36.537  31.315  28.239  1.00  0.00     0.010 A 
ATOM     36  C   UNL A   1      36.747  30.036  28.776  1.00  0.00    -0.014 A 
BRANCH  36  37
ATOM     37  C   UNL A   1      38.024  29.720  29.469  1.00  0.00     0.031 A 
ATOM     38  C   UNL A   1      38.330  30.332  30.809  1.00  0.00     0.074 A 
ATOM     39  C   UNL A   1      38.920  28.913  28.870  1.00  0.00     0.049 A 
ATOM     40  N   UNL A   1      39.396  30.195  31.557  1.00  0.00    -0.248 NA
ATOM     41  C   UNL A   1      37.319  31.242  31.369  1.00  0.00     0.031 C 
ATOM     42  C   UNL A   1      38.754  28.299  27.549  1.00  0.00     0.029 A 
ATOM     43  N   UNL A   1      40.148  28.465  29.289  1.00  0.00    -0.354 N 
ATOM     44  C   UNL A   1      39.186  31.004  32.669  1.00  0.00     0.074 A 
ATOM     45  C   UNL A   1      37.926  31.682  32.461  1.00  0.00     0.031 C 
ATOM     46  C   UNL A   1      39.819  27.528  27.285  1.00  0.00     0.029 A 
ATOM     47  C   UNL A   1      40.765  27.623  28.392  1.00  0.00     0.049 A 
ATOM     48  H   UNL A   1      40.548  28.720  30.151  1.00  0.00     0.167 HD
ATOM     49  C   UNL A   1      39.961  31.145  33.774  1.00  0.00     0.034 A 
ATOM     50  C   UNL A   1      41.960  27.001  28.452  1.00  0.00     0.034 A 
ATOM     51  C   UNL A   1      41.214  30.454  33.967  1.00  0.00     0.049 A 
ATOM     52  C   UNL A   1      42.810  27.185  29.684  1.00  0.00     0.074 A 
ATOM     53  C   UNL A   1      42.058  30.488  35.063  1.00  0.00     0.029 A 
ATOM     54  N   UNL A   1      41.807  29.608  33.038  1.00  0.00    -0.354 N 
ATOM     55  N   UNL A   1      42.573  27.913  30.752  1.00  0.00    -0.248 NA
ATOM     56  C   UNL A   1      44.079  26.449  29.727  1.00  0.00     0.031 C 
ATOM     57  C   UNL A   1      43.192  29.724  34.769  1.00  0.00     0.029 A 
ATOM     58  C   UNL A   1      43.018  29.138  33.525  1.00  0.00     0.049 A 
ATOM     59  H   UNL A   1      41.424  29.376  32.161  1.00  0.00     0.167 HD
ATOM     60  C   UNL A   1      43.647  27.688  31.610  1.00  0.00     0.074 A 
ATOM     61  C   UNL A   1      44.521  26.747  30.939  1.00  0.00     0.031 C 
ATOM     62  C   UNL A   1      43.885  28.205  32.843  1.00  0.00     0.034 A 
BRANCH  49  63
ATOM     63  C   UNL A   1      39.482  32.103  34.842  1.00  0.00     0.023 A 
ATOM     64  C   UNL A   1      38.913  31.646  36.044  1.00  0.00     0.031 A 
ATOM     65  C   UNL A   1      39.571  33.494  34.647  1.00  0.00     0.131 A 
ATOM     66  C   UNL A   1      38.386  32.564  36.965  1.00  0.00     0.055 A 
ATOM     67  C   UNL A   1      39.124  34.403  35.608  1.00  0.00     0.041 A 
ATOM     68  F   UNL A   1      40.082  33.993  33.511  1.00  0.00    -0.206 F 
ATOM     69  C   UNL A   1      38.512  33.940  36.769  1.00  0.00     0.022 A 
BRANCH  66  70
ATOM     70  S   UNL A   1      37.394  31.932  38.346  1.00  0.00     0.124 S 
ATOM     71  O   UNL A   1      38.310  32.106  39.470  1.00  0.00    -0.237 OA
ATOM     72  O   UNL A   1      36.230  32.810  38.327  1.00  0.00    -0.237 OA
ATOM     73  O   UNL A   1      37.136  30.542  37.974  1.00  0.00    -0.744 OA
ENDBRANCH  66  70
ENDBRANCH  49  63
BRANCH  50  74
ATOM     74  C   UNL A   1      42.426  26.146  27.323  1.00  0.00     0.023 A 
ATOM     75  C   UNL A   1      42.061  24.793  27.241  1.00  0.00     0.031 A 
ATOM     76  C   UNL A   1      43.277  26.659  26.328  1.00  0.00     0.131 A 
ATOM     77  C   UNL A   1      42.588  23.985  26.221  1.00  0.00     0.055 A 
ATOM     78  C   UNL A   1      43.751  25.866  25.282  1.00  0.00     0.041 A 
ATOM     79  F   UNL A   1      43.653  27.948  26.354  1.00  0.00    -0.206 F 
ATOM     80  C   UNL A   1      43.419  24.516  25.232  1.00  0.00     0.022 A 
BRANCH  77  81
ATOM     81  S   UNL A   1      42.248  22.204  26.258  1.00  0.00     0.124 S 
ATOM     82  O   UNL A   1      40.798  22.176  26.098  1.00  0.00    -0.237 OA
ATOM     83  O   UNL A   1      43.029  21.724  25.123  1.00  0.00    -0.237 OA
ATOM     84  O   UNL A   1      42.740  21.791  27.570  1.00  0.00    -0.744 OA
ENDBRANCH  77  81
ENDBRANCH  50  74
BRANCH  62  85
ATOM     85  C   UNL A   1      45.117  27.713  33.567  1.00  0.00     0.023 A 
ATOM     86  C   UNL A   1      45.091  26.578  34.396  1.00  0.00     0.031 A 
ATOM     87  C   UNL A   1      46.331  28.411  33.442  1.00  0.00     0.131 A 
ATOM     88  C   UNL A   1      46.236  26.215  35.120  1.00  0.00     0.055 A 
ATOM     89  C   UNL A   1      47.487  28.003  34.110  1.00  0.00     0.041 A 
ATOM     90  F   UNL A   1      46.415  29.504  32.667  1.00  0.00    -0.206 F 
ATOM     91  C   UNL A   1      47.439  26.909  34.968  1.00  0.00     0.022 A 
BRANCH  88  92
ATOM     92  S   UNL A   1      46.102  24.893  36.355  1.00  0.00     0.124 S 
ATOM     93  O   UNL A   1      46.817  23.798  35.707  1.00  0.00    -0.237 OA
ATOM     94  O   UNL A   1      46.759  25.484  37.516  1.00  0.00    -0.237 OA
ATOM     95  O   UNL A   1      44.659  24.696  36.492  1.00  0.00    -0.744 OA
ENDBRANCH  88  92
ENDBRANCH  62  85
ENDBRANCH  36  37
ENDBRANCH  28  31
ENDBRANCH  26  27
ENDBRANCH  25  26
ENDBRANCH   1  25
TORSDOF 18
ENDMDL
