MODEL 1
REMARK VINA RESULT:     -11.7      0.000      0.000
REMARK SMILES O=C(CSc1ccc(Cl)cc1)Nc1ccc(C(=O)NCCCCCCNC(=O)c2ccc(-c3c4nc(c(-c5cc(S(=O)(=O)[O-])ccc5F)c5ccc([nH]5)c(-c5cc(S(=O)(=O)[O-])ccc5F)c5nc(c(-c6cc(S(=O)(=O)[O-])ccc6F)c6ccc3[nH]6)C=C5)C=C4)cc2)cc1
REMARK SMILES IDX 22 1 21 2 20 3 19 4 17 5 18 6 16 8 13 9 14 10 93 11 15 12
REMARK SMILES IDX 92 13 12 14 1 15 2 16 3 18 4 19 5 20 6 21 11 22 7 23 10 24
REMARK SMILES IDX 8 25 9 26 23 27 24 28 25 29 26 30 27 31 28 33 29 34 30 35
REMARK SMILES IDX 91 36 31 37 90 38 32 39 33 40 34 41 84 42 35 43 89 44 83 45
REMARK SMILES IDX 85 46 36 47 88 48 82 49 81 50 37 52 69 53 49 54 68 55 50 56
REMARK SMILES IDX 53 57 67 58 86 59 51 60 52 61 66 63 87 64 54 65 38 66 39 67
REMARK SMILES IDX 47 68 40 69 46 70 48 71 45 72 41 73 42 74 43 75 44 76 70 77
REMARK SMILES IDX 71 78 79 79 72 80 78 81 80 82 77 83 73 84 74 85 75 86 76 87
REMARK SMILES IDX 55 88 56 89 64 90 57 91 63 92 65 93 62 94 58 95 59 96 60 97
REMARK SMILES IDX 61 98
REMARK H PARENT 19 7 12 17 26 32 85 51 53 62
REMARK Flexibility Score: inf
ROOT
ATOM      1  C   UNL A   1      31.951  30.474  26.678  1.00  0.00     0.002 C 
ENDROOT
BRANCH   1   2
ATOM      2  C   UNL A   1      31.876  29.227  25.789  1.00  0.00     0.021 C 
BRANCH   2   3
ATOM      3  C   UNL A   1      32.553  29.425  24.429  1.00  0.00     0.116 C 
BRANCH   3   4
ATOM      4  N   UNL A   1      31.546  29.546  23.391  1.00  0.00    -0.352 N 
ATOM      5  C   UNL A   1      30.891  28.616  22.624  1.00  0.00     0.251 C 
ATOM      6  O   UNL A   1      30.078  29.028  21.795  1.00  0.00    -0.269 OA
ATOM      7  H   UNL A   1      31.281  30.475  23.200  1.00  0.00     0.163 HD
BRANCH   5   8
ATOM      8  C   UNL A   1      31.063  27.147  22.799  1.00  0.00     0.039 A 
ATOM      9  C   UNL A   1      31.373  24.426  23.452  1.00  0.00     0.041 A 
ATOM     10  C   UNL A   1      30.230  25.114  23.859  1.00  0.00     0.027 A 
ATOM     11  C   UNL A   1      32.297  25.067  22.631  1.00  0.00     0.027 A 
ATOM     12  C   UNL A   1      30.092  26.474  23.558  1.00  0.00     0.016 A 
ATOM     13  C   UNL A   1      32.116  26.404  22.267  1.00  0.00     0.016 A 
BRANCH   9  14
ATOM     14  N   UNL A   1      31.551  23.103  23.892  1.00  0.00    -0.325 N 
ATOM     15  O   UNL A   1      32.864  23.501  25.765  1.00  0.00    -0.274 OA
ATOM     16  C   UNL A   1      32.298  22.724  24.997  1.00  0.00     0.234 C 
ATOM     17  H   UNL A   1      31.111  22.391  23.375  1.00  0.00     0.169 HD
BRANCH  16  18
ATOM     18  C   UNL A   1      32.411  21.226  25.212  1.00  0.00     0.175 C 
BRANCH  18  19
ATOM     19  S   UNL A   1      34.013  20.519  24.691  1.00  0.00    -0.116 SA
BRANCH  19  20
ATOM     20  C   UNL A   1      33.683  18.765  24.759  1.00  0.00     0.008 A 
ATOM     21  C   UNL A   1      32.614  18.322  25.548  1.00  0.00     0.016 A 
ATOM     22  C   UNL A   1      34.521  17.818  24.160  1.00  0.00     0.016 A 
ATOM     23  C   UNL A   1      32.390  16.954  25.741  1.00  0.00     0.021 A 
ATOM     24  C   UNL A   1      34.300  16.450  24.353  1.00  0.00     0.021 A 
ATOM     25  C   UNL A   1      33.242  16.024  25.150  1.00  0.00     0.041 A 
ATOM     26  Cl  UNL A   1      33.003  14.344  25.431  1.00  0.00    -0.084 Cl
ENDBRANCH  19  20
ENDBRANCH  18  19
ENDBRANCH  16  18
ENDBRANCH   9  14
ENDBRANCH   5   8
ENDBRANCH   3   4
ENDBRANCH   2   3
ENDBRANCH   1   2
BRANCH   1  27
ATOM     27  C   UNL A   1      30.999  31.605  26.270  1.00  0.00     0.002 C 
BRANCH  27  28
ATOM     28  C   UNL A   1      31.565  33.016  26.456  1.00  0.00     0.021 C 
BRANCH  28  29
ATOM     29  C   UNL A   1      32.718  33.094  27.452  1.00  0.00     0.116 C 
BRANCH  29  30
ATOM     30  N   UNL A   1      32.807  34.415  28.056  1.00  0.00    -0.352 N 
ATOM     31  C   UNL A   1      33.562  34.826  29.128  1.00  0.00     0.251 C 
ATOM     32  H   UNL A   1      32.250  35.111  27.639  1.00  0.00     0.163 HD
ATOM     33  O   UNL A   1      33.320  35.894  29.677  1.00  0.00    -0.269 OA
BRANCH  31  34
ATOM     34  C   UNL A   1      34.652  33.957  29.619  1.00  0.00     0.039 A 
ATOM     35  C   UNL A   1      35.951  34.157  29.149  1.00  0.00     0.014 A 
ATOM     36  C   UNL A   1      34.386  32.954  30.556  1.00  0.00     0.014 A 
ATOM     37  C   UNL A   1      36.998  33.396  29.676  1.00  0.00     0.010 A 
ATOM     38  C   UNL A   1      35.438  32.250  31.131  1.00  0.00     0.010 A 
ATOM     39  C   UNL A   1      36.756  32.467  30.701  1.00  0.00    -0.014 A 
BRANCH  39  40
ATOM     40  C   UNL A   1      37.864  31.716  31.348  1.00  0.00     0.031 A 
ATOM     41  C   UNL A   1      38.372  32.143  32.697  1.00  0.00     0.074 A 
ATOM     42  C   UNL A   1      38.453  30.697  30.690  1.00  0.00     0.049 A 
ATOM     43  N   UNL A   1      39.402  31.700  33.371  1.00  0.00    -0.248 NA
ATOM     44  C   UNL A   1      37.637  33.228  33.364  1.00  0.00     0.031 C 
ATOM     45  C   UNL A   1      38.058  30.204  29.369  1.00  0.00     0.029 A 
ATOM     46  N   UNL A   1      39.517  29.901  31.034  1.00  0.00    -0.354 N 
ATOM     47  C   UNL A   1      39.438  32.449  34.541  1.00  0.00     0.074 A 
ATOM     48  C   UNL A   1      38.370  33.422  34.450  1.00  0.00     0.031 C 
ATOM     49  C   UNL A   1      38.854  29.177  29.026  1.00  0.00     0.029 A 
ATOM     50  C   UNL A   1      39.854  28.978  30.070  1.00  0.00     0.049 A 
ATOM     51  H   UNL A   1      39.995  29.983  31.890  1.00  0.00     0.167 HD
ATOM     52  C   UNL A   1      40.268  32.320  35.606  1.00  0.00     0.034 A 
ATOM     53  C   UNL A   1      40.868  28.091  30.022  1.00  0.00     0.034 A 
ATOM     54  C   UNL A   1      41.330  31.347  35.681  1.00  0.00     0.049 A 
ATOM     55  C   UNL A   1      41.834  28.029  31.181  1.00  0.00     0.074 A 
ATOM     56  C   UNL A   1      42.216  31.116  36.719  1.00  0.00     0.029 A 
ATOM     57  N   UNL A   1      41.658  30.448  34.674  1.00  0.00    -0.354 N 
ATOM     58  N   UNL A   1      41.833  28.723  32.296  1.00  0.00    -0.248 NA
ATOM     59  C   UNL A   1      42.934  27.060  31.079  1.00  0.00     0.031 C 
ATOM     60  C   UNL A   1      43.120  30.130  36.314  1.00  0.00     0.029 A 
ATOM     61  C   UNL A   1      42.751  29.685  35.055  1.00  0.00     0.049 A 
ATOM     62  H   UNL A   1      41.182  30.365  33.816  1.00  0.00     0.167 HD
ATOM     63  C   UNL A   1      42.909  28.247  33.040  1.00  0.00     0.074 A 
ATOM     64  C   UNL A   1      43.525  27.197  32.257  1.00  0.00     0.031 C 
ATOM     65  C   UNL A   1      43.351  28.639  34.262  1.00  0.00     0.034 A 
BRANCH  52  66
ATOM     66  C   UNL A   1      40.063  33.262  36.768  1.00  0.00     0.023 A 
ATOM     67  C   UNL A   1      39.403  32.847  37.938  1.00  0.00     0.031 A 
ATOM     68  C   UNL A   1      40.519  34.589  36.706  1.00  0.00     0.131 A 
ATOM     69  C   UNL A   1      39.159  33.766  38.968  1.00  0.00     0.055 A 
ATOM     70  C   UNL A   1      40.347  35.477  37.769  1.00  0.00     0.041 A 
ATOM     71  F   UNL A   1      41.136  35.050  35.606  1.00  0.00    -0.206 F 
ATOM     72  C   UNL A   1      39.651  35.071  38.904  1.00  0.00     0.022 A 
BRANCH  69  73
ATOM     73  S   UNL A   1      38.068  33.269  40.328  1.00  0.00     0.124 S 
ATOM     74  O   UNL A   1      36.865  32.860  39.607  1.00  0.00    -0.237 OA
ATOM     75  O   UNL A   1      38.826  32.197  40.966  1.00  0.00    -0.237 OA
ATOM     76  O   UNL A   1      37.927  34.490  41.119  1.00  0.00    -0.744 OA
ENDBRANCH  69  73
ENDBRANCH  52  66
BRANCH  53  77
ATOM     77  C   UNL A   1      41.058  27.206  28.834  1.00  0.00     0.023 A 
ATOM     78  C   UNL A   1      42.063  27.475  27.892  1.00  0.00     0.031 A 
ATOM     79  C   UNL A   1      40.189  26.130  28.577  1.00  0.00     0.131 A 
ATOM     80  C   UNL A   1      42.130  26.729  26.705  1.00  0.00     0.055 A 
ATOM     81  C   UNL A   1      40.306  25.344  27.429  1.00  0.00     0.041 A 
ATOM     82  F   UNL A   1      39.207  25.828  29.441  1.00  0.00    -0.206 F 
ATOM     83  C   UNL A   1      41.269  25.655  26.475  1.00  0.00     0.022 A 
BRANCH  80  84
ATOM     84  S   UNL A   1      43.272  27.274  25.406  1.00  0.00     0.124 S 
ATOM     85  O   UNL A   1      42.406  28.112  24.585  1.00  0.00    -0.237 OA
ATOM     86  O   UNL A   1      44.297  27.969  26.176  1.00  0.00    -0.237 OA
ATOM     87  O   UNL A   1      43.701  26.022  24.785  1.00  0.00    -0.744 OA
ENDBRANCH  80  84
ENDBRANCH  53  77
BRANCH  65  88
ATOM     88  C   UNL A   1      44.526  27.892  34.845  1.00  0.00     0.023 A 
ATOM     89  C   UNL A   1      44.376  26.629  35.445  1.00  0.00     0.031 A 
ATOM     90  C   UNL A   1      45.815  28.451  34.791  1.00  0.00     0.131 A 
ATOM     91  C   UNL A   1      45.489  25.988  36.009  1.00  0.00     0.055 A 
ATOM     92  C   UNL A   1      46.928  27.780  35.298  1.00  0.00     0.041 A 
ATOM     93  F   UNL A   1      46.015  29.655  34.233  1.00  0.00    -0.206 F 
ATOM     94  C   UNL A   1      46.767  26.546  35.921  1.00  0.00     0.022 A 
BRANCH  91  95
ATOM     95  S   UNL A   1      45.233  24.447  36.928  1.00  0.00     0.124 S 
ATOM     96  O   UNL A   1      46.564  24.190  37.468  1.00  0.00    -0.237 OA
ATOM     97  O   UNL A   1      44.213  24.827  37.900  1.00  0.00    -0.237 OA
ATOM     98  O   UNL A   1      44.788  23.504  35.903  1.00  0.00    -0.744 OA
ENDBRANCH  91  95
ENDBRANCH  65  88
ENDBRANCH  39  40
ENDBRANCH  31  34
ENDBRANCH  29  30
ENDBRANCH  28  29
ENDBRANCH  27  28
ENDBRANCH   1  27
TORSDOF 20
ENDMDL
MODEL 2
REMARK VINA RESULT:     -11.6      5.727      9.704
REMARK SMILES O=C(CSc1ccc(Cl)cc1)Nc1ccc(C(=O)NCCCCCCNC(=O)c2ccc(-c3c4nc(c(-c5cc(S(=O)(=O)[O-])ccc5F)c5ccc([nH]5)c(-c5cc(S(=O)(=O)[O-])ccc5F)c5nc(c(-c6cc(S(=O)(=O)[O-])ccc6F)c6ccc3[nH]6)C=C5)C=C4)cc2)cc1
REMARK SMILES IDX 22 1 21 2 20 3 19 4 17 5 18 6 16 8 13 9 14 10 93 11 15 12
REMARK SMILES IDX 92 13 12 14 1 15 2 16 3 18 4 19 5 20 6 21 11 22 7 23 10 24
REMARK SMILES IDX 8 25 9 26 23 27 24 28 25 29 26 30 27 31 28 33 29 34 30 35
REMARK SMILES IDX 91 36 31 37 90 38 32 39 33 40 34 41 84 42 35 43 89 44 83 45
REMARK SMILES IDX 85 46 36 47 88 48 82 49 81 50 37 52 69 53 49 54 68 55 50 56
REMARK SMILES IDX 53 57 67 58 86 59 51 60 52 61 66 63 87 64 54 65 38 66 39 67
REMARK SMILES IDX 47 68 40 69 46 70 48 71 45 72 41 73 42 74 43 75 44 76 70 77
REMARK SMILES IDX 71 78 79 79 72 80 78 81 80 82 77 83 73 84 74 85 75 86 76 87
REMARK SMILES IDX 55 88 56 89 64 90 57 91 63 92 65 93 62 94 58 95 59 96 60 97
REMARK SMILES IDX 61 98
REMARK H PARENT 19 7 12 17 26 32 85 51 53 62
REMARK Flexibility Score: inf
ROOT
ATOM      1  C   UNL A   1      34.071  23.314  23.017  1.00  0.00     0.002 C 
ENDROOT
BRANCH   1   2
ATOM      2  C   UNL A   1      33.471  24.659  23.444  1.00  0.00     0.021 C 
BRANCH   2   3
ATOM      3  C   UNL A   1      32.729  24.580  24.781  1.00  0.00     0.116 C 
BRANCH   3   4
ATOM      4  N   UNL A   1      31.376  25.083  24.623  1.00  0.00    -0.352 N 
ATOM      5  C   UNL A   1      30.793  26.285  24.936  1.00  0.00     0.251 C 
ATOM      6  O   UNL A   1      29.593  26.421  24.691  1.00  0.00    -0.269 OA
ATOM      7  H   UNL A   1      30.757  24.437  24.212  1.00  0.00     0.163 HD
BRANCH   5   8
ATOM      8  C   UNL A   1      31.554  27.443  25.482  1.00  0.00     0.039 A 
ATOM      9  C   UNL A   1      32.716  29.718  26.667  1.00  0.00     0.041 A 
ATOM     10  C   UNL A   1      32.177  28.712  27.470  1.00  0.00     0.027 A 
ATOM     11  C   UNL A   1      32.772  29.531  25.288  1.00  0.00     0.027 A 
ATOM     12  C   UNL A   1      31.575  27.597  26.878  1.00  0.00     0.016 A 
ATOM     13  C   UNL A   1      32.239  28.378  24.706  1.00  0.00     0.016 A 
BRANCH   9  14
ATOM     14  N   UNL A   1      33.183  30.890  27.285  1.00  0.00    -0.325 N 
ATOM     15  O   UNL A   1      35.464  30.463  27.228  1.00  0.00    -0.274 OA
ATOM     16  C   UNL A   1      34.515  31.177  27.545  1.00  0.00     0.234 C 
ATOM     17  H   UNL A   1      32.514  31.560  27.552  1.00  0.00     0.169 HD
BRANCH  16  18
ATOM     18  C   UNL A   1      34.756  32.470  28.303  1.00  0.00     0.175 C 
BRANCH  18  19
ATOM     19  S   UNL A   1      33.403  33.688  28.146  1.00  0.00    -0.116 SA
BRANCH  19  20
ATOM     20  C   UNL A   1      33.625  34.679  29.615  1.00  0.00     0.008 A 
ATOM     21  C   UNL A   1      34.331  34.123  30.690  1.00  0.00     0.016 A 
ATOM     22  C   UNL A   1      33.019  35.929  29.777  1.00  0.00     0.016 A 
ATOM     23  C   UNL A   1      34.423  34.802  31.909  1.00  0.00     0.021 A 
ATOM     24  C   UNL A   1      33.109  36.610  30.997  1.00  0.00     0.021 A 
ATOM     25  C   UNL A   1      33.802  36.039  32.060  1.00  0.00     0.041 A 
ATOM     26  Cl  UNL A   1      33.866  36.852  33.575  1.00  0.00    -0.084 Cl
ENDBRANCH  19  20
ENDBRANCH  18  19
ENDBRANCH  16  18
ENDBRANCH   9  14
ENDBRANCH   5   8
ENDBRANCH   3   4
ENDBRANCH   2   3
ENDBRANCH   1   2
BRANCH   1  27
ATOM     27  C   UNL A   1      34.904  22.616  24.099  1.00  0.00     0.002 C 
BRANCH  27  28
ATOM     28  C   UNL A   1      36.178  23.363  24.507  1.00  0.00     0.021 C 
BRANCH  28  29
ATOM     29  C   UNL A   1      36.607  23.112  25.949  1.00  0.00     0.116 C 
BRANCH  29  30
ATOM     30  N   UNL A   1      37.494  21.963  26.046  1.00  0.00    -0.352 N 
ATOM     31  C   UNL A   1      38.853  21.934  26.248  1.00  0.00     0.251 C 
ATOM     32  H   UNL A   1      37.061  21.083  25.955  1.00  0.00     0.163 HD
ATOM     33  O   UNL A   1      39.484  20.906  26.035  1.00  0.00    -0.269 OA
BRANCH  31  34
ATOM     34  C   UNL A   1      39.540  23.159  26.707  1.00  0.00     0.039 A 
ATOM     35  C   UNL A   1      40.421  23.086  27.788  1.00  0.00     0.014 A 
ATOM     36  C   UNL A   1      39.322  24.376  26.054  1.00  0.00     0.014 A 
ATOM     37  C   UNL A   1      41.139  24.223  28.167  1.00  0.00     0.010 A 
ATOM     38  C   UNL A   1      40.091  25.486  26.387  1.00  0.00     0.010 A 
ATOM     39  C   UNL A   1      41.012  25.419  27.443  1.00  0.00    -0.014 A 
BRANCH  39  40
ATOM     40  C   UNL A   1      41.836  26.614  27.764  1.00  0.00     0.031 A 
ATOM     41  C   UNL A   1      41.243  27.743  28.560  1.00  0.00     0.074 A 
ATOM     42  C   UNL A   1      43.091  26.710  27.279  1.00  0.00     0.049 A 
ATOM     43  N   UNL A   1      41.751  28.916  28.838  1.00  0.00    -0.248 NA
ATOM     44  C   UNL A   1      39.888  27.532  29.092  1.00  0.00     0.031 C 
ATOM     45  C   UNL A   1      43.768  25.686  26.480  1.00  0.00     0.029 A 
ATOM     46  N   UNL A   1      44.017  27.718  27.376  1.00  0.00    -0.354 N 
ATOM     47  C   UNL A   1      40.781  29.582  29.579  1.00  0.00     0.074 A 
ATOM     48  C   UNL A   1      39.628  28.708  29.644  1.00  0.00     0.031 C 
ATOM     49  C   UNL A   1      45.007  26.111  26.179  1.00  0.00     0.029 A 
ATOM     50  C   UNL A   1      45.192  27.458  26.707  1.00  0.00     0.049 A 
ATOM     51  H   UNL A   1      43.856  28.550  27.875  1.00  0.00     0.167 HD
ATOM     52  C   UNL A   1      40.855  30.798  30.175  1.00  0.00     0.034 A 
ATOM     53  C   UNL A   1      46.283  28.228  26.519  1.00  0.00     0.034 A 
ATOM     54  C   UNL A   1      42.010  31.659  30.099  1.00  0.00     0.049 A 
ATOM     55  C   UNL A   1      46.305  29.615  27.117  1.00  0.00     0.074 A 
ATOM     56  C   UNL A   1      42.199  32.900  30.681  1.00  0.00     0.029 A 
ATOM     57  N   UNL A   1      43.170  31.373  29.391  1.00  0.00    -0.354 N 
ATOM     58  N   UNL A   1      45.390  30.216  27.843  1.00  0.00    -0.248 NA
ATOM     59  C   UNL A   1      47.506  30.426  26.873  1.00  0.00     0.031 C 
ATOM     60  C   UNL A   1      43.440  33.394  30.268  1.00  0.00     0.029 A 
ATOM     61  C   UNL A   1      44.063  32.427  29.495  1.00  0.00     0.049 A 
ATOM     62  H   UNL A   1      43.334  30.542  28.889  1.00  0.00     0.167 HD
ATOM     63  C   UNL A   1      45.925  31.459  28.172  1.00  0.00     0.074 A 
ATOM     64  C   UNL A   1      47.245  31.515  27.581  1.00  0.00     0.031 C 
ATOM     65  C   UNL A   1      45.377  32.466  28.899  1.00  0.00     0.034 A 
BRANCH  52  66
ATOM     66  C   UNL A   1      39.648  31.269  30.949  1.00  0.00     0.023 A 
ATOM     67  C   UNL A   1      39.643  31.289  32.355  1.00  0.00     0.031 A 
ATOM     68  C   UNL A   1      38.486  31.692  30.282  1.00  0.00     0.131 A 
ATOM     69  C   UNL A   1      38.480  31.657  33.047  1.00  0.00     0.055 A 
ATOM     70  C   UNL A   1      37.360  32.138  30.976  1.00  0.00     0.041 A 
ATOM     71  F   UNL A   1      38.423  31.674  28.941  1.00  0.00    -0.206 F 
ATOM     72  C   UNL A   1      37.347  32.109  32.367  1.00  0.00     0.022 A 
BRANCH  69  73
ATOM     73  S   UNL A   1      38.426  31.403  34.841  1.00  0.00     0.124 S 
ATOM     74  O   UNL A   1      38.333  29.947  34.929  1.00  0.00    -0.237 OA
ATOM     75  O   UNL A   1      39.686  31.990  35.282  1.00  0.00    -0.237 OA
ATOM     76  O   UNL A   1      37.223  32.122  35.253  1.00  0.00    -0.744 OA
ENDBRANCH  69  73
ENDBRANCH  52  66
BRANCH  53  77
ATOM     77  C   UNL A   1      47.439  27.737  25.711  1.00  0.00     0.023 A 
ATOM     78  C   UNL A   1      47.543  28.047  24.346  1.00  0.00     0.031 A 
ATOM     79  C   UNL A   1      48.410  26.886  26.267  1.00  0.00     0.131 A 
ATOM     80  C   UNL A   1      48.548  27.453  23.567  1.00  0.00     0.055 A 
ATOM     81  C   UNL A   1      49.452  26.355  25.503  1.00  0.00     0.041 A 
ATOM     82  F   UNL A   1      48.361  26.553  27.566  1.00  0.00    -0.206 F 
ATOM     83  C   UNL A   1      49.512  26.622  24.139  1.00  0.00     0.022 A 
BRANCH  80  84
ATOM     84  S   UNL A   1      48.489  27.674  21.767  1.00  0.00     0.124 S 
ATOM     85  O   UNL A   1      47.145  28.208  21.580  1.00  0.00    -0.237 OA
ATOM     86  O   UNL A   1      49.589  28.606  21.541  1.00  0.00    -0.237 OA
ATOM     87  O   UNL A   1      48.702  26.322  21.253  1.00  0.00    -0.744 OA
ENDBRANCH  80  84
ENDBRANCH  53  77
BRANCH  65  88
ATOM     88  C   UNL A   1      46.228  33.690  29.137  1.00  0.00     0.023 A 
ATOM     89  C   UNL A   1      47.088  33.791  30.245  1.00  0.00     0.031 A 
ATOM     90  C   UNL A   1      46.183  34.767  28.233  1.00  0.00     0.131 A 
ATOM     91  C   UNL A   1      47.831  34.963  30.447  1.00  0.00     0.055 A 
ATOM     92  C   UNL A   1      46.972  35.903  28.406  1.00  0.00     0.041 A 
ATOM     93  F   UNL A   1      45.378  34.724  27.160  1.00  0.00    -0.206 F 
ATOM     94  C   UNL A   1      47.794  36.011  29.524  1.00  0.00     0.022 A 
BRANCH  91  95
ATOM     95  S   UNL A   1      48.792  35.133  31.975  1.00  0.00     0.124 S 
ATOM     96  O   UNL A   1      49.499  33.858  32.033  1.00  0.00    -0.237 OA
ATOM     97  O   UNL A   1      49.614  36.307  31.699  1.00  0.00    -0.237 OA
ATOM     98  O   UNL A   1      47.771  35.323  33.004  1.00  0.00    -0.744 OA
ENDBRANCH  91  95
ENDBRANCH  65  88
ENDBRANCH  39  40
ENDBRANCH  31  34
ENDBRANCH  29  30
ENDBRANCH  28  29
ENDBRANCH  27  28
ENDBRANCH   1  27
TORSDOF 20
ENDMDL
MODEL 3
REMARK VINA RESULT:     -11.5      5.707     10.053
REMARK SMILES O=C(CSc1ccc(Cl)cc1)Nc1ccc(C(=O)NCCCCCCNC(=O)c2ccc(-c3c4nc(c(-c5cc(S(=O)(=O)[O-])ccc5F)c5ccc([nH]5)c(-c5cc(S(=O)(=O)[O-])ccc5F)c5nc(c(-c6cc(S(=O)(=O)[O-])ccc6F)c6ccc3[nH]6)C=C5)C=C4)cc2)cc1
REMARK SMILES IDX 22 1 21 2 20 3 19 4 17 5 18 6 16 8 13 9 14 10 93 11 15 12
REMARK SMILES IDX 92 13 12 14 1 15 2 16 3 18 4 19 5 20 6 21 11 22 7 23 10 24
REMARK SMILES IDX 8 25 9 26 23 27 24 28 25 29 26 30 27 31 28 33 29 34 30 35
REMARK SMILES IDX 91 36 31 37 90 38 32 39 33 40 34 41 84 42 35 43 89 44 83 45
REMARK SMILES IDX 85 46 36 47 88 48 82 49 81 50 37 52 69 53 49 54 68 55 50 56
REMARK SMILES IDX 53 57 67 58 86 59 51 60 52 61 66 63 87 64 54 65 38 66 39 67
REMARK SMILES IDX 47 68 40 69 46 70 48 71 45 72 41 73 42 74 43 75 44 76 70 77
REMARK SMILES IDX 71 78 79 79 72 80 78 81 80 82 77 83 73 84 74 85 75 86 76 87
REMARK SMILES IDX 55 88 56 89 64 90 57 91 63 92 65 93 62 94 58 95 59 96 60 97
REMARK SMILES IDX 61 98
REMARK H PARENT 19 7 12 17 26 32 85 51 53 62
REMARK Flexibility Score: inf
ROOT
ATOM      1  C   UNL A   1      33.926  23.913  23.128  1.00  0.00     0.002 C 
ENDROOT
BRANCH   1   2
ATOM      2  C   UNL A   1      33.266  25.031  23.945  1.00  0.00     0.021 C 
BRANCH   2   3
ATOM      3  C   UNL A   1      32.197  24.509  24.910  1.00  0.00     0.116 C 
BRANCH   3   4
ATOM      4  N   UNL A   1      30.912  25.103  24.588  1.00  0.00    -0.352 N 
ATOM      5  C   UNL A   1      30.389  26.352  24.805  1.00  0.00     0.251 C 
ATOM      6  O   UNL A   1      29.238  26.565  24.422  1.00  0.00    -0.269 OA
ATOM      7  H   UNL A   1      30.296  24.490  24.124  1.00  0.00     0.163 HD
BRANCH   5   8
ATOM      8  C   UNL A   1      31.169  27.469  25.408  1.00  0.00     0.039 A 
ATOM      9  C   UNL A   1      32.391  29.620  26.753  1.00  0.00     0.041 A 
ATOM     10  C   UNL A   1      32.052  28.462  27.454  1.00  0.00     0.027 A 
ATOM     11  C   UNL A   1      32.222  29.653  25.371  1.00  0.00     0.027 A 
ATOM     12  C   UNL A   1      31.418  27.407  26.788  1.00  0.00     0.016 A 
ATOM     13  C   UNL A   1      31.660  28.564  24.698  1.00  0.00     0.016 A 
BRANCH   9  14
ATOM     14  N   UNL A   1      32.893  30.717  27.473  1.00  0.00    -0.325 N 
ATOM     15  O   UNL A   1      35.168  30.324  27.222  1.00  0.00    -0.274 OA
ATOM     16  C   UNL A   1      34.238  30.985  27.681  1.00  0.00     0.234 C 
ATOM     17  H   UNL A   1      32.240  31.343  27.860  1.00  0.00     0.169 HD
BRANCH  16  18
ATOM     18  C   UNL A   1      34.523  32.183  28.569  1.00  0.00     0.175 C 
BRANCH  18  19
ATOM     19  S   UNL A   1      33.588  33.685  28.114  1.00  0.00    -0.116 SA
BRANCH  19  20
ATOM     20  C   UNL A   1      33.604  34.609  29.643  1.00  0.00     0.008 A 
ATOM     21  C   UNL A   1      33.078  35.907  29.638  1.00  0.00     0.016 A 
ATOM     22  C   UNL A   1      34.230  34.136  30.801  1.00  0.00     0.016 A 
ATOM     23  C   UNL A   1      33.182  36.721  30.771  1.00  0.00     0.021 A 
ATOM     24  C   UNL A   1      34.336  34.949  31.935  1.00  0.00     0.021 A 
ATOM     25  C   UNL A   1      33.820  36.241  31.912  1.00  0.00     0.041 A 
ATOM     26  Cl  UNL A   1      33.999  37.259  33.286  1.00  0.00    -0.084 Cl
ENDBRANCH  19  20
ENDBRANCH  18  19
ENDBRANCH  16  18
ENDBRANCH   9  14
ENDBRANCH   5   8
ENDBRANCH   3   4
ENDBRANCH   2   3
ENDBRANCH   1   2
BRANCH   1  27
ATOM     27  C   UNL A   1      34.677  22.870  23.966  1.00  0.00     0.002 C 
BRANCH  27  28
ATOM     28  C   UNL A   1      36.127  23.238  24.294  1.00  0.00     0.021 C 
BRANCH  28  29
ATOM     29  C   UNL A   1      36.502  23.029  25.758  1.00  0.00     0.116 C 
BRANCH  29  30
ATOM     30  N   UNL A   1      37.339  21.851  25.928  1.00  0.00    -0.352 N 
ATOM     31  C   UNL A   1      38.686  21.777  26.190  1.00  0.00     0.251 C 
ATOM     32  H   UNL A   1      36.877  20.986  25.843  1.00  0.00     0.163 HD
ATOM     33  O   UNL A   1      39.285  20.720  26.034  1.00  0.00    -0.269 OA
BRANCH  31  34
ATOM     34  C   UNL A   1      39.400  22.989  26.643  1.00  0.00     0.039 A 
ATOM     35  C   UNL A   1      40.397  22.874  27.614  1.00  0.00     0.014 A 
ATOM     36  C   UNL A   1      39.091  24.236  26.092  1.00  0.00     0.014 A 
ATOM     37  C   UNL A   1      41.134  24.003  27.980  1.00  0.00     0.010 A 
ATOM     38  C   UNL A   1      39.874  25.342  26.405  1.00  0.00     0.010 A 
ATOM     39  C   UNL A   1      40.908  25.236  27.347  1.00  0.00    -0.014 A 
BRANCH  39  40
ATOM     40  C   UNL A   1      41.743  26.429  27.646  1.00  0.00     0.031 A 
ATOM     41  C   UNL A   1      41.155  27.585  28.406  1.00  0.00     0.074 A 
ATOM     42  C   UNL A   1      43.004  26.497  27.174  1.00  0.00     0.049 A 
ATOM     43  N   UNL A   1      41.674  28.758  28.660  1.00  0.00    -0.248 NA
ATOM     44  C   UNL A   1      39.792  27.404  28.928  1.00  0.00     0.031 C 
ATOM     45  C   UNL A   1      43.677  25.445  26.409  1.00  0.00     0.029 A 
ATOM     46  N   UNL A   1      43.941  27.496  27.254  1.00  0.00    -0.354 N 
ATOM     47  C   UNL A   1      40.704  29.454  29.373  1.00  0.00     0.074 A 
ATOM     48  C   UNL A   1      39.540  28.596  29.448  1.00  0.00     0.031 C 
ATOM     49  C   UNL A   1      44.924  25.847  26.111  1.00  0.00     0.029 A 
ATOM     50  C   UNL A   1      45.120  27.205  26.606  1.00  0.00     0.049 A 
ATOM     51  H   UNL A   1      43.785  28.343  27.731  1.00  0.00     0.167 HD
ATOM     52  C   UNL A   1      40.787  30.685  29.938  1.00  0.00     0.034 A 
ATOM     53  C   UNL A   1      46.222  27.956  26.411  1.00  0.00     0.034 A 
ATOM     54  C   UNL A   1      41.952  31.529  29.853  1.00  0.00     0.049 A 
ATOM     55  C   UNL A   1      46.254  29.358  26.973  1.00  0.00     0.074 A 
ATOM     56  C   UNL A   1      42.151  32.783  30.405  1.00  0.00     0.029 A 
ATOM     57  N   UNL A   1      43.117  31.211  29.166  1.00  0.00    -0.354 N 
ATOM     58  N   UNL A   1      45.340  29.988  27.674  1.00  0.00    -0.248 NA
ATOM     59  C   UNL A   1      47.468  30.148  26.722  1.00  0.00     0.031 C 
ATOM     60  C   UNL A   1      43.402  33.251  29.994  1.00  0.00     0.029 A 
ATOM     61  C   UNL A   1      44.021  32.257  29.252  1.00  0.00     0.049 A 
ATOM     62  H   UNL A   1      43.276  30.365  28.687  1.00  0.00     0.167 HD
ATOM     63  C   UNL A   1      45.886  31.233  27.977  1.00  0.00     0.074 A 
ATOM     64  C   UNL A   1      47.213  31.258  27.399  1.00  0.00     0.031 C 
ATOM     65  C   UNL A   1      45.343  32.265  28.671  1.00  0.00     0.034 A 
BRANCH  52  66
ATOM     66  C   UNL A   1      39.577  31.189  30.687  1.00  0.00     0.023 A 
ATOM     67  C   UNL A   1      39.560  31.252  32.091  1.00  0.00     0.031 A 
ATOM     68  C   UNL A   1      38.426  31.604  29.996  1.00  0.00     0.131 A 
ATOM     69  C   UNL A   1      38.394  31.651  32.760  1.00  0.00     0.055 A 
ATOM     70  C   UNL A   1      37.297  32.081  30.665  1.00  0.00     0.041 A 
ATOM     71  F   UNL A   1      38.375  31.545  28.655  1.00  0.00    -0.206 F 
ATOM     72  C   UNL A   1      37.272  32.093  32.057  1.00  0.00     0.022 A 
BRANCH  69  73
ATOM     73  S   UNL A   1      38.321  31.452  34.561  1.00  0.00     0.124 S 
ATOM     74  O   UNL A   1      39.569  32.085  34.979  1.00  0.00    -0.237 OA
ATOM     75  O   UNL A   1      37.096  32.164  34.909  1.00  0.00    -0.237 OA
ATOM     76  O   UNL A   1      38.274  30.003  34.743  1.00  0.00    -0.744 OA
ENDBRANCH  69  73
ENDBRANCH  52  66
BRANCH  53  77
ATOM     77  C   UNL A   1      47.381  27.431  25.629  1.00  0.00     0.023 A 
ATOM     78  C   UNL A   1      48.456  26.800  26.274  1.00  0.00     0.031 A 
ATOM     79  C   UNL A   1      47.472  27.624  24.239  1.00  0.00     0.131 A 
ATOM     80  C   UNL A   1      49.604  26.451  25.546  1.00  0.00     0.055 A 
ATOM     81  C   UNL A   1      48.587  27.210  23.506  1.00  0.00     0.041 A 
ATOM     82  F   UNL A   1      46.476  28.224  23.568  1.00  0.00    -0.206 F 
ATOM     83  C   UNL A   1      49.670  26.638  24.165  1.00  0.00     0.022 A 
BRANCH  80  84
ATOM     84  S   UNL A   1      51.064  25.880  26.458  1.00  0.00     0.124 S 
ATOM     85  O   UNL A   1      51.458  27.089  27.171  1.00  0.00    -0.237 OA
ATOM     86  O   UNL A   1      50.509  24.805  27.274  1.00  0.00    -0.237 OA
ATOM     87  O   UNL A   1      51.977  25.451  25.401  1.00  0.00    -0.744 OA
ENDBRANCH  80  84
ENDBRANCH  53  77
BRANCH  65  88
ATOM     88  C   UNL A   1      46.206  33.484  28.887  1.00  0.00     0.023 A 
ATOM     89  C   UNL A   1      46.201  34.564  27.987  1.00  0.00     0.031 A 
ATOM     90  C   UNL A   1      47.040  33.567  30.016  1.00  0.00     0.131 A 
ATOM     91  C   UNL A   1      47.048  35.660  28.206  1.00  0.00     0.055 A 
ATOM     92  C   UNL A   1      47.834  34.687  30.262  1.00  0.00     0.041 A 
ATOM     93  F   UNL A   1      47.087  32.563  30.906  1.00  0.00    -0.206 F 
ATOM     94  C   UNL A   1      47.850  35.737  29.348  1.00  0.00     0.022 A 
BRANCH  91  95
ATOM     95  S   UNL A   1      47.148  36.952  26.939  1.00  0.00     0.124 S 
ATOM     96  O   UNL A   1      48.138  37.861  27.508  1.00  0.00    -0.237 OA
ATOM     97  O   UNL A   1      47.573  36.203  25.760  1.00  0.00    -0.237 OA
ATOM     98  O   UNL A   1      45.786  37.479  26.877  1.00  0.00    -0.744 OA
ENDBRANCH  91  95
ENDBRANCH  65  88
ENDBRANCH  39  40
ENDBRANCH  31  34
ENDBRANCH  29  30
ENDBRANCH  28  29
ENDBRANCH  27  28
ENDBRANCH   1  27
TORSDOF 20
ENDMDL
