MODEL 1
REMARK VINA RESULT:     -13.3      0.000      0.000
REMARK SMILES O=C(NCCCCCCNC(=O)c1ccccc1C(=O)Nc1ccc(N2C(=O)[C@H]3[C@@H]4CC[C@@H](C4)[C@@H]3C2=O)cc1)c1ccc(-c2c3nc(c(-c4cc(S(=O)(=O)[O-])ccc4F)c4ccc([nH]4)c(-c4cc(S(=O)(=O)[O-])ccc4F)c4nc(c(-c5cc(S(=O)(=O)[O-])ccc5F)c5ccc2[nH]5)C=C4)C=C3)cc1
REMARK SMILES IDX 6 1 5 2 4 3 3 4 1 5 2 6 40 8 41 9 102 10 42 11 101 12 43 13
REMARK SMILES IDX 44 14 45 15 95 16 46 17 100 18 94 19 96 20 47 21 99 22 93 23
REMARK SMILES IDX 92 24 48 26 80 27 60 28 79 29 61 30 64 31 78 32 97 33 62 34
REMARK SMILES IDX 63 35 77 37 98 38 65 39 49 40 50 41 58 42 51 43 57 44 59 45
REMARK SMILES IDX 56 46 52 47 53 48 54 49 55 50 81 51 82 52 90 53 83 54 89 55
REMARK SMILES IDX 91 56 88 57 84 58 85 59 86 60 87 61 66 62 67 63 75 64 68 65
REMARK SMILES IDX 74 66 76 67 73 68 69 69 70 70 71 71 72 72 7 73 8 74 9 75
REMARK SMILES IDX 10 76 11 77 12 79 13 80 14 81 18 82 15 83 17 84 16 85 19 86
REMARK SMILES IDX 20 87 21 88 22 90 23 91 39 92 24 93 38 94 25 95 26 96 27 97
REMARK SMILES IDX 36 98 28 99 29 100 35 101 37 102 30 103 33 104 31 105 34 106
REMARK SMILES IDX 32 107
REMARK H PARENT 3 7 96 25 64 36 10 78 21 89
REMARK Flexibility Score: inf
ROOT
ATOM      1  C   UNL A   1      36.075  22.957  24.089  1.00  0.00     0.002 C 
ENDROOT
BRANCH   1   2
ATOM      2  C   UNL A   1      37.109  21.874  24.354  1.00  0.00     0.021 C 
BRANCH   2   3
ATOM      3  C   UNL A   1      37.762  21.946  25.718  1.00  0.00     0.116 C 
BRANCH   3   4
ATOM      4  N   UNL A   1      38.696  20.858  25.964  1.00  0.00    -0.352 N 
ATOM      5  O   UNL A   1      40.726  19.984  26.464  1.00  0.00    -0.269 OA
ATOM      6  C   UNL A   1      39.993  20.965  26.407  1.00  0.00     0.251 C 
ATOM      7  H   UNL A   1      38.362  19.947  25.794  1.00  0.00     0.163 HD
BRANCH   6   8
ATOM      8  C   UNL A   1      40.484  22.305  26.787  1.00  0.00     0.039 A 
ATOM      9  C   UNL A   1      41.339  22.438  27.886  1.00  0.00     0.014 A 
ATOM     10  C   UNL A   1      40.030  23.430  26.098  1.00  0.00     0.014 A 
ATOM     11  C   UNL A   1      41.633  23.700  28.378  1.00  0.00     0.010 A 
ATOM     12  C   UNL A   1      40.422  24.699  26.527  1.00  0.00     0.010 A 
ATOM     13  C   UNL A   1      41.221  24.841  27.674  1.00  0.00    -0.014 A 
BRANCH  13  14
ATOM     14  C   UNL A   1      41.781  26.158  28.063  1.00  0.00     0.031 A 
ATOM     15  C   UNL A   1      40.951  27.192  28.766  1.00  0.00     0.074 A 
ATOM     16  C   UNL A   1      43.070  26.399  27.745  1.00  0.00     0.049 A 
ATOM     17  N   UNL A   1      41.284  28.408  29.111  1.00  0.00    -0.248 NA
ATOM     18  C   UNL A   1      39.573  26.822  29.123  1.00  0.00     0.031 C 
ATOM     19  C   UNL A   1      43.955  25.451  27.057  1.00  0.00     0.029 A 
ATOM     20  N   UNL A   1      43.864  27.497  27.949  1.00  0.00    -0.354 N 
ATOM     21  C   UNL A   1      40.154  28.963  29.700  1.00  0.00     0.074 A 
ATOM     22  C   UNL A   1      39.122  27.949  29.662  1.00  0.00     0.031 C 
ATOM     23  C   UNL A   1      45.171  25.995  26.926  1.00  0.00     0.029 A 
ATOM     24  C   UNL A   1      45.128  27.361  27.421  1.00  0.00     0.049 A 
ATOM     25  H   UNL A   1      43.560  28.302  28.427  1.00  0.00     0.167 HD
ATOM     26  C   UNL A   1      40.006  30.209  30.214  1.00  0.00     0.034 A 
ATOM     27  C   UNL A   1      46.125  28.256  27.293  1.00  0.00     0.034 A 
ATOM     28  C   UNL A   1      41.063  31.192  30.244  1.00  0.00     0.049 A 
ATOM     29  C   UNL A   1      45.901  29.647  27.819  1.00  0.00     0.074 A 
ATOM     30  C   UNL A   1      41.045  32.454  30.814  1.00  0.00     0.029 A 
ATOM     31  N   UNL A   1      42.315  31.039  29.663  1.00  0.00    -0.354 N 
ATOM     32  N   UNL A   1      44.845  30.134  28.430  1.00  0.00    -0.248 NA
ATOM     33  C   UNL A   1      46.993  30.608  27.635  1.00  0.00     0.031 C 
ATOM     34  C   UNL A   1      42.246  33.095  30.496  1.00  0.00     0.029 A 
ATOM     35  C   UNL A   1      43.052  32.205  29.805  1.00  0.00     0.049 A 
ATOM     36  H   UNL A   1      42.633  30.222  29.214  1.00  0.00     0.167 HD
ATOM     37  C   UNL A   1      45.154  31.459  28.713  1.00  0.00     0.074 A 
ATOM     38  C   UNL A   1      46.505  31.681  28.238  1.00  0.00     0.031 C 
ATOM     39  C   UNL A   1      44.391  32.410  29.306  1.00  0.00     0.034 A 
BRANCH  26  40
ATOM     40  C   UNL A   1      38.649  30.616  30.734  1.00  0.00     0.023 A 
ATOM     41  C   UNL A   1      37.718  31.312  29.944  1.00  0.00     0.031 A 
ATOM     42  C   UNL A   1      38.261  30.243  32.034  1.00  0.00     0.131 A 
ATOM     43  C   UNL A   1      36.459  31.638  30.474  1.00  0.00     0.055 A 
ATOM     44  C   UNL A   1      36.987  30.515  32.533  1.00  0.00     0.041 A 
ATOM     45  F   UNL A   1      39.117  29.593  32.841  1.00  0.00    -0.206 F 
ATOM     46  C   UNL A   1      36.078  31.222  31.752  1.00  0.00     0.022 A 
BRANCH  43  47
ATOM     47  S   UNL A   1      35.347  32.690  29.499  1.00  0.00     0.124 S 
ATOM     48  O   UNL A   1      34.112  32.615  30.275  1.00  0.00    -0.237 OA
ATOM     49  O   UNL A   1      36.035  33.976  29.515  1.00  0.00    -0.237 OA
ATOM     50  O   UNL A   1      35.298  32.025  28.199  1.00  0.00    -0.744 OA
ENDBRANCH  43  47
ENDBRANCH  26  40
BRANCH  27  51
ATOM     51  C   UNL A   1      47.377  27.894  26.570  1.00  0.00     0.023 A 
ATOM     52  C   UNL A   1      47.465  28.005  25.176  1.00  0.00     0.031 A 
ATOM     53  C   UNL A   1      48.489  27.371  27.260  1.00  0.00     0.131 A 
ATOM     54  C   UNL A   1      48.610  27.542  24.511  1.00  0.00     0.055 A 
ATOM     55  C   UNL A   1      49.654  26.983  26.601  1.00  0.00     0.041 A 
ATOM     56  F   UNL A   1      48.461  27.239  28.597  1.00  0.00    -0.206 F 
ATOM     57  C   UNL A   1      49.711  27.048  25.213  1.00  0.00     0.022 A 
BRANCH  54  58
ATOM     58  S   UNL A   1      48.579  27.465  22.700  1.00  0.00     0.124 S 
ATOM     59  O   UNL A   1      47.369  28.219  22.392  1.00  0.00    -0.237 OA
ATOM     60  O   UNL A   1      49.842  28.105  22.349  1.00  0.00    -0.237 OA
ATOM     61  O   UNL A   1      48.509  26.032  22.422  1.00  0.00    -0.744 OA
ENDBRANCH  54  58
ENDBRANCH  27  51
BRANCH  39  62
ATOM     62  C   UNL A   1      45.019  33.769  29.483  1.00  0.00     0.023 A 
ATOM     63  C   UNL A   1      44.903  34.762  28.495  1.00  0.00     0.031 A 
ATOM     64  C   UNL A   1      45.748  34.069  30.645  1.00  0.00     0.131 A 
ATOM     65  C   UNL A   1      45.552  35.993  28.667  1.00  0.00     0.055 A 
ATOM     66  C   UNL A   1      46.335  35.318  30.840  1.00  0.00     0.041 A 
ATOM     67  F   UNL A   1      45.894  33.152  31.616  1.00  0.00    -0.206 F 
ATOM     68  C   UNL A   1      46.249  36.285  29.841  1.00  0.00     0.022 A 
BRANCH  65  69
ATOM     69  S   UNL A   1      45.538  37.181  27.297  1.00  0.00     0.124 S 
ATOM     70  O   UNL A   1      46.274  38.306  27.865  1.00  0.00    -0.237 OA
ATOM     71  O   UNL A   1      46.218  36.446  26.236  1.00  0.00    -0.237 OA
ATOM     72  O   UNL A   1      44.115  37.422  27.068  1.00  0.00    -0.744 OA
ENDBRANCH  65  69
ENDBRANCH  39  62
ENDBRANCH  13  14
ENDBRANCH   6   8
ENDBRANCH   3   4
ENDBRANCH   2   3
ENDBRANCH   1   2
BRANCH   1  73
ATOM     73  C   UNL A   1      35.980  24.075  25.131  1.00  0.00     0.002 C 
BRANCH  73  74
ATOM     74  C   UNL A   1      34.589  24.285  25.747  1.00  0.00     0.021 C 
BRANCH  74  75
ATOM     75  C   UNL A   1      33.975  25.649  25.445  1.00  0.00     0.116 C 
BRANCH  75  76
ATOM     76  N   UNL A   1      32.886  25.953  26.354  1.00  0.00    -0.352 N 
ATOM     77  C   UNL A   1      31.842  26.818  26.203  1.00  0.00     0.252 C 
ATOM     78  H   UNL A   1      32.903  25.461  27.207  1.00  0.00     0.163 HD
ATOM     79  O   UNL A   1      31.126  27.082  27.170  1.00  0.00    -0.269 OA
BRANCH  77  80
ATOM     80  C   UNL A   1      31.618  27.558  24.947  1.00  0.00     0.052 A 
ATOM     81  C   UNL A   1      32.573  28.588  24.765  1.00  0.00     0.014 A 
ATOM     82  C   UNL A   1      30.629  27.340  23.975  1.00  0.00     0.052 A 
ATOM     83  C   UNL A   1      32.627  29.334  23.594  1.00  0.00     0.001 A 
ATOM     84  C   UNL A   1      30.734  28.093  22.778  1.00  0.00     0.014 A 
ATOM     85  C   UNL A   1      31.722  29.064  22.583  1.00  0.00     0.001 A 
BRANCH  82  86
ATOM     86  C   UNL A   1      29.521  26.334  23.946  1.00  0.00     0.256 C 
ATOM     87  O   UNL A   1      28.368  26.775  23.860  1.00  0.00    -0.269 OA
ATOM     88  N   UNL A   1      29.632  24.964  23.916  1.00  0.00    -0.322 N 
ATOM     89  H   UNL A   1      28.773  24.503  23.774  1.00  0.00     0.170 HD
BRANCH  88  90
ATOM     90  C   UNL A   1      30.715  24.100  24.047  1.00  0.00     0.041 A 
ATOM     91  C   UNL A   1      30.746  23.314  25.202  1.00  0.00     0.028 A 
ATOM     92  C   UNL A   1      31.683  23.929  23.070  1.00  0.00     0.028 A 
ATOM     93  C   UNL A   1      31.516  22.158  25.233  1.00  0.00     0.029 A 
ATOM     94  C   UNL A   1      32.570  22.855  23.174  1.00  0.00     0.029 A 
ATOM     95  C   UNL A   1      32.402  21.904  24.193  1.00  0.00     0.052 A 
BRANCH  95  96
ATOM     96  N   UNL A   1      32.991  20.639  24.053  1.00  0.00    -0.250 N 
ATOM     97  C   UNL A   1      32.521  19.672  23.160  1.00  0.00     0.237 C 
ATOM     98  C   UNL A   1      33.907  20.113  24.990  1.00  0.00     0.237 C 
ATOM     99  O   UNL A   1      31.876  19.787  22.140  1.00  0.00    -0.274 OA
ATOM    100  C   UNL A   1      32.857  18.404  23.861  1.00  0.00     0.095 C 
ATOM    101  C   UNL A   1      34.221  18.759  24.426  1.00  0.00     0.095 C 
ATOM    102  O   UNL A   1      34.429  20.625  25.965  1.00  0.00    -0.274 OA
ATOM    103  C   UNL A   1      33.045  16.953  23.423  1.00  0.00     0.002 C 
ATOM    104  C   UNL A   1      34.669  17.397  24.942  1.00  0.00     0.002 C 
ATOM    105  C   UNL A   1      32.577  16.139  24.649  1.00  0.00     0.005 C 
ATOM    106  C   UNL A   1      34.561  16.681  23.569  1.00  0.00     0.009 C 
ATOM    107  C   UNL A   1      33.592  16.603  25.736  1.00  0.00     0.005 C 
ENDBRANCH  95  96
ENDBRANCH  88  90
ENDBRANCH  82  86
ENDBRANCH  77  80
ENDBRANCH  75  76
ENDBRANCH  74  75
ENDBRANCH  73  74
ENDBRANCH   1  73
TORSDOF 19
ENDMDL
MODEL 2
REMARK VINA RESULT:     -13.0      5.037     10.657
REMARK SMILES O=C(NCCCCCCNC(=O)c1ccccc1C(=O)Nc1ccc(N2C(=O)[C@H]3[C@@H]4CC[C@@H](C4)[C@@H]3C2=O)cc1)c1ccc(-c2c3nc(c(-c4cc(S(=O)(=O)[O-])ccc4F)c4ccc([nH]4)c(-c4cc(S(=O)(=O)[O-])ccc4F)c4nc(c(-c5cc(S(=O)(=O)[O-])ccc5F)c5ccc2[nH]5)C=C4)C=C3)cc1
REMARK SMILES IDX 6 1 5 2 4 3 3 4 1 5 2 6 40 8 41 9 102 10 42 11 101 12 43 13
REMARK SMILES IDX 44 14 45 15 95 16 46 17 100 18 94 19 96 20 47 21 99 22 93 23
REMARK SMILES IDX 92 24 48 26 80 27 60 28 79 29 61 30 64 31 78 32 97 33 62 34
REMARK SMILES IDX 63 35 77 37 98 38 65 39 49 40 50 41 58 42 51 43 57 44 59 45
REMARK SMILES IDX 56 46 52 47 53 48 54 49 55 50 81 51 82 52 90 53 83 54 89 55
REMARK SMILES IDX 91 56 88 57 84 58 85 59 86 60 87 61 66 62 67 63 75 64 68 65
REMARK SMILES IDX 74 66 76 67 73 68 69 69 70 70 71 71 72 72 7 73 8 74 9 75
REMARK SMILES IDX 10 76 11 77 12 79 13 80 14 81 18 82 15 83 17 84 16 85 19 86
REMARK SMILES IDX 20 87 21 88 22 90 23 91 39 92 24 93 38 94 25 95 26 96 27 97
REMARK SMILES IDX 36 98 28 99 29 100 35 101 37 102 30 103 33 104 31 105 34 106
REMARK SMILES IDX 32 107
REMARK H PARENT 3 7 96 25 64 36 10 78 21 89
REMARK Flexibility Score: inf
ROOT
ATOM      1  C   UNL A   1      31.782  29.465  25.981  1.00  0.00     0.002 C 
ENDROOT
BRANCH   1   2
ATOM      2  C   UNL A   1      31.609  30.953  26.245  1.00  0.00     0.021 C 
BRANCH   2   3
ATOM      3  C   UNL A   1      32.756  31.598  26.993  1.00  0.00     0.116 C 
BRANCH   3   4
ATOM      4  N   UNL A   1      32.538  33.010  27.267  1.00  0.00    -0.352 N 
ATOM      5  O   UNL A   1      32.911  34.957  28.364  1.00  0.00    -0.269 OA
ATOM      6  C   UNL A   1      33.262  33.808  28.122  1.00  0.00     0.251 C 
ATOM      7  H   UNL A   1      31.792  33.439  26.790  1.00  0.00     0.163 HD
BRANCH   6   8
ATOM      8  C   UNL A   1      34.461  33.227  28.760  1.00  0.00     0.039 A 
ATOM      9  C   UNL A   1      35.731  33.636  28.338  1.00  0.00     0.014 A 
ATOM     10  C   UNL A   1      34.317  32.224  29.718  1.00  0.00     0.014 A 
ATOM     11  C   UNL A   1      36.852  32.950  28.775  1.00  0.00     0.010 A 
ATOM     12  C   UNL A   1      35.457  31.611  30.243  1.00  0.00     0.010 A 
ATOM     13  C   UNL A   1      36.731  31.967  29.769  1.00  0.00    -0.014 A 
BRANCH  13  14
ATOM     14  C   UNL A   1      37.963  31.451  30.414  1.00  0.00     0.031 A 
ATOM     15  C   UNL A   1      38.829  30.422  29.750  1.00  0.00     0.074 A 
ATOM     16  C   UNL A   1      38.269  31.935  31.636  1.00  0.00     0.049 A 
ATOM     17  N   UNL A   1      39.898  29.832  30.217  1.00  0.00    -0.248 NA
ATOM     18  C   UNL A   1      38.450  29.993  28.395  1.00  0.00     0.031 C 
ATOM     19  C   UNL A   1      37.480  32.938  32.362  1.00  0.00     0.029 A 
ATOM     20  N   UNL A   1      39.308  31.660  32.485  1.00  0.00    -0.354 N 
ATOM     21  C   UNL A   1      40.308  28.942  29.231  1.00  0.00     0.074 A 
ATOM     22  C   UNL A   1      39.367  29.067  28.138  1.00  0.00     0.031 C 
ATOM     23  C   UNL A   1      38.079  33.215  33.526  1.00  0.00     0.029 A 
ATOM     24  C   UNL A   1      39.231  32.339  33.679  1.00  0.00     0.049 A 
ATOM     25  H   UNL A   1      40.039  31.039  32.262  1.00  0.00     0.167 HD
ATOM     26  C   UNL A   1      41.369  28.098  29.254  1.00  0.00     0.034 A 
ATOM     27  C   UNL A   1      39.966  32.228  34.801  1.00  0.00     0.034 A 
ATOM     28  C   UNL A   1      42.294  28.009  30.360  1.00  0.00     0.049 A 
ATOM     29  C   UNL A   1      41.097  31.237  34.811  1.00  0.00     0.074 A 
ATOM     30  C   UNL A   1      43.448  27.249  30.453  1.00  0.00     0.029 A 
ATOM     31  N   UNL A   1      42.162  28.677  31.570  1.00  0.00    -0.354 N 
ATOM     32  N   UNL A   1      41.507  30.448  33.844  1.00  0.00    -0.248 NA
ATOM     33  C   UNL A   1      41.859  31.115  36.058  1.00  0.00     0.031 C 
ATOM     34  C   UNL A   1      43.958  27.385  31.747  1.00  0.00     0.029 A 
ATOM     35  C   UNL A   1      43.176  28.298  32.436  1.00  0.00     0.049 A 
ATOM     36  H   UNL A   1      41.451  29.324  31.782  1.00  0.00     0.167 HD
ATOM     37  C   UNL A   1      42.585  29.743  34.367  1.00  0.00     0.074 A 
ATOM     38  C   UNL A   1      42.781  30.227  35.718  1.00  0.00     0.031 C 
ATOM     39  C   UNL A   1      43.341  28.779  33.787  1.00  0.00     0.034 A 
BRANCH  26  40
ATOM     40  C   UNL A   1      41.568  27.161  28.088  1.00  0.00     0.023 A 
ATOM     41  C   UNL A   1      41.170  25.814  28.129  1.00  0.00     0.031 A 
ATOM     42  C   UNL A   1      42.119  27.649  26.889  1.00  0.00     0.131 A 
ATOM     43  C   UNL A   1      41.356  24.997  27.002  1.00  0.00     0.055 A 
ATOM     44  C   UNL A   1      42.244  26.849  25.753  1.00  0.00     0.041 A 
ATOM     45  F   UNL A   1      42.536  28.923  26.799  1.00  0.00    -0.206 F 
ATOM     46  C   UNL A   1      41.866  25.512  25.807  1.00  0.00     0.022 A 
BRANCH  43  47
ATOM     47  S   UNL A   1      40.998  23.224  27.141  1.00  0.00     0.124 S 
ATOM     48  O   UNL A   1      39.538  23.214  27.139  1.00  0.00    -0.237 OA
ATOM     49  O   UNL A   1      41.642  22.678  25.951  1.00  0.00    -0.237 OA
ATOM     50  O   UNL A   1      41.614  22.848  28.411  1.00  0.00    -0.744 OA
ENDBRANCH  43  47
ENDBRANCH  26  40
BRANCH  27  51
ATOM     51  C   UNL A   1      39.607  33.005  36.021  1.00  0.00     0.023 A 
ATOM     52  C   UNL A   1      38.786  32.454  37.014  1.00  0.00     0.031 A 
ATOM     53  C   UNL A   1      40.031  34.339  36.184  1.00  0.00     0.131 A 
ATOM     54  C   UNL A   1      38.363  33.248  38.090  1.00  0.00     0.055 A 
ATOM     55  C   UNL A   1      39.670  35.100  37.294  1.00  0.00     0.041 A 
ATOM     56  F   UNL A   1      40.817  34.921  35.263  1.00  0.00    -0.206 F 
ATOM     57  C   UNL A   1      38.813  34.561  38.247  1.00  0.00     0.022 A 
BRANCH  54  58
ATOM     58  S   UNL A   1      37.101  32.581  39.208  1.00  0.00     0.124 S 
ATOM     59  O   UNL A   1      37.545  31.200  39.364  1.00  0.00    -0.237 OA
ATOM     60  O   UNL A   1      37.250  33.439  40.378  1.00  0.00    -0.237 OA
ATOM     61  O   UNL A   1      35.858  32.756  38.460  1.00  0.00    -0.744 OA
ENDBRANCH  54  58
ENDBRANCH  27  51
BRANCH  39  62
ATOM     62  C   UNL A   1      44.459  28.204  34.619  1.00  0.00     0.023 A 
ATOM     63  C   UNL A   1      44.212  27.234  35.605  1.00  0.00     0.031 A 
ATOM     64  C   UNL A   1      45.781  28.639  34.430  1.00  0.00     0.131 A 
ATOM     65  C   UNL A   1      45.268  26.767  36.401  1.00  0.00     0.055 A 
ATOM     66  C   UNL A   1      46.837  28.123  35.180  1.00  0.00     0.041 A 
ATOM     67  F   UNL A   1      46.069  29.571  33.506  1.00  0.00    -0.206 F 
ATOM     68  C   UNL A   1      46.581  27.189  36.181  1.00  0.00     0.022 A 
BRANCH  65  69
ATOM     69  S   UNL A   1      44.888  25.657  37.783  1.00  0.00     0.124 S 
ATOM     70  O   UNL A   1      43.786  26.355  38.437  1.00  0.00    -0.237 OA
ATOM     71  O   UNL A   1      44.541  24.413  37.102  1.00  0.00    -0.237 OA
ATOM     72  O   UNL A   1      46.136  25.617  38.543  1.00  0.00    -0.744 OA
ENDBRANCH  65  69
ENDBRANCH  39  62
ENDBRANCH  13  14
ENDBRANCH   6   8
ENDBRANCH   3   4
ENDBRANCH   2   3
ENDBRANCH   1   2
BRANCH   1  73
ATOM     73  C   UNL A   1      33.161  29.019  25.485  1.00  0.00     0.002 C 
BRANCH  73  74
ATOM     74  C   UNL A   1      33.796  27.856  26.261  1.00  0.00     0.021 C 
BRANCH  74  75
ATOM     75  C   UNL A   1      33.758  26.521  25.523  1.00  0.00     0.116 C 
BRANCH  75  76
ATOM     76  N   UNL A   1      33.410  25.432  26.414  1.00  0.00    -0.352 N 
ATOM     77  C   UNL A   1      33.726  24.107  26.335  1.00  0.00     0.252 C 
ATOM     78  H   UNL A   1      32.863  25.686  27.193  1.00  0.00     0.163 HD
ATOM     79  O   UNL A   1      33.172  23.303  27.086  1.00  0.00    -0.269 OA
BRANCH  77  80
ATOM     80  C   UNL A   1      34.616  23.580  25.285  1.00  0.00     0.052 A 
ATOM     81  C   UNL A   1      35.968  23.938  25.511  1.00  0.00     0.014 A 
ATOM     82  C   UNL A   1      34.277  22.795  24.172  1.00  0.00     0.052 A 
ATOM     83  C   UNL A   1      36.996  23.449  24.713  1.00  0.00     0.001 A 
ATOM     84  C   UNL A   1      35.352  22.282  23.400  1.00  0.00     0.014 A 
ATOM     85  C   UNL A   1      36.688  22.592  23.672  1.00  0.00     0.001 A 
BRANCH  82  86
ATOM     86  C   UNL A   1      32.938  22.301  23.721  1.00  0.00     0.256 C 
ATOM     87  O   UNL A   1      32.823  21.082  23.543  1.00  0.00    -0.269 OA
ATOM     88  N   UNL A   1      31.784  23.031  23.562  1.00  0.00    -0.322 N 
ATOM     89  H   UNL A   1      30.990  22.478  23.376  1.00  0.00     0.170 HD
BRANCH  88  90
ATOM     90  C   UNL A   1      31.514  24.395  23.611  1.00  0.00     0.041 A 
ATOM     91  C   UNL A   1      32.160  25.190  22.661  1.00  0.00     0.028 A 
ATOM     92  C   UNL A   1      30.594  24.965  24.477  1.00  0.00     0.028 A 
ATOM     93  C   UNL A   1      31.658  26.448  22.352  1.00  0.00     0.029 A 
ATOM     94  C   UNL A   1      30.197  26.288  24.270  1.00  0.00     0.029 A 
ATOM     95  C   UNL A   1      30.641  26.983  23.134  1.00  0.00     0.052 A 
BRANCH  95  96
ATOM     96  N   UNL A   1      29.932  28.114  22.703  1.00  0.00    -0.250 N 
ATOM     97  C   UNL A   1      30.556  29.293  22.284  1.00  0.00     0.237 C 
ATOM     98  C   UNL A   1      28.549  28.284  22.929  1.00  0.00     0.237 C 
ATOM     99  O   UNL A   1      31.669  29.482  21.840  1.00  0.00    -0.274 OA
ATOM    100  C   UNL A   1      29.569  30.332  22.681  1.00  0.00     0.095 C 
ATOM    101  C   UNL A   1      28.273  29.626  22.322  1.00  0.00     0.095 C 
ATOM    102  O   UNL A   1      27.721  27.521  23.394  1.00  0.00    -0.274 OA
ATOM    103  C   UNL A   1      29.295  31.771  22.250  1.00  0.00     0.002 C 
ATOM    104  C   UNL A   1      27.278  30.767  22.505  1.00  0.00     0.002 C 
ATOM    105  C   UNL A   1      28.757  32.439  23.535  1.00  0.00     0.005 C 
ATOM    106  C   UNL A   1      27.955  31.714  21.479  1.00  0.00     0.009 C 
ATOM    107  C   UNL A   1      27.467  31.607  23.801  1.00  0.00     0.005 C 
ENDBRANCH  95  96
ENDBRANCH  88  90
ENDBRANCH  82  86
ENDBRANCH  77  80
ENDBRANCH  75  76
ENDBRANCH  74  75
ENDBRANCH  73  74
ENDBRANCH   1  73
TORSDOF 19
ENDMDL
MODEL 3
REMARK VINA RESULT:     -12.7      5.078     10.556
REMARK SMILES O=C(NCCCCCCNC(=O)c1ccccc1C(=O)Nc1ccc(N2C(=O)[C@H]3[C@@H]4CC[C@@H](C4)[C@@H]3C2=O)cc1)c1ccc(-c2c3nc(c(-c4cc(S(=O)(=O)[O-])ccc4F)c4ccc([nH]4)c(-c4cc(S(=O)(=O)[O-])ccc4F)c4nc(c(-c5cc(S(=O)(=O)[O-])ccc5F)c5ccc2[nH]5)C=C4)C=C3)cc1
REMARK SMILES IDX 6 1 5 2 4 3 3 4 1 5 2 6 40 8 41 9 102 10 42 11 101 12 43 13
REMARK SMILES IDX 44 14 45 15 95 16 46 17 100 18 94 19 96 20 47 21 99 22 93 23
REMARK SMILES IDX 92 24 48 26 80 27 60 28 79 29 61 30 64 31 78 32 97 33 62 34
REMARK SMILES IDX 63 35 77 37 98 38 65 39 49 40 50 41 58 42 51 43 57 44 59 45
REMARK SMILES IDX 56 46 52 47 53 48 54 49 55 50 81 51 82 52 90 53 83 54 89 55
REMARK SMILES IDX 91 56 88 57 84 58 85 59 86 60 87 61 66 62 67 63 75 64 68 65
REMARK SMILES IDX 74 66 76 67 73 68 69 69 70 70 71 71 72 72 7 73 8 74 9 75
REMARK SMILES IDX 10 76 11 77 12 79 13 80 14 81 18 82 15 83 17 84 16 85 19 86
REMARK SMILES IDX 20 87 21 88 22 90 23 91 39 92 24 93 38 94 25 95 26 96 27 97
REMARK SMILES IDX 36 98 28 99 29 100 35 101 37 102 30 103 33 104 31 105 34 106
REMARK SMILES IDX 32 107
REMARK H PARENT 3 7 96 25 64 36 10 78 21 89
REMARK Flexibility Score: inf
ROOT
ATOM      1  C   UNL A   1      31.881  29.193  27.249  1.00  0.00     0.002 C 
ENDROOT
BRANCH   1   2
ATOM      2  C   UNL A   1      31.867  30.571  26.606  1.00  0.00     0.021 C 
BRANCH   2   3
ATOM      3  C   UNL A   1      33.047  31.447  26.967  1.00  0.00     0.116 C 
BRANCH   3   4
ATOM      4  N   UNL A   1      32.664  32.805  27.323  1.00  0.00    -0.352 N 
ATOM      5  O   UNL A   1      32.781  34.702  28.556  1.00  0.00    -0.269 OA
ATOM      6  C   UNL A   1      33.265  33.617  28.255  1.00  0.00     0.251 C 
ATOM      7  H   UNL A   1      31.891  33.182  26.843  1.00  0.00     0.163 HD
BRANCH   6   8
ATOM      8  C   UNL A   1      34.499  33.128  28.904  1.00  0.00     0.039 A 
ATOM      9  C   UNL A   1      34.407  32.195  29.942  1.00  0.00     0.014 A 
ATOM     10  C   UNL A   1      35.735  33.657  28.529  1.00  0.00     0.014 A 
ATOM     11  C   UNL A   1      35.531  31.892  30.693  1.00  0.00     0.010 A 
ATOM     12  C   UNL A   1      36.884  33.262  29.215  1.00  0.00     0.010 A 
ATOM     13  C   UNL A   1      36.788  32.381  30.306  1.00  0.00    -0.014 A 
BRANCH  13  14
ATOM     14  C   UNL A   1      37.999  31.822  30.952  1.00  0.00     0.031 A 
ATOM     15  C   UNL A   1      38.825  30.757  30.294  1.00  0.00     0.074 A 
ATOM     16  C   UNL A   1      38.325  32.302  32.171  1.00  0.00     0.049 A 
ATOM     17  N   UNL A   1      39.871  30.129  30.764  1.00  0.00    -0.248 NA
ATOM     18  C   UNL A   1      38.428  30.334  28.943  1.00  0.00     0.031 C 
ATOM     19  C   UNL A   1      37.576  33.339  32.892  1.00  0.00     0.029 A 
ATOM     20  N   UNL A   1      39.354  31.993  33.021  1.00  0.00    -0.354 N 
ATOM     21  C   UNL A   1      40.245  29.217  29.784  1.00  0.00     0.074 A 
ATOM     22  C   UNL A   1      39.308  29.372  28.691  1.00  0.00     0.031 C 
ATOM     23  C   UNL A   1      38.187  33.600  34.054  1.00  0.00     0.029 A 
ATOM     24  C   UNL A   1      39.304  32.682  34.211  1.00  0.00     0.049 A 
ATOM     25  H   UNL A   1      40.060  31.343  32.801  1.00  0.00     0.167 HD
ATOM     26  C   UNL A   1      41.274  28.334  29.812  1.00  0.00     0.034 A 
ATOM     27  C   UNL A   1      40.036  32.550  35.333  1.00  0.00     0.034 A 
ATOM     28  C   UNL A   1      42.196  28.216  30.917  1.00  0.00     0.049 A 
ATOM     29  C   UNL A   1      41.128  31.516  35.348  1.00  0.00     0.074 A 
ATOM     30  C   UNL A   1      43.320  27.414  31.014  1.00  0.00     0.029 A 
ATOM     31  N   UNL A   1      42.090  28.897  32.123  1.00  0.00    -0.354 N 
ATOM     32  N   UNL A   1      41.506  30.706  34.387  1.00  0.00    -0.248 NA
ATOM     33  C   UNL A   1      41.886  31.373  36.596  1.00  0.00     0.031 C 
ATOM     34  C   UNL A   1      43.836  27.538  32.307  1.00  0.00     0.029 A 
ATOM     35  C   UNL A   1      43.091  28.485  32.991  1.00  0.00     0.049 A 
ATOM     36  H   UNL A   1      41.405  29.572  32.332  1.00  0.00     0.167 HD
ATOM     37  C   UNL A   1      42.556  29.964  34.913  1.00  0.00     0.074 A 
ATOM     38  C   UNL A   1      42.773  30.449  36.261  1.00  0.00     0.031 C 
ATOM     39  C   UNL A   1      43.275  28.967  34.339  1.00  0.00     0.034 A 
BRANCH  26  40
ATOM     40  C   UNL A   1      41.436  27.383  28.652  1.00  0.00     0.023 A 
ATOM     41  C   UNL A   1      42.437  27.545  27.679  1.00  0.00     0.031 A 
ATOM     42  C   UNL A   1      40.600  26.254  28.555  1.00  0.00     0.131 A 
ATOM     43  C   UNL A   1      42.557  26.610  26.638  1.00  0.00     0.055 A 
ATOM     44  C   UNL A   1      40.764  25.297  27.554  1.00  0.00     0.041 A 
ATOM     45  F   UNL A   1      39.614  26.059  29.446  1.00  0.00    -0.206 F 
ATOM     46  C   UNL A   1      41.745  25.475  26.584  1.00  0.00     0.022 A 
BRANCH  43  47
ATOM     47  S   UNL A   1      43.738  26.940  25.301  1.00  0.00     0.124 S 
ATOM     48  O   UNL A   1      44.115  25.587  24.898  1.00  0.00    -0.237 OA
ATOM     49  O   UNL A   1      42.931  27.689  24.344  1.00  0.00    -0.237 OA
ATOM     50  O   UNL A   1      44.796  27.703  25.958  1.00  0.00    -0.744 OA
ENDBRANCH  43  47
ENDBRANCH  26  40
BRANCH  27  51
ATOM     51  C   UNL A   1      39.708  33.348  36.549  1.00  0.00     0.023 A 
ATOM     52  C   UNL A   1      38.965  32.793  37.600  1.00  0.00     0.031 A 
ATOM     53  C   UNL A   1      40.081  34.703  36.651  1.00  0.00     0.131 A 
ATOM     54  C   UNL A   1      38.566  33.601  38.674  1.00  0.00     0.055 A 
ATOM     55  C   UNL A   1      39.746  35.482  37.757  1.00  0.00     0.041 A 
ATOM     56  F   UNL A   1      40.791  35.289  35.673  1.00  0.00    -0.206 F 
ATOM     57  C   UNL A   1      38.965  34.936  38.769  1.00  0.00     0.022 A 
BRANCH  54  58
ATOM     58  S   UNL A   1      37.395  32.915  39.877  1.00  0.00     0.124 S 
ATOM     59  O   UNL A   1      36.206  32.721  39.055  1.00  0.00    -0.237 OA
ATOM     60  O   UNL A   1      38.082  31.702  40.307  1.00  0.00    -0.237 OA
ATOM     61  O   UNL A   1      37.293  33.965  40.887  1.00  0.00    -0.744 OA
ENDBRANCH  54  58
ENDBRANCH  27  51
BRANCH  39  62
ATOM     62  C   UNL A   1      44.371  28.356  35.173  1.00  0.00     0.023 A 
ATOM     63  C   UNL A   1      44.098  27.348  36.114  1.00  0.00     0.031 A 
ATOM     64  C   UNL A   1      45.699  28.792  35.033  1.00  0.00     0.131 A 
ATOM     65  C   UNL A   1      45.133  26.845  36.915  1.00  0.00     0.055 A 
ATOM     66  C   UNL A   1      46.735  28.242  35.786  1.00  0.00     0.041 A 
ATOM     67  F   UNL A   1      46.012  29.758  34.154  1.00  0.00    -0.206 F 
ATOM     68  C   UNL A   1      46.452  27.271  36.743  1.00  0.00     0.022 A 
BRANCH  65  69
ATOM     69  S   UNL A   1      44.716  25.683  38.243  1.00  0.00     0.124 S 
ATOM     70  O   UNL A   1      43.729  26.439  39.008  1.00  0.00    -0.237 OA
ATOM     71  O   UNL A   1      44.206  24.532  37.506  1.00  0.00    -0.237 OA
ATOM     72  O   UNL A   1      45.993  25.466  38.921  1.00  0.00    -0.744 OA
ENDBRANCH  65  69
ENDBRANCH  39  62
ENDBRANCH  13  14
ENDBRANCH   6   8
ENDBRANCH   3   4
ENDBRANCH   2   3
ENDBRANCH   1   2
BRANCH   1  73
ATOM     73  C   UNL A   1      32.071  28.004  26.303  1.00  0.00     0.002 C 
BRANCH  73  74
ATOM     74  C   UNL A   1      33.529  27.635  25.993  1.00  0.00     0.021 C 
BRANCH  74  75
ATOM     75  C   UNL A   1      33.697  26.278  25.317  1.00  0.00     0.116 C 
BRANCH  75  76
ATOM     76  N   UNL A   1      33.112  25.214  26.110  1.00  0.00    -0.352 N 
ATOM     77  C   UNL A   1      33.534  23.929  26.290  1.00  0.00     0.252 C 
ATOM     78  H   UNL A   1      32.287  25.455  26.590  1.00  0.00     0.163 HD
ATOM     79  O   UNL A   1      32.794  23.117  26.847  1.00  0.00    -0.269 OA
BRANCH  77  80
ATOM     80  C   UNL A   1      34.802  23.438  25.720  1.00  0.00     0.052 A 
ATOM     81  C   UNL A   1      35.900  24.250  26.098  1.00  0.00     0.014 A 
ATOM     82  C   UNL A   1      35.012  22.310  24.912  1.00  0.00     0.052 A 
ATOM     83  C   UNL A   1      37.207  23.907  25.774  1.00  0.00     0.001 A 
ATOM     84  C   UNL A   1      36.359  21.967  24.630  1.00  0.00     0.014 A 
ATOM     85  C   UNL A   1      37.440  22.743  25.063  1.00  0.00     0.001 A 
BRANCH  82  86
ATOM     86  C   UNL A   1      34.026  21.316  24.381  1.00  0.00     0.256 C 
ATOM     87  O   UNL A   1      34.266  20.121  24.596  1.00  0.00    -0.269 OA
ATOM     88  N   UNL A   1      32.831  21.573  23.752  1.00  0.00    -0.322 N 
ATOM     89  H   UNL A   1      32.285  20.768  23.599  1.00  0.00     0.170 HD
BRANCH  88  90
ATOM     90  C   UNL A   1      32.238  22.745  23.290  1.00  0.00     0.041 A 
ATOM     91  C   UNL A   1      30.902  22.947  23.646  1.00  0.00     0.028 A 
ATOM     92  C   UNL A   1      32.922  23.725  22.588  1.00  0.00     0.028 A 
ATOM     93  C   UNL A   1      30.360  24.226  23.606  1.00  0.00     0.029 A 
ATOM     94  C   UNL A   1      32.319  24.971  22.402  1.00  0.00     0.029 A 
ATOM     95  C   UNL A   1      31.089  25.254  23.019  1.00  0.00     0.052 A 
BRANCH  95  96
ATOM     96  N   UNL A   1      30.702  26.590  23.195  1.00  0.00    -0.250 N 
ATOM     97  C   UNL A   1      29.430  26.965  23.637  1.00  0.00     0.237 C 
ATOM     98  C   UNL A   1      31.434  27.676  22.666  1.00  0.00     0.237 C 
ATOM     99  O   UNL A   1      28.610  26.355  24.290  1.00  0.00    -0.274 OA
ATOM    100  C   UNL A   1      29.230  28.271  22.955  1.00  0.00     0.095 C 
ATOM    101  C   UNL A   1      30.622  28.863  23.088  1.00  0.00     0.095 C 
ATOM    102  O   UNL A   1      32.513  27.706  22.101  1.00  0.00    -0.274 OA
ATOM    103  C   UNL A   1      28.329  29.481  23.196  1.00  0.00     0.002 C 
ATOM    104  C   UNL A   1      30.364  30.285  22.604  1.00  0.00     0.002 C 
ATOM    105  C   UNL A   1      28.064  30.026  21.776  1.00  0.00     0.005 C 
ATOM    106  C   UNL A   1      29.280  30.605  23.668  1.00  0.00     0.009 C 
ATOM    107  C   UNL A   1      29.504  30.398  21.312  1.00  0.00     0.005 C 
ENDBRANCH  95  96
ENDBRANCH  88  90
ENDBRANCH  82  86
ENDBRANCH  77  80
ENDBRANCH  75  76
ENDBRANCH  74  75
ENDBRANCH  73  74
ENDBRANCH   1  73
TORSDOF 19
ENDMDL
