MODEL 1
REMARK VINA RESULT:     -12.0      0.000      0.000
REMARK SMILES COc1ccc(C(=O)NCCCCCCNC(=O)c2ccc(-c3c4nc(c(-c5cc(S(=O)(=O)[O-])ccc5F)c5ccc([nH]5)c(-c5cc(S(=O)(=O)[O-])ccc5F)c5nc(c(-c6cc(S(=O)(=O)[O-])ccc6F)c6ccc3[nH]6)C=C5)C=C4)cc2)cc1NC(=O)c1ccccc1[N+](=O)[O-]
REMARK SMILES IDX 12 1 11 2 10 3 9 4 7 5 8 6 6 8 3 9 4 10 83 11 5 12 82 13
REMARK SMILES IDX 2 14 1 15 84 16 85 17 86 19 87 20 88 21 92 22 89 23 91 24
REMARK SMILES IDX 90 25 93 26 94 27 95 28 13 29 14 30 15 31 16 32 17 33 18 35
REMARK SMILES IDX 19 36 20 37 81 38 21 39 80 40 22 41 23 42 24 43 74 44 25 45
REMARK SMILES IDX 79 46 73 47 75 48 26 49 78 50 72 51 71 52 27 54 59 55 39 56
REMARK SMILES IDX 58 57 40 58 43 59 57 60 76 61 41 62 42 63 56 65 77 66 44 67
REMARK SMILES IDX 28 68 29 69 37 70 30 71 36 72 38 73 35 74 31 75 32 76 33 77
REMARK SMILES IDX 34 78 60 79 61 80 69 81 62 82 68 83 70 84 67 85 63 86 64 87
REMARK SMILES IDX 65 88 66 89 45 90 46 91 54 92 47 93 53 94 55 95 52 96 48 97
REMARK SMILES IDX 49 98 50 99 51 100
REMARK H PARENT 9 7 84 18 16 34 75 53 43 64
REMARK Flexibility Score: inf
ROOT
ATOM      1  C   UNL A   1      34.064  28.250  24.530  1.00  0.00     0.002 C 
ENDROOT
BRANCH   1   2
ATOM      2  C   UNL A   1      33.909  28.618  23.046  1.00  0.00     0.021 C 
BRANCH   2   3
ATOM      3  C   UNL A   1      32.636  28.076  22.387  1.00  0.00     0.116 C 
BRANCH   3   4
ATOM      4  N   UNL A   1      32.950  27.066  21.391  1.00  0.00    -0.352 N 
ATOM      5  C   UNL A   1      32.804  25.704  21.338  1.00  0.00     0.251 C 
ATOM      6  O   UNL A   1      33.047  25.167  20.254  1.00  0.00    -0.269 OA
ATOM      7  H   UNL A   1      33.355  27.442  20.577  1.00  0.00     0.163 HD
BRANCH   5   8
ATOM      8  C   UNL A   1      32.371  24.835  22.475  1.00  0.00     0.042 A 
ATOM      9  C   UNL A   1      31.222  23.278  24.517  1.00  0.00     0.142 A 
ATOM     10  C   UNL A   1      30.726  24.550  24.265  1.00  0.00     0.049 A 
ATOM     11  C   UNL A   1      32.307  22.781  23.779  1.00  0.00     0.084 A 
ATOM     12  C   UNL A   1      31.316  25.331  23.268  1.00  0.00     0.018 A 
ATOM     13  C   UNL A   1      32.845  23.540  22.727  1.00  0.00     0.044 A 
BRANCH   9  14
ATOM     14  O   UNL A   1      30.568  22.509  25.447  1.00  0.00    -0.495 OA
ATOM     15  C   UNL A   1      30.176  23.271  26.592  1.00  0.00     0.278 C 
ENDBRANCH   9  14
BRANCH  11  16
ATOM     16  N   UNL A   1      32.783  21.507  24.127  1.00  0.00    -0.319 N 
ATOM     17  C   UNL A   1      34.017  21.060  24.519  1.00  0.00     0.262 C 
ATOM     18  H   UNL A   1      32.100  20.800  24.081  1.00  0.00     0.170 HD
ATOM     19  O   UNL A   1      34.223  19.854  24.622  1.00  0.00    -0.269 OA
BRANCH  17  20
ATOM     20  C   UNL A   1      35.115  21.981  24.878  1.00  0.00     0.117 A 
ATOM     21  C   UNL A   1      36.187  22.044  23.977  1.00  0.00     0.021 A 
ATOM     22  C   UNL A   1      35.201  22.714  26.068  1.00  0.00     0.282 A 
ATOM     23  C   UNL A   1      37.293  22.852  24.248  1.00  0.00     0.001 A 
ATOM     24  C   UNL A   1      36.292  23.558  26.329  1.00  0.00     0.086 A 
ATOM     25  C   UNL A   1      37.338  23.621  25.413  1.00  0.00     0.007 A 
BRANCH  22  26
ATOM     26  N   UNL A   1      34.202  22.593  27.110  1.00  0.00     0.063 N 
ATOM     27  O   UNL A   1      34.220  21.554  27.786  1.00  0.00    -0.258 OA
ATOM     28  O   UNL A   1      33.379  23.507  27.227  1.00  0.00    -0.258 OA
ENDBRANCH  22  26
ENDBRANCH  17  20
ENDBRANCH  11  16
ENDBRANCH   5   8
ENDBRANCH   3   4
ENDBRANCH   2   3
ENDBRANCH   1   2
BRANCH   1  29
ATOM     29  C   UNL A   1      32.784  27.817  25.262  1.00  0.00     0.002 C 
BRANCH  29  30
ATOM     30  C   UNL A   1      31.737  28.907  25.515  1.00  0.00     0.021 C 
BRANCH  30  31
ATOM     31  C   UNL A   1      31.793  29.611  26.871  1.00  0.00     0.116 C 
BRANCH  31  32
ATOM     32  N   UNL A   1      31.947  31.045  26.732  1.00  0.00    -0.352 N 
ATOM     33  C   UNL A   1      32.860  31.903  27.301  1.00  0.00     0.251 C 
ATOM     34  H   UNL A   1      31.293  31.476  26.135  1.00  0.00     0.163 HD
ATOM     35  O   UNL A   1      32.659  33.111  27.220  1.00  0.00    -0.269 OA
BRANCH  33  36
ATOM     36  C   UNL A   1      34.064  31.406  28.019  1.00  0.00     0.039 A 
ATOM     37  C   UNL A   1      34.769  32.302  28.832  1.00  0.00     0.014 A 
ATOM     38  C   UNL A   1      34.563  30.112  27.838  1.00  0.00     0.014 A 
ATOM     39  C   UNL A   1      35.941  31.896  29.484  1.00  0.00     0.010 A 
ATOM     40  C   UNL A   1      35.704  29.691  28.533  1.00  0.00     0.010 A 
ATOM     41  C   UNL A   1      36.414  30.581  29.354  1.00  0.00    -0.014 A 
BRANCH  41  42
ATOM     42  C   UNL A   1      37.662  30.147  30.047  1.00  0.00     0.031 A 
ATOM     43  C   UNL A   1      37.927  30.558  31.473  1.00  0.00     0.074 A 
ATOM     44  C   UNL A   1      38.574  29.404  29.390  1.00  0.00     0.049 A 
ATOM     45  N   UNL A   1      38.963  30.302  32.232  1.00  0.00    -0.248 NA
ATOM     46  C   UNL A   1      36.899  31.385  32.122  1.00  0.00     0.031 C 
ATOM     47  C   UNL A   1      38.459  28.963  27.998  1.00  0.00     0.029 A 
ATOM     48  N   UNL A   1      39.780  28.890  29.800  1.00  0.00    -0.354 N 
ATOM     49  C   UNL A   1      38.719  30.943  33.443  1.00  0.00     0.074 A 
ATOM     50  C   UNL A   1      37.461  31.644  33.293  1.00  0.00     0.031 C 
ATOM     51  C   UNL A   1      39.540  28.233  27.677  1.00  0.00     0.029 A 
ATOM     52  C   UNL A   1      40.441  28.179  28.826  1.00  0.00     0.049 A 
ATOM     53  H   UNL A   1      40.139  29.019  30.708  1.00  0.00     0.167 HD
ATOM     54  C   UNL A   1      39.462  30.934  34.580  1.00  0.00     0.034 A 
ATOM     55  C   UNL A   1      41.638  27.558  28.848  1.00  0.00     0.034 A 
ATOM     56  C   UNL A   1      40.710  30.221  34.726  1.00  0.00     0.049 A 
ATOM     57  C   UNL A   1      42.451  27.570  30.117  1.00  0.00     0.074 A 
ATOM     58  C   UNL A   1      41.507  30.100  35.853  1.00  0.00     0.029 A 
ATOM     59  N   UNL A   1      41.348  29.515  33.715  1.00  0.00    -0.354 N 
ATOM     60  N   UNL A   1      42.179  28.140  31.267  1.00  0.00    -0.248 NA
ATOM     61  C   UNL A   1      43.727  26.842  30.092  1.00  0.00     0.031 C 
ATOM     62  C   UNL A   1      42.653  29.373  35.507  1.00  0.00     0.029 A 
ATOM     63  C   UNL A   1      42.541  28.984  34.183  1.00  0.00     0.049 A 
ATOM     64  H   UNL A   1      41.004  29.408  32.800  1.00  0.00     0.167 HD
ATOM     65  C   UNL A   1      43.241  27.819  32.108  1.00  0.00     0.074 A 
ATOM     66  C   UNL A   1      44.146  26.990  31.339  1.00  0.00     0.031 C 
ATOM     67  C   UNL A   1      43.449  28.176  33.402  1.00  0.00     0.034 A 
BRANCH  54  68
ATOM     68  C   UNL A   1      38.950  31.745  35.748  1.00  0.00     0.023 A 
ATOM     69  C   UNL A   1      38.301  31.141  36.839  1.00  0.00     0.031 A 
ATOM     70  C   UNL A   1      39.092  33.144  35.761  1.00  0.00     0.131 A 
ATOM     71  C   UNL A   1      37.750  31.935  37.856  1.00  0.00     0.055 A 
ATOM     72  C   UNL A   1      38.611  33.923  36.816  1.00  0.00     0.041 A 
ATOM     73  F   UNL A   1      39.688  33.780  34.740  1.00  0.00    -0.206 F 
ATOM     74  C   UNL A   1      37.922  33.321  37.864  1.00  0.00     0.022 A 
BRANCH  71  75
ATOM     75  S   UNL A   1      36.686  31.144  39.092  1.00  0.00     0.124 S 
ATOM     76  O   UNL A   1      37.582  31.063  40.244  1.00  0.00    -0.237 OA
ATOM     77  O   UNL A   1      35.580  32.086  39.206  1.00  0.00    -0.237 OA
ATOM     78  O   UNL A   1      36.350  29.858  38.483  1.00  0.00    -0.744 OA
ENDBRANCH  71  75
ENDBRANCH  54  68
BRANCH  55  79
ATOM     79  C   UNL A   1      42.155  26.877  27.628  1.00  0.00     0.023 A 
ATOM     80  C   UNL A   1      42.140  25.477  27.517  1.00  0.00     0.031 A 
ATOM     81  C   UNL A   1      42.715  27.618  26.572  1.00  0.00     0.131 A 
ATOM     82  C   UNL A   1      42.712  24.859  26.395  1.00  0.00     0.055 A 
ATOM     83  C   UNL A   1      43.241  26.999  25.437  1.00  0.00     0.041 A 
ATOM     84  F   UNL A   1      42.746  28.958  26.625  1.00  0.00    -0.206 F 
ATOM     85  C   UNL A   1      43.253  25.611  25.350  1.00  0.00     0.022 A 
BRANCH  82  86
ATOM     86  S   UNL A   1      42.803  23.048  26.353  1.00  0.00     0.124 S 
ATOM     87  O   UNL A   1      41.638  22.672  27.147  1.00  0.00    -0.237 OA
ATOM     88  O   UNL A   1      42.719  22.775  24.922  1.00  0.00    -0.237 OA
ATOM     89  O   UNL A   1      44.098  22.758  26.965  1.00  0.00    -0.744 OA
ENDBRANCH  82  86
ENDBRANCH  55  79
BRANCH  67  90
ATOM     90  C   UNL A   1      44.693  27.640  34.066  1.00  0.00     0.023 A 
ATOM     91  C   UNL A   1      44.698  26.401  34.731  1.00  0.00     0.031 A 
ATOM     92  C   UNL A   1      45.881  28.391  34.061  1.00  0.00     0.131 A 
ATOM     93  C   UNL A   1      45.848  25.979  35.416  1.00  0.00     0.055 A 
ATOM     94  C   UNL A   1      47.040  27.940  34.697  1.00  0.00     0.041 A 
ATOM     95  F   UNL A   1      45.933  29.583  33.444  1.00  0.00    -0.206 F 
ATOM     96  C   UNL A   1      47.023  26.734  35.390  1.00  0.00     0.022 A 
BRANCH  93  97
ATOM     97  S   UNL A   1      45.759  24.473  36.424  1.00  0.00     0.124 S 
ATOM     98  O   UNL A   1      46.350  24.913  37.683  1.00  0.00    -0.237 OA
ATOM     99  O   UNL A   1      44.325  24.202  36.454  1.00  0.00    -0.237 OA
ATOM    100  O   UNL A   1      46.555  23.506  35.670  1.00  0.00    -0.744 OA
ENDBRANCH  93  97
ENDBRANCH  67  90
ENDBRANCH  41  42
ENDBRANCH  33  36
ENDBRANCH  31  32
ENDBRANCH  30  31
ENDBRANCH  29  30
ENDBRANCH   1  29
TORSDOF 20
ENDMDL
MODEL 2
REMARK VINA RESULT:     -11.9      2.541      3.989
REMARK SMILES COc1ccc(C(=O)NCCCCCCNC(=O)c2ccc(-c3c4nc(c(-c5cc(S(=O)(=O)[O-])ccc5F)c5ccc([nH]5)c(-c5cc(S(=O)(=O)[O-])ccc5F)c5nc(c(-c6cc(S(=O)(=O)[O-])ccc6F)c6ccc3[nH]6)C=C5)C=C4)cc2)cc1NC(=O)c1ccccc1[N+](=O)[O-]
REMARK SMILES IDX 12 1 11 2 10 3 9 4 7 5 8 6 6 8 3 9 4 10 83 11 5 12 82 13
REMARK SMILES IDX 2 14 1 15 84 16 85 17 86 19 87 20 88 21 92 22 89 23 91 24
REMARK SMILES IDX 90 25 93 26 94 27 95 28 13 29 14 30 15 31 16 32 17 33 18 35
REMARK SMILES IDX 19 36 20 37 81 38 21 39 80 40 22 41 23 42 24 43 74 44 25 45
REMARK SMILES IDX 79 46 73 47 75 48 26 49 78 50 72 51 71 52 27 54 59 55 39 56
REMARK SMILES IDX 58 57 40 58 43 59 57 60 76 61 41 62 42 63 56 65 77 66 44 67
REMARK SMILES IDX 28 68 29 69 37 70 30 71 36 72 38 73 35 74 31 75 32 76 33 77
REMARK SMILES IDX 34 78 60 79 61 80 69 81 62 82 68 83 70 84 67 85 63 86 64 87
REMARK SMILES IDX 65 88 66 89 45 90 46 91 54 92 47 93 53 94 55 95 52 96 48 97
REMARK SMILES IDX 49 98 50 99 51 100
REMARK H PARENT 9 7 84 18 16 34 75 53 43 64
REMARK Flexibility Score: inf
ROOT
ATOM      1  C   UNL A   1      34.513  31.382  28.349  1.00  0.00     0.002 C 
ENDROOT
BRANCH   1   2
ATOM      2  C   UNL A   1      35.347  30.448  27.457  1.00  0.00     0.021 C 
BRANCH   2   3
ATOM      3  C   UNL A   1      34.573  29.253  26.890  1.00  0.00     0.116 C 
BRANCH   3   4
ATOM      4  N   UNL A   1      33.483  28.868  27.770  1.00  0.00    -0.352 N 
ATOM      5  C   UNL A   1      32.230  28.349  27.564  1.00  0.00     0.251 C 
ATOM      6  O   UNL A   1      31.610  27.995  28.570  1.00  0.00    -0.269 OA
ATOM      7  H   UNL A   1      33.689  29.010  28.722  1.00  0.00     0.163 HD
BRANCH   5   8
ATOM      8  C   UNL A   1      31.575  28.174  26.232  1.00  0.00     0.042 A 
ATOM      9  C   UNL A   1      30.600  28.054  23.596  1.00  0.00     0.142 A 
ATOM     10  C   UNL A   1      30.995  29.275  24.124  1.00  0.00     0.049 A 
ATOM     11  C   UNL A   1      30.656  26.890  24.379  1.00  0.00     0.084 A 
ATOM     12  C   UNL A   1      31.454  29.335  25.442  1.00  0.00     0.018 A 
ATOM     13  C   UNL A   1      31.192  26.945  25.676  1.00  0.00     0.044 A 
BRANCH   9  14
ATOM     14  O   UNL A   1      30.230  28.017  22.274  1.00  0.00    -0.495 OA
ATOM     15  C   UNL A   1      29.937  29.320  21.764  1.00  0.00     0.278 C 
ENDBRANCH   9  14
BRANCH  11  16
ATOM     16  N   UNL A   1      30.191  25.704  23.791  1.00  0.00    -0.319 N 
ATOM     17  C   UNL A   1      30.781  24.483  23.588  1.00  0.00     0.262 C 
ATOM     18  H   UNL A   1      29.266  25.759  23.461  1.00  0.00     0.170 HD
ATOM     19  O   UNL A   1      30.211  23.639  22.903  1.00  0.00    -0.269 OA
BRANCH  17  20
ATOM     20  C   UNL A   1      32.068  24.114  24.210  1.00  0.00     0.117 A 
ATOM     21  C   UNL A   1      33.216  24.355  23.442  1.00  0.00     0.021 A 
ATOM     22  C   UNL A   1      32.217  23.476  25.448  1.00  0.00     0.282 A 
ATOM     23  C   UNL A   1      34.478  24.001  23.924  1.00  0.00     0.001 A 
ATOM     24  C   UNL A   1      33.486  23.152  25.955  1.00  0.00     0.086 A 
ATOM     25  C   UNL A   1      34.615  23.416  25.184  1.00  0.00     0.007 A 
BRANCH  22  26
ATOM     26  N   UNL A   1      31.073  23.067  26.235  1.00  0.00     0.063 N 
ATOM     27  O   UNL A   1      30.534  21.994  25.926  1.00  0.00    -0.258 OA
ATOM     28  O   UNL A   1      30.687  23.828  27.129  1.00  0.00    -0.258 OA
ENDBRANCH  22  26
ENDBRANCH  17  20
ENDBRANCH  11  16
ENDBRANCH   5   8
ENDBRANCH   3   4
ENDBRANCH   2   3
ENDBRANCH   1   2
BRANCH   1  29
ATOM     29  C   UNL A   1      34.706  32.890  28.124  1.00  0.00     0.002 C 
BRANCH  29  30
ATOM     30  C   UNL A   1      33.438  33.752  28.132  1.00  0.00     0.021 C 
BRANCH  30  31
ATOM     31  C   UNL A   1      33.609  35.219  28.524  1.00  0.00     0.116 C 
BRANCH  31  32
ATOM     32  N   UNL A   1      32.952  35.527  29.778  1.00  0.00    -0.352 N 
ATOM     33  C   UNL A   1      33.211  35.079  31.053  1.00  0.00     0.251 C 
ATOM     34  H   UNL A   1      32.200  36.158  29.707  1.00  0.00     0.163 HD
ATOM     35  O   UNL A   1      32.379  35.298  31.931  1.00  0.00    -0.269 OA
BRANCH  33  36
ATOM     36  C   UNL A   1      34.451  34.330  31.388  1.00  0.00     0.039 A 
ATOM     37  C   UNL A   1      34.325  33.066  31.977  1.00  0.00     0.014 A 
ATOM     38  C   UNL A   1      35.726  34.879  31.218  1.00  0.00     0.014 A 
ATOM     39  C   UNL A   1      35.464  32.346  32.360  1.00  0.00     0.010 A 
ATOM     40  C   UNL A   1      36.865  34.136  31.553  1.00  0.00     0.010 A 
ATOM     41  C   UNL A   1      36.749  32.867  32.139  1.00  0.00    -0.014 A 
BRANCH  41  42
ATOM     42  C   UNL A   1      37.962  32.102  32.547  1.00  0.00     0.031 A 
ATOM     43  C   UNL A   1      38.662  32.414  33.846  1.00  0.00     0.074 A 
ATOM     44  C   UNL A   1      38.457  31.141  31.742  1.00  0.00     0.049 A 
ATOM     45  N   UNL A   1      39.742  31.879  34.357  1.00  0.00    -0.248 NA
ATOM     46  C   UNL A   1      38.081  33.487  34.666  1.00  0.00     0.031 C 
ATOM     47  C   UNL A   1      37.897  30.759  30.443  1.00  0.00     0.029 A 
ATOM     48  N   UNL A   1      39.542  30.314  31.890  1.00  0.00    -0.354 N 
ATOM     49  C   UNL A   1      39.977  32.553  35.551  1.00  0.00     0.074 A 
ATOM     50  C   UNL A   1      38.955  33.574  35.657  1.00  0.00     0.031 C 
ATOM     51  C   UNL A   1      38.633  29.763  29.924  1.00  0.00     0.029 A 
ATOM     52  C   UNL A   1      39.735  29.455  30.833  1.00  0.00     0.049 A 
ATOM     53  H   UNL A   1      40.129  30.332  32.681  1.00  0.00     0.167 HD
ATOM     54  C   UNL A   1      40.940  32.332  36.483  1.00  0.00     0.034 A 
ATOM     55  C   UNL A   1      40.689  28.529  30.613  1.00  0.00     0.034 A 
ATOM     56  C   UNL A   1      41.948  31.303  36.377  1.00  0.00     0.049 A 
ATOM     57  C   UNL A   1      41.756  28.308  31.655  1.00  0.00     0.074 A 
ATOM     58  C   UNL A   1      42.930  30.960  37.293  1.00  0.00     0.029 A 
ATOM     59  N   UNL A   1      42.112  30.456  35.290  1.00  0.00    -0.354 N 
ATOM     60  N   UNL A   1      41.931  28.923  32.802  1.00  0.00    -0.248 NA
ATOM     61  C   UNL A   1      42.745  27.258  31.378  1.00  0.00     0.031 C 
ATOM     62  C   UNL A   1      43.721  29.948  36.734  1.00  0.00     0.029 A 
ATOM     63  C   UNL A   1      43.195  29.614  35.498  1.00  0.00     0.049 A 
ATOM     64  H   UNL A   1      41.542  30.454  34.487  1.00  0.00     0.167 HD
ATOM     65  C   UNL A   1      43.038  28.317  33.390  1.00  0.00     0.074 A 
ATOM     66  C   UNL A   1      43.475  27.276  32.482  1.00  0.00     0.031 C 
ATOM     67  C   UNL A   1      43.637  28.594  34.576  1.00  0.00     0.034 A 
BRANCH  54  68
ATOM     68  C   UNL A   1      40.960  33.244  37.688  1.00  0.00     0.023 A 
ATOM     69  C   UNL A   1      40.100  33.043  38.781  1.00  0.00     0.031 A 
ATOM     70  C   UNL A   1      41.835  34.344  37.735  1.00  0.00     0.131 A 
ATOM     71  C   UNL A   1      40.077  33.968  39.836  1.00  0.00     0.055 A 
ATOM     72  C   UNL A   1      41.863  35.218  38.825  1.00  0.00     0.041 A 
ATOM     73  F   UNL A   1      42.669  34.598  36.714  1.00  0.00    -0.206 F 
ATOM     74  C   UNL A   1      40.970  35.041  39.877  1.00  0.00     0.022 A 
BRANCH  71  75
ATOM     75  S   UNL A   1      38.768  33.827  41.083  1.00  0.00     0.124 S 
ATOM     76  O   UNL A   1      38.424  35.230  41.308  1.00  0.00    -0.237 OA
ATOM     77  O   UNL A   1      37.763  33.025  40.396  1.00  0.00    -0.237 OA
ATOM     78  O   UNL A   1      39.432  33.169  42.205  1.00  0.00    -0.744 OA
ENDBRANCH  71  75
ENDBRANCH  54  68
BRANCH  55  79
ATOM     79  C   UNL A   1      40.697  27.740  29.348  1.00  0.00     0.023 A 
ATOM     80  C   UNL A   1      41.598  28.039  28.313  1.00  0.00     0.031 A 
ATOM     81  C   UNL A   1      39.771  26.703  29.141  1.00  0.00     0.131 A 
ATOM     82  C   UNL A   1      41.525  27.336  27.101  1.00  0.00     0.055 A 
ATOM     83  C   UNL A   1      39.734  25.977  27.949  1.00  0.00     0.041 A 
ATOM     84  F   UNL A   1      38.894  26.373  30.102  1.00  0.00    -0.206 F 
ATOM     85  C   UNL A   1      40.606  26.301  26.915  1.00  0.00     0.022 A 
BRANCH  82  86
ATOM     86  S   UNL A   1      42.607  27.845  25.737  1.00  0.00     0.124 S 
ATOM     87  O   UNL A   1      42.245  26.890  24.696  1.00  0.00    -0.237 OA
ATOM     88  O   UNL A   1      42.186  29.226  25.517  1.00  0.00    -0.237 OA
ATOM     89  O   UNL A   1      43.951  27.688  26.291  1.00  0.00    -0.744 OA
ENDBRANCH  82  86
ENDBRANCH  55  79
BRANCH  67  90
ATOM     90  C   UNL A   1      44.814  27.731  34.963  1.00  0.00     0.023 A 
ATOM     91  C   UNL A   1      44.646  26.537  35.686  1.00  0.00     0.031 A 
ATOM     92  C   UNL A   1      46.122  28.125  34.633  1.00  0.00     0.131 A 
ATOM     93  C   UNL A   1      45.770  25.811  36.109  1.00  0.00     0.055 A 
ATOM     94  C   UNL A   1      47.235  27.368  35.007  1.00  0.00     0.041 A 
ATOM     95  F   UNL A   1      46.342  29.257  33.946  1.00  0.00    -0.206 F 
ATOM     96  C   UNL A   1      47.062  26.212  35.761  1.00  0.00     0.022 A 
BRANCH  93  97
ATOM     97  S   UNL A   1      45.526  24.385  37.203  1.00  0.00     0.124 S 
ATOM     98  O   UNL A   1      46.888  24.102  37.645  1.00  0.00    -0.237 OA
ATOM     99  O   UNL A   1      44.626  24.921  38.219  1.00  0.00    -0.237 OA
ATOM    100  O   UNL A   1      44.936  23.375  36.326  1.00  0.00    -0.744 OA
ENDBRANCH  93  97
ENDBRANCH  67  90
ENDBRANCH  41  42
ENDBRANCH  33  36
ENDBRANCH  31  32
ENDBRANCH  30  31
ENDBRANCH  29  30
ENDBRANCH   1  29
TORSDOF 20
ENDMDL
MODEL 3
REMARK VINA RESULT:     -11.8      2.341      7.943
REMARK SMILES COc1ccc(C(=O)NCCCCCCNC(=O)c2ccc(-c3c4nc(c(-c5cc(S(=O)(=O)[O-])ccc5F)c5ccc([nH]5)c(-c5cc(S(=O)(=O)[O-])ccc5F)c5nc(c(-c6cc(S(=O)(=O)[O-])ccc6F)c6ccc3[nH]6)C=C5)C=C4)cc2)cc1NC(=O)c1ccccc1[N+](=O)[O-]
REMARK SMILES IDX 12 1 11 2 10 3 9 4 7 5 8 6 6 8 3 9 4 10 83 11 5 12 82 13
REMARK SMILES IDX 2 14 1 15 84 16 85 17 86 19 87 20 88 21 92 22 89 23 91 24
REMARK SMILES IDX 90 25 93 26 94 27 95 28 13 29 14 30 15 31 16 32 17 33 18 35
REMARK SMILES IDX 19 36 20 37 81 38 21 39 80 40 22 41 23 42 24 43 74 44 25 45
REMARK SMILES IDX 79 46 73 47 75 48 26 49 78 50 72 51 71 52 27 54 59 55 39 56
REMARK SMILES IDX 58 57 40 58 43 59 57 60 76 61 41 62 42 63 56 65 77 66 44 67
REMARK SMILES IDX 28 68 29 69 37 70 30 71 36 72 38 73 35 74 31 75 32 76 33 77
REMARK SMILES IDX 34 78 60 79 61 80 69 81 62 82 68 83 70 84 67 85 63 86 64 87
REMARK SMILES IDX 65 88 66 89 45 90 46 91 54 92 47 93 53 94 55 95 52 96 48 97
REMARK SMILES IDX 49 98 50 99 51 100
REMARK H PARENT 9 7 84 18 16 34 75 53 43 64
REMARK Flexibility Score: inf
ROOT
ATOM      1  C   UNL A   1      34.772  30.819  28.474  1.00  0.00     0.002 C 
ENDROOT
BRANCH   1   2
ATOM      2  C   UNL A   1      35.460  29.697  27.681  1.00  0.00     0.021 C 
BRANCH   2   3
ATOM      3  C   UNL A   1      34.498  28.755  26.948  1.00  0.00     0.116 C 
BRANCH   3   4
ATOM      4  N   UNL A   1      33.195  28.732  27.590  1.00  0.00    -0.352 N 
ATOM      5  C   UNL A   1      32.005  28.112  27.307  1.00  0.00     0.251 C 
ATOM      6  O   UNL A   1      31.125  28.196  28.168  1.00  0.00    -0.269 OA
ATOM      7  H   UNL A   1      33.159  29.281  28.405  1.00  0.00     0.163 HD
BRANCH   5   8
ATOM      8  C   UNL A   1      31.704  27.346  26.060  1.00  0.00     0.042 A 
ATOM      9  C   UNL A   1      31.382  26.108  23.555  1.00  0.00     0.142 A 
ATOM     10  C   UNL A   1      31.457  27.492  23.629  1.00  0.00     0.049 A 
ATOM     11  C   UNL A   1      31.436  25.330  24.721  1.00  0.00     0.084 A 
ATOM     12  C   UNL A   1      31.590  28.105  24.878  1.00  0.00     0.018 A 
ATOM     13  C   UNL A   1      31.648  25.948  25.965  1.00  0.00     0.044 A 
BRANCH   9  14
ATOM     14  O   UNL A   1      31.332  25.536  22.307  1.00  0.00    -0.495 OA
ATOM     15  C   UNL A   1      32.551  25.722  21.584  1.00  0.00     0.278 C 
ENDBRANCH   9  14
BRANCH  11  16
ATOM     16  N   UNL A   1      31.303  23.942  24.568  1.00  0.00    -0.319 N 
ATOM     17  C   UNL A   1      32.224  22.931  24.486  1.00  0.00     0.262 C 
ATOM     18  H   UNL A   1      30.369  23.635  24.506  1.00  0.00     0.170 HD
ATOM     19  O   UNL A   1      31.859  21.796  24.195  1.00  0.00    -0.269 OA
BRANCH  17  20
ATOM     20  C   UNL A   1      33.655  23.139  24.790  1.00  0.00     0.117 A 
ATOM     21  C   UNL A   1      34.470  23.494  23.705  1.00  0.00     0.021 A 
ATOM     22  C   UNL A   1      34.259  22.929  26.036  1.00  0.00     0.282 A 
ATOM     23  C   UNL A   1      35.844  23.671  23.880  1.00  0.00     0.001 A 
ATOM     24  C   UNL A   1      35.633  23.142  26.228  1.00  0.00     0.086 A 
ATOM     25  C   UNL A   1      36.422  23.512  25.142  1.00  0.00     0.007 A 
BRANCH  22  26
ATOM     26  N   UNL A   1      33.509  22.426  27.168  1.00  0.00     0.063 N 
ATOM     27  O   UNL A   1      33.867  21.336  27.638  1.00  0.00    -0.258 OA
ATOM     28  O   UNL A   1      32.545  23.091  27.562  1.00  0.00    -0.258 OA
ENDBRANCH  22  26
ENDBRANCH  17  20
ENDBRANCH  11  16
ENDBRANCH   5   8
ENDBRANCH   3   4
ENDBRANCH   2   3
ENDBRANCH   1   2
BRANCH   1  29
ATOM     29  C   UNL A   1      35.060  32.256  28.010  1.00  0.00     0.002 C 
BRANCH  29  30
ATOM     30  C   UNL A   1      33.844  33.158  27.775  1.00  0.00     0.021 C 
BRANCH  30  31
ATOM     31  C   UNL A   1      34.056  34.660  27.965  1.00  0.00     0.116 C 
BRANCH  31  32
ATOM     32  N   UNL A   1      33.300  35.179  29.086  1.00  0.00    -0.352 N 
ATOM     33  C   UNL A   1      33.420  34.929  30.434  1.00  0.00     0.251 C 
ATOM     34  H   UNL A   1      32.585  35.811  28.846  1.00  0.00     0.163 HD
ATOM     35  O   UNL A   1      32.521  35.306  31.182  1.00  0.00    -0.269 OA
BRANCH  33  36
ATOM     36  C   UNL A   1      34.591  34.209  31.000  1.00  0.00     0.039 A 
ATOM     37  C   UNL A   1      35.869  34.729  30.763  1.00  0.00     0.014 A 
ATOM     38  C   UNL A   1      34.465  32.991  31.676  1.00  0.00     0.014 A 
ATOM     39  C   UNL A   1      37.006  34.056  31.228  1.00  0.00     0.010 A 
ATOM     40  C   UNL A   1      35.599  32.346  32.187  1.00  0.00     0.010 A 
ATOM     41  C   UNL A   1      36.884  32.863  31.958  1.00  0.00    -0.014 A 
BRANCH  41  42
ATOM     42  C   UNL A   1      38.093  32.145  32.453  1.00  0.00     0.031 A 
ATOM     43  C   UNL A   1      38.735  31.064  31.621  1.00  0.00     0.074 A 
ATOM     44  C   UNL A   1      38.606  32.442  33.664  1.00  0.00     0.049 A 
ATOM     45  N   UNL A   1      39.771  30.311  31.892  1.00  0.00    -0.248 NA
ATOM     46  C   UNL A   1      38.112  30.777  30.320  1.00  0.00     0.031 C 
ATOM     47  C   UNL A   1      38.066  33.443  34.586  1.00  0.00     0.029 A 
ATOM     48  N   UNL A   1      39.691  31.930  34.331  1.00  0.00    -0.354 N 
ATOM     49  C   UNL A   1      39.921  29.456  30.805  1.00  0.00     0.074 A 
ATOM     50  C   UNL A   1      38.832  29.750  29.896  1.00  0.00     0.031 C 
ATOM     51  C   UNL A   1      38.831  33.483  35.689  1.00  0.00     0.029 A 
ATOM     52  C   UNL A   1      39.896  32.491  35.571  1.00  0.00     0.049 A 
ATOM     53  H   UNL A   1      40.270  31.226  33.958  1.00  0.00     0.167 HD
ATOM     54  C   UNL A   1      40.884  28.527  30.574  1.00  0.00     0.034 A 
ATOM     55  C   UNL A   1      40.829  32.235  36.510  1.00  0.00     0.034 A 
ATOM     56  C   UNL A   1      41.975  28.249  31.479  1.00  0.00     0.049 A 
ATOM     57  C   UNL A   1      41.883  31.191  36.237  1.00  0.00     0.074 A 
ATOM     58  C   UNL A   1      43.034  27.371  31.310  1.00  0.00     0.029 A 
ATOM     59  N   UNL A   1      42.146  28.836  32.726  1.00  0.00    -0.354 N 
ATOM     60  N   UNL A   1      42.036  30.429  35.180  1.00  0.00    -0.248 NA
ATOM     61  C   UNL A   1      42.896  30.986  37.280  1.00  0.00     0.031 C 
ATOM     62  C   UNL A   1      43.808  27.383  32.477  1.00  0.00     0.029 A 
ATOM     63  C   UNL A   1      43.272  28.317  33.348  1.00  0.00     0.049 A 
ATOM     64  H   UNL A   1      41.553  29.520  33.112  1.00  0.00     0.167 HD
ATOM     65  C   UNL A   1      43.177  29.669  35.425  1.00  0.00     0.074 A 
ATOM     66  C   UNL A   1      43.682  30.081  36.718  1.00  0.00     0.031 C 
ATOM     67  C   UNL A   1      43.756  28.718  34.648  1.00  0.00     0.034 A 
BRANCH  54  68
ATOM     68  C   UNL A   1      40.781  27.725  29.297  1.00  0.00     0.023 A 
ATOM     69  C   UNL A   1      41.665  27.928  28.223  1.00  0.00     0.031 A 
ATOM     70  C   UNL A   1      39.770  26.760  29.141  1.00  0.00     0.131 A 
ATOM     71  C   UNL A   1      41.475  27.237  27.017  1.00  0.00     0.055 A 
ATOM     72  C   UNL A   1      39.634  26.017  27.966  1.00  0.00     0.041 A 
ATOM     73  F   UNL A   1      38.885  26.532  30.125  1.00  0.00    -0.206 F 
ATOM     74  C   UNL A   1      40.480  26.265  26.889  1.00  0.00     0.022 A 
BRANCH  71  75
ATOM     75  S   UNL A   1      42.457  27.728  25.574  1.00  0.00     0.124 S 
ATOM     76  O   UNL A   1      43.786  27.885  26.162  1.00  0.00    -0.237 OA
ATOM     77  O   UNL A   1      42.285  26.594  24.675  1.00  0.00    -0.237 OA
ATOM     78  O   UNL A   1      41.826  28.972  25.137  1.00  0.00    -0.744 OA
ENDBRANCH  71  75
ENDBRANCH  54  68
BRANCH  55  79
ATOM     79  C   UNL A   1      40.813  32.968  37.807  1.00  0.00     0.023 A 
ATOM     80  C   UNL A   1      39.961  32.574  38.852  1.00  0.00     0.031 A 
ATOM     81  C   UNL A   1      41.620  34.102  38.004  1.00  0.00     0.131 A 
ATOM     82  C   UNL A   1      39.904  33.333  40.030  1.00  0.00     0.055 A 
ATOM     83  C   UNL A   1      41.592  34.827  39.196  1.00  0.00     0.041 A 
ATOM     84  F   UNL A   1      42.458  34.515  37.040  1.00  0.00    -0.206 F 
ATOM     85  C   UNL A   1      40.721  34.451  40.213  1.00  0.00     0.022 A 
BRANCH  82  86
ATOM     86  S   UNL A   1      38.689  32.878  41.298  1.00  0.00     0.124 S 
ATOM     87  O   UNL A   1      39.081  33.738  42.409  1.00  0.00    -0.237 OA
ATOM     88  O   UNL A   1      37.429  33.211  40.641  1.00  0.00    -0.237 OA
ATOM     89  O   UNL A   1      38.925  31.450  41.499  1.00  0.00    -0.744 OA
ENDBRANCH  82  86
ENDBRANCH  55  79
BRANCH  67  90
ATOM     90  C   UNL A   1      45.021  28.085  35.176  1.00  0.00     0.023 A 
ATOM     91  C   UNL A   1      44.986  26.956  36.013  1.00  0.00     0.031 A 
ATOM     92  C   UNL A   1      46.275  28.638  34.864  1.00  0.00     0.131 A 
ATOM     93  C   UNL A   1      46.177  26.453  36.559  1.00  0.00     0.055 A 
ATOM     94  C   UNL A   1      47.462  28.099  35.365  1.00  0.00     0.041 A 
ATOM     95  F   UNL A   1      46.368  29.719  34.072  1.00  0.00    -0.206 F 
ATOM     96  C   UNL A   1      47.415  27.009  36.229  1.00  0.00     0.022 A 
BRANCH  93  97
ATOM     97  S   UNL A   1      46.079  25.120  37.786  1.00  0.00     0.124 S 
ATOM     98  O   UNL A   1      46.887  24.074  37.165  1.00  0.00    -0.237 OA
ATOM     99  O   UNL A   1      46.651  25.746  38.974  1.00  0.00    -0.237 OA
ATOM    100  O   UNL A   1      44.648  24.831  37.867  1.00  0.00    -0.744 OA
ENDBRANCH  93  97
ENDBRANCH  67  90
ENDBRANCH  41  42
ENDBRANCH  33  36
ENDBRANCH  31  32
ENDBRANCH  30  31
ENDBRANCH  29  30
ENDBRANCH   1  29
TORSDOF 20
ENDMDL
