MODEL 1
REMARK VINA RESULT:     -11.3      0.000      0.000
REMARK SMILES N#Cc1cc2c(nc1N(CC(=O)NCCCCCCNC(=O)c1ccc(-c3c4nc(c(-c5cc(S(=O)(=O)[O-])ccc5F)c5ccc([nH]5)c(-c5cc(S(=O)(=O)[O-])ccc5F)c5nc(c(-c6cc(S(=O)(=O)[O-])ccc6F)c6ccc3[nH]6)C=C5)C=C4)cc1)CC(F)(F)F)CCC2
REMARK SMILES IDX 16 1 15 2 14 3 13 4 11 5 12 6 10 8 9 9 8 10 3 11 4 12 5 13
REMARK SMILES IDX 7 14 6 15 93 16 91 17 92 18 2 19 1 20 86 21 87 22 88 23
REMARK SMILES IDX 89 24 90 25 17 26 18 27 19 28 20 29 21 30 22 32 23 33 24 34
REMARK SMILES IDX 85 35 25 36 84 37 26 38 27 39 28 40 78 41 29 42 83 43 77 44
REMARK SMILES IDX 79 45 30 46 82 47 76 48 75 49 31 51 63 52 43 53 62 54 44 55
REMARK SMILES IDX 47 56 61 57 80 58 45 59 46 60 60 62 81 63 48 64 32 65 33 66
REMARK SMILES IDX 41 67 34 68 40 69 42 70 39 71 35 72 36 73 37 74 38 75 64 76
REMARK SMILES IDX 65 77 73 78 66 79 72 80 74 81 71 82 67 83 68 84 69 85 70 86
REMARK SMILES IDX 49 87 50 88 58 89 51 90 57 91 59 92 56 93 52 94 53 95 54 96
REMARK SMILES IDX 55 97
REMARK H PARENT 13 7 20 31 79 50 47 61
REMARK Flexibility Score: inf
ROOT
ATOM      1  C   UNL A   1      33.093  29.857  26.198  1.00  0.00     0.002 C 
ENDROOT
BRANCH   1   2
ATOM      2  C   UNL A   1      33.092  28.560  27.014  1.00  0.00     0.021 C 
BRANCH   2   3
ATOM      3  C   UNL A   1      31.725  27.883  27.071  1.00  0.00     0.116 C 
BRANCH   3   4
ATOM      4  N   UNL A   1      31.854  26.460  27.315  1.00  0.00    -0.355 N 
ATOM      5  C   UNL A   1      31.178  25.435  26.720  1.00  0.00     0.239 C 
ATOM      6  O   UNL A   1      31.352  24.288  27.139  1.00  0.00    -0.273 OA
ATOM      7  H   UNL A   1      32.516  26.200  27.995  1.00  0.00     0.163 HD
BRANCH   5   8
ATOM      8  C   UNL A   1      30.226  25.713  25.550  1.00  0.00     0.218 C 
BRANCH   8   9
ATOM      9  N   UNL A   1      30.934  26.037  24.281  1.00  0.00    -0.337 N 
BRANCH   9  10
ATOM     10  C   UNL A   1      30.631  27.243  23.659  1.00  0.00     0.147 A 
ATOM     11  C   UNL A   1      31.536  28.121  23.014  1.00  0.00     0.095 A 
ATOM     12  C   UNL A   1      31.062  29.238  22.290  1.00  0.00     0.029 A 
ATOM     13  C   UNL A   1      29.715  29.499  22.283  1.00  0.00    -0.025 A 
ATOM     14  N   UNL A   1      29.308  27.572  23.661  1.00  0.00    -0.234 NA
ATOM     15  C   UNL A   1      28.890  28.663  22.997  1.00  0.00     0.046 A 
ATOM     16  C   UNL A   1      28.941  30.565  21.583  1.00  0.00     0.038 C 
ATOM     17  C   UNL A   1      27.455  29.099  22.888  1.00  0.00     0.057 C 
ATOM     18  C   UNL A   1      27.626  30.539  22.376  1.00  0.00     0.011 C 
BRANCH  11  19
ATOM     19  C   UNL A   1      32.960  28.001  23.083  1.00  0.00     0.103 C 
ATOM     20  N   UNL A   1      34.110  27.886  23.161  1.00  0.00    -0.192 NA
ENDBRANCH  11  19
ENDBRANCH   9  10
BRANCH   9  21
ATOM     21  C   UNL A   1      31.979  25.058  23.871  1.00  0.00     0.234 C 
BRANCH  21  22
ATOM     22  C   UNL A   1      31.501  23.673  23.394  1.00  0.00     0.405 C 
ATOM     23  F   UNL A   1      32.180  23.227  22.314  1.00  0.00    -0.169 F 
ATOM     24  F   UNL A   1      31.659  22.754  24.377  1.00  0.00    -0.169 F 
ATOM     25  F   UNL A   1      30.188  23.679  23.073  1.00  0.00    -0.169 F 
ENDBRANCH  21  22
ENDBRANCH   9  21
ENDBRANCH   8   9
ENDBRANCH   5   8
ENDBRANCH   3   4
ENDBRANCH   2   3
ENDBRANCH   1   2
BRANCH   1  26
ATOM     26  C   UNL A   1      31.694  30.420  25.928  1.00  0.00     0.002 C 
BRANCH  26  27
ATOM     27  C   UNL A   1      31.434  31.787  26.563  1.00  0.00     0.021 C 
BRANCH  27  28
ATOM     28  C   UNL A   1      32.644  32.370  27.285  1.00  0.00     0.116 C 
BRANCH  28  29
ATOM     29  N   UNL A   1      32.508  33.805  27.473  1.00  0.00    -0.352 N 
ATOM     30  C   UNL A   1      33.092  34.602  28.425  1.00  0.00     0.251 C 
ATOM     31  H   UNL A   1      31.919  34.266  26.833  1.00  0.00     0.163 HD
ATOM     32  O   UNL A   1      32.675  35.739  28.621  1.00  0.00    -0.269 OA
BRANCH  30  33
ATOM     33  C   UNL A   1      34.214  34.063  29.218  1.00  0.00     0.039 A 
ATOM     34  C   UNL A   1      33.953  33.121  30.214  1.00  0.00     0.014 A 
ATOM     35  C   UNL A   1      35.525  34.476  28.958  1.00  0.00     0.014 A 
ATOM     36  C   UNL A   1      35.018  32.553  30.914  1.00  0.00     0.010 A 
ATOM     37  C   UNL A   1      36.587  33.850  29.599  1.00  0.00     0.010 A 
ATOM     38  C   UNL A   1      36.344  32.890  30.592  1.00  0.00    -0.014 A 
BRANCH  38  39
ATOM     39  C   UNL A   1      37.486  32.268  31.308  1.00  0.00     0.031 A 
ATOM     40  C   UNL A   1      38.222  31.116  30.682  1.00  0.00     0.074 A 
ATOM     41  C   UNL A   1      37.844  32.730  32.523  1.00  0.00     0.049 A 
ATOM     42  N   UNL A   1      39.220  30.420  31.160  1.00  0.00    -0.248 NA
ATOM     43  C   UNL A   1      37.766  30.675  29.353  1.00  0.00     0.031 C 
ATOM     44  C   UNL A   1      37.193  33.831  33.234  1.00  0.00     0.029 A 
ATOM     45  N   UNL A   1      38.850  32.338  33.371  1.00  0.00    -0.354 N 
ATOM     46  C   UNL A   1      39.515  29.468  30.192  1.00  0.00     0.074 A 
ATOM     47  C   UNL A   1      38.547  29.629  29.130  1.00  0.00     0.031 C 
ATOM     48  C   UNL A   1      37.843  34.057  34.387  1.00  0.00     0.029 A 
ATOM     49  C   UNL A   1      38.925  33.085  34.524  1.00  0.00     0.049 A 
ATOM     50  H   UNL A   1      39.462  31.593  33.173  1.00  0.00     0.167 HD
ATOM     51  C   UNL A   1      40.520  28.563  30.177  1.00  0.00     0.034 A 
ATOM     52  C   UNL A   1      39.764  32.995  35.575  1.00  0.00     0.034 A 
ATOM     53  C   UNL A   1      41.489  28.423  31.233  1.00  0.00     0.049 A 
ATOM     54  C   UNL A   1      40.836  31.937  35.561  1.00  0.00     0.074 A 
ATOM     55  C   UNL A   1      42.567  27.559  31.298  1.00  0.00     0.029 A 
ATOM     56  N   UNL A   1      41.500  29.165  32.406  1.00  0.00    -0.354 N 
ATOM     57  N   UNL A   1      41.109  31.054  34.629  1.00  0.00    -0.248 NA
ATOM     58  C   UNL A   1      41.712  31.860  36.739  1.00  0.00     0.031 C 
ATOM     59  C   UNL A   1      43.185  27.725  32.539  1.00  0.00     0.029 A 
ATOM     60  C   UNL A   1      42.543  28.749  33.217  1.00  0.00     0.049 A 
ATOM     61  H   UNL A   1      40.861  29.880  32.629  1.00  0.00     0.167 HD
ATOM     62  C   UNL A   1      42.203  30.333  35.099  1.00  0.00     0.074 A 
ATOM     63  C   UNL A   1      42.546  30.888  36.392  1.00  0.00     0.031 C 
ATOM     64  C   UNL A   1      42.864  29.305  34.509  1.00  0.00     0.034 A 
BRANCH  51  65
ATOM     65  C   UNL A   1      40.626  27.647  28.986  1.00  0.00     0.023 A 
ATOM     66  C   UNL A   1      41.564  27.877  27.966  1.00  0.00     0.031 A 
ATOM     67  C   UNL A   1      39.809  26.508  28.890  1.00  0.00     0.131 A 
ATOM     68  C   UNL A   1      41.641  26.998  26.877  1.00  0.00     0.055 A 
ATOM     69  C   UNL A   1      39.934  25.601  27.837  1.00  0.00     0.041 A 
ATOM     70  F   UNL A   1      38.883  26.251  29.828  1.00  0.00    -0.206 F 
ATOM     71  C   UNL A   1      40.850  25.848  26.818  1.00  0.00     0.022 A 
BRANCH  68  72
ATOM     72  S   UNL A   1      42.743  27.417  25.499  1.00  0.00     0.124 S 
ATOM     73  O   UNL A   1      42.021  28.520  24.870  1.00  0.00    -0.237 OA
ATOM     74  O   UNL A   1      43.982  27.770  26.180  1.00  0.00    -0.237 OA
ATOM     75  O   UNL A   1      42.792  26.184  24.715  1.00  0.00    -0.744 OA
ENDBRANCH  68  72
ENDBRANCH  51  65
BRANCH  52  76
ATOM     76  C   UNL A   1      39.622  33.930  36.727  1.00  0.00     0.023 A 
ATOM     77  C   UNL A   1      39.086  33.494  37.950  1.00  0.00     0.031 A 
ATOM     78  C   UNL A   1      40.020  35.276  36.621  1.00  0.00     0.131 A 
ATOM     79  C   UNL A   1      38.943  34.402  39.012  1.00  0.00     0.055 A 
ATOM     80  C   UNL A   1      39.915  36.162  37.694  1.00  0.00     0.041 A 
ATOM     81  F   UNL A   1      40.543  35.741  35.476  1.00  0.00    -0.206 F 
ATOM     82  C   UNL A   1      39.367  35.727  38.897  1.00  0.00     0.022 A 
BRANCH  79  83
ATOM     83  S   UNL A   1      38.154  33.832  40.541  1.00  0.00     0.124 S 
ATOM     84  O   UNL A   1      37.912  35.090  41.237  1.00  0.00    -0.237 OA
ATOM     85  O   UNL A   1      36.973  33.139  40.036  1.00  0.00    -0.237 OA
ATOM     86  O   UNL A   1      39.167  32.968  41.144  1.00  0.00    -0.744 OA
ENDBRANCH  79  83
ENDBRANCH  52  76
BRANCH  64  87
ATOM     87  C   UNL A   1      44.042  28.719  35.244  1.00  0.00     0.023 A 
ATOM     88  C   UNL A   1      43.877  27.687  36.182  1.00  0.00     0.031 A 
ATOM     89  C   UNL A   1      45.347  29.152  34.954  1.00  0.00     0.131 A 
ATOM     90  C   UNL A   1      45.001  27.139  36.819  1.00  0.00     0.055 A 
ATOM     91  C   UNL A   1      46.464  28.567  35.551  1.00  0.00     0.041 A 
ATOM     92  F   UNL A   1      45.558  30.133  34.060  1.00  0.00    -0.206 F 
ATOM     93  C   UNL A   1      46.293  27.558  36.494  1.00  0.00     0.022 A 
BRANCH  90  94
ATOM     94  S   UNL A   1      44.745  25.893  38.111  1.00  0.00     0.124 S 
ATOM     95  O   UNL A   1      43.686  25.072  37.532  1.00  0.00    -0.237 OA
ATOM     96  O   UNL A   1      46.058  25.264  38.206  1.00  0.00    -0.237 OA
ATOM     97  O   UNL A   1      44.351  26.683  39.276  1.00  0.00    -0.744 OA
ENDBRANCH  90  94
ENDBRANCH  64  87
ENDBRANCH  38  39
ENDBRANCH  30  33
ENDBRANCH  28  29
ENDBRANCH  27  28
ENDBRANCH  26  27
ENDBRANCH   1  26
TORSDOF 21
ENDMDL
MODEL 2
REMARK VINA RESULT:     -11.1      2.793      4.670
REMARK SMILES N#Cc1cc2c(nc1N(CC(=O)NCCCCCCNC(=O)c1ccc(-c3c4nc(c(-c5cc(S(=O)(=O)[O-])ccc5F)c5ccc([nH]5)c(-c5cc(S(=O)(=O)[O-])ccc5F)c5nc(c(-c6cc(S(=O)(=O)[O-])ccc6F)c6ccc3[nH]6)C=C5)C=C4)cc1)CC(F)(F)F)CCC2
REMARK SMILES IDX 16 1 15 2 14 3 13 4 11 5 12 6 10 8 9 9 8 10 3 11 4 12 5 13
REMARK SMILES IDX 7 14 6 15 93 16 91 17 92 18 2 19 1 20 86 21 87 22 88 23
REMARK SMILES IDX 89 24 90 25 17 26 18 27 19 28 20 29 21 30 22 32 23 33 24 34
REMARK SMILES IDX 85 35 25 36 84 37 26 38 27 39 28 40 78 41 29 42 83 43 77 44
REMARK SMILES IDX 79 45 30 46 82 47 76 48 75 49 31 51 63 52 43 53 62 54 44 55
REMARK SMILES IDX 47 56 61 57 80 58 45 59 46 60 60 62 81 63 48 64 32 65 33 66
REMARK SMILES IDX 41 67 34 68 40 69 42 70 39 71 35 72 36 73 37 74 38 75 64 76
REMARK SMILES IDX 65 77 73 78 66 79 72 80 74 81 71 82 67 83 68 84 69 85 70 86
REMARK SMILES IDX 49 87 50 88 58 89 51 90 57 91 59 92 56 93 52 94 53 95 54 96
REMARK SMILES IDX 55 97
REMARK H PARENT 13 7 20 31 79 50 47 61
REMARK Flexibility Score: inf
ROOT
ATOM      1  C   UNL A   1      30.598  27.067  24.561  1.00  0.00     0.002 C 
ENDROOT
BRANCH   1   2
ATOM      2  C   UNL A   1      30.907  27.456  23.112  1.00  0.00     0.021 C 
BRANCH   2   3
ATOM      3  C   UNL A   1      31.194  26.258  22.212  1.00  0.00     0.116 C 
BRANCH   3   4
ATOM      4  N   UNL A   1      32.601  25.907  22.238  1.00  0.00    -0.355 N 
ATOM      5  C   UNL A   1      33.165  24.694  22.505  1.00  0.00     0.239 C 
ATOM      6  O   UNL A   1      34.394  24.617  22.584  1.00  0.00    -0.273 OA
ATOM      7  H   UNL A   1      33.228  26.637  22.036  1.00  0.00     0.163 HD
BRANCH   5   8
ATOM      8  C   UNL A   1      32.282  23.455  22.696  1.00  0.00     0.218 C 
BRANCH   8   9
ATOM      9  N   UNL A   1      32.407  22.848  24.050  1.00  0.00    -0.337 N 
BRANCH   9  10
ATOM     10  C   UNL A   1      33.110  21.654  24.163  1.00  0.00     0.147 A 
ATOM     11  C   UNL A   1      34.365  21.458  24.787  1.00  0.00     0.095 A 
ATOM     12  C   UNL A   1      34.888  20.158  24.961  1.00  0.00     0.029 A 
ATOM     13  C   UNL A   1      34.193  19.091  24.449  1.00  0.00    -0.025 A 
ATOM     14  N   UNL A   1      32.481  20.567  23.630  1.00  0.00    -0.234 NA
ATOM     15  C   UNL A   1      33.021  19.345  23.776  1.00  0.00     0.046 A 
ATOM     16  C   UNL A   1      34.479  17.629  24.518  1.00  0.00     0.038 C 
ATOM     17  C   UNL A   1      32.399  18.071  23.276  1.00  0.00     0.057 C 
ATOM     18  C   UNL A   1      33.590  17.105  23.379  1.00  0.00     0.011 C 
BRANCH  11  19
ATOM     19  C   UNL A   1      35.218  22.519  25.229  1.00  0.00     0.103 C 
ATOM     20  N   UNL A   1      35.884  23.392  25.598  1.00  0.00    -0.192 NA
ENDBRANCH  11  19
ENDBRANCH   9  10
BRANCH   9  21
ATOM     21  C   UNL A   1      31.840  23.659  25.163  1.00  0.00     0.234 C 
BRANCH  21  22
ATOM     22  C   UNL A   1      31.256  22.895  26.368  1.00  0.00     0.405 C 
ATOM     23  F   UNL A   1      32.209  22.348  27.154  1.00  0.00    -0.169 F 
ATOM     24  F   UNL A   1      30.521  23.727  27.145  1.00  0.00    -0.169 F 
ATOM     25  F   UNL A   1      30.431  21.897  25.977  1.00  0.00    -0.169 F 
ENDBRANCH  21  22
ENDBRANCH   9  21
ENDBRANCH   8   9
ENDBRANCH   5   8
ENDBRANCH   3   4
ENDBRANCH   2   3
ENDBRANCH   1   2
BRANCH   1  26
ATOM     26  C   UNL A   1      31.390  27.867  25.600  1.00  0.00     0.002 C 
BRANCH  26  27
ATOM     27  C   UNL A   1      32.907  27.682  25.513  1.00  0.00     0.021 C 
BRANCH  27  28
ATOM     28  C   UNL A   1      33.654  28.938  25.078  1.00  0.00     0.116 C 
BRANCH  28  29
ATOM     29  N   UNL A   1      32.933  30.141  25.459  1.00  0.00    -0.352 N 
ATOM     30  C   UNL A   1      33.060  30.887  26.604  1.00  0.00     0.251 C 
ATOM     31  H   UNL A   1      32.267  30.463  24.811  1.00  0.00     0.163 HD
ATOM     32  O   UNL A   1      32.203  31.714  26.902  1.00  0.00    -0.269 OA
BRANCH  30  33
ATOM     33  C   UNL A   1      34.230  30.667  27.476  1.00  0.00     0.039 A 
ATOM     34  C   UNL A   1      34.365  29.446  28.138  1.00  0.00     0.014 A 
ATOM     35  C   UNL A   1      35.202  31.663  27.618  1.00  0.00     0.014 A 
ATOM     36  C   UNL A   1      35.507  29.205  28.903  1.00  0.00     0.010 A 
ATOM     37  C   UNL A   1      36.374  31.390  28.312  1.00  0.00     0.010 A 
ATOM     38  C   UNL A   1      36.534  30.162  28.971  1.00  0.00    -0.014 A 
BRANCH  38  39
ATOM     39  C   UNL A   1      37.767  29.904  29.755  1.00  0.00     0.031 A 
ATOM     40  C   UNL A   1      38.858  29.049  29.171  1.00  0.00     0.074 A 
ATOM     41  C   UNL A   1      37.894  30.423  30.993  1.00  0.00     0.049 A 
ATOM     42  N   UNL A   1      39.991  28.682  29.709  1.00  0.00    -0.248 NA
ATOM     43  C   UNL A   1      38.638  28.521  27.815  1.00  0.00     0.031 C 
ATOM     44  C   UNL A   1      36.894  31.254  31.667  1.00  0.00     0.029 A 
ATOM     45  N   UNL A   1      38.920  30.339  31.901  1.00  0.00    -0.354 N 
ATOM     46  C   UNL A   1      40.622  27.890  28.756  1.00  0.00     0.074 A 
ATOM     47  C   UNL A   1      39.716  27.771  27.637  1.00  0.00     0.031 C 
ATOM     48  C   UNL A   1      37.375  31.641  32.859  1.00  0.00     0.029 A 
ATOM     49  C   UNL A   1      38.693  31.045  33.060  1.00  0.00     0.049 A 
ATOM     50  H   UNL A   1      39.742  29.823  31.738  1.00  0.00     0.167 HD
ATOM     51  C   UNL A   1      41.856  27.338  28.801  1.00  0.00     0.034 A 
ATOM     52  C   UNL A   1      39.456  31.192  34.162  1.00  0.00     0.034 A 
ATOM     53  C   UNL A   1      42.757  27.477  29.915  1.00  0.00     0.049 A 
ATOM     54  C   UNL A   1      40.801  30.515  34.211  1.00  0.00     0.074 A 
ATOM     55  C   UNL A   1      44.043  26.984  30.044  1.00  0.00     0.029 A 
ATOM     56  N   UNL A   1      42.470  28.157  31.090  1.00  0.00    -0.354 N 
ATOM     57  N   UNL A   1      41.387  29.780  33.293  1.00  0.00    -0.248 NA
ATOM     58  C   UNL A   1      41.587  30.682  35.441  1.00  0.00     0.031 C 
ATOM     59  C   UNL A   1      44.506  27.301  31.323  1.00  0.00     0.029 A 
ATOM     60  C   UNL A   1      43.541  28.062  31.964  1.00  0.00     0.049 A 
ATOM     61  H   UNL A   1      41.631  28.636  31.276  1.00  0.00     0.167 HD
ATOM     62  C   UNL A   1      42.620  29.419  33.828  1.00  0.00     0.074 A 
ATOM     63  C   UNL A   1      42.698  30.022  35.143  1.00  0.00     0.031 C 
ATOM     64  C   UNL A   1      43.599  28.658  33.276  1.00  0.00     0.034 A 
BRANCH  51  65
ATOM     65  C   UNL A   1      42.309  26.527  27.615  1.00  0.00     0.023 A 
ATOM     66  C   UNL A   1      41.996  25.163  27.497  1.00  0.00     0.031 A 
ATOM     67  C   UNL A   1      43.026  27.135  26.570  1.00  0.00     0.131 A 
ATOM     68  C   UNL A   1      42.426  24.442  26.374  1.00  0.00     0.055 A 
ATOM     69  C   UNL A   1      43.395  26.429  25.425  1.00  0.00     0.041 A 
ATOM     70  F   UNL A   1      43.368  28.432  26.641  1.00  0.00    -0.206 F 
ATOM     71  C   UNL A   1      43.101  25.072  25.325  1.00  0.00     0.022 A 
BRANCH  68  72
ATOM     72  S   UNL A   1      42.150  22.651  26.334  1.00  0.00     0.124 S 
ATOM     73  O   UNL A   1      42.813  22.280  25.086  1.00  0.00    -0.237 OA
ATOM     74  O   UNL A   1      42.799  22.203  27.560  1.00  0.00    -0.237 OA
ATOM     75  O   UNL A   1      40.693  22.530  26.319  1.00  0.00    -0.744 OA
ENDBRANCH  68  72
ENDBRANCH  51  65
BRANCH  52  76
ATOM     76  C   UNL A   1      38.966  32.010  35.307  1.00  0.00     0.023 A 
ATOM     77  C   UNL A   1      38.364  31.405  36.422  1.00  0.00     0.031 A 
ATOM     78  C   UNL A   1      39.091  33.411  35.303  1.00  0.00     0.131 A 
ATOM     79  C   UNL A   1      37.890  32.201  37.477  1.00  0.00     0.055 A 
ATOM     80  C   UNL A   1      38.658  34.194  36.374  1.00  0.00     0.041 A 
ATOM     81  F   UNL A   1      39.664  34.038  34.263  1.00  0.00    -0.206 F 
ATOM     82  C   UNL A   1      38.047  33.588  37.468  1.00  0.00     0.022 A 
BRANCH  79  83
ATOM     83  S   UNL A   1      37.026  31.396  38.854  1.00  0.00     0.124 S 
ATOM     84  O   UNL A   1      36.915  30.024  38.373  1.00  0.00    -0.237 OA
ATOM     85  O   UNL A   1      37.948  31.617  39.963  1.00  0.00    -0.237 OA
ATOM     86  O   UNL A   1      35.767  32.133  38.940  1.00  0.00    -0.744 OA
ENDBRANCH  79  83
ENDBRANCH  52  76
BRANCH  64  87
ATOM     87  C   UNL A   1      44.855  28.444  34.082  1.00  0.00     0.023 A 
ATOM     88  C   UNL A   1      45.001  27.331  34.925  1.00  0.00     0.031 A 
ATOM     89  C   UNL A   1      45.940  29.328  33.952  1.00  0.00     0.131 A 
ATOM     90  C   UNL A   1      46.199  27.144  35.630  1.00  0.00     0.055 A 
ATOM     91  C   UNL A   1      47.148  29.109  34.615  1.00  0.00     0.041 A 
ATOM     92  F   UNL A   1      45.852  30.406  33.154  1.00  0.00    -0.206 F 
ATOM     93  C   UNL A   1      47.280  28.014  35.464  1.00  0.00     0.022 A 
BRANCH  90  94
ATOM     94  S   UNL A   1      46.311  25.764  36.800  1.00  0.00     0.124 S 
ATOM     95  O   UNL A   1      45.318  24.836  36.269  1.00  0.00    -0.237 OA
ATOM     96  O   UNL A   1      47.705  25.351  36.668  1.00  0.00    -0.237 OA
ATOM     97  O   UNL A   1      45.966  26.374  38.084  1.00  0.00    -0.744 OA
ENDBRANCH  90  94
ENDBRANCH  64  87
ENDBRANCH  38  39
ENDBRANCH  30  33
ENDBRANCH  28  29
ENDBRANCH  27  28
ENDBRANCH  26  27
ENDBRANCH   1  26
TORSDOF 21
ENDMDL
MODEL 3
REMARK VINA RESULT:     -11.1      3.082      4.824
REMARK SMILES N#Cc1cc2c(nc1N(CC(=O)NCCCCCCNC(=O)c1ccc(-c3c4nc(c(-c5cc(S(=O)(=O)[O-])ccc5F)c5ccc([nH]5)c(-c5cc(S(=O)(=O)[O-])ccc5F)c5nc(c(-c6cc(S(=O)(=O)[O-])ccc6F)c6ccc3[nH]6)C=C5)C=C4)cc1)CC(F)(F)F)CCC2
REMARK SMILES IDX 16 1 15 2 14 3 13 4 11 5 12 6 10 8 9 9 8 10 3 11 4 12 5 13
REMARK SMILES IDX 7 14 6 15 93 16 91 17 92 18 2 19 1 20 86 21 87 22 88 23
REMARK SMILES IDX 89 24 90 25 17 26 18 27 19 28 20 29 21 30 22 32 23 33 24 34
REMARK SMILES IDX 85 35 25 36 84 37 26 38 27 39 28 40 78 41 29 42 83 43 77 44
REMARK SMILES IDX 79 45 30 46 82 47 76 48 75 49 31 51 63 52 43 53 62 54 44 55
REMARK SMILES IDX 47 56 61 57 80 58 45 59 46 60 60 62 81 63 48 64 32 65 33 66
REMARK SMILES IDX 41 67 34 68 40 69 42 70 39 71 35 72 36 73 37 74 38 75 64 76
REMARK SMILES IDX 65 77 73 78 66 79 72 80 74 81 71 82 67 83 68 84 69 85 70 86
REMARK SMILES IDX 49 87 50 88 58 89 51 90 57 91 59 92 56 93 52 94 53 95 54 96
REMARK SMILES IDX 55 97
REMARK H PARENT 13 7 20 31 79 50 47 61
REMARK Flexibility Score: inf
ROOT
ATOM      1  C   UNL A   1      30.538  26.870  23.976  1.00  0.00     0.002 C 
ENDROOT
BRANCH   1   2
ATOM      2  C   UNL A   1      29.504  26.031  24.735  1.00  0.00     0.021 C 
BRANCH   2   3
ATOM      3  C   UNL A   1      29.964  25.626  26.133  1.00  0.00     0.116 C 
BRANCH   3   4
ATOM      4  N   UNL A   1      29.719  24.219  26.379  1.00  0.00    -0.355 N 
ATOM      5  C   UNL A   1      30.563  23.166  26.180  1.00  0.00     0.239 C 
ATOM      6  O   UNL A   1      30.133  22.021  26.350  1.00  0.00    -0.273 OA
ATOM      7  H   UNL A   1      28.830  23.995  26.738  1.00  0.00     0.163 HD
BRANCH   5   8
ATOM      8  C   UNL A   1      32.017  23.409  25.757  1.00  0.00     0.218 C 
BRANCH   8   9
ATOM      9  N   UNL A   1      32.351  22.815  24.434  1.00  0.00    -0.337 N 
BRANCH   9  10
ATOM     10  C   UNL A   1      33.104  21.647  24.418  1.00  0.00     0.147 A 
ATOM     11  C   UNL A   1      34.430  21.480  24.886  1.00  0.00     0.095 A 
ATOM     12  C   UNL A   1      35.016  20.197  24.947  1.00  0.00     0.029 A 
ATOM     13  C   UNL A   1      34.304  19.121  24.477  1.00  0.00    -0.025 A 
ATOM     14  N   UNL A   1      32.457  20.555  23.920  1.00  0.00    -0.234 NA
ATOM     15  C   UNL A   1      33.054  19.351  23.954  1.00  0.00     0.046 A 
ATOM     16  C   UNL A   1      34.648  17.670  24.455  1.00  0.00     0.038 C 
ATOM     17  C   UNL A   1      32.423  18.071  23.480  1.00  0.00     0.057 C 
ATOM     18  C   UNL A   1      33.653  17.151  23.406  1.00  0.00     0.011 C 
BRANCH  11  19
ATOM     19  C   UNL A   1      35.290  22.559  25.268  1.00  0.00     0.103 C 
ATOM     20  N   UNL A   1      35.981  23.425  25.606  1.00  0.00    -0.192 NA
ENDBRANCH  11  19
ENDBRANCH   9  10
BRANCH   9  21
ATOM     21  C   UNL A   1      31.740  23.499  23.259  1.00  0.00     0.234 C 
BRANCH  21  22
ATOM     22  C   UNL A   1      32.686  24.278  22.325  1.00  0.00     0.405 C 
ATOM     23  F   UNL A   1      33.666  24.925  22.992  1.00  0.00    -0.169 F 
ATOM     24  F   UNL A   1      33.284  23.435  21.448  1.00  0.00    -0.169 F 
ATOM     25  F   UNL A   1      32.020  25.197  21.590  1.00  0.00    -0.169 F 
ENDBRANCH  21  22
ENDBRANCH   9  21
ENDBRANCH   8   9
ENDBRANCH   5   8
ENDBRANCH   3   4
ENDBRANCH   2   3
ENDBRANCH   1   2
BRANCH   1  26
ATOM     26  C   UNL A   1      31.551  27.573  24.883  1.00  0.00     0.002 C 
BRANCH  26  27
ATOM     27  C   UNL A   1      32.852  27.971  24.182  1.00  0.00     0.021 C 
BRANCH  27  28
ATOM     28  C   UNL A   1      33.724  28.921  24.996  1.00  0.00     0.116 C 
BRANCH  28  29
ATOM     29  N   UNL A   1      32.989  30.114  25.380  1.00  0.00    -0.352 N 
ATOM     30  C   UNL A   1      33.089  30.844  26.539  1.00  0.00     0.251 C 
ATOM     31  H   UNL A   1      32.333  30.443  24.724  1.00  0.00     0.163 HD
ATOM     32  O   UNL A   1      32.222  31.662  26.831  1.00  0.00    -0.269 OA
BRANCH  30  33
ATOM     33  C   UNL A   1      34.243  30.616  27.430  1.00  0.00     0.039 A 
ATOM     34  C   UNL A   1      34.412  29.362  28.018  1.00  0.00     0.014 A 
ATOM     35  C   UNL A   1      35.167  31.640  27.663  1.00  0.00     0.014 A 
ATOM     36  C   UNL A   1      35.541  29.120  28.800  1.00  0.00     0.010 A 
ATOM     37  C   UNL A   1      36.331  31.372  28.374  1.00  0.00     0.010 A 
ATOM     38  C   UNL A   1      36.524  30.113  28.960  1.00  0.00    -0.014 A 
BRANCH  38  39
ATOM     39  C   UNL A   1      37.745  29.856  29.763  1.00  0.00     0.031 A 
ATOM     40  C   UNL A   1      38.836  28.983  29.205  1.00  0.00     0.074 A 
ATOM     41  C   UNL A   1      37.861  30.392  30.994  1.00  0.00     0.049 A 
ATOM     42  N   UNL A   1      39.960  28.614  29.762  1.00  0.00    -0.248 NA
ATOM     43  C   UNL A   1      38.629  28.437  27.854  1.00  0.00     0.031 C 
ATOM     44  C   UNL A   1      36.860  31.242  31.643  1.00  0.00     0.029 A 
ATOM     45  N   UNL A   1      38.875  30.313  31.916  1.00  0.00    -0.354 N 
ATOM     46  C   UNL A   1      40.595  27.803  28.830  1.00  0.00     0.074 A 
ATOM     47  C   UNL A   1      39.702  27.675  27.700  1.00  0.00     0.031 C 
ATOM     48  C   UNL A   1      37.329  31.642  32.836  1.00  0.00     0.029 A 
ATOM     49  C   UNL A   1      38.640  31.038  33.062  1.00  0.00     0.049 A 
ATOM     50  H   UNL A   1      39.694  29.788  31.771  1.00  0.00     0.167 HD
ATOM     51  C   UNL A   1      41.824  27.241  28.898  1.00  0.00     0.034 A 
ATOM     52  C   UNL A   1      39.390  31.195  34.171  1.00  0.00     0.034 A 
ATOM     53  C   UNL A   1      42.712  27.389  30.022  1.00  0.00     0.049 A 
ATOM     54  C   UNL A   1      40.728  30.507  34.247  1.00  0.00     0.074 A 
ATOM     55  C   UNL A   1      43.992  26.888  30.174  1.00  0.00     0.029 A 
ATOM     56  N   UNL A   1      42.416  28.090  31.182  1.00  0.00    -0.354 N 
ATOM     57  N   UNL A   1      41.319  29.754  33.347  1.00  0.00    -0.248 NA
ATOM     58  C   UNL A   1      41.500  30.686  35.484  1.00  0.00     0.031 C 
ATOM     59  C   UNL A   1      44.441  27.220  31.454  1.00  0.00     0.029 A 
ATOM     60  C   UNL A   1      43.475  27.998  32.071  1.00  0.00     0.049 A 
ATOM     61  H   UNL A   1      41.579  28.578  31.350  1.00  0.00     0.167 HD
ATOM     62  C   UNL A   1      42.542  29.390  33.903  1.00  0.00     0.074 A 
ATOM     63  C   UNL A   1      42.610  30.012  35.209  1.00  0.00     0.031 C 
ATOM     64  C   UNL A   1      43.522  28.614  33.375  1.00  0.00     0.034 A 
BRANCH  51  65
ATOM     65  C   UNL A   1      42.285  26.410  27.729  1.00  0.00     0.023 A 
ATOM     66  C   UNL A   1      42.172  25.010  27.737  1.00  0.00     0.031 A 
ATOM     67  C   UNL A   1      42.803  27.026  26.578  1.00  0.00     0.131 A 
ATOM     68  C   UNL A   1      42.602  24.268  26.628  1.00  0.00     0.055 A 
ATOM     69  C   UNL A   1      43.170  26.289  25.452  1.00  0.00     0.041 A 
ATOM     70  F   UNL A   1      42.950  28.360  26.525  1.00  0.00    -0.206 F 
ATOM     71  C   UNL A   1      43.076  24.900  25.476  1.00  0.00     0.022 A 
BRANCH  68  72
ATOM     72  S   UNL A   1      42.599  22.458  26.739  1.00  0.00     0.124 S 
ATOM     73  O   UNL A   1      43.918  22.129  26.204  1.00  0.00    -0.237 OA
ATOM     74  O   UNL A   1      42.413  22.228  28.166  1.00  0.00    -0.237 OA
ATOM     75  O   UNL A   1      41.474  22.067  25.892  1.00  0.00    -0.744 OA
ENDBRANCH  68  72
ENDBRANCH  51  65
BRANCH  52  76
ATOM     76  C   UNL A   1      38.892  32.034  35.297  1.00  0.00     0.023 A 
ATOM     77  C   UNL A   1      38.328  31.447  36.441  1.00  0.00     0.031 A 
ATOM     78  C   UNL A   1      38.973  33.437  35.246  1.00  0.00     0.131 A 
ATOM     79  C   UNL A   1      37.847  32.261  37.479  1.00  0.00     0.055 A 
ATOM     80  C   UNL A   1      38.533  34.240  36.299  1.00  0.00     0.041 A 
ATOM     81  F   UNL A   1      39.509  34.048  34.177  1.00  0.00    -0.206 F 
ATOM     82  C   UNL A   1      37.959  33.652  37.422  1.00  0.00     0.022 A 
BRANCH  79  83
ATOM     83  S   UNL A   1      37.031  31.475  38.895  1.00  0.00     0.124 S 
ATOM     84  O   UNL A   1      36.854  30.110  38.415  1.00  0.00    -0.237 OA
ATOM     85  O   UNL A   1      38.016  31.661  39.956  1.00  0.00    -0.237 OA
ATOM     86  O   UNL A   1      35.801  32.249  39.050  1.00  0.00    -0.744 OA
ENDBRANCH  79  83
ENDBRANCH  52  76
BRANCH  64  87
ATOM     87  C   UNL A   1      44.765  28.401  34.199  1.00  0.00     0.023 A 
ATOM     88  C   UNL A   1      45.847  29.294  34.133  1.00  0.00     0.031 A 
ATOM     89  C   UNL A   1      44.841  27.331  35.108  1.00  0.00     0.131 A 
ATOM     90  C   UNL A   1      46.973  29.086  34.943  1.00  0.00     0.055 A 
ATOM     91  C   UNL A   1      45.940  27.159  35.949  1.00  0.00     0.041 A 
ATOM     92  F   UNL A   1      43.830  26.451  35.213  1.00  0.00    -0.206 F 
ATOM     93  C   UNL A   1      47.017  28.037  35.865  1.00  0.00     0.022 A 
BRANCH  90  94
ATOM     94  S   UNL A   1      48.399  30.187  34.747  1.00  0.00     0.124 S 
ATOM     95  O   UNL A   1      49.507  29.318  35.131  1.00  0.00    -0.237 OA
ATOM     96  O   UNL A   1      48.331  30.545  33.334  1.00  0.00    -0.237 OA
ATOM     97  O   UNL A   1      48.119  31.280  35.677  1.00  0.00    -0.744 OA
ENDBRANCH  90  94
ENDBRANCH  64  87
ENDBRANCH  38  39
ENDBRANCH  30  33
ENDBRANCH  28  29
ENDBRANCH  27  28
ENDBRANCH  26  27
ENDBRANCH   1  26
TORSDOF 21
ENDMDL
