MODEL 1
REMARK VINA RESULT:     -10.7      0.000      0.000
REMARK SMILES CC(C)CCOc1ccc(C(=O)N2CCC[C@H](C(=O)NCCCCCCNC(=O)c3ccc(-c4c5nc(c(-c6cc(S(=O)(=O)[O-])ccc6F)c6ccc([nH]6)c(-c6cc(S(=O)(=O)[O-])ccc6F)c6nc(c(-c7cc(S(=O)(=O)[O-])ccc7F)c7ccc4[nH]7)C=C6)C=C5)cc3)C2)cc1
REMARK SMILES IDX 22 1 21 2 20 3 18 4 19 5 17 7 13 8 14 9 93 10 15 11 16 12
REMARK SMILES IDX 11 13 12 14 10 15 7 16 8 17 95 18 9 19 94 20 6 21 5 22 4 23
REMARK SMILES IDX 2 24 1 25 3 26 23 27 24 28 25 29 26 30 27 31 28 32 29 34
REMARK SMILES IDX 30 35 31 36 92 37 32 38 91 39 33 40 34 41 35 42 85 43 36 44
REMARK SMILES IDX 90 45 84 46 86 47 37 48 89 49 83 50 82 51 38 53 70 54 50 55
REMARK SMILES IDX 69 56 51 57 54 58 68 59 87 60 52 61 53 62 67 64 88 65 55 66
REMARK SMILES IDX 39 67 40 68 48 69 41 70 47 71 49 72 46 73 42 74 43 75 44 76
REMARK SMILES IDX 45 77 71 78 72 79 80 80 73 81 79 82 81 83 78 84 74 85 75 86
REMARK SMILES IDX 76 87 77 88 56 89 57 90 65 91 58 92 64 93 66 94 63 95 59 96
REMARK SMILES IDX 60 97 61 98 62 99
REMARK H PARENT 20 6 27 33 86 52 54 63
REMARK Flexibility Score: inf
ROOT
ATOM      1  C   UNL A   1      36.539  23.623  24.511  1.00  0.00     0.021 C 
ENDROOT
BRANCH   1   2
ATOM      2  C   UNL A   1      35.112  24.149  24.625  1.00  0.00     0.116 C 
BRANCH   2   3
ATOM      3  N   UNL A   1      34.485  24.357  23.340  1.00  0.00    -0.356 N 
ATOM      4  C   UNL A   1      33.991  25.481  22.768  1.00  0.00     0.224 C 
ATOM      5  O   UNL A   1      33.649  25.393  21.582  1.00  0.00    -0.275 OA
ATOM      6  H   UNL A   1      34.404  23.545  22.788  1.00  0.00     0.163 HD
BRANCH   4   7
ATOM      7  C   UNL A   1      33.845  26.824  23.487  1.00  0.00     0.098 C 
ATOM      8  N   UNL A   1      32.021  26.888  25.206  1.00  0.00    -0.338 N 
ATOM      9  C   UNL A   1      31.380  28.038  24.570  1.00  0.00     0.120 C 
ATOM     10  C   UNL A   1      33.442  26.701  24.953  1.00  0.00     0.133 C 
ATOM     11  C   UNL A   1      31.665  28.159  23.076  1.00  0.00     0.022 C 
ATOM     12  C   UNL A   1      33.127  27.931  22.711  1.00  0.00     0.017 C 
BRANCH   8  13
ATOM     13  C   UNL A   1      31.231  26.037  25.985  1.00  0.00     0.253 C 
ATOM     14  O   UNL A   1      30.515  26.497  26.877  1.00  0.00    -0.269 OA
BRANCH  13  15
ATOM     15  C   UNL A   1      31.327  24.542  25.860  1.00  0.00     0.040 A 
ATOM     16  C   UNL A   1      32.286  21.952  25.469  1.00  0.00     0.119 A 
ATOM     17  C   UNL A   1      32.481  22.566  26.700  1.00  0.00     0.047 A 
ATOM     18  C   UNL A   1      31.449  22.518  24.517  1.00  0.00     0.047 A 
ATOM     19  C   UNL A   1      31.989  23.857  26.898  1.00  0.00     0.017 A 
ATOM     20  C   UNL A   1      31.022  23.834  24.690  1.00  0.00     0.017 A 
BRANCH  16  21
ATOM     21  O   UNL A   1      33.010  20.851  25.105  1.00  0.00    -0.494 OA
BRANCH  21  22
ATOM     22  C   UNL A   1      32.160  19.876  24.452  1.00  0.00     0.230 C 
BRANCH  22  23
ATOM     23  C   UNL A   1      32.950  18.861  23.599  1.00  0.00     0.044 C 
BRANCH  23  24
ATOM     24  C   UNL A   1      33.690  17.762  24.401  1.00  0.00    -0.014 C 
ATOM     25  C   UNL A   1      32.888  17.264  25.602  1.00  0.00     0.007 C 
ATOM     26  C   UNL A   1      34.060  16.588  23.490  1.00  0.00     0.007 C 
ENDBRANCH  23  24
ENDBRANCH  22  23
ENDBRANCH  21  22
ENDBRANCH  16  21
ENDBRANCH  13  15
ENDBRANCH   8  13
ENDBRANCH   4   7
ENDBRANCH   2   3
ENDBRANCH   1   2
BRANCH   1  27
ATOM     27  C   UNL A   1      36.817  22.406  25.393  1.00  0.00     0.002 C 
BRANCH  27  28
ATOM     28  C   UNL A   1      36.736  21.049  24.681  1.00  0.00     0.002 C 
BRANCH  28  29
ATOM     29  C   UNL A   1      37.910  20.095  24.925  1.00  0.00     0.021 C 
BRANCH  29  30
ATOM     30  C   UNL A   1      38.836  20.488  26.074  1.00  0.00     0.116 C 
BRANCH  30  31
ATOM     31  N   UNL A   1      40.031  19.661  26.116  1.00  0.00    -0.352 N 
ATOM     32  C   UNL A   1      41.350  20.016  26.230  1.00  0.00     0.251 C 
ATOM     33  H   UNL A   1      39.868  18.692  26.056  1.00  0.00     0.163 HD
ATOM     34  O   UNL A   1      42.219  19.177  26.012  1.00  0.00    -0.269 OA
BRANCH  32  35
ATOM     35  C   UNL A   1      41.727  21.398  26.600  1.00  0.00     0.039 A 
ATOM     36  C   UNL A   1      41.949  22.330  25.581  1.00  0.00     0.014 A 
ATOM     37  C   UNL A   1      41.908  21.766  27.936  1.00  0.00     0.014 A 
ATOM     38  C   UNL A   1      42.305  23.641  25.906  1.00  0.00     0.010 A 
ATOM     39  C   UNL A   1      42.195  23.090  28.261  1.00  0.00     0.010 A 
ATOM     40  C   UNL A   1      42.405  24.039  27.249  1.00  0.00    -0.014 A 
BRANCH  40  41
ATOM     41  C   UNL A   1      42.738  25.442  27.604  1.00  0.00     0.031 A 
ATOM     42  C   UNL A   1      44.152  25.941  27.474  1.00  0.00     0.074 A 
ATOM     43  C   UNL A   1      41.774  26.251  28.087  1.00  0.00     0.049 A 
ATOM     44  N   UNL A   1      44.648  27.114  27.776  1.00  0.00    -0.248 NA
ATOM     45  C   UNL A   1      45.145  24.984  26.963  1.00  0.00     0.031 C 
ATOM     46  C   UNL A   1      40.377  25.864  28.297  1.00  0.00     0.029 A 
ATOM     47  N   UNL A   1      41.820  27.561  28.494  1.00  0.00    -0.354 N 
ATOM     48  C   UNL A   1      46.010  27.033  27.501  1.00  0.00     0.074 A 
ATOM     49  C   UNL A   1      46.268  25.676  27.069  1.00  0.00     0.031 C 
ATOM     50  C   UNL A   1      39.695  26.920  28.767  1.00  0.00     0.029 A 
ATOM     51  C   UNL A   1      40.609  28.045  28.934  1.00  0.00     0.049 A 
ATOM     52  H   UNL A   1      42.641  28.103  28.473  1.00  0.00     0.167 HD
ATOM     53  C   UNL A   1      46.950  28.008  27.578  1.00  0.00     0.034 A 
ATOM     54  C   UNL A   1      40.278  29.255  29.426  1.00  0.00     0.034 A 
ATOM     55  C   UNL A   1      46.670  29.358  28.004  1.00  0.00     0.049 A 
ATOM     56  C   UNL A   1      41.345  30.315  29.523  1.00  0.00     0.074 A 
ATOM     57  C   UNL A   1      47.532  30.439  28.068  1.00  0.00     0.029 A 
ATOM     58  N   UNL A   1      45.434  29.813  28.448  1.00  0.00    -0.354 N 
ATOM     59  N   UNL A   1      42.617  30.240  29.206  1.00  0.00    -0.248 NA
ATOM     60  C   UNL A   1      40.928  31.626  30.035  1.00  0.00     0.031 C 
ATOM     61  C   UNL A   1      46.837  31.525  28.614  1.00  0.00     0.029 A 
ATOM     62  C   UNL A   1      45.520  31.147  28.819  1.00  0.00     0.049 A 
ATOM     63  H   UNL A   1      44.616  29.266  28.492  1.00  0.00     0.167 HD
ATOM     64  C   UNL A   1      43.145  31.503  29.456  1.00  0.00     0.074 A 
ATOM     65  C   UNL A   1      42.049  32.324  29.928  1.00  0.00     0.031 C 
ATOM     66  C   UNL A   1      44.420  31.947  29.307  1.00  0.00     0.034 A 
BRANCH  53  67
ATOM     67  C   UNL A   1      48.370  27.634  27.221  1.00  0.00     0.023 A 
ATOM     68  C   UNL A   1      48.890  27.851  25.932  1.00  0.00     0.031 A 
ATOM     69  C   UNL A   1      49.210  27.026  28.172  1.00  0.00     0.131 A 
ATOM     70  C   UNL A   1      50.177  27.394  25.607  1.00  0.00     0.055 A 
ATOM     71  C   UNL A   1      50.519  26.650  27.866  1.00  0.00     0.041 A 
ATOM     72  F   UNL A   1      48.766  26.772  29.413  1.00  0.00    -0.206 F 
ATOM     73  C   UNL A   1      51.005  26.818  26.573  1.00  0.00     0.022 A 
BRANCH  70  74
ATOM     74  S   UNL A   1      50.696  27.430  23.870  1.00  0.00     0.124 S 
ATOM     75  O   UNL A   1      49.557  26.795  23.209  1.00  0.00    -0.237 OA
ATOM     76  O   UNL A   1      50.866  28.856  23.619  1.00  0.00    -0.237 OA
ATOM     77  O   UNL A   1      51.927  26.643  23.864  1.00  0.00    -0.744 OA
ENDBRANCH  70  74
ENDBRANCH  53  67
BRANCH  54  78
ATOM     78  C   UNL A   1      38.882  29.533  29.871  1.00  0.00     0.023 A 
ATOM     79  C   UNL A   1      37.972  30.196  29.032  1.00  0.00     0.031 A 
ATOM     80  C   UNL A   1      38.449  29.177  31.161  1.00  0.00     0.131 A 
ATOM     81  C   UNL A   1      36.694  30.526  29.507  1.00  0.00     0.055 A 
ATOM     82  C   UNL A   1      37.157  29.457  31.610  1.00  0.00     0.041 A 
ATOM     83  F   UNL A   1      39.277  28.537  32.004  1.00  0.00    -0.206 F 
ATOM     84  C   UNL A   1      36.275  30.148  30.786  1.00  0.00     0.022 A 
BRANCH  81  85
ATOM     85  S   UNL A   1      35.612  31.536  28.460  1.00  0.00     0.124 S 
ATOM     86  O   UNL A   1      36.512  32.604  28.044  1.00  0.00    -0.237 OA
ATOM     87  O   UNL A   1      35.221  30.585  27.423  1.00  0.00    -0.237 OA
ATOM     88  O   UNL A   1      34.539  31.938  29.368  1.00  0.00    -0.744 OA
ENDBRANCH  81  85
ENDBRANCH  54  78
BRANCH  66  89
ATOM     89  C   UNL A   1      44.678  33.399  29.631  1.00  0.00     0.023 A 
ATOM     90  C   UNL A   1      44.463  34.417  28.685  1.00  0.00     0.031 A 
ATOM     91  C   UNL A   1      45.167  33.766  30.898  1.00  0.00     0.131 A 
ATOM     92  C   UNL A   1      44.798  35.743  28.998  1.00  0.00     0.055 A 
ATOM     93  C   UNL A   1      45.437  35.095  31.225  1.00  0.00     0.041 A 
ATOM     94  F   UNL A   1      45.394  32.836  31.839  1.00  0.00    -0.206 F 
ATOM     95  C   UNL A   1      45.267  36.091  30.268  1.00  0.00     0.022 A 
BRANCH  92  96
ATOM     96  S   UNL A   1      44.711  36.994  27.688  1.00  0.00     0.124 S 
ATOM     97  O   UNL A   1      43.588  36.518  26.886  1.00  0.00    -0.237 OA
ATOM     98  O   UNL A   1      44.480  38.221  28.443  1.00  0.00    -0.237 OA
ATOM     99  O   UNL A   1      46.018  36.903  27.039  1.00  0.00    -0.744 OA
ENDBRANCH  92  96
ENDBRANCH  66  89
ENDBRANCH  40  41
ENDBRANCH  32  35
ENDBRANCH  30  31
ENDBRANCH  29  30
ENDBRANCH  28  29
ENDBRANCH  27  28
ENDBRANCH   1  27
TORSDOF 22
ENDMDL
MODEL 2
REMARK VINA RESULT:     -10.6      5.427      9.196
REMARK SMILES CC(C)CCOc1ccc(C(=O)N2CCC[C@H](C(=O)NCCCCCCNC(=O)c3ccc(-c4c5nc(c(-c6cc(S(=O)(=O)[O-])ccc6F)c6ccc([nH]6)c(-c6cc(S(=O)(=O)[O-])ccc6F)c6nc(c(-c7cc(S(=O)(=O)[O-])ccc7F)c7ccc4[nH]7)C=C6)C=C5)cc3)C2)cc1
REMARK SMILES IDX 22 1 21 2 20 3 18 4 19 5 17 7 13 8 14 9 93 10 15 11 16 12
REMARK SMILES IDX 11 13 12 14 10 15 7 16 8 17 95 18 9 19 94 20 6 21 5 22 4 23
REMARK SMILES IDX 2 24 1 25 3 26 23 27 24 28 25 29 26 30 27 31 28 32 29 34
REMARK SMILES IDX 30 35 31 36 92 37 32 38 91 39 33 40 34 41 35 42 85 43 36 44
REMARK SMILES IDX 90 45 84 46 86 47 37 48 89 49 83 50 82 51 38 53 70 54 50 55
REMARK SMILES IDX 69 56 51 57 54 58 68 59 87 60 52 61 53 62 67 64 88 65 55 66
REMARK SMILES IDX 39 67 40 68 48 69 41 70 47 71 49 72 46 73 42 74 43 75 44 76
REMARK SMILES IDX 45 77 71 78 72 79 80 80 73 81 79 82 81 83 78 84 74 85 75 86
REMARK SMILES IDX 76 87 77 88 56 89 57 90 65 91 58 92 64 93 66 94 63 95 59 96
REMARK SMILES IDX 60 97 61 98 62 99
REMARK H PARENT 20 6 27 33 86 52 54 63
REMARK Flexibility Score: inf
ROOT
ATOM      1  C   UNL A   1      33.103  27.293  25.809  1.00  0.00     0.021 C 
ENDROOT
BRANCH   1   2
ATOM      2  C   UNL A   1      33.258  25.777  25.741  1.00  0.00     0.116 C 
BRANCH   2   3
ATOM      3  N   UNL A   1      34.634  25.357  25.610  1.00  0.00    -0.356 N 
ATOM      4  C   UNL A   1      35.194  24.126  25.677  1.00  0.00     0.224 C 
ATOM      5  O   UNL A   1      36.390  24.044  25.369  1.00  0.00    -0.275 OA
ATOM      6  H   UNL A   1      35.272  26.089  25.445  1.00  0.00     0.163 HD
BRANCH   4   7
ATOM      7  C   UNL A   1      34.444  22.857  26.092  1.00  0.00     0.098 C 
ATOM      8  N   UNL A   1      32.490  22.283  24.629  1.00  0.00    -0.338 N 
ATOM      9  C   UNL A   1      31.568  22.267  25.765  1.00  0.00     0.120 C 
ATOM     10  C   UNL A   1      33.897  22.050  24.919  1.00  0.00     0.133 C 
ATOM     11  C   UNL A   1      32.012  23.139  26.936  1.00  0.00     0.022 C 
ATOM     12  C   UNL A   1      33.490  22.995  27.281  1.00  0.00     0.017 C 
BRANCH   8  13
ATOM     13  C   UNL A   1      31.969  22.543  23.358  1.00  0.00     0.253 C 
ATOM     14  O   UNL A   1      31.993  21.672  22.486  1.00  0.00    -0.269 OA
BRANCH  13  15
ATOM     15  C   UNL A   1      31.495  23.916  22.970  1.00  0.00     0.040 A 
ATOM     16  C   UNL A   1      31.201  26.682  22.774  1.00  0.00     0.119 A 
ATOM     17  C   UNL A   1      32.206  26.057  22.047  1.00  0.00     0.047 A 
ATOM     18  C   UNL A   1      30.223  25.939  23.421  1.00  0.00     0.047 A 
ATOM     19  C   UNL A   1      32.344  24.670  22.136  1.00  0.00     0.017 A 
ATOM     20  C   UNL A   1      30.406  24.564  23.567  1.00  0.00     0.017 A 
BRANCH  16  21
ATOM     21  O   UNL A   1      31.220  28.033  22.989  1.00  0.00    -0.494 OA
BRANCH  21  22
ATOM     22  C   UNL A   1      29.869  28.548  23.102  1.00  0.00     0.230 C 
BRANCH  22  23
ATOM     23  C   UNL A   1      29.814  29.974  23.688  1.00  0.00     0.044 C 
BRANCH  23  24
ATOM     24  C   UNL A   1      28.940  30.978  22.897  1.00  0.00    -0.014 C 
ATOM     25  C   UNL A   1      28.640  30.510  21.475  1.00  0.00     0.007 C 
ATOM     26  C   UNL A   1      27.634  31.260  23.646  1.00  0.00     0.007 C 
ENDBRANCH  23  24
ENDBRANCH  22  23
ENDBRANCH  21  22
ENDBRANCH  16  21
ENDBRANCH  13  15
ENDBRANCH   8  13
ENDBRANCH   4   7
ENDBRANCH   2   3
ENDBRANCH   1   2
BRANCH   1  27
ATOM     27  C   UNL A   1      34.332  28.012  26.363  1.00  0.00     0.002 C 
BRANCH  27  28
ATOM     28  C   UNL A   1      34.038  29.275  27.183  1.00  0.00     0.002 C 
BRANCH  28  29
ATOM     29  C   UNL A   1      33.360  30.421  26.425  1.00  0.00     0.021 C 
BRANCH  29  30
ATOM     30  C   UNL A   1      32.187  31.074  27.152  1.00  0.00     0.116 C 
BRANCH  30  31
ATOM     31  N   UNL A   1      32.254  32.526  27.099  1.00  0.00    -0.352 N 
ATOM     32  C   UNL A   1      33.090  33.398  27.746  1.00  0.00     0.251 C 
ATOM     33  H   UNL A   1      31.596  32.950  26.501  1.00  0.00     0.163 HD
ATOM     34  O   UNL A   1      32.828  34.597  27.740  1.00  0.00    -0.269 OA
BRANCH  32  35
ATOM     35  C   UNL A   1      34.290  32.902  28.455  1.00  0.00     0.039 A 
ATOM     36  C   UNL A   1      34.137  32.359  29.735  1.00  0.00     0.014 A 
ATOM     37  C   UNL A   1      35.562  33.011  27.888  1.00  0.00     0.014 A 
ATOM     38  C   UNL A   1      35.255  31.883  30.424  1.00  0.00     0.010 A 
ATOM     39  C   UNL A   1      36.666  32.474  28.547  1.00  0.00     0.010 A 
ATOM     40  C   UNL A   1      36.526  31.913  29.825  1.00  0.00    -0.014 A 
BRANCH  40  41
ATOM     41  C   UNL A   1      37.713  31.368  30.532  1.00  0.00     0.031 A 
ATOM     42  C   UNL A   1      38.570  30.320  29.874  1.00  0.00     0.074 A 
ATOM     43  C   UNL A   1      37.991  31.785  31.782  1.00  0.00     0.049 A 
ATOM     44  N   UNL A   1      39.616  29.690  30.344  1.00  0.00    -0.248 NA
ATOM     45  C   UNL A   1      38.179  29.904  28.518  1.00  0.00     0.031 C 
ATOM     46  C   UNL A   1      37.206  32.766  32.537  1.00  0.00     0.029 A 
ATOM     47  N   UNL A   1      39.001  31.437  32.643  1.00  0.00    -0.354 N 
ATOM     48  C   UNL A   1      40.004  28.799  29.348  1.00  0.00     0.074 A 
ATOM     49  C   UNL A   1      39.040  28.927  28.276  1.00  0.00     0.031 C 
ATOM     50  C   UNL A   1      37.781  32.960  33.734  1.00  0.00     0.029 A 
ATOM     51  C   UNL A   1      38.945  32.089  33.854  1.00  0.00     0.049 A 
ATOM     52  H   UNL A   1      39.701  30.783  32.415  1.00  0.00     0.167 HD
ATOM     53  C   UNL A   1      41.078  27.971  29.321  1.00  0.00     0.034 A 
ATOM     54  C   UNL A   1      39.738  31.989  34.939  1.00  0.00     0.034 A 
ATOM     55  C   UNL A   1      42.033  27.864  30.398  1.00  0.00     0.049 A 
ATOM     56  C   UNL A   1      40.912  31.044  34.894  1.00  0.00     0.074 A 
ATOM     57  C   UNL A   1      43.187  27.101  30.456  1.00  0.00     0.029 A 
ATOM     58  N   UNL A   1      41.943  28.536  31.612  1.00  0.00    -0.354 N 
ATOM     59  N   UNL A   1      41.298  30.249  33.922  1.00  0.00    -0.248 NA
ATOM     60  C   UNL A   1      41.764  30.993  36.088  1.00  0.00     0.031 C 
ATOM     61  C   UNL A   1      43.753  27.256  31.727  1.00  0.00     0.029 A 
ATOM     62  C   UNL A   1      42.999  28.177  32.437  1.00  0.00     0.049 A 
ATOM     63  H   UNL A   1      41.232  29.173  31.851  1.00  0.00     0.167 HD
ATOM     64  C   UNL A   1      42.453  29.624  34.381  1.00  0.00     0.074 A 
ATOM     65  C   UNL A   1      42.712  30.151  35.705  1.00  0.00     0.031 C 
ATOM     66  C   UNL A   1      43.233  28.699  33.764  1.00  0.00     0.034 A 
BRANCH  53  67
ATOM     67  C   UNL A   1      41.253  27.099  28.100  1.00  0.00     0.023 A 
ATOM     68  C   UNL A   1      40.918  25.732  28.113  1.00  0.00     0.031 A 
ATOM     69  C   UNL A   1      41.788  27.630  26.913  1.00  0.00     0.131 A 
ATOM     70  C   UNL A   1      41.194  24.931  26.994  1.00  0.00     0.055 A 
ATOM     71  C   UNL A   1      41.982  26.845  25.774  1.00  0.00     0.041 A 
ATOM     72  F   UNL A   1      42.148  28.921  26.843  1.00  0.00    -0.206 F 
ATOM     73  C   UNL A   1      41.700  25.483  25.816  1.00  0.00     0.022 A 
BRANCH  70  74
ATOM     74  S   UNL A   1      41.021  23.132  27.154  1.00  0.00     0.124 S 
ATOM     75  O   UNL A   1      41.643  22.665  25.916  1.00  0.00    -0.237 OA
ATOM     76  O   UNL A   1      41.753  22.851  28.383  1.00  0.00    -0.237 OA
ATOM     77  O   UNL A   1      39.575  22.933  27.228  1.00  0.00    -0.744 OA
ENDBRANCH  70  74
ENDBRANCH  53  67
BRANCH  54  78
ATOM     78  C   UNL A   1      39.449  32.791  36.162  1.00  0.00     0.023 A 
ATOM     79  C   UNL A   1      38.632  32.284  37.185  1.00  0.00     0.031 A 
ATOM     80  C   UNL A   1      39.952  34.097  36.307  1.00  0.00     0.131 A 
ATOM     81  C   UNL A   1      38.302  33.093  38.283  1.00  0.00     0.055 A 
ATOM     82  C   UNL A   1      39.667  34.878  37.428  1.00  0.00     0.041 A 
ATOM     83  F   UNL A   1      40.742  34.630  35.360  1.00  0.00    -0.206 F 
ATOM     84  C   UNL A   1      38.826  34.382  38.418  1.00  0.00     0.022 A 
BRANCH  81  85
ATOM     85  S   UNL A   1      37.105  32.468  39.493  1.00  0.00     0.124 S 
ATOM     86  O   UNL A   1      35.843  32.658  38.789  1.00  0.00    -0.237 OA
ATOM     87  O   UNL A   1      37.542  31.086  39.666  1.00  0.00    -0.237 OA
ATOM     88  O   UNL A   1      37.310  33.334  40.653  1.00  0.00    -0.744 OA
ENDBRANCH  81  85
ENDBRANCH  54  78
BRANCH  66  89
ATOM     89  C   UNL A   1      44.456  28.229  34.514  1.00  0.00     0.023 A 
ATOM     90  C   UNL A   1      44.413  27.118  35.375  1.00  0.00     0.031 A 
ATOM     91  C   UNL A   1      45.676  28.917  34.383  1.00  0.00     0.131 A 
ATOM     92  C   UNL A   1      45.549  26.768  36.120  1.00  0.00     0.055 A 
ATOM     93  C   UNL A   1      46.820  28.525  35.078  1.00  0.00     0.041 A 
ATOM     94  F   UNL A   1      45.774  29.987  33.577  1.00  0.00    -0.206 F 
ATOM     95  C   UNL A   1      46.757  27.453  35.964  1.00  0.00     0.022 A 
BRANCH  92  96
ATOM     96  S   UNL A   1      45.398  25.468  37.377  1.00  0.00     0.124 S 
ATOM     97  O   UNL A   1      46.573  25.711  38.208  1.00  0.00    -0.237 OA
ATOM     98  O   UNL A   1      44.110  25.774  37.989  1.00  0.00    -0.237 OA
ATOM     99  O   UNL A   1      45.436  24.231  36.598  1.00  0.00    -0.744 OA
ENDBRANCH  92  96
ENDBRANCH  66  89
ENDBRANCH  40  41
ENDBRANCH  32  35
ENDBRANCH  30  31
ENDBRANCH  29  30
ENDBRANCH  28  29
ENDBRANCH  27  28
ENDBRANCH   1  27
TORSDOF 22
ENDMDL
MODEL 3
REMARK VINA RESULT:     -10.1      2.310      2.656
REMARK SMILES CC(C)CCOc1ccc(C(=O)N2CCC[C@H](C(=O)NCCCCCCNC(=O)c3ccc(-c4c5nc(c(-c6cc(S(=O)(=O)[O-])ccc6F)c6ccc([nH]6)c(-c6cc(S(=O)(=O)[O-])ccc6F)c6nc(c(-c7cc(S(=O)(=O)[O-])ccc7F)c7ccc4[nH]7)C=C6)C=C5)cc3)C2)cc1
REMARK SMILES IDX 22 1 21 2 20 3 18 4 19 5 17 7 13 8 14 9 93 10 15 11 16 12
REMARK SMILES IDX 11 13 12 14 10 15 7 16 8 17 95 18 9 19 94 20 6 21 5 22 4 23
REMARK SMILES IDX 2 24 1 25 3 26 23 27 24 28 25 29 26 30 27 31 28 32 29 34
REMARK SMILES IDX 30 35 31 36 92 37 32 38 91 39 33 40 34 41 35 42 85 43 36 44
REMARK SMILES IDX 90 45 84 46 86 47 37 48 89 49 83 50 82 51 38 53 70 54 50 55
REMARK SMILES IDX 69 56 51 57 54 58 68 59 87 60 52 61 53 62 67 64 88 65 55 66
REMARK SMILES IDX 39 67 40 68 48 69 41 70 47 71 49 72 46 73 42 74 43 75 44 76
REMARK SMILES IDX 45 77 71 78 72 79 80 80 73 81 79 82 81 83 78 84 74 85 75 86
REMARK SMILES IDX 76 87 77 88 56 89 57 90 65 91 58 92 64 93 66 94 63 95 59 96
REMARK SMILES IDX 60 97 61 98 62 99
REMARK H PARENT 20 6 27 33 86 52 54 63
REMARK Flexibility Score: inf
ROOT
ATOM      1  C   UNL A   1      37.350  23.975  25.386  1.00  0.00     0.021 C 
ENDROOT
BRANCH   1   2
ATOM      2  C   UNL A   1      35.836  23.812  25.473  1.00  0.00     0.116 C 
BRANCH   2   3
ATOM      3  N   UNL A   1      35.182  23.942  24.191  1.00  0.00    -0.356 N 
ATOM      4  C   UNL A   1      34.464  24.962  23.663  1.00  0.00     0.224 C 
ATOM      5  O   UNL A   1      34.151  24.859  22.471  1.00  0.00    -0.275 OA
ATOM      6  H   UNL A   1      35.274  23.157  23.603  1.00  0.00     0.163 HD
BRANCH   4   7
ATOM      7  C   UNL A   1      34.038  26.211  24.440  1.00  0.00     0.098 C 
ATOM      8  N   UNL A   1      31.851  25.987  25.644  1.00  0.00    -0.338 N 
ATOM      9  C   UNL A   1      31.293  27.161  24.972  1.00  0.00     0.120 C 
ATOM     10  C   UNL A   1      33.301  25.910  25.741  1.00  0.00     0.133 C 
ATOM     11  C   UNL A   1      31.923  27.456  23.615  1.00  0.00     0.022 C 
ATOM     12  C   UNL A   1      33.444  27.352  23.610  1.00  0.00     0.017 C 
BRANCH   8  13
ATOM     13  C   UNL A   1      30.966  25.015  26.121  1.00  0.00     0.253 C 
ATOM     14  O   UNL A   1      29.863  25.342  26.563  1.00  0.00    -0.269 OA
BRANCH  13  15
ATOM     15  C   UNL A   1      31.374  23.573  26.240  1.00  0.00     0.040 A 
ATOM     16  C   UNL A   1      32.870  21.221  26.329  1.00  0.00     0.119 A 
ATOM     17  C   UNL A   1      32.813  22.028  27.458  1.00  0.00     0.047 A 
ATOM     18  C   UNL A   1      32.035  21.455  25.245  1.00  0.00     0.047 A 
ATOM     19  C   UNL A   1      32.054  23.199  27.416  1.00  0.00     0.017 A 
ATOM     20  C   UNL A   1      31.336  22.660  25.178  1.00  0.00     0.017 A 
BRANCH  16  21
ATOM     21  O   UNL A   1      33.834  20.261  26.194  1.00  0.00    -0.494 OA
BRANCH  21  22
ATOM     22  C   UNL A   1      34.150  20.051  24.795  1.00  0.00     0.230 C 
BRANCH  22  23
ATOM     23  C   UNL A   1      34.715  18.644  24.507  1.00  0.00     0.044 C 
BRANCH  23  24
ATOM     24  C   UNL A   1      33.674  17.601  24.033  1.00  0.00    -0.014 C 
ATOM     25  C   UNL A   1      32.412  18.242  23.459  1.00  0.00     0.007 C 
ATOM     26  C   UNL A   1      34.295  16.648  23.007  1.00  0.00     0.007 C 
ENDBRANCH  23  24
ENDBRANCH  22  23
ENDBRANCH  21  22
ENDBRANCH  16  21
ENDBRANCH  13  15
ENDBRANCH   8  13
ENDBRANCH   4   7
ENDBRANCH   2   3
ENDBRANCH   1   2
BRANCH   1  27
ATOM     27  C   UNL A   1      38.129  22.772  25.916  1.00  0.00     0.002 C 
BRANCH  27  28
ATOM     28  C   UNL A   1      37.684  21.410  25.365  1.00  0.00     0.002 C 
BRANCH  28  29
ATOM     29  C   UNL A   1      38.794  20.371  25.177  1.00  0.00     0.021 C 
BRANCH  29  30
ATOM     30  C   UNL A   1      39.646  20.100  26.415  1.00  0.00     0.116 C 
BRANCH  30  31
ATOM     31  N   UNL A   1      40.842  19.337  26.097  1.00  0.00    -0.352 N 
ATOM     32  C   UNL A   1      42.125  19.757  25.866  1.00  0.00     0.251 C 
ATOM     33  H   UNL A   1      40.709  18.363  26.041  1.00  0.00     0.163 HD
ATOM     34  O   UNL A   1      42.938  18.972  25.386  1.00  0.00    -0.269 OA
BRANCH  32  35
ATOM     35  C   UNL A   1      42.529  21.145  26.182  1.00  0.00     0.039 A 
ATOM     36  C   UNL A   1      42.658  22.062  25.134  1.00  0.00     0.014 A 
ATOM     37  C   UNL A   1      42.827  21.533  27.491  1.00  0.00     0.014 A 
ATOM     38  C   UNL A   1      43.037  23.378  25.406  1.00  0.00     0.010 A 
ATOM     39  C   UNL A   1      43.138  22.862  27.770  1.00  0.00     0.010 A 
ATOM     40  C   UNL A   1      43.255  23.796  26.729  1.00  0.00    -0.014 A 
BRANCH  40  41
ATOM     41  C   UNL A   1      43.614  25.205  27.034  1.00  0.00     0.031 A 
ATOM     42  C   UNL A   1      45.026  25.686  26.835  1.00  0.00     0.074 A 
ATOM     43  C   UNL A   1      42.677  26.036  27.531  1.00  0.00     0.049 A 
ATOM     44  N   UNL A   1      45.545  26.861  27.086  1.00  0.00    -0.248 NA
ATOM     45  C   UNL A   1      45.990  24.705  26.312  1.00  0.00     0.031 C 
ATOM     46  C   UNL A   1      41.286  25.669  27.805  1.00  0.00     0.029 A 
ATOM     47  N   UNL A   1      42.750  27.356  27.900  1.00  0.00    -0.354 N 
ATOM     48  C   UNL A   1      46.894  26.759  26.761  1.00  0.00     0.074 A 
ATOM     49  C   UNL A   1      47.123  25.389  26.357  1.00  0.00     0.031 C 
ATOM     50  C   UNL A   1      40.632  26.744  28.272  1.00  0.00     0.029 A 
ATOM     51  C   UNL A   1      41.562  27.864  28.373  1.00  0.00     0.049 A 
ATOM     52  H   UNL A   1      43.575  27.889  27.833  1.00  0.00     0.167 HD
ATOM     53  C   UNL A   1      47.846  27.726  26.776  1.00  0.00     0.034 A 
ATOM     54  C   UNL A   1      41.261  29.090  28.844  1.00  0.00     0.034 A 
ATOM     55  C   UNL A   1      47.595  29.090  27.175  1.00  0.00     0.049 A 
ATOM     56  C   UNL A   1      42.341  30.141  28.872  1.00  0.00     0.074 A 
ATOM     57  C   UNL A   1      48.468  30.164  27.176  1.00  0.00     0.029 A 
ATOM     58  N   UNL A   1      46.380  29.569  27.653  1.00  0.00    -0.354 N 
ATOM     59  N   UNL A   1      43.599  30.045  28.508  1.00  0.00    -0.248 NA
ATOM     60  C   UNL A   1      41.957  31.470  29.363  1.00  0.00     0.031 C 
ATOM     61  C   UNL A   1      47.804  31.270  27.720  1.00  0.00     0.029 A 
ATOM     62  C   UNL A   1      46.493  30.911  27.985  1.00  0.00     0.049 A 
ATOM     63  H   UNL A   1      45.560  29.032  27.744  1.00  0.00     0.167 HD
ATOM     64  C   UNL A   1      44.148  31.309  28.702  1.00  0.00     0.074 A 
ATOM     65  C   UNL A   1      43.078  32.153  29.194  1.00  0.00     0.031 C 
ATOM     66  C   UNL A   1      45.420  31.735  28.493  1.00  0.00     0.034 A 
BRANCH  53  67
ATOM     67  C   UNL A   1      49.247  27.328  26.374  1.00  0.00     0.023 A 
ATOM     68  C   UNL A   1      50.254  27.104  27.331  1.00  0.00     0.031 A 
ATOM     69  C   UNL A   1      49.592  27.198  25.018  1.00  0.00     0.131 A 
ATOM     70  C   UNL A   1      51.570  26.840  26.917  1.00  0.00     0.055 A 
ATOM     71  C   UNL A   1      50.884  26.852  24.614  1.00  0.00     0.041 A 
ATOM     72  F   UNL A   1      48.682  27.419  24.056  1.00  0.00    -0.206 F 
ATOM     73  C   UNL A   1      51.886  26.687  25.566  1.00  0.00     0.022 A 
BRANCH  70  74
ATOM     74  S   UNL A   1      52.887  26.847  28.164  1.00  0.00     0.124 S 
ATOM     75  O   UNL A   1      52.118  26.907  29.405  1.00  0.00    -0.237 OA
ATOM     76  O   UNL A   1      53.579  25.591  27.900  1.00  0.00    -0.237 OA
ATOM     77  O   UNL A   1      53.647  28.056  27.852  1.00  0.00    -0.744 OA
ENDBRANCH  70  74
ENDBRANCH  53  67
BRANCH  54  78
ATOM     78  C   UNL A   1      39.886  29.394  29.335  1.00  0.00     0.023 A 
ATOM     79  C   UNL A   1      39.594  29.406  30.709  1.00  0.00     0.031 A 
ATOM     80  C   UNL A   1      38.832  29.635  28.436  1.00  0.00     0.131 A 
ATOM     81  C   UNL A   1      38.275  29.605  31.142  1.00  0.00     0.055 A 
ATOM     82  C   UNL A   1      37.531  29.888  28.873  1.00  0.00     0.041 A 
ATOM     83  F   UNL A   1      39.057  29.639  27.111  1.00  0.00    -0.206 F 
ATOM     84  C   UNL A   1      37.243  29.860  30.234  1.00  0.00     0.022 A 
BRANCH  81  85
ATOM     85  S   UNL A   1      37.906  29.437  32.910  1.00  0.00     0.124 S 
ATOM     86  O   UNL A   1      36.726  30.281  33.049  1.00  0.00    -0.237 OA
ATOM     87  O   UNL A   1      37.687  28.000  33.038  1.00  0.00    -0.237 OA
ATOM     88  O   UNL A   1      39.116  29.941  33.559  1.00  0.00    -0.744 OA
ENDBRANCH  81  85
ENDBRANCH  54  78
BRANCH  66  89
ATOM     89  C   UNL A   1      45.704  33.193  28.768  1.00  0.00     0.023 A 
ATOM     90  C   UNL A   1      46.149  33.634  30.026  1.00  0.00     0.031 A 
ATOM     91  C   UNL A   1      45.503  34.156  27.762  1.00  0.00     0.131 A 
ATOM     92  C   UNL A   1      46.317  35.006  30.266  1.00  0.00     0.055 A 
ATOM     93  C   UNL A   1      45.734  35.513  27.988  1.00  0.00     0.041 A 
ATOM     94  F   UNL A   1      45.076  33.792  26.543  1.00  0.00    -0.206 F 
ATOM     95  C   UNL A   1      46.129  35.947  29.250  1.00  0.00     0.022 A 
BRANCH  92  96
ATOM     96  S   UNL A   1      46.683  35.555  31.956  1.00  0.00     0.124 S 
ATOM     97  O   UNL A   1      48.088  35.183  32.099  1.00  0.00    -0.237 OA
ATOM     98  O   UNL A   1      46.407  36.986  31.886  1.00  0.00    -0.237 OA
ATOM     99  O   UNL A   1      45.752  34.784  32.777  1.00  0.00    -0.744 OA
ENDBRANCH  92  96
ENDBRANCH  66  89
ENDBRANCH  40  41
ENDBRANCH  32  35
ENDBRANCH  30  31
ENDBRANCH  29  30
ENDBRANCH  28  29
ENDBRANCH  27  28
ENDBRANCH   1  27
TORSDOF 22
ENDMDL
