MODEL 1
REMARK VINA RESULT:     -10.5      0.000      0.000
REMARK SMILES C[N@@H+](CC(=O)NCCCCCCNC(=O)c1ccc(-c2c3nc(c(-c4cc(S(=O)(=O)[O-])ccc4F)c4ccc([nH]4)c(-c4cc(S(=O)(=O)[O-])ccc4F)c4nc(c(-c5cc(S(=O)(=O)[O-])ccc5F)c5ccc2[nH]5)C=C4)C=C3)cc1)Cc1csc(-c2ccco2)n1
REMARK SMILES IDX 9 1 8 2 7 3 6 4 4 5 5 6 3 8 2 9 1 10 79 12 80 13 81 14 89 15
REMARK SMILES IDX 82 16 83 17 84 18 85 19 88 20 86 21 87 22 10 23 11 24 12 25
REMARK SMILES IDX 13 26 14 27 15 29 16 30 17 31 78 32 18 33 77 34 19 35 20 36
REMARK SMILES IDX 21 37 71 38 22 39 76 40 70 41 72 42 23 43 75 44 69 45 68 46
REMARK SMILES IDX 24 48 56 49 36 50 55 51 37 52 40 53 54 54 73 55 38 56 39 57
REMARK SMILES IDX 53 59 74 60 41 61 25 62 26 63 34 64 27 65 33 66 35 67 32 68
REMARK SMILES IDX 28 69 29 70 30 71 31 72 57 73 58 74 66 75 59 76 65 77 67 78
REMARK SMILES IDX 64 79 60 80 61 81 62 82 63 83 42 84 43 85 51 86 44 87 50 88
REMARK SMILES IDX 52 89 49 90 45 91 46 92 47 93 48 94
REMARK H PARENT 6 7 2 11 13 28 72 47 40 58
REMARK Flexibility Score: inf
ROOT
ATOM      1  C   UNL A   1      36.189  21.400  24.287  1.00  0.00     0.002 C 
ENDROOT
BRANCH   1   2
ATOM      2  C   UNL A   1      37.034  22.668  24.400  1.00  0.00     0.021 C 
BRANCH   2   3
ATOM      3  C   UNL A   1      36.627  23.590  25.545  1.00  0.00     0.116 C 
BRANCH   3   4
ATOM      4  N   UNL A   1      35.846  22.893  26.545  1.00  0.00    -0.351 N 
ATOM      5  C   UNL A   1      34.564  23.104  26.953  1.00  0.00     0.275 C 
ATOM      6  O   UNL A   1      34.092  22.329  27.793  1.00  0.00    -0.269 OA
ATOM      7  H   UNL A   1      36.313  22.153  27.000  1.00  0.00     0.163 HD
BRANCH   5   8
ATOM      8  C   UNL A   1      33.698  24.200  26.332  1.00  0.00     0.363 C 
BRANCH   8   9
ATOM      9  N   UNL A   1      32.952  23.844  25.127  1.00  0.00    -0.325 N 
ATOM     10  C   UNL A   1      32.999  24.729  23.990  1.00  0.00     0.333 C 
ATOM     11  H   UNL A   1      33.662  23.151  24.894  1.00  0.00     0.348 HD
BRANCH   9  12
ATOM     12  C   UNL A   1      31.828  22.918  25.184  1.00  0.00     0.320 C 
BRANCH  12  13
ATOM     13  C   UNL A   1      32.033  21.606  24.481  1.00  0.00     0.106 A 
ATOM     14  C   UNL A   1      32.028  21.445  23.105  1.00  0.00     0.097 A 
ATOM     15  N   UNL A   1      32.222  20.420  25.191  1.00  0.00    -0.232 NA
ATOM     16  S   UNL A   1      32.401  19.832  22.686  1.00  0.00    -0.119 S 
ATOM     17  C   UNL A   1      32.507  19.440  24.354  1.00  0.00     0.159 A 
BRANCH  17  18
ATOM     18  C   UNL A   1      32.909  18.124  24.770  1.00  0.00     0.162 A 
ATOM     19  C   UNL A   1      34.047  17.408  24.429  1.00  0.00     0.053 A 
ATOM     20  O   UNL A   1      32.134  17.332  25.587  1.00  0.00    -0.462 OA
ATOM     21  C   UNL A   1      33.948  16.134  25.047  1.00  0.00     0.043 A 
ATOM     22  C   UNL A   1      32.755  16.135  25.726  1.00  0.00     0.196 A 
ENDBRANCH  17  18
ENDBRANCH  12  13
ENDBRANCH   9  12
ENDBRANCH   8   9
ENDBRANCH   5   8
ENDBRANCH   3   4
ENDBRANCH   2   3
ENDBRANCH   1   2
BRANCH   1  23
ATOM     23  C   UNL A   1      36.746  20.168  24.996  1.00  0.00     0.002 C 
BRANCH  23  24
ATOM     24  C   UNL A   1      38.237  19.919  24.765  1.00  0.00     0.021 C 
BRANCH  24  25
ATOM     25  C   UNL A   1      39.120  20.129  25.992  1.00  0.00     0.116 C 
BRANCH  25  26
ATOM     26  N   UNL A   1      40.260  19.225  26.007  1.00  0.00    -0.352 N 
ATOM     27  C   UNL A   1      41.600  19.525  26.068  1.00  0.00     0.251 C 
ATOM     28  H   UNL A   1      40.042  18.266  25.968  1.00  0.00     0.163 HD
ATOM     29  O   UNL A   1      42.436  18.657  25.848  1.00  0.00    -0.269 OA
BRANCH  27  30
ATOM     30  C   UNL A   1      42.015  20.910  26.382  1.00  0.00     0.039 A 
ATOM     31  C   UNL A   1      42.300  21.254  27.704  1.00  0.00     0.014 A 
ATOM     32  C   UNL A   1      42.139  21.857  25.362  1.00  0.00     0.014 A 
ATOM     33  C   UNL A   1      42.769  22.539  27.993  1.00  0.00     0.010 A 
ATOM     34  C   UNL A   1      42.684  23.108  25.641  1.00  0.00     0.010 A 
ATOM     35  C   UNL A   1      42.996  23.465  26.962  1.00  0.00    -0.014 A 
BRANCH  35  36
ATOM     36  C   UNL A   1      43.540  24.819  27.247  1.00  0.00     0.031 A 
ATOM     37  C   UNL A   1      42.633  25.897  27.779  1.00  0.00     0.074 A 
ATOM     38  C   UNL A   1      44.834  25.093  26.982  1.00  0.00     0.049 A 
ATOM     39  N   UNL A   1      42.899  27.152  28.038  1.00  0.00    -0.248 NA
ATOM     40  C   UNL A   1      41.232  25.519  28.021  1.00  0.00     0.031 C 
ATOM     41  C   UNL A   1      45.800  24.143  26.425  1.00  0.00     0.029 A 
ATOM     42  N   UNL A   1      45.559  26.248  27.139  1.00  0.00    -0.354 N 
ATOM     43  C   UNL A   1      41.699  27.715  28.462  1.00  0.00     0.074 A 
ATOM     44  C   UNL A   1      40.692  26.681  28.355  1.00  0.00     0.031 C 
ATOM     45  C   UNL A   1      46.997  24.745  26.318  1.00  0.00     0.029 A 
ATOM     46  C   UNL A   1      46.875  26.134  26.751  1.00  0.00     0.049 A 
ATOM     47  H   UNL A   1      45.174  27.080  27.496  1.00  0.00     0.167 HD
ATOM     48  C   UNL A   1      41.465  28.967  28.924  1.00  0.00     0.034 A 
ATOM     49  C   UNL A   1      47.868  27.046  26.739  1.00  0.00     0.034 A 
ATOM     50  C   UNL A   1      42.483  29.983  29.032  1.00  0.00     0.049 A 
ATOM     51  C   UNL A   1      47.578  28.440  27.234  1.00  0.00     0.074 A 
ATOM     52  C   UNL A   1      42.369  31.270  29.529  1.00  0.00     0.029 A 
ATOM     53  N   UNL A   1      43.805  29.832  28.630  1.00  0.00    -0.354 N 
ATOM     54  N   UNL A   1      46.448  28.942  27.680  1.00  0.00    -0.248 NA
ATOM     55  C   UNL A   1      48.699  29.388  27.237  1.00  0.00     0.031 C 
ATOM     56  C   UNL A   1      43.597  31.918  29.360  1.00  0.00     0.029 A 
ATOM     57  C   UNL A   1      44.507  31.010  28.839  1.00  0.00     0.049 A 
ATOM     58  H   UNL A   1      44.189  29.007  28.252  1.00  0.00     0.167 HD
ATOM     59  C   UNL A   1      46.736  30.253  28.052  1.00  0.00     0.074 A 
ATOM     60  C   UNL A   1      48.147  30.456  27.791  1.00  0.00     0.031 C 
ATOM     61  C   UNL A   1      45.912  31.202  28.567  1.00  0.00     0.034 A 
BRANCH  48  62
ATOM     62  C   UNL A   1      40.046  29.310  29.319  1.00  0.00     0.023 A 
ATOM     63  C   UNL A   1      39.640  29.336  30.666  1.00  0.00     0.031 A 
ATOM     64  C   UNL A   1      39.078  29.584  28.339  1.00  0.00     0.131 A 
ATOM     65  C   UNL A   1      38.292  29.549  30.989  1.00  0.00     0.055 A 
ATOM     66  C   UNL A   1      37.754  29.883  28.671  1.00  0.00     0.041 A 
ATOM     67  F   UNL A   1      39.396  29.552  27.034  1.00  0.00    -0.206 F 
ATOM     68  C   UNL A   1      37.351  29.851  30.003  1.00  0.00     0.022 A 
BRANCH  65  69
ATOM     69  S   UNL A   1      37.757  29.271  32.700  1.00  0.00     0.124 S 
ATOM     70  O   UNL A   1      38.838  29.906  33.452  1.00  0.00    -0.237 OA
ATOM     71  O   UNL A   1      36.467  29.946  32.742  1.00  0.00    -0.237 OA
ATOM     72  O   UNL A   1      37.705  27.814  32.810  1.00  0.00    -0.744 OA
ENDBRANCH  65  69
ENDBRANCH  48  62
BRANCH  49  73
ATOM     73  C   UNL A   1      49.226  26.681  26.240  1.00  0.00     0.023 A 
ATOM     74  C   UNL A   1      49.691  27.144  24.999  1.00  0.00     0.031 A 
ATOM     75  C   UNL A   1      50.062  25.823  26.977  1.00  0.00     0.131 A 
ATOM     76  C   UNL A   1      50.930  26.706  24.507  1.00  0.00     0.055 A 
ATOM     77  C   UNL A   1      51.320  25.438  26.511  1.00  0.00     0.041 A 
ATOM     78  F   UNL A   1      49.671  25.354  28.172  1.00  0.00    -0.206 F 
ATOM     79  C   UNL A   1      51.754  25.868  25.261  1.00  0.00     0.022 A 
BRANCH  76  80
ATOM     80  S   UNL A   1      51.410  27.172  22.820  1.00  0.00     0.124 S 
ATOM     81  O   UNL A   1      51.570  28.616  22.946  1.00  0.00    -0.237 OA
ATOM     82  O   UNL A   1      52.636  26.404  22.632  1.00  0.00    -0.237 OA
ATOM     83  O   UNL A   1      50.273  26.738  22.011  1.00  0.00    -0.744 OA
ENDBRANCH  76  80
ENDBRANCH  49  73
BRANCH  61  84
ATOM     84  C   UNL A   1      46.535  32.529  28.931  1.00  0.00     0.023 A 
ATOM     85  C   UNL A   1      46.563  33.610  28.032  1.00  0.00     0.031 A 
ATOM     86  C   UNL A   1      47.128  32.707  30.194  1.00  0.00     0.131 A 
ATOM     87  C   UNL A   1      47.228  34.794  28.384  1.00  0.00     0.055 A 
ATOM     88  C   UNL A   1      47.727  33.912  30.564  1.00  0.00     0.041 A 
ATOM     89  F   UNL A   1      47.135  31.709  31.093  1.00  0.00    -0.206 F 
ATOM     90  C   UNL A   1      47.793  34.958  29.651  1.00  0.00     0.022 A 
BRANCH  87  91
ATOM     91  S   UNL A   1      47.443  36.079  27.121  1.00  0.00     0.124 S 
ATOM     92  O   UNL A   1      48.630  36.780  27.600  1.00  0.00    -0.237 OA
ATOM     93  O   UNL A   1      47.615  35.294  25.903  1.00  0.00    -0.237 OA
ATOM     94  O   UNL A   1      46.199  36.844  27.195  1.00  0.00    -0.744 OA
ENDBRANCH  87  91
ENDBRANCH  61  84
ENDBRANCH  35  36
ENDBRANCH  27  30
ENDBRANCH  25  26
ENDBRANCH  24  25
ENDBRANCH  23  24
ENDBRANCH   1  23
TORSDOF 20
ENDMDL
MODEL 2
REMARK VINA RESULT:     -10.4      5.499      8.233
REMARK SMILES C[N@@H+](CC(=O)NCCCCCCNC(=O)c1ccc(-c2c3nc(c(-c4cc(S(=O)(=O)[O-])ccc4F)c4ccc([nH]4)c(-c4cc(S(=O)(=O)[O-])ccc4F)c4nc(c(-c5cc(S(=O)(=O)[O-])ccc5F)c5ccc2[nH]5)C=C4)C=C3)cc1)Cc1csc(-c2ccco2)n1
REMARK SMILES IDX 9 1 8 2 7 3 6 4 4 5 5 6 3 8 2 9 1 10 79 12 80 13 81 14 89 15
REMARK SMILES IDX 82 16 83 17 84 18 85 19 88 20 86 21 87 22 10 23 11 24 12 25
REMARK SMILES IDX 13 26 14 27 15 29 16 30 17 31 78 32 18 33 77 34 19 35 20 36
REMARK SMILES IDX 21 37 71 38 22 39 76 40 70 41 72 42 23 43 75 44 69 45 68 46
REMARK SMILES IDX 24 48 56 49 36 50 55 51 37 52 40 53 54 54 73 55 38 56 39 57
REMARK SMILES IDX 53 59 74 60 41 61 25 62 26 63 34 64 27 65 33 66 35 67 32 68
REMARK SMILES IDX 28 69 29 70 30 71 31 72 57 73 58 74 66 75 59 76 65 77 67 78
REMARK SMILES IDX 64 79 60 80 61 81 62 82 63 83 42 84 43 85 51 86 44 87 50 88
REMARK SMILES IDX 52 89 49 90 45 91 46 92 47 93 48 94
REMARK H PARENT 6 7 2 11 13 28 72 47 40 58
REMARK Flexibility Score: inf
ROOT
ATOM      1  C   UNL A   1      31.215  29.359  24.290  1.00  0.00     0.002 C 
ENDROOT
BRANCH   1   2
ATOM      2  C   UNL A   1      30.817  28.783  22.931  1.00  0.00     0.021 C 
BRANCH   2   3
ATOM      3  C   UNL A   1      30.922  27.264  22.842  1.00  0.00     0.116 C 
BRANCH   3   4
ATOM      4  N   UNL A   1      31.864  26.850  21.823  1.00  0.00    -0.351 N 
ATOM      5  C   UNL A   1      32.521  25.666  21.673  1.00  0.00     0.275 C 
ATOM      6  O   UNL A   1      33.240  25.528  20.676  1.00  0.00    -0.269 OA
ATOM      7  H   UNL A   1      32.059  27.527  21.134  1.00  0.00     0.163 HD
BRANCH   5   8
ATOM      8  C   UNL A   1      32.311  24.507  22.647  1.00  0.00     0.363 C 
BRANCH   8   9
ATOM      9  N   UNL A   1      32.955  24.622  23.954  1.00  0.00    -0.325 N 
ATOM     10  C   UNL A   1      34.164  25.398  24.071  1.00  0.00     0.333 C 
ATOM     11  H   UNL A   1      32.239  25.287  24.245  1.00  0.00     0.348 HD
BRANCH   9  12
ATOM     12  C   UNL A   1      32.707  23.642  25.003  1.00  0.00     0.320 C 
BRANCH  12  13
ATOM     13  C   UNL A   1      33.516  22.378  24.914  1.00  0.00     0.106 A 
ATOM     14  C   UNL A   1      34.897  22.322  25.015  1.00  0.00     0.097 A 
ATOM     15  N   UNL A   1      32.912  21.140  24.690  1.00  0.00    -0.232 NA
ATOM     16  S   UNL A   1      35.438  20.704  24.972  1.00  0.00    -0.119 S 
ATOM     17  C   UNL A   1      33.814  20.181  24.783  1.00  0.00     0.159 A 
BRANCH  17  18
ATOM     18  C   UNL A   1      33.497  18.780  24.759  1.00  0.00     0.162 A 
ATOM     19  C   UNL A   1      33.766  17.838  23.777  1.00  0.00     0.053 A 
ATOM     20  O   UNL A   1      32.794  18.157  25.767  1.00  0.00    -0.462 OA
ATOM     21  C   UNL A   1      33.191  16.610  24.197  1.00  0.00     0.043 A 
ATOM     22  C   UNL A   1      32.597  16.866  25.408  1.00  0.00     0.196 A 
ENDBRANCH  17  18
ENDBRANCH  12  13
ENDBRANCH   9  12
ENDBRANCH   8   9
ENDBRANCH   5   8
ENDBRANCH   3   4
ENDBRANCH   2   3
ENDBRANCH   1   2
BRANCH   1  23
ATOM     23  C   UNL A   1      32.688  29.219  24.662  1.00  0.00     0.002 C 
BRANCH  23  24
ATOM     24  C   UNL A   1      32.975  28.181  25.748  1.00  0.00     0.021 C 
BRANCH  24  25
ATOM     25  C   UNL A   1      33.131  28.750  27.155  1.00  0.00     0.116 C 
BRANCH  25  26
ATOM     26  N   UNL A   1      33.264  30.200  27.149  1.00  0.00    -0.352 N 
ATOM     27  C   UNL A   1      34.264  30.978  27.680  1.00  0.00     0.251 C 
ATOM     28  H   UNL A   1      32.536  30.691  26.702  1.00  0.00     0.163 HD
ATOM     29  O   UNL A   1      34.112  32.189  27.784  1.00  0.00    -0.269 OA
BRANCH  27  30
ATOM     30  C   UNL A   1      35.512  30.332  28.142  1.00  0.00     0.039 A 
ATOM     31  C   UNL A   1      36.626  30.321  27.303  1.00  0.00     0.014 A 
ATOM     32  C   UNL A   1      35.579  29.756  29.414  1.00  0.00     0.014 A 
ATOM     33  C   UNL A   1      37.830  29.782  27.766  1.00  0.00     0.010 A 
ATOM     34  C   UNL A   1      36.799  29.296  29.902  1.00  0.00     0.010 A 
ATOM     35  C   UNL A   1      37.936  29.296  29.080  1.00  0.00    -0.014 A 
BRANCH  35  36
ATOM     36  C   UNL A   1      39.222  28.764  29.604  1.00  0.00     0.031 A 
ATOM     37  C   UNL A   1      39.856  29.390  30.817  1.00  0.00     0.074 A 
ATOM     38  C   UNL A   1      39.841  27.753  28.961  1.00  0.00     0.049 A 
ATOM     39  N   UNL A   1      40.996  29.111  31.395  1.00  0.00    -0.248 NA
ATOM     40  C   UNL A   1      39.122  30.501  31.445  1.00  0.00     0.031 C 
ATOM     41  C   UNL A   1      39.347  27.094  27.751  1.00  0.00     0.029 A 
ATOM     42  N   UNL A   1      41.022  27.108  29.230  1.00  0.00    -0.354 N 
ATOM     43  C   UNL A   1      41.122  30.016  32.444  1.00  0.00     0.074 A 
ATOM     44  C   UNL A   1      39.976  30.897  32.376  1.00  0.00     0.031 C 
ATOM     45  C   UNL A   1      40.201  26.116  27.402  1.00  0.00     0.029 A 
ATOM     46  C   UNL A   1      41.326  26.110  28.332  1.00  0.00     0.049 A 
ATOM     47  H   UNL A   1      41.599  27.336  29.994  1.00  0.00     0.167 HD
ATOM     48  C   UNL A   1      42.089  30.088  33.392  1.00  0.00     0.034 A 
ATOM     49  C   UNL A   1      42.394  25.289  28.260  1.00  0.00     0.034 A 
ATOM     50  C   UNL A   1      43.221  29.196  33.450  1.00  0.00     0.049 A 
ATOM     51  C   UNL A   1      43.469  25.404  29.311  1.00  0.00     0.074 A 
ATOM     52  C   UNL A   1      44.234  29.147  34.392  1.00  0.00     0.029 A 
ATOM     53  N   UNL A   1      43.496  28.197  32.522  1.00  0.00    -0.354 N 
ATOM     54  N   UNL A   1      43.547  26.232  30.328  1.00  0.00    -0.248 NA
ATOM     55  C   UNL A   1      44.592  24.464  29.215  1.00  0.00     0.031 C 
ATOM     56  C   UNL A   1      45.156  28.173  33.995  1.00  0.00     0.029 A 
ATOM     57  C   UNL A   1      44.677  27.549  32.853  1.00  0.00     0.049 A 
ATOM     58  H   UNL A   1      42.933  27.980  31.744  1.00  0.00     0.167 HD
ATOM     59  C   UNL A   1      44.709  25.885  31.012  1.00  0.00     0.074 A 
ATOM     60  C   UNL A   1      45.289  24.764  30.299  1.00  0.00     0.031 C 
ATOM     61  C   UNL A   1      45.248  26.438  32.129  1.00  0.00     0.034 A 
BRANCH  48  62
ATOM     62  C   UNL A   1      41.971  31.187  34.424  1.00  0.00     0.023 A 
ATOM     63  C   UNL A   1      40.940  31.194  35.382  1.00  0.00     0.031 A 
ATOM     64  C   UNL A   1      42.882  32.258  34.434  1.00  0.00     0.131 A 
ATOM     65  C   UNL A   1      40.799  32.286  36.251  1.00  0.00     0.055 A 
ATOM     66  C   UNL A   1      42.788  33.298  35.362  1.00  0.00     0.041 A 
ATOM     67  F   UNL A   1      43.874  32.321  33.532  1.00  0.00    -0.206 F 
ATOM     68  C   UNL A   1      41.731  33.324  36.268  1.00  0.00     0.022 A 
BRANCH  65  69
ATOM     69  S   UNL A   1      39.290  32.403  37.253  1.00  0.00     0.124 S 
ATOM     70  O   UNL A   1      39.841  32.587  38.594  1.00  0.00    -0.237 OA
ATOM     71  O   UNL A   1      38.616  33.558  36.675  1.00  0.00    -0.237 OA
ATOM     72  O   UNL A   1      38.631  31.117  37.030  1.00  0.00    -0.744 OA
ENDBRANCH  65  69
ENDBRANCH  48  62
BRANCH  49  73
ATOM     73  C   UNL A   1      42.509  24.289  27.158  1.00  0.00     0.023 A 
ATOM     74  C   UNL A   1      41.920  23.020  27.266  1.00  0.00     0.031 A 
ATOM     75  C   UNL A   1      43.253  24.572  25.998  1.00  0.00     0.131 A 
ATOM     76  C   UNL A   1      42.128  22.063  26.261  1.00  0.00     0.055 A 
ATOM     77  C   UNL A   1      43.407  23.637  24.973  1.00  0.00     0.041 A 
ATOM     78  F   UNL A   1      43.834  25.772  25.839  1.00  0.00    -0.206 F 
ATOM     79  C   UNL A   1      42.855  22.367  25.109  1.00  0.00     0.022 A 
BRANCH  76  80
ATOM     80  S   UNL A   1      41.513  20.375  26.526  1.00  0.00     0.124 S 
ATOM     81  O   UNL A   1      42.004  20.090  27.869  1.00  0.00    -0.237 OA
ATOM     82  O   UNL A   1      40.071  20.557  26.394  1.00  0.00    -0.237 OA
ATOM     83  O   UNL A   1      42.146  19.611  25.453  1.00  0.00    -0.744 OA
ENDBRANCH  76  80
ENDBRANCH  49  73
BRANCH  61  84
ATOM     84  C   UNL A   1      46.502  25.798  32.676  1.00  0.00     0.023 A 
ATOM     85  C   UNL A   1      46.455  24.742  33.603  1.00  0.00     0.031 A 
ATOM     86  C   UNL A   1      47.766  26.268  32.276  1.00  0.00     0.131 A 
ATOM     87  C   UNL A   1      47.646  24.236  34.148  1.00  0.00     0.055 A 
ATOM     88  C   UNL A   1      48.949  25.714  32.768  1.00  0.00     0.041 A 
ATOM     89  F   UNL A   1      47.873  27.276  31.395  1.00  0.00    -0.206 F 
ATOM     90  C   UNL A   1      48.892  24.703  33.721  1.00  0.00     0.022 A 
BRANCH  87  91
ATOM     91  S   UNL A   1      47.541  23.037  35.505  1.00  0.00     0.124 S 
ATOM     92  O   UNL A   1      46.179  23.241  35.986  1.00  0.00    -0.237 OA
ATOM     93  O   UNL A   1      47.793  21.772  34.823  1.00  0.00    -0.237 OA
ATOM     94  O   UNL A   1      48.595  23.465  36.423  1.00  0.00    -0.744 OA
ENDBRANCH  87  91
ENDBRANCH  61  84
ENDBRANCH  35  36
ENDBRANCH  27  30
ENDBRANCH  25  26
ENDBRANCH  24  25
ENDBRANCH  23  24
ENDBRANCH   1  23
TORSDOF 20
ENDMDL
MODEL 3
REMARK VINA RESULT:     -10.3      5.340      8.905
REMARK SMILES C[N@@H+](CC(=O)NCCCCCCNC(=O)c1ccc(-c2c3nc(c(-c4cc(S(=O)(=O)[O-])ccc4F)c4ccc([nH]4)c(-c4cc(S(=O)(=O)[O-])ccc4F)c4nc(c(-c5cc(S(=O)(=O)[O-])ccc5F)c5ccc2[nH]5)C=C4)C=C3)cc1)Cc1csc(-c2ccco2)n1
REMARK SMILES IDX 9 1 8 2 7 3 6 4 4 5 5 6 3 8 2 9 1 10 79 12 80 13 81 14 89 15
REMARK SMILES IDX 82 16 83 17 84 18 85 19 88 20 86 21 87 22 10 23 11 24 12 25
REMARK SMILES IDX 13 26 14 27 15 29 16 30 17 31 78 32 18 33 77 34 19 35 20 36
REMARK SMILES IDX 21 37 71 38 22 39 76 40 70 41 72 42 23 43 75 44 69 45 68 46
REMARK SMILES IDX 24 48 56 49 36 50 55 51 37 52 40 53 54 54 73 55 38 56 39 57
REMARK SMILES IDX 53 59 74 60 41 61 25 62 26 63 34 64 27 65 33 66 35 67 32 68
REMARK SMILES IDX 28 69 29 70 30 71 31 72 57 73 58 74 66 75 59 76 65 77 67 78
REMARK SMILES IDX 64 79 60 80 61 81 62 82 63 83 42 84 43 85 51 86 44 87 50 88
REMARK SMILES IDX 52 89 49 90 45 91 46 92 47 93 48 94
REMARK H PARENT 6 7 2 11 13 28 72 47 40 58
REMARK Flexibility Score: inf
ROOT
ATOM      1  C   UNL A   1      33.072  25.987  26.138  1.00  0.00     0.002 C 
ENDROOT
BRANCH   1   2
ATOM      2  C   UNL A   1      34.371  25.881  25.341  1.00  0.00     0.021 C 
BRANCH   2   3
ATOM      3  C   UNL A   1      34.863  24.452  25.133  1.00  0.00     0.116 C 
BRANCH   3   4
ATOM      4  N   UNL A   1      34.632  23.630  26.303  1.00  0.00    -0.351 N 
ATOM      5  C   UNL A   1      33.830  22.539  26.456  1.00  0.00     0.275 C 
ATOM      6  O   UNL A   1      33.844  21.963  27.550  1.00  0.00    -0.269 OA
ATOM      7  H   UNL A   1      35.129  23.900  27.109  1.00  0.00     0.163 HD
BRANCH   5   8
ATOM      8  C   UNL A   1      33.008  21.982  25.294  1.00  0.00     0.363 C 
BRANCH   8   9
ATOM      9  N   UNL A   1      31.771  22.686  24.967  1.00  0.00    -0.325 N 
ATOM     10  C   UNL A   1      30.717  22.740  25.948  1.00  0.00     0.333 C 
ATOM     11  H   UNL A   1      32.245  23.578  25.106  1.00  0.00     0.348 HD
BRANCH   9  12
ATOM     12  C   UNL A   1      31.382  22.919  23.582  1.00  0.00     0.320 C 
BRANCH  12  13
ATOM     13  C   UNL A   1      31.617  24.312  23.067  1.00  0.00     0.106 A 
ATOM     14  C   UNL A   1      32.700  24.688  22.289  1.00  0.00     0.097 A 
ATOM     15  N   UNL A   1      30.744  25.358  23.371  1.00  0.00    -0.232 NA
ATOM     16  S   UNL A   1      32.561  26.322  21.814  1.00  0.00    -0.119 S 
ATOM     17  C   UNL A   1      31.095  26.440  22.700  1.00  0.00     0.159 A 
BRANCH  17  18
ATOM     18  C   UNL A   1      30.317  27.647  22.666  1.00  0.00     0.162 A 
ATOM     19  C   UNL A   1      29.156  27.961  23.358  1.00  0.00     0.053 A 
ATOM     20  O   UNL A   1      30.627  28.710  21.846  1.00  0.00    -0.462 OA
ATOM     21  C   UNL A   1      28.740  29.248  22.929  1.00  0.00     0.043 A 
ATOM     22  C   UNL A   1      29.663  29.651  21.995  1.00  0.00     0.196 A 
ENDBRANCH  17  18
ENDBRANCH  12  13
ENDBRANCH   9  12
ENDBRANCH   8   9
ENDBRANCH   5   8
ENDBRANCH   3   4
ENDBRANCH   2   3
ENDBRANCH   1   2
BRANCH   1  23
ATOM     23  C   UNL A   1      32.360  27.335  26.067  1.00  0.00     0.002 C 
BRANCH  23  24
ATOM     24  C   UNL A   1      32.937  28.410  26.990  1.00  0.00     0.021 C 
BRANCH  24  25
ATOM     25  C   UNL A   1      33.813  29.449  26.296  1.00  0.00     0.116 C 
BRANCH  25  26
ATOM     26  N   UNL A   1      33.700  30.761  26.914  1.00  0.00    -0.352 N 
ATOM     27  C   UNL A   1      34.449  31.305  27.931  1.00  0.00     0.251 C 
ATOM     28  H   UNL A   1      32.989  31.341  26.555  1.00  0.00     0.163 HD
ATOM     29  O   UNL A   1      34.081  32.334  28.484  1.00  0.00    -0.269 OA
BRANCH  27  30
ATOM     30  C   UNL A   1      35.688  30.620  28.358  1.00  0.00     0.039 A 
ATOM     31  C   UNL A   1      36.875  30.859  27.665  1.00  0.00     0.014 A 
ATOM     32  C   UNL A   1      35.674  29.757  29.458  1.00  0.00     0.014 A 
ATOM     33  C   UNL A   1      38.063  30.276  28.115  1.00  0.00     0.010 A 
ATOM     34  C   UNL A   1      36.870  29.244  29.951  1.00  0.00     0.010 A 
ATOM     35  C   UNL A   1      38.077  29.492  29.280  1.00  0.00    -0.014 A 
BRANCH  35  36
ATOM     36  C   UNL A   1      39.341  28.904  29.798  1.00  0.00     0.031 A 
ATOM     37  C   UNL A   1      40.014  29.510  31.001  1.00  0.00     0.074 A 
ATOM     38  C   UNL A   1      39.907  27.860  29.159  1.00  0.00     0.049 A 
ATOM     39  N   UNL A   1      41.145  29.182  31.572  1.00  0.00    -0.248 NA
ATOM     40  C   UNL A   1      39.339  30.659  31.625  1.00  0.00     0.031 C 
ATOM     41  C   UNL A   1      39.373  27.215  27.958  1.00  0.00     0.029 A 
ATOM     42  N   UNL A   1      41.059  27.162  29.425  1.00  0.00    -0.354 N 
ATOM     43  C   UNL A   1      41.322  30.088  32.613  1.00  0.00     0.074 A 
ATOM     44  C   UNL A   1      40.217  31.021  32.546  1.00  0.00     0.031 C 
ATOM     45  C   UNL A   1      40.176  26.195  27.612  1.00  0.00     0.029 A 
ATOM     46  C   UNL A   1      41.308  26.143  28.532  1.00  0.00     0.049 A 
ATOM     47  H   UNL A   1      41.651  27.369  30.183  1.00  0.00     0.167 HD
ATOM     48  C   UNL A   1      42.298  30.123  33.553  1.00  0.00     0.034 A 
ATOM     49  C   UNL A   1      42.335  25.273  28.459  1.00  0.00     0.034 A 
ATOM     50  C   UNL A   1      43.387  29.178  33.609  1.00  0.00     0.049 A 
ATOM     51  C   UNL A   1      43.423  25.345  29.502  1.00  0.00     0.074 A 
ATOM     52  C   UNL A   1      44.404  29.090  34.544  1.00  0.00     0.029 A 
ATOM     53  N   UNL A   1      43.607  28.160  32.689  1.00  0.00    -0.354 N 
ATOM     54  N   UNL A   1      43.548  26.177  30.511  1.00  0.00    -0.248 NA
ATOM     55  C   UNL A   1      44.500  24.352  29.404  1.00  0.00     0.031 C 
ATOM     56  C   UNL A   1      45.277  28.070  34.148  1.00  0.00     0.029 A 
ATOM     57  C   UNL A   1      44.759  27.460  33.016  1.00  0.00     0.049 A 
ATOM     58  H   UNL A   1      43.028  27.964  31.916  1.00  0.00     0.167 HD
ATOM     59  C   UNL A   1      44.698  25.781  31.188  1.00  0.00     0.074 A 
ATOM     60  C   UNL A   1      45.218  24.629  30.481  1.00  0.00     0.031 C 
ATOM     61  C   UNL A   1      45.272  26.318  32.297  1.00  0.00     0.034 A 
BRANCH  48  62
ATOM     62  C   UNL A   1      42.241  31.234  34.576  1.00  0.00     0.023 A 
ATOM     63  C   UNL A   1      42.900  32.460  34.374  1.00  0.00     0.031 A 
ATOM     64  C   UNL A   1      41.543  31.057  35.784  1.00  0.00     0.131 A 
ATOM     65  C   UNL A   1      42.916  33.424  35.393  1.00  0.00     0.055 A 
ATOM     66  C   UNL A   1      41.488  32.057  36.758  1.00  0.00     0.041 A 
ATOM     67  F   UNL A   1      40.912  29.901  36.047  1.00  0.00    -0.206 F 
ATOM     68  C   UNL A   1      42.191  33.244  36.572  1.00  0.00     0.022 A 
BRANCH  65  69
ATOM     69  S   UNL A   1      44.025  34.850  35.217  1.00  0.00     0.124 S 
ATOM     70  O   UNL A   1      43.805  35.224  33.822  1.00  0.00    -0.237 OA
ATOM     71  O   UNL A   1      43.509  35.776  36.217  1.00  0.00    -0.237 OA
ATOM     72  O   UNL A   1      45.346  34.293  35.504  1.00  0.00    -0.744 OA
ENDBRANCH  65  69
ENDBRANCH  48  62
BRANCH  49  73
ATOM     73  C   UNL A   1      42.394  24.260  27.365  1.00  0.00     0.023 A 
ATOM     74  C   UNL A   1      41.750  23.019  27.491  1.00  0.00     0.031 A 
ATOM     75  C   UNL A   1      43.138  24.500  26.196  1.00  0.00     0.131 A 
ATOM     76  C   UNL A   1      41.905  22.045  26.492  1.00  0.00     0.055 A 
ATOM     77  C   UNL A   1      43.240  23.550  25.178  1.00  0.00     0.041 A 
ATOM     78  F   UNL A   1      43.771  25.670  26.020  1.00  0.00    -0.206 F 
ATOM     79  C   UNL A   1      42.633  22.307  25.330  1.00  0.00     0.022 A 
BRANCH  76  80
ATOM     80  S   UNL A   1      41.218  20.389  26.778  1.00  0.00     0.124 S 
ATOM     81  O   UNL A   1      42.340  19.535  26.407  1.00  0.00    -0.237 OA
ATOM     82  O   UNL A   1      40.891  20.440  28.198  1.00  0.00    -0.237 OA
ATOM     83  O   UNL A   1      40.069  20.338  25.876  1.00  0.00    -0.744 OA
ENDBRANCH  76  80
ENDBRANCH  49  73
BRANCH  61  84
ATOM     84  C   UNL A   1      46.499  25.624  32.840  1.00  0.00     0.023 A 
ATOM     85  C   UNL A   1      46.408  24.557  33.751  1.00  0.00     0.031 A 
ATOM     86  C   UNL A   1      47.781  26.051  32.450  1.00  0.00     0.131 A 
ATOM     87  C   UNL A   1      47.577  24.000  34.293  1.00  0.00     0.055 A 
ATOM     88  C   UNL A   1      48.940  25.446  32.939  1.00  0.00     0.041 A 
ATOM     89  F   UNL A   1      47.929  27.067  31.585  1.00  0.00    -0.206 F 
ATOM     90  C   UNL A   1      48.841  24.425  33.878  1.00  0.00     0.022 A 
BRANCH  87  91
ATOM     91  S   UNL A   1      47.422  22.787  35.633  1.00  0.00     0.124 S 
ATOM     92  O   UNL A   1      46.312  23.331  36.409  1.00  0.00    -0.237 OA
ATOM     93  O   UNL A   1      47.145  21.552  34.906  1.00  0.00    -0.237 OA
ATOM     94  O   UNL A   1      48.725  22.837  36.294  1.00  0.00    -0.744 OA
ENDBRANCH  87  91
ENDBRANCH  61  84
ENDBRANCH  35  36
ENDBRANCH  27  30
ENDBRANCH  25  26
ENDBRANCH  24  25
ENDBRANCH  23  24
ENDBRANCH   1  23
TORSDOF 20
ENDMDL
