MODEL 1
REMARK VINA RESULT:     -12.4      0.000      0.000
REMARK SMILES O=C(NCCCCCCNC(=O)[C@H]1CCCN(c2cc(-c3ccccn3)nc(-c3ccccc3F)n2)C1)c1ccc(-c2c3nc(c(-c4cc(S(=O)(=O)[O-])ccc4F)c4ccc([nH]4)c(-c4cc(S(=O)(=O)[O-])ccc4F)c4nc(c(-c5cc(S(=O)(=O)[O-])ccc5F)c5ccc2[nH]5)C=C4)C=C3)cc1
REMARK SMILES IDX 6 1 5 2 4 3 3 4 1 5 2 6 38 8 39 9 100 10 40 11 99 12 41 13
REMARK SMILES IDX 42 14 43 15 93 16 44 17 98 18 92 19 94 20 45 21 97 22 91 23
REMARK SMILES IDX 90 24 46 26 78 27 58 28 77 29 59 30 62 31 76 32 95 33 60 34
REMARK SMILES IDX 61 35 75 37 96 38 63 39 47 40 48 41 56 42 49 43 55 44 57 45
REMARK SMILES IDX 54 46 50 47 51 48 52 49 53 50 79 51 80 52 88 53 81 54 87 55
REMARK SMILES IDX 89 56 86 57 82 58 83 59 84 60 85 61 64 62 65 63 73 64 66 65
REMARK SMILES IDX 72 66 74 67 71 68 67 69 68 70 69 71 70 72 7 73 8 74 9 75
REMARK SMILES IDX 10 76 11 77 12 79 13 80 14 81 37 82 15 83 17 84 16 85 18 86
REMARK SMILES IDX 19 87 36 88 20 89 28 90 27 91 21 92 22 93 26 94 23 95 25 96
REMARK SMILES IDX 24 97 29 98 30 99 34 100 31 101 33 102 35 103 32 104
REMARK H PARENT 3 7 94 25 62 36 10 78
REMARK Flexibility Score: inf
ROOT
ATOM      1  C   UNL A   1      37.567  22.158  24.954  1.00  0.00     0.002 C 
ENDROOT
BRANCH   1   2
ATOM      2  C   UNL A   1      38.226  20.788  25.124  1.00  0.00     0.021 C 
BRANCH   2   3
ATOM      3  C   UNL A   1      39.207  20.706  26.286  1.00  0.00     0.116 C 
BRANCH   3   4
ATOM      4  N   UNL A   1      40.249  19.719  26.052  1.00  0.00    -0.352 N 
ATOM      5  O   UNL A   1      42.332  19.002  25.570  1.00  0.00    -0.269 OA
ATOM      6  C   UNL A   1      41.610  19.905  25.968  1.00  0.00     0.251 C 
ATOM      7  H   UNL A   1      39.938  18.792  25.938  1.00  0.00     0.163 HD
BRANCH   6   8
ATOM      8  C   UNL A   1      42.187  21.211  26.354  1.00  0.00     0.039 A 
ATOM      9  C   UNL A   1      42.327  22.226  25.406  1.00  0.00     0.014 A 
ATOM     10  C   UNL A   1      42.585  21.427  27.678  1.00  0.00     0.014 A 
ATOM     11  C   UNL A   1      42.987  23.398  25.743  1.00  0.00     0.010 A 
ATOM     12  C   UNL A   1      43.166  22.647  28.038  1.00  0.00     0.010 A 
ATOM     13  C   UNL A   1      43.390  23.635  27.068  1.00  0.00    -0.014 A 
BRANCH  13  14
ATOM     14  C   UNL A   1      43.962  24.963  27.407  1.00  0.00     0.031 A 
ATOM     15  C   UNL A   1      45.380  25.320  27.068  1.00  0.00     0.074 A 
ATOM     16  C   UNL A   1      43.145  25.877  27.967  1.00  0.00     0.049 A 
ATOM     17  N   UNL A   1      45.992  26.468  27.215  1.00  0.00    -0.248 NA
ATOM     18  C   UNL A   1      46.224  24.258  26.501  1.00  0.00     0.031 C 
ATOM     19  C   UNL A   1      41.750  25.629  28.348  1.00  0.00     0.029 A 
ATOM     20  N   UNL A   1      43.339  27.199  28.270  1.00  0.00    -0.354 N 
ATOM     21  C   UNL A   1      47.296  26.265  26.781  1.00  0.00     0.074 A 
ATOM     22  C   UNL A   1      47.392  24.876  26.382  1.00  0.00     0.031 C 
ATOM     23  C   UNL A   1      41.193  26.780  28.747  1.00  0.00     0.029 A 
ATOM     24  C   UNL A   1      42.205  27.829  28.724  1.00  0.00     0.049 A 
ATOM     25  H   UNL A   1      44.207  27.654  28.172  1.00  0.00     0.167 HD
ATOM     26  C   UNL A   1      48.312  27.161  26.716  1.00  0.00     0.034 A 
ATOM     27  C   UNL A   1      41.994  29.107  29.089  1.00  0.00     0.034 A 
ATOM     28  C   UNL A   1      48.191  28.545  27.100  1.00  0.00     0.049 A 
ATOM     29  C   UNL A   1      43.139  30.074  29.028  1.00  0.00     0.074 A 
ATOM     30  C   UNL A   1      49.147  29.545  27.028  1.00  0.00     0.029 A 
ATOM     31  N   UNL A   1      47.049  29.126  27.637  1.00  0.00    -0.354 N 
ATOM     32  N   UNL A   1      44.367  29.863  28.615  1.00  0.00    -0.248 NA
ATOM     33  C   UNL A   1      42.881  31.441  29.495  1.00  0.00     0.031 C 
ATOM     34  C   UNL A   1      48.603  30.711  27.579  1.00  0.00     0.029 A 
ATOM     35  C   UNL A   1      47.288  30.459  27.932  1.00  0.00     0.049 A 
ATOM     36  H   UNL A   1      46.196  28.660  27.786  1.00  0.00     0.167 HD
ATOM     37  C   UNL A   1      45.031  31.072  28.773  1.00  0.00     0.074 A 
ATOM     38  C   UNL A   1      44.065  32.012  29.308  1.00  0.00     0.031 C 
ATOM     39  C   UNL A   1      46.323  31.376  28.494  1.00  0.00     0.034 A 
BRANCH  26  40
ATOM     40  C   UNL A   1      49.655  26.664  26.246  1.00  0.00     0.023 A 
ATOM     41  C   UNL A   1      50.200  27.057  25.012  1.00  0.00     0.031 A 
ATOM     42  C   UNL A   1      50.410  25.795  27.054  1.00  0.00     0.131 A 
ATOM     43  C   UNL A   1      51.440  26.545  24.601  1.00  0.00     0.055 A 
ATOM     44  C   UNL A   1      51.671  25.338  26.667  1.00  0.00     0.041 A 
ATOM     45  F   UNL A   1      49.931  25.375  28.236  1.00  0.00    -0.206 F 
ATOM     46  C   UNL A   1      52.190  25.706  25.428  1.00  0.00     0.022 A 
BRANCH  43  47
ATOM     47  S   UNL A   1      52.017  26.920  22.924  1.00  0.00     0.124 S 
ATOM     48  O   UNL A   1      50.765  26.899  22.171  1.00  0.00    -0.237 OA
ATOM     49  O   UNL A   1      52.638  28.229  23.091  1.00  0.00    -0.237 OA
ATOM     50  O   UNL A   1      52.937  25.825  22.625  1.00  0.00    -0.744 OA
ENDBRANCH  43  47
ENDBRANCH  26  40
BRANCH  27  51
ATOM     51  C   UNL A   1      40.644  29.514  29.560  1.00  0.00     0.023 A 
ATOM     52  C   UNL A   1      40.383  29.716  30.923  1.00  0.00     0.031 A 
ATOM     53  C   UNL A   1      39.619  29.786  28.636  1.00  0.00     0.131 A 
ATOM     54  C   UNL A   1      39.122  30.183  31.325  1.00  0.00     0.055 A 
ATOM     55  C   UNL A   1      38.380  30.282  29.038  1.00  0.00     0.041 A 
ATOM     56  F   UNL A   1      39.834  29.626  27.320  1.00  0.00    -0.206 F 
ATOM     57  C   UNL A   1      38.125  30.483  30.390  1.00  0.00     0.022 A 
BRANCH  54  58
ATOM     58  S   UNL A   1      38.800  30.417  33.094  1.00  0.00     0.124 S 
ATOM     59  O   UNL A   1      39.573  31.620  33.380  1.00  0.00    -0.237 OA
ATOM     60  O   UNL A   1      37.348  30.563  33.127  1.00  0.00    -0.237 OA
ATOM     61  O   UNL A   1      39.310  29.188  33.697  1.00  0.00    -0.744 OA
ENDBRANCH  54  58
ENDBRANCH  27  51
BRANCH  39  62
ATOM     62  C   UNL A   1      46.769  32.787  28.752  1.00  0.00     0.023 A 
ATOM     63  C   UNL A   1      47.352  33.158  29.973  1.00  0.00     0.031 A 
ATOM     64  C   UNL A   1      46.655  33.758  27.741  1.00  0.00     0.131 A 
ATOM     65  C   UNL A   1      47.783  34.479  30.165  1.00  0.00     0.055 A 
ATOM     66  C   UNL A   1      47.123  35.060  27.922  1.00  0.00     0.041 A 
ATOM     67  F   UNL A   1      46.106  33.448  26.556  1.00  0.00    -0.206 F 
ATOM     68  C   UNL A   1      47.688  35.426  29.141  1.00  0.00     0.022 A 
BRANCH  65  69
ATOM     69  S   UNL A   1      48.462  34.954  31.777  1.00  0.00     0.124 S 
ATOM     70  O   UNL A   1      47.410  35.818  32.303  1.00  0.00    -0.237 OA
ATOM     71  O   UNL A   1      48.625  33.668  32.447  1.00  0.00    -0.237 OA
ATOM     72  O   UNL A   1      49.710  35.634  31.436  1.00  0.00    -0.744 OA
ENDBRANCH  65  69
ENDBRANCH  39  62
ENDBRANCH  13  14
ENDBRANCH   6   8
ENDBRANCH   3   4
ENDBRANCH   2   3
ENDBRANCH   1   2
BRANCH   1  73
ATOM     73  C   UNL A   1      36.031  22.152  24.941  1.00  0.00     0.002 C 
BRANCH  73  74
ATOM     74  C   UNL A   1      35.361  22.115  26.322  1.00  0.00     0.021 C 
BRANCH  74  75
ATOM     75  C   UNL A   1      34.131  21.210  26.376  1.00  0.00     0.116 C 
BRANCH  75  76
ATOM     76  N   UNL A   1      33.030  21.850  27.071  1.00  0.00    -0.356 N 
ATOM     77  C   UNL A   1      32.161  22.845  26.776  1.00  0.00     0.224 C 
ATOM     78  H   UNL A   1      32.880  21.473  27.967  1.00  0.00     0.163 HD
ATOM     79  O   UNL A   1      31.364  23.133  27.682  1.00  0.00    -0.275 OA
BRANCH  77  80
ATOM     80  C   UNL A   1      32.118  23.654  25.483  1.00  0.00     0.098 C 
ATOM     81  C   UNL A   1      31.901  22.741  24.264  1.00  0.00     0.017 C 
ATOM     82  C   UNL A   1      31.164  24.828  25.412  1.00  0.00     0.131 C 
ATOM     83  C   UNL A   1      31.990  23.533  22.948  1.00  0.00     0.022 C 
ATOM     84  N   UNL A   1      31.338  25.530  24.145  1.00  0.00    -0.356 N 
ATOM     85  C   UNL A   1      31.086  24.775  22.933  1.00  0.00     0.118 C 
BRANCH  84  86
ATOM     86  C   UNL A   1      31.310  26.900  24.225  1.00  0.00     0.133 A 
ATOM     87  C   UNL A   1      30.445  27.675  23.487  1.00  0.00     0.077 A 
ATOM     88  N   UNL A   1      32.129  27.444  25.137  1.00  0.00    -0.211 NA
ATOM     89  C   UNL A   1      30.431  29.033  23.758  1.00  0.00     0.095 A 
ATOM     90  C   UNL A   1      32.078  28.772  25.317  1.00  0.00     0.165 A 
ATOM     91  N   UNL A   1      31.255  29.599  24.668  1.00  0.00    -0.226 NA
BRANCH  89  92
ATOM     92  C   UNL A   1      29.473  29.937  23.107  1.00  0.00     0.089 A 
ATOM     93  C   UNL A   1      29.049  31.114  23.727  1.00  0.00     0.030 A 
ATOM     94  N   UNL A   1      29.037  29.569  21.873  1.00  0.00    -0.255 NA
ATOM     95  C   UNL A   1      28.167  31.953  23.054  1.00  0.00     0.004 A 
ATOM     96  C   UNL A   1      28.197  30.416  21.239  1.00  0.00     0.112 A 
ATOM     97  C   UNL A   1      27.735  31.603  21.781  1.00  0.00     0.020 A 
ENDBRANCH  89  92
BRANCH  90  98
ATOM     98  C   UNL A   1      33.049  29.335  26.248  1.00  0.00     0.055 A 
ATOM     99  C   UNL A   1      32.878  30.639  26.755  1.00  0.00     0.015 A 
ATOM    100  C   UNL A   1      34.186  28.628  26.646  1.00  0.00     0.134 A 
ATOM    101  C   UNL A   1      33.804  31.199  27.639  1.00  0.00     0.001 A 
ATOM    102  C   UNL A   1      35.119  29.184  27.523  1.00  0.00     0.040 A 
ATOM    103  F   UNL A   1      34.434  27.404  26.157  1.00  0.00    -0.206 F 
ATOM    104  C   UNL A   1      34.926  30.470  28.024  1.00  0.00     0.003 A 
ENDBRANCH  90  98
ENDBRANCH  84  86
ENDBRANCH  77  80
ENDBRANCH  75  76
ENDBRANCH  74  75
ENDBRANCH  73  74
ENDBRANCH   1  73
TORSDOF 19
ENDMDL
MODEL 2
REMARK VINA RESULT:     -12.2      4.200      9.468
REMARK SMILES O=C(NCCCCCCNC(=O)[C@H]1CCCN(c2cc(-c3ccccn3)nc(-c3ccccc3F)n2)C1)c1ccc(-c2c3nc(c(-c4cc(S(=O)(=O)[O-])ccc4F)c4ccc([nH]4)c(-c4cc(S(=O)(=O)[O-])ccc4F)c4nc(c(-c5cc(S(=O)(=O)[O-])ccc5F)c5ccc2[nH]5)C=C4)C=C3)cc1
REMARK SMILES IDX 6 1 5 2 4 3 3 4 1 5 2 6 38 8 39 9 100 10 40 11 99 12 41 13
REMARK SMILES IDX 42 14 43 15 93 16 44 17 98 18 92 19 94 20 45 21 97 22 91 23
REMARK SMILES IDX 90 24 46 26 78 27 58 28 77 29 59 30 62 31 76 32 95 33 60 34
REMARK SMILES IDX 61 35 75 37 96 38 63 39 47 40 48 41 56 42 49 43 55 44 57 45
REMARK SMILES IDX 54 46 50 47 51 48 52 49 53 50 79 51 80 52 88 53 81 54 87 55
REMARK SMILES IDX 89 56 86 57 82 58 83 59 84 60 85 61 64 62 65 63 73 64 66 65
REMARK SMILES IDX 72 66 74 67 71 68 67 69 68 70 69 71 70 72 7 73 8 74 9 75
REMARK SMILES IDX 10 76 11 77 12 79 13 80 14 81 37 82 15 83 17 84 16 85 18 86
REMARK SMILES IDX 19 87 36 88 20 89 28 90 27 91 21 92 22 93 26 94 23 95 25 96
REMARK SMILES IDX 24 97 29 98 30 99 34 100 31 101 33 102 35 103 32 104
REMARK H PARENT 3 7 94 25 62 36 10 78
REMARK Flexibility Score: inf
ROOT
ATOM      1  C   UNL A   1      37.983  24.429  26.505  1.00  0.00     0.002 C 
ENDROOT
BRANCH   1   2
ATOM      2  C   UNL A   1      39.408  24.277  27.038  1.00  0.00     0.021 C 
BRANCH   2   3
ATOM      3  C   UNL A   1      40.296  25.492  26.806  1.00  0.00     0.116 C 
BRANCH   3   4
ATOM      4  N   UNL A   1      41.500  25.154  26.063  1.00  0.00    -0.352 N 
ATOM      5  O   UNL A   1      43.434  25.571  24.981  1.00  0.00    -0.269 OA
ATOM      6  C   UNL A   1      42.592  25.943  25.786  1.00  0.00     0.251 C 
ATOM      7  H   UNL A   1      41.537  24.235  25.711  1.00  0.00     0.163 HD
BRANCH   6   8
ATOM      8  C   UNL A   1      42.730  27.251  26.464  1.00  0.00     0.039 A 
ATOM      9  C   UNL A   1      43.551  27.377  27.587  1.00  0.00     0.014 A 
ATOM     10  C   UNL A   1      42.038  28.362  25.971  1.00  0.00     0.014 A 
ATOM     11  C   UNL A   1      43.572  28.570  28.294  1.00  0.00     0.010 A 
ATOM     12  C   UNL A   1      42.136  29.591  26.633  1.00  0.00     0.010 A 
ATOM     13  C   UNL A   1      42.887  29.698  27.812  1.00  0.00    -0.014 A 
BRANCH  13  14
ATOM     14  C   UNL A   1      43.059  30.989  28.527  1.00  0.00     0.031 A 
ATOM     15  C   UNL A   1      42.313  31.293  29.794  1.00  0.00     0.074 A 
ATOM     16  C   UNL A   1      43.965  31.862  28.044  1.00  0.00     0.049 A 
ATOM     17  N   UNL A   1      42.426  32.333  30.580  1.00  0.00    -0.248 NA
ATOM     18  C   UNL A   1      41.308  30.314  30.234  1.00  0.00     0.031 C 
ATOM     19  C   UNL A   1      44.737  31.669  26.812  1.00  0.00     0.029 A 
ATOM     20  N   UNL A   1      44.430  33.051  28.542  1.00  0.00    -0.354 N 
ATOM     21  C   UNL A   1      41.496  32.149  31.596  1.00  0.00     0.074 A 
ATOM     22  C   UNL A   1      40.811  30.905  31.314  1.00  0.00     0.031 C 
ATOM     23  C   UNL A   1      45.638  32.654  26.700  1.00  0.00     0.029 A 
ATOM     24  C   UNL A   1      45.460  33.587  27.806  1.00  0.00     0.049 A 
ATOM     25  H   UNL A   1      44.062  33.479  29.349  1.00  0.00     0.167 HD
ATOM     26  C   UNL A   1      41.246  32.945  32.664  1.00  0.00     0.034 A 
ATOM     27  C   UNL A   1      46.182  34.708  27.989  1.00  0.00     0.034 A 
ATOM     28  C   UNL A   1      41.952  34.172  32.938  1.00  0.00     0.049 A 
ATOM     29  C   UNL A   1      45.873  35.582  29.168  1.00  0.00     0.074 A 
ATOM     30  C   UNL A   1      41.807  35.026  34.018  1.00  0.00     0.029 A 
ATOM     31  N   UNL A   1      42.930  34.728  32.121  1.00  0.00    -0.354 N 
ATOM     32  N   UNL A   1      44.987  35.392  30.117  1.00  0.00    -0.248 NA
ATOM     33  C   UNL A   1      46.641  36.826  29.293  1.00  0.00     0.031 C 
ATOM     34  C   UNL A   1      42.649  36.126  33.824  1.00  0.00     0.029 A 
ATOM     35  C   UNL A   1      43.370  35.928  32.658  1.00  0.00     0.049 A 
ATOM     36  H   UNL A   1      43.261  34.328  31.286  1.00  0.00     0.167 HD
ATOM     37  C   UNL A   1      45.090  36.494  30.956  1.00  0.00     0.074 A 
ATOM     38  C   UNL A   1      46.133  37.339  30.407  1.00  0.00     0.031 C 
ATOM     39  C   UNL A   1      44.389  36.774  32.081  1.00  0.00     0.034 A 
BRANCH  26  40
ATOM     40  C   UNL A   1      40.138  32.534  33.601  1.00  0.00     0.023 A 
ATOM     41  C   UNL A   1      38.853  33.094  33.519  1.00  0.00     0.031 A 
ATOM     42  C   UNL A   1      40.370  31.551  34.580  1.00  0.00     0.131 A 
ATOM     43  C   UNL A   1      37.861  32.704  34.432  1.00  0.00     0.055 A 
ATOM     44  C   UNL A   1      39.361  31.121  35.444  1.00  0.00     0.041 A 
ATOM     45  F   UNL A   1      41.583  30.992  34.713  1.00  0.00    -0.206 F 
ATOM     46  C   UNL A   1      38.099  31.706  35.380  1.00  0.00     0.022 A 
BRANCH  43  47
ATOM     47  S   UNL A   1      36.279  33.589  34.421  1.00  0.00     0.124 S 
ATOM     48  O   UNL A   1      36.640  34.825  33.731  1.00  0.00    -0.237 OA
ATOM     49  O   UNL A   1      35.413  32.676  33.682  1.00  0.00    -0.237 OA
ATOM     50  O   UNL A   1      35.962  33.741  35.839  1.00  0.00    -0.744 OA
ENDBRANCH  43  47
ENDBRANCH  26  40
BRANCH  27  51
ATOM     51  C   UNL A   1      47.245  35.054  27.010  1.00  0.00     0.023 A 
ATOM     52  C   UNL A   1      48.392  34.257  26.874  1.00  0.00     0.031 A 
ATOM     53  C   UNL A   1      47.084  36.145  26.138  1.00  0.00     0.131 A 
ATOM     54  C   UNL A   1      49.336  34.563  25.881  1.00  0.00     0.055 A 
ATOM     55  C   UNL A   1      48.007  36.425  25.132  1.00  0.00     0.041 A 
ATOM     56  F   UNL A   1      45.991  36.921  26.220  1.00  0.00    -0.206 F 
ATOM     57  C   UNL A   1      49.142  35.632  24.999  1.00  0.00     0.022 A 
BRANCH  54  58
ATOM     58  S   UNL A   1      50.820  33.532  25.739  1.00  0.00     0.124 S 
ATOM     59  O   UNL A   1      50.301  32.215  26.086  1.00  0.00    -0.237 OA
ATOM     60  O   UNL A   1      51.198  33.726  24.342  1.00  0.00    -0.237 OA
ATOM     61  O   UNL A   1      51.737  34.120  26.714  1.00  0.00    -0.744 OA
ENDBRANCH  54  58
ENDBRANCH  27  51
BRANCH  39  62
ATOM     62  C   UNL A   1      44.730  38.046  32.806  1.00  0.00     0.023 A 
ATOM     63  C   UNL A   1      43.915  39.184  32.708  1.00  0.00     0.031 A 
ATOM     64  C   UNL A   1      45.858  38.099  33.643  1.00  0.00     0.131 A 
ATOM     65  C   UNL A   1      44.251  40.343  33.424  1.00  0.00     0.055 A 
ATOM     66  C   UNL A   1      46.165  39.241  34.384  1.00  0.00     0.041 A 
ATOM     67  F   UNL A   1      46.666  37.034  33.768  1.00  0.00    -0.206 F 
ATOM     68  C   UNL A   1      45.360  40.372  34.274  1.00  0.00     0.022 A 
BRANCH  65  69
ATOM     69  S   UNL A   1      43.226  41.825  33.223  1.00  0.00     0.124 S 
ATOM     70  O   UNL A   1      43.837  42.744  34.177  1.00  0.00    -0.237 OA
ATOM     71  O   UNL A   1      43.411  42.153  31.813  1.00  0.00    -0.237 OA
ATOM     72  O   UNL A   1      41.885  41.364  33.577  1.00  0.00    -0.744 OA
ENDBRANCH  65  69
ENDBRANCH  39  62
ENDBRANCH  13  14
ENDBRANCH   6   8
ENDBRANCH   3   4
ENDBRANCH   2   3
ENDBRANCH   1   2
BRANCH   1  73
ATOM     73  C   UNL A   1      37.429  23.213  25.747  1.00  0.00     0.002 C 
BRANCH  73  74
ATOM     74  C   UNL A   1      35.899  23.137  25.652  1.00  0.00     0.021 C 
BRANCH  74  75
ATOM     75  C   UNL A   1      35.238  24.492  25.407  1.00  0.00     0.116 C 
BRANCH  75  76
ATOM     76  N   UNL A   1      33.829  24.466  25.752  1.00  0.00    -0.356 N 
ATOM     77  C   UNL A   1      32.848  25.395  25.844  1.00  0.00     0.224 C 
ATOM     78  H   UNL A   1      33.511  23.561  25.970  1.00  0.00     0.163 HD
ATOM     79  O   UNL A   1      31.748  24.963  26.219  1.00  0.00    -0.275 OA
BRANCH  77  80
ATOM     80  C   UNL A   1      32.994  26.892  25.588  1.00  0.00     0.098 C 
ATOM     81  C   UNL A   1      32.016  27.367  24.500  1.00  0.00     0.017 C 
ATOM     82  C   UNL A   1      32.920  27.826  26.778  1.00  0.00     0.131 C 
ATOM     83  C   UNL A   1      32.250  28.845  24.143  1.00  0.00     0.022 C 
ATOM     84  N   UNL A   1      33.179  29.196  26.348  1.00  0.00    -0.356 N 
ATOM     85  C   UNL A   1      32.268  29.764  25.373  1.00  0.00     0.118 C 
BRANCH  84  86
ATOM     86  C   UNL A   1      33.975  29.933  27.187  1.00  0.00     0.133 A 
ATOM     87  C   UNL A   1      33.659  31.212  27.587  1.00  0.00     0.077 A 
ATOM     88  N   UNL A   1      35.054  29.299  27.669  1.00  0.00    -0.211 NA
ATOM     89  C   UNL A   1      34.482  31.795  28.537  1.00  0.00     0.095 A 
ATOM     90  C   UNL A   1      35.818  29.945  28.562  1.00  0.00     0.165 A 
ATOM     91  N   UNL A   1      35.577  31.173  29.026  1.00  0.00    -0.226 NA
BRANCH  89  92
ATOM     92  C   UNL A   1      34.177  33.111  29.113  1.00  0.00     0.089 A 
ATOM     93  C   UNL A   1      34.599  33.456  30.398  1.00  0.00     0.030 A 
ATOM     94  N   UNL A   1      33.477  33.969  28.325  1.00  0.00    -0.255 NA
ATOM     95  C   UNL A   1      34.314  34.729  30.885  1.00  0.00     0.004 A 
ATOM     96  C   UNL A   1      33.235  35.203  28.820  1.00  0.00     0.112 A 
ATOM     97  C   UNL A   1      33.624  35.624  30.079  1.00  0.00     0.020 A 
ENDBRANCH  89  92
BRANCH  90  98
ATOM     98  C   UNL A   1      37.033  29.259  28.989  1.00  0.00     0.055 A 
ATOM     99  C   UNL A   1      38.015  28.893  28.047  1.00  0.00     0.015 A 
ATOM    100  C   UNL A   1      37.254  28.914  30.325  1.00  0.00     0.134 A 
ATOM    101  C   UNL A   1      39.179  28.226  28.437  1.00  0.00     0.001 A 
ATOM    102  C   UNL A   1      38.411  28.242  30.721  1.00  0.00     0.040 A 
ATOM    103  F   UNL A   1      36.333  29.186  31.261  1.00  0.00    -0.206 F 
ATOM    104  C   UNL A   1      39.378  27.901  29.776  1.00  0.00     0.003 A 
ENDBRANCH  90  98
ENDBRANCH  84  86
ENDBRANCH  77  80
ENDBRANCH  75  76
ENDBRANCH  74  75
ENDBRANCH  73  74
ENDBRANCH   1  73
TORSDOF 19
ENDMDL
MODEL 3
REMARK VINA RESULT:     -12.2      4.647     10.970
REMARK SMILES O=C(NCCCCCCNC(=O)[C@H]1CCCN(c2cc(-c3ccccn3)nc(-c3ccccc3F)n2)C1)c1ccc(-c2c3nc(c(-c4cc(S(=O)(=O)[O-])ccc4F)c4ccc([nH]4)c(-c4cc(S(=O)(=O)[O-])ccc4F)c4nc(c(-c5cc(S(=O)(=O)[O-])ccc5F)c5ccc2[nH]5)C=C4)C=C3)cc1
REMARK SMILES IDX 6 1 5 2 4 3 3 4 1 5 2 6 38 8 39 9 100 10 40 11 99 12 41 13
REMARK SMILES IDX 42 14 43 15 93 16 44 17 98 18 92 19 94 20 45 21 97 22 91 23
REMARK SMILES IDX 90 24 46 26 78 27 58 28 77 29 59 30 62 31 76 32 95 33 60 34
REMARK SMILES IDX 61 35 75 37 96 38 63 39 47 40 48 41 56 42 49 43 55 44 57 45
REMARK SMILES IDX 54 46 50 47 51 48 52 49 53 50 79 51 80 52 88 53 81 54 87 55
REMARK SMILES IDX 89 56 86 57 82 58 83 59 84 60 85 61 64 62 65 63 73 64 66 65
REMARK SMILES IDX 72 66 74 67 71 68 67 69 68 70 69 71 70 72 7 73 8 74 9 75
REMARK SMILES IDX 10 76 11 77 12 79 13 80 14 81 37 82 15 83 17 84 16 85 18 86
REMARK SMILES IDX 19 87 36 88 20 89 28 90 27 91 21 92 22 93 26 94 23 95 25 96
REMARK SMILES IDX 24 97 29 98 30 99 34 100 31 101 33 102 35 103 32 104
REMARK H PARENT 3 7 94 25 62 36 10 78
REMARK Flexibility Score: inf
ROOT
ATOM      1  C   UNL A   1      31.471  28.535  25.642  1.00  0.00     0.002 C 
ENDROOT
BRANCH   1   2
ATOM      2  C   UNL A   1      32.895  28.056  25.359  1.00  0.00     0.021 C 
BRANCH   2   3
ATOM      3  C   UNL A   1      33.983  28.991  25.870  1.00  0.00     0.116 C 
BRANCH   3   4
ATOM      4  N   UNL A   1      33.476  30.330  26.125  1.00  0.00    -0.352 N 
ATOM      5  O   UNL A   1      33.178  32.226  27.310  1.00  0.00    -0.269 OA
ATOM      6  C   UNL A   1      33.841  31.218  27.112  1.00  0.00     0.251 C 
ATOM      7  H   UNL A   1      32.775  30.643  25.508  1.00  0.00     0.163 HD
BRANCH   6   8
ATOM      8  C   UNL A   1      35.036  30.931  27.935  1.00  0.00     0.039 A 
ATOM      9  C   UNL A   1      36.035  31.895  28.082  1.00  0.00     0.014 A 
ATOM     10  C   UNL A   1      35.157  29.691  28.571  1.00  0.00     0.014 A 
ATOM     11  C   UNL A   1      37.211  31.574  28.744  1.00  0.00     0.010 A 
ATOM     12  C   UNL A   1      36.304  29.403  29.319  1.00  0.00     0.010 A 
ATOM     13  C   UNL A   1      37.349  30.335  29.393  1.00  0.00    -0.014 A 
BRANCH  13  14
ATOM     14  C   UNL A   1      38.567  30.096  30.209  1.00  0.00     0.031 A 
ATOM     15  C   UNL A   1      38.685  30.605  31.616  1.00  0.00     0.074 A 
ATOM     16  C   UNL A   1      39.547  29.340  29.674  1.00  0.00     0.049 A 
ATOM     17  N   UNL A   1      39.644  30.398  32.484  1.00  0.00    -0.248 NA
ATOM     18  C   UNL A   1      37.598  31.461  32.116  1.00  0.00     0.031 C 
ATOM     19  C   UNL A   1      39.537  28.805  28.309  1.00  0.00     0.029 A 
ATOM     20  N   UNL A   1      40.707  28.850  30.213  1.00  0.00    -0.354 N 
ATOM     21  C   UNL A   1      39.291  31.112  33.623  1.00  0.00     0.074 A 
ATOM     22  C   UNL A   1      38.037  31.775  33.328  1.00  0.00     0.031 C 
ATOM     23  C   UNL A   1      40.589  27.990  28.149  1.00  0.00     0.029 A 
ATOM     24  C   UNL A   1      41.387  28.004  29.369  1.00  0.00     0.049 A 
ATOM     25  H   UNL A   1      41.023  29.081  31.117  1.00  0.00     0.167 HD
ATOM     26  C   UNL A   1      39.952  31.196  34.803  1.00  0.00     0.034 A 
ATOM     27  C   UNL A   1      42.531  27.317  29.546  1.00  0.00     0.034 A 
ATOM     28  C   UNL A   1      41.190  30.513  35.083  1.00  0.00     0.049 A 
ATOM     29  C   UNL A   1      43.254  27.442  30.854  1.00  0.00     0.074 A 
ATOM     30  C   UNL A   1      41.915  30.495  36.263  1.00  0.00     0.029 A 
ATOM     31  N   UNL A   1      41.894  29.734  34.173  1.00  0.00    -0.354 N 
ATOM     32  N   UNL A   1      42.905  28.124  31.920  1.00  0.00    -0.248 NA
ATOM     33  C   UNL A   1      44.529  26.726  30.980  1.00  0.00     0.031 C 
ATOM     34  C   UNL A   1      43.086  29.759  36.047  1.00  0.00     0.029 A 
ATOM     35  C   UNL A   1      43.060  29.261  34.755  1.00  0.00     0.049 A 
ATOM     36  H   UNL A   1      41.607  29.546  33.251  1.00  0.00     0.167 HD
ATOM     37  C   UNL A   1      43.918  27.920  32.847  1.00  0.00     0.074 A 
ATOM     38  C   UNL A   1      44.887  27.042  32.219  1.00  0.00     0.031 C 
ATOM     39  C   UNL A   1      44.031  28.411  34.105  1.00  0.00     0.034 A 
BRANCH  26  40
ATOM     40  C   UNL A   1      39.369  32.087  35.871  1.00  0.00     0.023 A 
ATOM     41  C   UNL A   1      39.791  33.416  36.037  1.00  0.00     0.031 A 
ATOM     42  C   UNL A   1      38.362  31.600  36.724  1.00  0.00     0.131 A 
ATOM     43  C   UNL A   1      39.243  34.199  37.065  1.00  0.00     0.055 A 
ATOM     44  C   UNL A   1      37.776  32.404  37.704  1.00  0.00     0.041 A 
ATOM     45  F   UNL A   1      37.932  30.334  36.619  1.00  0.00    -0.206 F 
ATOM     46  C   UNL A   1      38.223  33.710  37.886  1.00  0.00     0.022 A 
BRANCH  43  47
ATOM     47  S   UNL A   1      39.951  35.839  37.373  1.00  0.00     0.124 S 
ATOM     48  O   UNL A   1      39.653  36.527  36.119  1.00  0.00    -0.237 OA
ATOM     49  O   UNL A   1      39.201  36.290  38.541  1.00  0.00    -0.237 OA
ATOM     50  O   UNL A   1      41.366  35.563  37.607  1.00  0.00    -0.744 OA
ENDBRANCH  43  47
ENDBRANCH  26  40
BRANCH  27  51
ATOM     51  C   UNL A   1      43.050  26.474  28.437  1.00  0.00     0.023 A 
ATOM     52  C   UNL A   1      44.031  26.957  27.559  1.00  0.00     0.031 A 
ATOM     53  C   UNL A   1      42.624  25.141  28.295  1.00  0.00     0.131 A 
ATOM     54  C   UNL A   1      44.561  26.106  26.576  1.00  0.00     0.055 A 
ATOM     55  C   UNL A   1      43.177  24.291  27.339  1.00  0.00     0.041 A 
ATOM     56  F   UNL A   1      41.701  24.633  29.127  1.00  0.00    -0.206 F 
ATOM     57  C   UNL A   1      44.152  24.773  26.472  1.00  0.00     0.022 A 
BRANCH  54  58
ATOM     58  S   UNL A   1      45.814  26.759  25.440  1.00  0.00     0.124 S 
ATOM     59  O   UNL A   1      46.852  27.199  26.363  1.00  0.00    -0.237 OA
ATOM     60  O   UNL A   1      46.132  25.588  24.626  1.00  0.00    -0.237 OA
ATOM     61  O   UNL A   1      45.110  27.827  24.734  1.00  0.00    -0.744 OA
ENDBRANCH  54  58
ENDBRANCH  27  51
BRANCH  39  62
ATOM     62  C   UNL A   1      45.241  28.003  34.897  1.00  0.00     0.023 A 
ATOM     63  C   UNL A   1      45.231  26.863  35.714  1.00  0.00     0.031 A 
ATOM     64  C   UNL A   1      46.434  28.739  34.789  1.00  0.00     0.131 A 
ATOM     65  C   UNL A   1      46.390  26.498  36.414  1.00  0.00     0.055 A 
ATOM     66  C   UNL A   1      47.597  28.350  35.455  1.00  0.00     0.041 A 
ATOM     67  F   UNL A   1      46.492  29.836  34.017  1.00  0.00    -0.206 F 
ATOM     68  C   UNL A   1      47.577  27.224  36.275  1.00  0.00     0.022 A 
BRANCH  65  69
ATOM     69  S   UNL A   1      46.330  25.066  37.524  1.00  0.00     0.124 S 
ATOM     70  O   UNL A   1      47.366  24.207  36.960  1.00  0.00    -0.237 OA
ATOM     71  O   UNL A   1      46.630  25.656  38.824  1.00  0.00    -0.237 OA
ATOM     72  O   UNL A   1      44.963  24.572  37.371  1.00  0.00    -0.744 OA
ENDBRANCH  65  69
ENDBRANCH  39  62
ENDBRANCH  13  14
ENDBRANCH   6   8
ENDBRANCH   3   4
ENDBRANCH   2   3
ENDBRANCH   1   2
BRANCH   1  73
ATOM     73  C   UNL A   1      30.639  28.896  24.402  1.00  0.00     0.002 C 
BRANCH  73  74
ATOM     74  C   UNL A   1      30.384  27.742  23.422  1.00  0.00     0.021 C 
BRANCH  74  75
ATOM     75  C   UNL A   1      29.222  26.840  23.836  1.00  0.00     0.116 C 
BRANCH  75  76
ATOM     76  N   UNL A   1      29.555  26.046  25.003  1.00  0.00    -0.356 N 
ATOM     77  C   UNL A   1      30.439  25.055  25.267  1.00  0.00     0.224 C 
ATOM     78  H   UNL A   1      29.010  26.283  25.788  1.00  0.00     0.163 HD
ATOM     79  O   UNL A   1      30.386  24.596  26.418  1.00  0.00    -0.275 OA
BRANCH  77  80
ATOM     80  C   UNL A   1      31.424  24.437  24.280  1.00  0.00     0.098 C 
ATOM     81  C   UNL A   1      31.384  25.165  22.926  1.00  0.00     0.017 C 
ATOM     82  C   UNL A   1      32.863  24.271  24.724  1.00  0.00     0.131 C 
ATOM     83  C   UNL A   1      32.276  24.463  21.887  1.00  0.00     0.022 C 
ATOM     84  N   UNL A   1      33.622  23.577  23.690  1.00  0.00    -0.356 N 
ATOM     85  C   UNL A   1      33.706  24.218  22.392  1.00  0.00     0.118 C 
BRANCH  84  86
ATOM     86  C   UNL A   1      34.504  22.631  24.146  1.00  0.00     0.133 A 
ATOM     87  C   UNL A   1      35.773  22.940  24.585  1.00  0.00     0.077 A 
ATOM     88  N   UNL A   1      34.027  21.380  24.219  1.00  0.00    -0.211 NA
ATOM     89  C   UNL A   1      36.514  21.910  25.140  1.00  0.00     0.095 A 
ATOM     90  C   UNL A   1      34.820  20.432  24.740  1.00  0.00     0.165 A 
ATOM     91  N   UNL A   1      36.051  20.642  25.213  1.00  0.00    -0.226 NA
BRANCH  89  92
ATOM     92  C   UNL A   1      37.835  22.149  25.737  1.00  0.00     0.089 A 
ATOM     93  C   UNL A   1      38.168  23.386  26.291  1.00  0.00     0.030 A 
ATOM     94  N   UNL A   1      38.700  21.101  25.728  1.00  0.00    -0.255 NA
ATOM     95  C   UNL A   1      39.420  23.551  26.875  1.00  0.00     0.004 A 
ATOM     96  C   UNL A   1      39.900  21.288  26.321  1.00  0.00     0.112 A 
ATOM     97  C   UNL A   1      40.304  22.480  26.898  1.00  0.00     0.020 A 
ENDBRANCH  89  92
BRANCH  90  98
ATOM     98  C   UNL A   1      34.302  19.069  24.714  1.00  0.00     0.055 A 
ATOM     99  C   UNL A   1      35.122  18.001  24.301  1.00  0.00     0.015 A 
ATOM    100  C   UNL A   1      32.981  18.776  25.064  1.00  0.00     0.134 A 
ATOM    101  C   UNL A   1      34.639  16.691  24.260  1.00  0.00     0.001 A 
ATOM    102  C   UNL A   1      32.489  17.470  25.019  1.00  0.00     0.040 A 
ATOM    103  F   UNL A   1      32.134  19.755  25.414  1.00  0.00    -0.206 F 
ATOM    104  C   UNL A   1      33.320  16.425  24.620  1.00  0.00     0.003 A 
ENDBRANCH  90  98
ENDBRANCH  84  86
ENDBRANCH  77  80
ENDBRANCH  75  76
ENDBRANCH  74  75
ENDBRANCH  73  74
ENDBRANCH   1  73
TORSDOF 19
ENDMDL
