MODEL 1
REMARK VINA RESULT:     -11.5      0.000      0.000
REMARK SMILES O=C(NCCCCCCNC(=O)c1ccc(OC[C@H]2C[C@H]3CC[C@@H]2C3)c(Cl)c1)c1ccc(-c2c3nc(c(-c4cc(S(=O)(=O)[O-])ccc4F)c4ccc([nH]4)c(-c4cc(S(=O)(=O)[O-])ccc4F)c4nc(c(-c5cc(S(=O)(=O)[O-])ccc5F)c5ccc2[nH]5)C=C4)C=C3)cc1
REMARK SMILES IDX 6 1 5 2 4 3 3 4 1 5 2 6 29 8 30 9 91 10 31 11 90 12 32 13
REMARK SMILES IDX 33 14 34 15 84 16 35 17 89 18 83 19 85 20 36 21 88 22 82 23
REMARK SMILES IDX 81 24 37 26 69 27 49 28 68 29 50 30 53 31 67 32 86 33 51 34
REMARK SMILES IDX 52 35 66 37 87 38 54 39 38 40 39 41 47 42 40 43 46 44 48 45
REMARK SMILES IDX 45 46 41 47 42 48 43 49 44 50 70 51 71 52 79 53 72 54 78 55
REMARK SMILES IDX 80 56 77 57 73 58 74 59 75 60 76 61 55 62 56 63 64 64 57 65
REMARK SMILES IDX 63 66 65 67 62 68 58 69 59 70 60 71 61 72 7 73 8 74 9 75
REMARK SMILES IDX 10 76 11 77 12 79 13 80 14 81 28 82 15 83 26 84 16 85 27 86
REMARK SMILES IDX 17 87 18 88 19 89 20 90 24 91 21 92 23 93 25 94 22 95
REMARK H PARENT 3 7 85 25 53 36 10 78
REMARK Flexibility Score: inf
ROOT
ATOM      1  C   UNL A   1      31.844  30.264  26.973  1.00  0.00     0.002 C 
ENDROOT
BRANCH   1   2
ATOM      2  C   UNL A   1      31.661  31.774  26.808  1.00  0.00     0.021 C 
BRANCH   2   3
ATOM      3  C   UNL A   1      32.923  32.606  27.001  1.00  0.00     0.116 C 
BRANCH   3   4
ATOM      4  N   UNL A   1      32.647  33.909  27.579  1.00  0.00    -0.352 N 
ATOM      5  O   UNL A   1      32.733  35.546  29.124  1.00  0.00    -0.269 OA
ATOM      6  C   UNL A   1      33.203  34.498  28.688  1.00  0.00     0.251 C 
ATOM      7  H   UNL A   1      31.967  34.446  27.111  1.00  0.00     0.163 HD
BRANCH   6   8
ATOM      8  C   UNL A   1      34.355  33.861  29.366  1.00  0.00     0.039 A 
ATOM      9  C   UNL A   1      34.166  32.818  30.277  1.00  0.00     0.014 A 
ATOM     10  C   UNL A   1      35.646  34.303  29.065  1.00  0.00     0.014 A 
ATOM     11  C   UNL A   1      35.255  32.292  30.966  1.00  0.00     0.010 A 
ATOM     12  C   UNL A   1      36.745  33.727  29.708  1.00  0.00     0.010 A 
ATOM     13  C   UNL A   1      36.557  32.733  30.680  1.00  0.00    -0.014 A 
BRANCH  13  14
ATOM     14  C   UNL A   1      37.712  32.095  31.360  1.00  0.00     0.031 A 
ATOM     15  C   UNL A   1      38.479  30.982  30.702  1.00  0.00     0.074 A 
ATOM     16  C   UNL A   1      38.066  32.533  32.583  1.00  0.00     0.049 A 
ATOM     17  N   UNL A   1      39.508  30.309  31.154  1.00  0.00    -0.248 NA
ATOM     18  C   UNL A   1      38.025  30.564  29.370  1.00  0.00     0.031 C 
ATOM     19  C   UNL A   1      37.377  33.592  33.327  1.00  0.00     0.029 A 
ATOM     20  N   UNL A   1      39.084  32.150  33.418  1.00  0.00    -0.354 N 
ATOM     21  C   UNL A   1      39.817  29.376  30.171  1.00  0.00     0.074 A 
ATOM     22  C   UNL A   1      38.843  29.552  29.112  1.00  0.00     0.031 C 
ATOM     23  C   UNL A   1      38.004  33.787  34.496  1.00  0.00     0.029 A 
ATOM     24  C   UNL A   1      39.103  32.834  34.609  1.00  0.00     0.049 A 
ATOM     25  H   UNL A   1      39.736  31.451  33.186  1.00  0.00     0.167 HD
ATOM     26  C   UNL A   1      40.824  28.466  30.152  1.00  0.00     0.034 A 
ATOM     27  C   UNL A   1      39.900  32.697  35.686  1.00  0.00     0.034 A 
ATOM     28  C   UNL A   1      41.784  28.307  31.219  1.00  0.00     0.049 A 
ATOM     29  C   UNL A   1      40.994  31.668  35.653  1.00  0.00     0.074 A 
ATOM     30  C   UNL A   1      42.874  27.454  31.282  1.00  0.00     0.029 A 
ATOM     31  N   UNL A   1      41.762  29.005  32.422  1.00  0.00    -0.354 N 
ATOM     32  N   UNL A   1      41.297  30.820  34.697  1.00  0.00    -0.248 NA
ATOM     33  C   UNL A   1      41.856  31.582  36.837  1.00  0.00     0.031 C 
ATOM     34  C   UNL A   1      43.470  27.592  32.542  1.00  0.00     0.029 A 
ATOM     35  C   UNL A   1      42.796  28.578  33.243  1.00  0.00     0.049 A 
ATOM     36  H   UNL A   1      41.108  29.702  32.656  1.00  0.00     0.167 HD
ATOM     37  C   UNL A   1      42.393  30.102  35.164  1.00  0.00     0.074 A 
ATOM     38  C   UNL A   1      42.708  30.634  36.476  1.00  0.00     0.031 C 
ATOM     39  C   UNL A   1      43.078  29.097  34.562  1.00  0.00     0.034 A 
BRANCH  26  40
ATOM     40  C   UNL A   1      40.904  27.547  28.957  1.00  0.00     0.023 A 
ATOM     41  C   UNL A   1      41.865  27.726  27.945  1.00  0.00     0.031 A 
ATOM     42  C   UNL A   1      39.986  26.492  28.810  1.00  0.00     0.131 A 
ATOM     43  C   UNL A   1      41.839  26.914  26.801  1.00  0.00     0.055 A 
ATOM     44  C   UNL A   1      40.013  25.639  27.704  1.00  0.00     0.041 A 
ATOM     45  F   UNL A   1      39.035  26.280  29.733  1.00  0.00    -0.206 F 
ATOM     46  C   UNL A   1      40.933  25.858  26.683  1.00  0.00     0.022 A 
BRANCH  43  47
ATOM     47  S   UNL A   1      42.912  27.350  25.404  1.00  0.00     0.124 S 
ATOM     48  O   UNL A   1      42.978  26.087  24.672  1.00  0.00    -0.237 OA
ATOM     49  O   UNL A   1      42.166  28.424  24.756  1.00  0.00    -0.237 OA
ATOM     50  O   UNL A   1      44.161  27.755  26.043  1.00  0.00    -0.744 OA
ENDBRANCH  43  47
ENDBRANCH  26  40
BRANCH  27  51
ATOM     51  C   UNL A   1      39.658  33.531  36.895  1.00  0.00     0.023 A 
ATOM     52  C   UNL A   1      39.063  32.992  38.044  1.00  0.00     0.031 A 
ATOM     53  C   UNL A   1      40.030  34.888  36.911  1.00  0.00     0.131 A 
ATOM     54  C   UNL A   1      38.835  33.814  39.159  1.00  0.00     0.055 A 
ATOM     55  C   UNL A   1      39.839  35.690  38.036  1.00  0.00     0.041 A 
ATOM     56  F   UNL A   1      40.612  35.444  35.837  1.00  0.00    -0.206 F 
ATOM     57  C   UNL A   1      39.230  35.154  39.167  1.00  0.00     0.022 A 
BRANCH  54  58
ATOM     58  S   UNL A   1      37.968  33.116  40.591  1.00  0.00     0.124 S 
ATOM     59  O   UNL A   1      38.149  34.162  41.590  1.00  0.00    -0.237 OA
ATOM     60  O   UNL A   1      36.614  32.950  40.073  1.00  0.00    -0.237 OA
ATOM     61  O   UNL A   1      38.689  31.872  40.851  1.00  0.00    -0.744 OA
ENDBRANCH  54  58
ENDBRANCH  27  51
BRANCH  39  62
ATOM     62  C   UNL A   1      44.248  28.530  35.323  1.00  0.00     0.023 A 
ATOM     63  C   UNL A   1      44.107  27.407  36.158  1.00  0.00     0.031 A 
ATOM     64  C   UNL A   1      45.513  29.136  35.232  1.00  0.00     0.131 A 
ATOM     65  C   UNL A   1      45.200  26.958  36.913  1.00  0.00     0.055 A 
ATOM     66  C   UNL A   1      46.610  28.652  35.946  1.00  0.00     0.041 A 
ATOM     67  F   UNL A   1      45.700  30.213  34.452  1.00  0.00    -0.206 F 
ATOM     68  C   UNL A   1      46.454  27.565  36.801  1.00  0.00     0.022 A 
BRANCH  65  69
ATOM     69  S   UNL A   1      44.943  25.617  38.107  1.00  0.00     0.124 S 
ATOM     70  O   UNL A   1      44.839  26.348  39.365  1.00  0.00    -0.237 OA
ATOM     71  O   UNL A   1      43.713  24.999  37.624  1.00  0.00    -0.237 OA
ATOM     72  O   UNL A   1      46.144  24.797  37.965  1.00  0.00    -0.744 OA
ENDBRANCH  65  69
ENDBRANCH  39  62
ENDBRANCH  13  14
ENDBRANCH   6   8
ENDBRANCH   3   4
ENDBRANCH   2   3
ENDBRANCH   1   2
BRANCH   1  73
ATOM     73  C   UNL A   1      31.766  29.442  25.683  1.00  0.00     0.002 C 
BRANCH  73  74
ATOM     74  C   UNL A   1      33.103  28.916  25.146  1.00  0.00     0.021 C 
BRANCH  74  75
ATOM     75  C   UNL A   1      33.267  29.011  23.631  1.00  0.00     0.116 C 
BRANCH  75  76
ATOM     76  N   UNL A   1      31.992  29.207  22.962  1.00  0.00    -0.352 N 
ATOM     77  C   UNL A   1      31.103  28.259  22.525  1.00  0.00     0.251 C 
ATOM     78  H   UNL A   1      31.732  30.144  22.803  1.00  0.00     0.163 HD
ATOM     79  O   UNL A   1      30.045  28.557  22.000  1.00  0.00    -0.269 OA
BRANCH  77  80
ATOM     80  C   UNL A   1      31.451  26.844  22.724  1.00  0.00     0.041 A 
ATOM     81  C   UNL A   1      32.110  26.163  21.702  1.00  0.00     0.018 A 
ATOM     82  C   UNL A   1      31.049  26.192  23.890  1.00  0.00     0.038 A 
ATOM     83  C   UNL A   1      32.385  24.808  21.865  1.00  0.00     0.049 A 
ATOM     84  C   UNL A   1      31.300  24.823  24.032  1.00  0.00     0.083 A 
ATOM     85  C   UNL A   1      32.013  24.138  23.040  1.00  0.00     0.137 A 
ATOM     86  Cl  UNL A   1      30.589  24.040  25.396  1.00  0.00    -0.080 Cl
BRANCH  85  87
ATOM     87  O   UNL A   1      32.306  22.806  23.029  1.00  0.00    -0.492 OA
BRANCH  87  88
ATOM     88  C   UNL A   1      33.661  22.401  23.265  1.00  0.00     0.233 C 
BRANCH  88  89
ATOM     89  C   UNL A   1      34.337  23.021  24.499  1.00  0.00     0.030 C 
ATOM     90  C   UNL A   1      34.866  21.975  25.513  1.00  0.00     0.011 C 
ATOM     91  C   UNL A   1      35.628  23.826  24.178  1.00  0.00    -0.004 C 
ATOM     92  C   UNL A   1      36.359  22.324  25.645  1.00  0.00    -0.010 C 
ATOM     93  C   UNL A   1      36.620  22.993  23.350  1.00  0.00     0.004 C 
ATOM     94  C   UNL A   1      36.331  23.845  25.539  1.00  0.00     0.007 C 
ATOM     95  C   UNL A   1      37.078  21.920  24.344  1.00  0.00     0.004 C 
ENDBRANCH  88  89
ENDBRANCH  87  88
ENDBRANCH  85  87
ENDBRANCH  77  80
ENDBRANCH  75  76
ENDBRANCH  74  75
ENDBRANCH  73  74
ENDBRANCH   1  73
TORSDOF 19
ENDMDL
MODEL 2
REMARK VINA RESULT:     -11.5      3.289      8.733
REMARK SMILES O=C(NCCCCCCNC(=O)c1ccc(OC[C@H]2C[C@H]3CC[C@@H]2C3)c(Cl)c1)c1ccc(-c2c3nc(c(-c4cc(S(=O)(=O)[O-])ccc4F)c4ccc([nH]4)c(-c4cc(S(=O)(=O)[O-])ccc4F)c4nc(c(-c5cc(S(=O)(=O)[O-])ccc5F)c5ccc2[nH]5)C=C4)C=C3)cc1
REMARK SMILES IDX 6 1 5 2 4 3 3 4 1 5 2 6 29 8 30 9 91 10 31 11 90 12 32 13
REMARK SMILES IDX 33 14 34 15 84 16 35 17 89 18 83 19 85 20 36 21 88 22 82 23
REMARK SMILES IDX 81 24 37 26 69 27 49 28 68 29 50 30 53 31 67 32 86 33 51 34
REMARK SMILES IDX 52 35 66 37 87 38 54 39 38 40 39 41 47 42 40 43 46 44 48 45
REMARK SMILES IDX 45 46 41 47 42 48 43 49 44 50 70 51 71 52 79 53 72 54 78 55
REMARK SMILES IDX 80 56 77 57 73 58 74 59 75 60 76 61 55 62 56 63 64 64 57 65
REMARK SMILES IDX 63 66 65 67 62 68 58 69 59 70 60 71 61 72 7 73 8 74 9 75
REMARK SMILES IDX 10 76 11 77 12 79 13 80 14 81 28 82 15 83 26 84 16 85 27 86
REMARK SMILES IDX 17 87 18 88 19 89 20 90 24 91 21 92 23 93 25 94 22 95
REMARK H PARENT 3 7 85 25 53 36 10 78
REMARK Flexibility Score: inf
ROOT
ATOM      1  C   UNL A   1      31.428  27.606  26.000  1.00  0.00     0.002 C 
ENDROOT
BRANCH   1   2
ATOM      2  C   UNL A   1      32.314  27.870  27.219  1.00  0.00     0.021 C 
BRANCH   2   3
ATOM      3  C   UNL A   1      33.679  28.472  26.912  1.00  0.00     0.116 C 
BRANCH   3   4
ATOM      4  N   UNL A   1      33.669  29.924  26.953  1.00  0.00    -0.352 N 
ATOM      5  O   UNL A   1      34.324  31.978  27.605  1.00  0.00    -0.269 OA
ATOM      6  C   UNL A   1      34.576  30.778  27.531  1.00  0.00     0.251 C 
ATOM      7  H   UNL A   1      32.906  30.355  26.505  1.00  0.00     0.163 HD
BRANCH   6   8
ATOM      8  C   UNL A   1      35.846  30.250  28.078  1.00  0.00     0.039 A 
ATOM      9  C   UNL A   1      35.903  29.703  29.363  1.00  0.00     0.014 A 
ATOM     10  C   UNL A   1      36.993  30.285  27.280  1.00  0.00     0.014 A 
ATOM     11  C   UNL A   1      37.124  29.291  29.889  1.00  0.00     0.010 A 
ATOM     12  C   UNL A   1      38.206  29.810  27.786  1.00  0.00     0.010 A 
ATOM     13  C   UNL A   1      38.286  29.330  29.102  1.00  0.00    -0.014 A 
BRANCH  13  14
ATOM     14  C   UNL A   1      39.561  28.801  29.651  1.00  0.00     0.031 A 
ATOM     15  C   UNL A   1      40.260  29.493  30.786  1.00  0.00     0.074 A 
ATOM     16  C   UNL A   1      40.082  27.683  29.112  1.00  0.00     0.049 A 
ATOM     17  N   UNL A   1      41.382  29.174  31.382  1.00  0.00    -0.248 NA
ATOM     18  C   UNL A   1      39.624  30.708  31.313  1.00  0.00     0.031 C 
ATOM     19  C   UNL A   1      39.499  26.941  27.990  1.00  0.00     0.029 A 
ATOM     20  N   UNL A   1      41.212  26.974  29.427  1.00  0.00    -0.354 N 
ATOM     21  C   UNL A   1      41.597  30.154  32.344  1.00  0.00     0.074 A 
ATOM     22  C   UNL A   1      40.502  31.097  32.227  1.00  0.00     0.031 C 
ATOM     23  C   UNL A   1      40.264  25.872  27.726  1.00  0.00     0.029 A 
ATOM     24  C   UNL A   1      41.417  25.880  28.620  1.00  0.00     0.049 A 
ATOM     25  H   UNL A   1      41.819  27.225  30.160  1.00  0.00     0.167 HD
ATOM     26  C   UNL A   1      42.608  30.251  33.244  1.00  0.00     0.034 A 
ATOM     27  C   UNL A   1      42.431  24.995  28.584  1.00  0.00     0.034 A 
ATOM     28  C   UNL A   1      43.691  29.300  33.343  1.00  0.00     0.049 A 
ATOM     29  C   UNL A   1      43.551  25.134  29.575  1.00  0.00     0.074 A 
ATOM     30  C   UNL A   1      44.738  29.272  34.250  1.00  0.00     0.029 A 
ATOM     31  N   UNL A   1      43.877  28.213  32.496  1.00  0.00    -0.354 N 
ATOM     32  N   UNL A   1      43.719  26.046  30.504  1.00  0.00    -0.248 NA
ATOM     33  C   UNL A   1      44.613  24.124  29.517  1.00  0.00     0.031 C 
ATOM     34  C   UNL A   1      45.587  28.211  33.913  1.00  0.00     0.029 A 
ATOM     35  C   UNL A   1      45.037  27.533  32.837  1.00  0.00     0.049 A 
ATOM     36  H   UNL A   1      43.273  27.964  31.760  1.00  0.00     0.167 HD
ATOM     37  C   UNL A   1      44.906  25.714  31.149  1.00  0.00     0.074 A 
ATOM     38  C   UNL A   1      45.398  24.506  30.514  1.00  0.00     0.031 C 
ATOM     39  C   UNL A   1      45.531  26.347  32.173  1.00  0.00     0.034 A 
BRANCH  26  40
ATOM     40  C   UNL A   1      42.609  31.453  34.159  1.00  0.00     0.023 A 
ATOM     41  C   UNL A   1      41.910  31.456  35.380  1.00  0.00     0.031 A 
ATOM     42  C   UNL A   1      43.293  32.625  33.791  1.00  0.00     0.131 A 
ATOM     43  C   UNL A   1      41.850  32.628  36.150  1.00  0.00     0.055 A 
ATOM     44  C   UNL A   1      43.291  33.764  34.599  1.00  0.00     0.041 A 
ATOM     45  F   UNL A   1      43.964  32.689  32.630  1.00  0.00    -0.206 F 
ATOM     46  C   UNL A   1      42.553  33.776  35.779  1.00  0.00     0.022 A 
BRANCH  43  47
ATOM     47  S   UNL A   1      40.720  32.675  37.570  1.00  0.00     0.124 S 
ATOM     48  O   UNL A   1      39.621  31.833  37.105  1.00  0.00    -0.237 OA
ATOM     49  O   UNL A   1      41.538  32.121  38.642  1.00  0.00    -0.237 OA
ATOM     50  O   UNL A   1      40.395  34.093  37.702  1.00  0.00    -0.744 OA
ENDBRANCH  43  47
ENDBRANCH  26  40
BRANCH  27  51
ATOM     51  C   UNL A   1      42.443  23.929  27.545  1.00  0.00     0.023 A 
ATOM     52  C   UNL A   1      43.464  23.857  26.588  1.00  0.00     0.031 A 
ATOM     53  C   UNL A   1      41.424  22.959  27.507  1.00  0.00     0.131 A 
ATOM     54  C   UNL A   1      43.433  22.847  25.613  1.00  0.00     0.055 A 
ATOM     55  C   UNL A   1      41.420  21.932  26.563  1.00  0.00     0.041 A 
ATOM     56  F   UNL A   1      40.432  22.982  28.411  1.00  0.00    -0.206 F 
ATOM     57  C   UNL A   1      42.426  21.878  25.603  1.00  0.00     0.022 A 
BRANCH  54  58
ATOM     58  S   UNL A   1      44.709  22.843  24.325  1.00  0.00     0.124 S 
ATOM     59  O   UNL A   1      43.932  22.511  23.136  1.00  0.00    -0.237 OA
ATOM     60  O   UNL A   1      45.218  24.209  24.399  1.00  0.00    -0.237 OA
ATOM     61  O   UNL A   1      45.639  21.809  24.771  1.00  0.00    -0.744 OA
ENDBRANCH  54  58
ENDBRANCH  27  51
BRANCH  39  62
ATOM     62  C   UNL A   1      46.806  25.721  32.674  1.00  0.00     0.023 A 
ATOM     63  C   UNL A   1      48.038  25.953  32.037  1.00  0.00     0.031 A 
ATOM     64  C   UNL A   1      46.784  24.861  33.786  1.00  0.00     0.131 A 
ATOM     65  C   UNL A   1      49.189  25.288  32.483  1.00  0.00     0.055 A 
ATOM     66  C   UNL A   1      47.943  24.243  34.257  1.00  0.00     0.041 A 
ATOM     67  F   UNL A   1      45.633  24.604  34.427  1.00  0.00    -0.206 F 
ATOM     68  C   UNL A   1      49.152  24.446  33.597  1.00  0.00     0.022 A 
BRANCH  65  69
ATOM     69  S   UNL A   1      50.726  25.475  31.537  1.00  0.00     0.124 S 
ATOM     70  O   UNL A   1      50.288  25.154  30.182  1.00  0.00    -0.237 OA
ATOM     71  O   UNL A   1      51.076  26.870  31.781  1.00  0.00    -0.237 OA
ATOM     72  O   UNL A   1      51.625  24.497  32.146  1.00  0.00    -0.744 OA
ENDBRANCH  65  69
ENDBRANCH  39  62
ENDBRANCH  13  14
ENDBRANCH   6   8
ENDBRANCH   3   4
ENDBRANCH   2   3
ENDBRANCH   1   2
BRANCH   1  73
ATOM     73  C   UNL A   1      31.449  28.689  24.918  1.00  0.00     0.002 C 
BRANCH  73  74
ATOM     74  C   UNL A   1      30.416  28.528  23.795  1.00  0.00     0.021 C 
BRANCH  74  75
ATOM     75  C   UNL A   1      30.575  27.265  22.952  1.00  0.00     0.116 C 
BRANCH  75  76
ATOM     76  N   UNL A   1      31.721  27.353  22.063  1.00  0.00    -0.352 N 
ATOM     77  C   UNL A   1      32.850  26.574  22.047  1.00  0.00     0.251 C 
ATOM     78  H   UNL A   1      31.682  28.064  21.383  1.00  0.00     0.163 HD
ATOM     79  O   UNL A   1      33.735  26.733  21.225  1.00  0.00    -0.269 OA
BRANCH  77  80
ATOM     80  C   UNL A   1      32.966  25.507  23.053  1.00  0.00     0.041 A 
ATOM     81  C   UNL A   1      33.642  25.773  24.242  1.00  0.00     0.018 A 
ATOM     82  C   UNL A   1      32.470  24.234  22.768  1.00  0.00     0.038 A 
ATOM     83  C   UNL A   1      33.805  24.746  25.168  1.00  0.00     0.049 A 
ATOM     84  C   UNL A   1      32.666  23.200  23.689  1.00  0.00     0.083 A 
ATOM     85  C   UNL A   1      33.292  23.466  24.914  1.00  0.00     0.137 A 
ATOM     86  Cl  UNL A   1      32.221  21.612  23.182  1.00  0.00    -0.080 Cl
BRANCH  85  87
ATOM     87  O   UNL A   1      33.575  22.557  25.891  1.00  0.00    -0.492 OA
BRANCH  87  88
ATOM     88  C   UNL A   1      34.760  22.744  26.677  1.00  0.00     0.233 C 
BRANCH  88  89
ATOM     89  C   UNL A   1      35.948  21.835  26.322  1.00  0.00     0.030 C 
ATOM     90  C   UNL A   1      35.742  21.017  25.022  1.00  0.00     0.011 C 
ATOM     91  C   UNL A   1      37.261  22.603  26.003  1.00  0.00    -0.004 C 
ATOM     92  C   UNL A   1      36.952  21.408  24.154  1.00  0.00    -0.010 C 
ATOM     93  C   UNL A   1      37.038  23.683  24.932  1.00  0.00     0.004 C 
ATOM     94  C   UNL A   1      38.048  21.559  25.204  1.00  0.00     0.007 C 
ATOM     95  C   UNL A   1      36.762  22.858  23.669  1.00  0.00     0.004 C 
ENDBRANCH  88  89
ENDBRANCH  87  88
ENDBRANCH  85  87
ENDBRANCH  77  80
ENDBRANCH  75  76
ENDBRANCH  74  75
ENDBRANCH  73  74
ENDBRANCH   1  73
TORSDOF 19
ENDMDL
MODEL 3
REMARK VINA RESULT:     -11.4      5.559     10.368
REMARK SMILES O=C(NCCCCCCNC(=O)c1ccc(OC[C@H]2C[C@H]3CC[C@@H]2C3)c(Cl)c1)c1ccc(-c2c3nc(c(-c4cc(S(=O)(=O)[O-])ccc4F)c4ccc([nH]4)c(-c4cc(S(=O)(=O)[O-])ccc4F)c4nc(c(-c5cc(S(=O)(=O)[O-])ccc5F)c5ccc2[nH]5)C=C4)C=C3)cc1
REMARK SMILES IDX 6 1 5 2 4 3 3 4 1 5 2 6 29 8 30 9 91 10 31 11 90 12 32 13
REMARK SMILES IDX 33 14 34 15 84 16 35 17 89 18 83 19 85 20 36 21 88 22 82 23
REMARK SMILES IDX 81 24 37 26 69 27 49 28 68 29 50 30 53 31 67 32 86 33 51 34
REMARK SMILES IDX 52 35 66 37 87 38 54 39 38 40 39 41 47 42 40 43 46 44 48 45
REMARK SMILES IDX 45 46 41 47 42 48 43 49 44 50 70 51 71 52 79 53 72 54 78 55
REMARK SMILES IDX 80 56 77 57 73 58 74 59 75 60 76 61 55 62 56 63 64 64 57 65
REMARK SMILES IDX 63 66 65 67 62 68 58 69 59 70 60 71 61 72 7 73 8 74 9 75
REMARK SMILES IDX 10 76 11 77 12 79 13 80 14 81 28 82 15 83 26 84 16 85 27 86
REMARK SMILES IDX 17 87 18 88 19 89 20 90 24 91 21 92 23 93 25 94 22 95
REMARK H PARENT 3 7 85 25 53 36 10 78
REMARK Flexibility Score: inf
ROOT
ATOM      1  C   UNL A   1      34.965  24.778  25.379  1.00  0.00     0.002 C 
ENDROOT
BRANCH   1   2
ATOM      2  C   UNL A   1      35.072  23.253  25.322  1.00  0.00     0.021 C 
BRANCH   2   3
ATOM      3  C   UNL A   1      35.792  22.608  26.499  1.00  0.00     0.116 C 
BRANCH   3   4
ATOM      4  N   UNL A   1      36.687  21.541  26.087  1.00  0.00    -0.352 N 
ATOM      5  O   UNL A   1      38.620  20.617  25.392  1.00  0.00    -0.269 OA
ATOM      6  C   UNL A   1      38.047  21.578  25.897  1.00  0.00     0.251 C 
ATOM      7  H   UNL A   1      36.260  20.670  25.919  1.00  0.00     0.163 HD
BRANCH   6   8
ATOM      8  C   UNL A   1      38.816  22.782  26.286  1.00  0.00     0.039 A 
ATOM      9  C   UNL A   1      38.529  24.029  25.725  1.00  0.00     0.014 A 
ATOM     10  C   UNL A   1      39.825  22.660  27.245  1.00  0.00     0.014 A 
ATOM     11  C   UNL A   1      39.320  25.131  26.041  1.00  0.00     0.010 A 
ATOM     12  C   UNL A   1      40.575  23.781  27.611  1.00  0.00     0.010 A 
ATOM     13  C   UNL A   1      40.344  25.020  26.996  1.00  0.00    -0.014 A 
BRANCH  13  14
ATOM     14  C   UNL A   1      41.116  26.227  27.385  1.00  0.00     0.031 A 
ATOM     15  C   UNL A   1      40.491  27.309  28.221  1.00  0.00     0.074 A 
ATOM     16  C   UNL A   1      42.394  26.338  26.976  1.00  0.00     0.049 A 
ATOM     17  N   UNL A   1      41.016  28.431  28.646  1.00  0.00    -0.248 NA
ATOM     18  C   UNL A   1      39.092  27.111  28.621  1.00  0.00     0.031 C 
ATOM     19  C   UNL A   1      43.095  25.358  26.142  1.00  0.00     0.029 A 
ATOM     20  N   UNL A   1      43.331  27.313  27.202  1.00  0.00    -0.354 N 
ATOM     21  C   UNL A   1      40.011  29.082  29.351  1.00  0.00     0.074 A 
ATOM     22  C   UNL A   1      38.834  28.240  29.267  1.00  0.00     0.031 C 
ATOM     23  C   UNL A   1      44.355  25.772  25.943  1.00  0.00     0.029 A 
ATOM     24  C   UNL A   1      44.536  27.067  26.589  1.00  0.00     0.049 A 
ATOM     25  H   UNL A   1      43.156  28.112  27.749  1.00  0.00     0.167 HD
ATOM     26  C   UNL A   1      40.069  30.266  30.013  1.00  0.00     0.034 A 
ATOM     27  C   UNL A   1      45.657  27.811  26.530  1.00  0.00     0.034 A 
ATOM     28  C   UNL A   1      41.253  31.090  30.083  1.00  0.00     0.049 A 
ATOM     29  C   UNL A   1      45.692  29.129  27.250  1.00  0.00     0.074 A 
ATOM     30  C   UNL A   1      41.439  32.280  30.768  1.00  0.00     0.029 A 
ATOM     31  N   UNL A   1      42.452  30.820  29.434  1.00  0.00    -0.354 N 
ATOM     32  N   UNL A   1      44.743  29.712  27.946  1.00  0.00    -0.248 NA
ATOM     33  C   UNL A   1      46.947  29.885  27.184  1.00  0.00     0.031 C 
ATOM     34  C   UNL A   1      42.724  32.759  30.481  1.00  0.00     0.029 A 
ATOM     35  C   UNL A   1      43.367  31.836  29.673  1.00  0.00     0.049 A 
ATOM     36  H   UNL A   1      42.627  30.023  28.883  1.00  0.00     0.167 HD
ATOM     37  C   UNL A   1      45.291  30.903  28.408  1.00  0.00     0.074 A 
ATOM     38  C   UNL A   1      46.660  30.943  27.929  1.00  0.00     0.031 C 
ATOM     39  C   UNL A   1      44.718  31.876  29.161  1.00  0.00     0.034 A 
BRANCH  26  40
ATOM     40  C   UNL A   1      38.801  30.755  30.671  1.00  0.00     0.023 A 
ATOM     41  C   UNL A   1      37.827  31.478  29.960  1.00  0.00     0.031 A 
ATOM     42  C   UNL A   1      38.576  30.522  32.039  1.00  0.00     0.131 A 
ATOM     43  C   UNL A   1      36.713  32.005  30.632  1.00  0.00     0.055 A 
ATOM     44  C   UNL A   1      37.428  30.984  32.687  1.00  0.00     0.041 A 
ATOM     45  F   UNL A   1      39.477  29.852  32.776  1.00  0.00    -0.206 F 
ATOM     46  C   UNL A   1      36.496  31.744  31.987  1.00  0.00     0.022 A 
BRANCH  43  47
ATOM     47  S   UNL A   1      35.628  33.155  29.744  1.00  0.00     0.124 S 
ATOM     48  O   UNL A   1      34.442  32.333  29.516  1.00  0.00    -0.237 OA
ATOM     49  O   UNL A   1      35.473  34.246  30.701  1.00  0.00    -0.237 OA
ATOM     50  O   UNL A   1      36.387  33.484  28.540  1.00  0.00    -0.744 OA
ENDBRANCH  43  47
ENDBRANCH  26  40
BRANCH  27  51
ATOM     51  C   UNL A   1      46.815  27.338  25.724  1.00  0.00     0.023 A 
ATOM     52  C   UNL A   1      47.023  27.788  24.413  1.00  0.00     0.031 A 
ATOM     53  C   UNL A   1      47.738  26.426  26.270  1.00  0.00     0.131 A 
ATOM     54  C   UNL A   1      48.118  27.306  23.679  1.00  0.00     0.055 A 
ATOM     55  C   UNL A   1      48.848  25.982  25.550  1.00  0.00     0.041 A 
ATOM     56  F   UNL A   1      47.585  25.976  27.525  1.00  0.00    -0.206 F 
ATOM     57  C   UNL A   1      49.037  26.417  24.242  1.00  0.00     0.022 A 
BRANCH  54  58
ATOM     58  S   UNL A   1      48.301  27.824  21.950  1.00  0.00     0.124 S 
ATOM     59  O   UNL A   1      48.305  26.543  21.253  1.00  0.00    -0.237 OA
ATOM     60  O   UNL A   1      47.117  28.656  21.757  1.00  0.00    -0.237 OA
ATOM     61  O   UNL A   1      49.572  28.543  21.943  1.00  0.00    -0.744 OA
ENDBRANCH  54  58
ENDBRANCH  27  51
BRANCH  39  62
ATOM     62  C   UNL A   1      45.590  33.049  29.523  1.00  0.00     0.023 A 
ATOM     63  C   UNL A   1      45.674  34.184  28.697  1.00  0.00     0.031 A 
ATOM     64  C   UNL A   1      46.366  33.021  30.694  1.00  0.00     0.131 A 
ATOM     65  C   UNL A   1      46.558  35.222  29.026  1.00  0.00     0.055 A 
ATOM     66  C   UNL A   1      47.205  34.080  31.043  1.00  0.00     0.041 A 
ATOM     67  F   UNL A   1      46.325  31.959  31.515  1.00  0.00    -0.206 F 
ATOM     68  C   UNL A   1      47.314  35.183  30.200  1.00  0.00     0.022 A 
BRANCH  65  69
ATOM     69  S   UNL A   1      46.770  36.591  27.855  1.00  0.00     0.124 S 
ATOM     70  O   UNL A   1      47.339  37.631  28.705  1.00  0.00    -0.237 OA
ATOM     71  O   UNL A   1      47.669  36.016  26.860  1.00  0.00    -0.237 OA
ATOM     72  O   UNL A   1      45.411  36.851  27.383  1.00  0.00    -0.744 OA
ENDBRANCH  65  69
ENDBRANCH  39  62
ENDBRANCH  13  14
ENDBRANCH   6   8
ENDBRANCH   3   4
ENDBRANCH   2   3
ENDBRANCH   1   2
BRANCH   1  73
ATOM     73  C   UNL A   1      34.405  25.451  24.123  1.00  0.00     0.002 C 
BRANCH  73  74
ATOM     74  C   UNL A   1      33.616  26.745  24.356  1.00  0.00     0.021 C 
BRANCH  74  75
ATOM     75  C   UNL A   1      32.636  26.697  25.527  1.00  0.00     0.116 C 
BRANCH  75  76
ATOM     76  N   UNL A   1      31.269  26.935  25.094  1.00  0.00    -0.352 N 
ATOM     77  C   UNL A   1      30.298  26.016  24.788  1.00  0.00     0.251 C 
ATOM     78  H   UNL A   1      31.005  27.881  25.009  1.00  0.00     0.163 HD
ATOM     79  O   UNL A   1      29.172  26.347  24.461  1.00  0.00    -0.269 OA
BRANCH  77  80
ATOM     80  C   UNL A   1      30.645  24.590  24.882  1.00  0.00     0.041 A 
ATOM     81  C   UNL A   1      30.588  23.963  26.126  1.00  0.00     0.018 A 
ATOM     82  C   UNL A   1      31.098  23.914  23.748  1.00  0.00     0.038 A 
ATOM     83  C   UNL A   1      30.974  22.629  26.225  1.00  0.00     0.049 A 
ATOM     84  C   UNL A   1      31.516  22.584  23.863  1.00  0.00     0.083 A 
ATOM     85  C   UNL A   1      31.409  21.923  25.094  1.00  0.00     0.137 A 
ATOM     86  Cl  UNL A   1      32.263  21.880  22.476  1.00  0.00    -0.080 Cl
BRANCH  85  87
ATOM     87  O   UNL A   1      31.801  20.644  25.362  1.00  0.00    -0.492 OA
BRANCH  87  88
ATOM     88  C   UNL A   1      33.203  20.349  25.384  1.00  0.00     0.233 C 
BRANCH  88  89
ATOM     89  C   UNL A   1      33.713  19.440  24.254  1.00  0.00     0.030 C 
ATOM     90  C   UNL A   1      34.950  18.591  24.643  1.00  0.00     0.011 C 
ATOM     91  C   UNL A   1      32.703  18.339  23.821  1.00  0.00    -0.004 C 
ATOM     92  C   UNL A   1      34.496  17.146  24.372  1.00  0.00    -0.010 C 
ATOM     93  C   UNL A   1      32.211  17.520  25.025  1.00  0.00     0.004 C 
ATOM     94  C   UNL A   1      33.622  17.324  23.135  1.00  0.00     0.007 C 
ATOM     95  C   UNL A   1      33.465  16.743  25.444  1.00  0.00     0.004 C 
ENDBRANCH  88  89
ENDBRANCH  87  88
ENDBRANCH  85  87
ENDBRANCH  77  80
ENDBRANCH  75  76
ENDBRANCH  74  75
ENDBRANCH  73  74
ENDBRANCH   1  73
TORSDOF 19
ENDMDL
