MODEL 1
REMARK VINA RESULT:     -11.6      0.000      0.000
REMARK SMILES CCCc1cc(OC(F)(F)F)cc2c1O[C@@H](C(F)(F)F)C(C(=O)NCCCCCCNC(=O)c1ccc(-c3c4nc(c(-c5cc(S(=O)(=O)[O-])ccc5F)c5ccc([nH]5)c(-c5cc(S(=O)(=O)[O-])ccc5F)c5nc(c(-c6cc(S(=O)(=O)[O-])ccc6F)c6ccc3[nH]6)C=C5)C=C4)cc1)=C2
REMARK SMILES IDX 28 1 27 2 26 3 25 4 24 5 22 6 23 7 21 9 4 10 5 11 14 12 6 13
REMARK SMILES IDX 13 14 15 15 12 16 97 17 16 18 3 19 2 20 1 21 7 22 8 23 9 24
REMARK SMILES IDX 10 25 11 26 17 27 18 28 19 29 20 30 29 31 30 32 31 33 32 34
REMARK SMILES IDX 33 36 34 37 35 38 96 39 36 40 95 41 37 42 38 43 39 44 89 45
REMARK SMILES IDX 40 46 94 47 88 48 90 49 41 50 93 51 87 52 86 53 42 55 74 56
REMARK SMILES IDX 54 57 73 58 55 59 58 60 72 61 91 62 56 63 57 64 71 66 92 67
REMARK SMILES IDX 59 68 43 69 44 70 52 71 45 72 51 73 53 74 50 75 46 76 47 77
REMARK SMILES IDX 48 78 49 79 75 80 76 81 84 82 77 83 83 84 85 85 82 86 78 87
REMARK SMILES IDX 79 88 80 89 81 90 60 91 61 92 69 93 62 94 68 95 70 96 67 97
REMARK SMILES IDX 63 98 64 99 65 100 66 101
REMARK H PARENT 24 8 31 35 90 54 58 65
REMARK Flexibility Score: inf
ROOT
ATOM      1  C   UNL A   1      31.452  30.451  26.439  1.00  0.00     0.002 C 
ENDROOT
BRANCH   1   2
ATOM      2  C   UNL A   1      32.474  29.721  27.318  1.00  0.00     0.002 C 
BRANCH   2   3
ATOM      3  C   UNL A   1      32.947  28.372  26.760  1.00  0.00     0.021 C 
BRANCH   3   4
ATOM      4  C   UNL A   1      34.014  28.516  25.668  1.00  0.00     0.116 C 
BRANCH   4   5
ATOM      5  N   UNL A   1      33.365  28.570  24.366  1.00  0.00    -0.352 N 
ATOM      6  C   UNL A   1      33.157  27.638  23.398  1.00  0.00     0.251 C 
ATOM      7  O   UNL A   1      32.776  28.023  22.296  1.00  0.00    -0.270 OA
ATOM      8  H   UNL A   1      33.006  29.458  24.140  1.00  0.00     0.163 HD
BRANCH   6   9
ATOM      9  C   UNL A   1      33.269  26.178  23.658  1.00  0.00     0.067 C 
ATOM     10  C   UNL A   1      33.216  22.200  25.021  1.00  0.00    -0.002 A 
ATOM     11  C   UNL A   1      34.408  21.678  25.561  1.00  0.00     0.054 A 
ATOM     12  C   UNL A   1      33.235  23.492  24.469  1.00  0.00     0.131 A 
ATOM     13  C   UNL A   1      35.610  22.374  25.471  1.00  0.00     0.130 A 
ATOM     14  C   UNL A   1      34.431  24.208  24.406  1.00  0.00     0.021 A 
ATOM     15  O   UNL A   1      32.043  24.033  24.084  1.00  0.00    -0.475 OA
ATOM     16  C   UNL A   1      35.615  23.641  24.892  1.00  0.00     0.058 A 
ATOM     17  C   UNL A   1      34.434  25.591  23.959  1.00  0.00     0.025 C 
ATOM     18  C   UNL A   1      32.017  25.339  23.435  1.00  0.00     0.314 C 
BRANCH  10  19
ATOM     19  C   UNL A   1      31.956  21.362  25.088  1.00  0.00     0.039 C 
BRANCH  19  20
ATOM     20  C   UNL A   1      32.189  19.849  24.941  1.00  0.00     0.001 C 
ATOM     21  C   UNL A   1      32.578  19.395  23.540  1.00  0.00     0.004 C 
ENDBRANCH  19  20
ENDBRANCH  10  19
BRANCH  13  22
ATOM     22  O   UNL A   1      36.821  21.950  25.938  1.00  0.00    -0.406 OA
BRANCH  22  23
ATOM     23  C   UNL A   1      37.556  21.057  25.116  1.00  0.00     0.573 C 
ATOM     24  F   UNL A   1      37.057  19.804  25.195  1.00  0.00    -0.132 F 
ATOM     25  F   UNL A   1      37.545  21.460  23.825  1.00  0.00    -0.132 F 
ATOM     26  F   UNL A   1      38.838  21.030  25.536  1.00  0.00    -0.132 F 
ENDBRANCH  22  23
ENDBRANCH  13  22
BRANCH  18  27
ATOM     27  C   UNL A   1      30.660  25.996  23.780  1.00  0.00     0.429 C 
ATOM     28  F   UNL A   1      29.651  25.102  23.870  1.00  0.00    -0.167 F 
ATOM     29  F   UNL A   1      30.711  26.596  25.003  1.00  0.00    -0.167 F 
ATOM     30  F   UNL A   1      30.303  26.953  22.894  1.00  0.00    -0.167 F 
ENDBRANCH  18  27
ENDBRANCH   6   9
ENDBRANCH   4   5
ENDBRANCH   3   4
ENDBRANCH   2   3
ENDBRANCH   1   2
BRANCH   1  31
ATOM     31  C   UNL A   1      31.503  31.978  26.529  1.00  0.00     0.021 C 
BRANCH  31  32
ATOM     32  C   UNL A   1      32.688  32.516  27.324  1.00  0.00     0.116 C 
BRANCH  32  33
ATOM     33  N   UNL A   1      32.542  33.936  27.598  1.00  0.00    -0.352 N 
ATOM     34  C   UNL A   1      33.133  34.692  28.581  1.00  0.00     0.251 C 
ATOM     35  H   UNL A   1      31.936  34.425  26.994  1.00  0.00     0.163 HD
ATOM     36  O   UNL A   1      32.697  35.810  28.837  1.00  0.00    -0.269 OA
BRANCH  34  37
ATOM     37  C   UNL A   1      34.282  34.143  29.332  1.00  0.00     0.039 A 
ATOM     38  C   UNL A   1      34.045  33.299  30.419  1.00  0.00     0.014 A 
ATOM     39  C   UNL A   1      35.592  34.474  28.969  1.00  0.00     0.014 A 
ATOM     40  C   UNL A   1      35.125  32.746  31.112  1.00  0.00     0.010 A 
ATOM     41  C   UNL A   1      36.663  33.865  29.613  1.00  0.00     0.010 A 
ATOM     42  C   UNL A   1      36.442  33.002  30.699  1.00  0.00    -0.014 A 
BRANCH  42  43
ATOM     43  C   UNL A   1      37.605  32.400  31.402  1.00  0.00     0.031 A 
ATOM     44  C   UNL A   1      38.346  31.252  30.774  1.00  0.00     0.074 A 
ATOM     45  C   UNL A   1      37.952  32.845  32.625  1.00  0.00     0.049 A 
ATOM     46  N   UNL A   1      39.323  30.529  31.259  1.00  0.00    -0.248 NA
ATOM     47  C   UNL A   1      37.908  30.841  29.431  1.00  0.00     0.031 C 
ATOM     48  C   UNL A   1      37.287  33.932  33.348  1.00  0.00     0.029 A 
ATOM     49  N   UNL A   1      38.941  32.434  33.483  1.00  0.00    -0.354 N 
ATOM     50  C   UNL A   1      39.607  29.573  30.290  1.00  0.00     0.074 A 
ATOM     51  C   UNL A   1      38.654  29.768  29.219  1.00  0.00     0.031 C 
ATOM     52  C   UNL A   1      37.902  34.116  34.528  1.00  0.00     0.029 A 
ATOM     53  C   UNL A   1      38.970  33.130  34.670  1.00  0.00     0.049 A 
ATOM     54  H   UNL A   1      39.572  31.710  33.268  1.00  0.00     0.167 HD
ATOM     55  C   UNL A   1      40.586  28.635  30.286  1.00  0.00     0.034 A 
ATOM     56  C   UNL A   1      39.755  32.981  35.755  1.00  0.00     0.034 A 
ATOM     57  C   UNL A   1      41.535  28.464  31.359  1.00  0.00     0.049 A 
ATOM     58  C   UNL A   1      40.817  31.909  35.740  1.00  0.00     0.074 A 
ATOM     59  C   UNL A   1      42.597  27.581  31.438  1.00  0.00     0.029 A 
ATOM     60  N   UNL A   1      41.532  29.186  32.547  1.00  0.00    -0.354 N 
ATOM     61  N   UNL A   1      41.100  31.039  34.797  1.00  0.00    -0.248 NA
ATOM     62  C   UNL A   1      41.670  31.805  36.930  1.00  0.00     0.031 C 
ATOM     63  C   UNL A   1      43.189  27.717  32.698  1.00  0.00     0.029 A 
ATOM     64  C   UNL A   1      42.552  28.745  33.376  1.00  0.00     0.049 A 
ATOM     65  H   UNL A   1      40.898  29.907  32.767  1.00  0.00     0.167 HD
ATOM     66  C   UNL A   1      42.190  30.310  35.269  1.00  0.00     0.074 A 
ATOM     67  C   UNL A   1      42.516  30.851  36.572  1.00  0.00     0.031 C 
ATOM     68  C   UNL A   1      42.862  29.290  34.677  1.00  0.00     0.034 A 
BRANCH  55  69
ATOM     69  C   UNL A   1      40.656  27.708  29.094  1.00  0.00     0.023 A 
ATOM     70  C   UNL A   1      41.609  27.883  28.074  1.00  0.00     0.031 A 
ATOM     71  C   UNL A   1      39.741  26.649  28.959  1.00  0.00     0.131 A 
ATOM     72  C   UNL A   1      41.573  27.070  26.933  1.00  0.00     0.055 A 
ATOM     73  C   UNL A   1      39.766  25.786  27.861  1.00  0.00     0.041 A 
ATOM     74  F   UNL A   1      38.792  26.443  29.886  1.00  0.00    -0.206 F 
ATOM     75  C   UNL A   1      40.676  26.005  26.830  1.00  0.00     0.022 A 
BRANCH  72  76
ATOM     76  S   UNL A   1      42.613  27.521  25.516  1.00  0.00     0.124 S 
ATOM     77  O   UNL A   1      43.878  27.845  26.172  1.00  0.00    -0.237 OA
ATOM     78  O   UNL A   1      42.602  26.303  24.715  1.00  0.00    -0.237 OA
ATOM     79  O   UNL A   1      41.914  28.662  24.927  1.00  0.00    -0.744 OA
ENDBRANCH  72  76
ENDBRANCH  55  69
BRANCH  56  80
ATOM     80  C   UNL A   1      39.568  33.852  36.951  1.00  0.00     0.023 A 
ATOM     81  C   UNL A   1      38.968  33.357  38.119  1.00  0.00     0.031 A 
ATOM     82  C   UNL A   1      39.946  35.206  36.927  1.00  0.00     0.131 A 
ATOM     83  C   UNL A   1      38.716  34.221  39.197  1.00  0.00     0.055 A 
ATOM     84  C   UNL A   1      39.746  36.047  38.023  1.00  0.00     0.041 A 
ATOM     85  F   UNL A   1      40.528  35.731  35.837  1.00  0.00    -0.206 F 
ATOM     86  C   UNL A   1      39.113  35.559  39.162  1.00  0.00     0.022 A 
BRANCH  83  87
ATOM     87  S   UNL A   1      37.773  33.590  40.613  1.00  0.00     0.124 S 
ATOM     88  O   UNL A   1      37.379  34.826  41.279  1.00  0.00    -0.237 OA
ATOM     89  O   UNL A   1      36.706  32.843  39.956  1.00  0.00    -0.237 OA
ATOM     90  O   UNL A   1      38.749  32.774  41.333  1.00  0.00    -0.744 OA
ENDBRANCH  83  87
ENDBRANCH  56  80
BRANCH  68  91
ATOM     91  C   UNL A   1      44.054  28.730  35.418  1.00  0.00     0.023 A 
ATOM     92  C   UNL A   1      43.930  27.671  36.332  1.00  0.00     0.031 A 
ATOM     93  C   UNL A   1      45.333  29.275  35.205  1.00  0.00     0.131 A 
ATOM     94  C   UNL A   1      45.056  27.227  37.042  1.00  0.00     0.055 A 
ATOM     95  C   UNL A   1      46.461  28.785  35.866  1.00  0.00     0.041 A 
ATOM     96  F   UNL A   1      45.510  30.291  34.344  1.00  0.00    -0.206 F 
ATOM     97  C   UNL A   1      46.323  27.765  36.802  1.00  0.00     0.022 A 
BRANCH  94  98
ATOM     98  S   UNL A   1      44.828  26.001  38.359  1.00  0.00     0.124 S 
ATOM     99  O   UNL A   1      44.084  26.762  39.358  1.00  0.00    -0.237 OA
ATOM    100  O   UNL A   1      44.084  24.946  37.677  1.00  0.00    -0.237 OA
ATOM    101  O   UNL A   1      46.194  25.648  38.741  1.00  0.00    -0.744 OA
ENDBRANCH  94  98
ENDBRANCH  68  91
ENDBRANCH  42  43
ENDBRANCH  34  37
ENDBRANCH  32  33
ENDBRANCH  31  32
ENDBRANCH   1  31
TORSDOF 21
ENDMDL
MODEL 2
REMARK VINA RESULT:     -11.5      2.848      8.207
REMARK SMILES CCCc1cc(OC(F)(F)F)cc2c1O[C@@H](C(F)(F)F)C(C(=O)NCCCCCCNC(=O)c1ccc(-c3c4nc(c(-c5cc(S(=O)(=O)[O-])ccc5F)c5ccc([nH]5)c(-c5cc(S(=O)(=O)[O-])ccc5F)c5nc(c(-c6cc(S(=O)(=O)[O-])ccc6F)c6ccc3[nH]6)C=C5)C=C4)cc1)=C2
REMARK SMILES IDX 28 1 27 2 26 3 25 4 24 5 22 6 23 7 21 9 4 10 5 11 14 12 6 13
REMARK SMILES IDX 13 14 15 15 12 16 97 17 16 18 3 19 2 20 1 21 7 22 8 23 9 24
REMARK SMILES IDX 10 25 11 26 17 27 18 28 19 29 20 30 29 31 30 32 31 33 32 34
REMARK SMILES IDX 33 36 34 37 35 38 96 39 36 40 95 41 37 42 38 43 39 44 89 45
REMARK SMILES IDX 40 46 94 47 88 48 90 49 41 50 93 51 87 52 86 53 42 55 74 56
REMARK SMILES IDX 54 57 73 58 55 59 58 60 72 61 91 62 56 63 57 64 71 66 92 67
REMARK SMILES IDX 59 68 43 69 44 70 52 71 45 72 51 73 53 74 50 75 46 76 47 77
REMARK SMILES IDX 48 78 49 79 75 80 76 81 84 82 77 83 83 84 85 85 82 86 78 87
REMARK SMILES IDX 79 88 80 89 81 90 60 91 61 92 69 93 62 94 68 95 70 96 67 97
REMARK SMILES IDX 63 98 64 99 65 100 66 101
REMARK H PARENT 24 8 31 35 90 54 58 65
REMARK Flexibility Score: inf
ROOT
ATOM      1  C   UNL A   1      31.333  29.263  24.926  1.00  0.00     0.002 C 
ENDROOT
BRANCH   1   2
ATOM      2  C   UNL A   1      30.829  27.815  24.934  1.00  0.00     0.002 C 
BRANCH   2   3
ATOM      3  C   UNL A   1      31.276  26.991  26.149  1.00  0.00     0.021 C 
BRANCH   3   4
ATOM      4  C   UNL A   1      30.483  25.689  26.315  1.00  0.00     0.116 C 
BRANCH   4   5
ATOM      5  N   UNL A   1      30.069  25.208  25.005  1.00  0.00    -0.352 N 
ATOM      6  C   UNL A   1      30.664  24.402  24.086  1.00  0.00     0.251 C 
ATOM      7  O   UNL A   1      30.176  24.348  22.961  1.00  0.00    -0.270 OA
ATOM      8  H   UNL A   1      29.181  25.531  24.728  1.00  0.00     0.163 HD
BRANCH   6   9
ATOM      9  C   UNL A   1      31.808  23.514  24.424  1.00  0.00     0.067 C 
ATOM     10  C   UNL A   1      35.227  21.077  24.664  1.00  0.00    -0.002 A 
ATOM     11  C   UNL A   1      35.033  19.683  24.722  1.00  0.00     0.054 A 
ATOM     12  C   UNL A   1      34.100  21.916  24.683  1.00  0.00     0.131 A 
ATOM     13  C   UNL A   1      33.765  19.134  24.893  1.00  0.00     0.130 A 
ATOM     14  C   UNL A   1      32.824  21.369  24.822  1.00  0.00     0.021 A 
ATOM     15  O   UNL A   1      34.301  23.250  24.481  1.00  0.00    -0.475 OA
ATOM     16  C   UNL A   1      32.663  19.984  24.941  1.00  0.00     0.058 A 
ATOM     17  C   UNL A   1      31.648  22.216  24.710  1.00  0.00     0.025 C 
ATOM     18  C   UNL A   1      33.174  24.173  24.568  1.00  0.00     0.314 C 
BRANCH  10  19
ATOM     19  C   UNL A   1      36.639  21.613  24.549  1.00  0.00     0.039 C 
BRANCH  19  20
ATOM     20  C   UNL A   1      37.222  22.160  25.863  1.00  0.00     0.001 C 
ATOM     21  C   UNL A   1      37.450  23.667  25.882  1.00  0.00     0.004 C 
ENDBRANCH  19  20
ENDBRANCH  10  19
BRANCH  13  22
ATOM     22  O   UNL A   1      33.471  17.804  24.986  1.00  0.00    -0.406 OA
BRANCH  22  23
ATOM     23  C   UNL A   1      33.477  17.053  23.781  1.00  0.00     0.573 C 
ATOM     24  F   UNL A   1      32.532  17.502  22.926  1.00  0.00    -0.132 F 
ATOM     25  F   UNL A   1      34.686  17.108  23.178  1.00  0.00    -0.132 F 
ATOM     26  F   UNL A   1      33.210  15.762  24.069  1.00  0.00    -0.132 F 
ENDBRANCH  22  23
ENDBRANCH  13  22
BRANCH  18  27
ATOM     27  C   UNL A   1      33.483  25.363  23.630  1.00  0.00     0.429 C 
ATOM     28  F   UNL A   1      34.068  26.400  24.270  1.00  0.00    -0.167 F 
ATOM     29  F   UNL A   1      34.371  24.998  22.663  1.00  0.00    -0.167 F 
ATOM     30  F   UNL A   1      32.384  25.823  22.991  1.00  0.00    -0.167 F 
ENDBRANCH  18  27
ENDBRANCH   6   9
ENDBRANCH   4   5
ENDBRANCH   3   4
ENDBRANCH   2   3
ENDBRANCH   1   2
BRANCH   1  31
ATOM     31  C   UNL A   1      32.841  29.417  24.711  1.00  0.00     0.021 C 
BRANCH  31  32
ATOM     32  C   UNL A   1      33.633  29.647  25.993  1.00  0.00     0.116 C 
BRANCH  32  33
ATOM     33  N   UNL A   1      33.439  30.995  26.502  1.00  0.00    -0.352 N 
ATOM     34  C   UNL A   1      34.073  31.625  27.544  1.00  0.00     0.251 C 
ATOM     35  H   UNL A   1      32.757  31.531  26.034  1.00  0.00     0.163 HD
ATOM     36  O   UNL A   1      33.605  32.658  28.010  1.00  0.00    -0.269 OA
BRANCH  34  37
ATOM     37  C   UNL A   1      35.311  31.042  28.104  1.00  0.00     0.039 A 
ATOM     38  C   UNL A   1      36.504  31.763  28.016  1.00  0.00     0.014 A 
ATOM     39  C   UNL A   1      35.295  29.778  28.701  1.00  0.00     0.014 A 
ATOM     40  C   UNL A   1      37.672  31.236  28.573  1.00  0.00     0.010 A 
ATOM     41  C   UNL A   1      36.441  29.289  29.320  1.00  0.00     0.010 A 
ATOM     42  C   UNL A   1      37.645  30.009  29.253  1.00  0.00    -0.014 A 
BRANCH  42  43
ATOM     43  C   UNL A   1      38.868  29.444  29.881  1.00  0.00     0.031 A 
ATOM     44  C   UNL A   1      39.326  29.955  31.220  1.00  0.00     0.074 A 
ATOM     45  C   UNL A   1      39.594  28.521  29.221  1.00  0.00     0.049 A 
ATOM     46  N   UNL A   1      40.410  29.663  31.893  1.00  0.00    -0.248 NA
ATOM     47  C   UNL A   1      38.465  30.952  31.874  1.00  0.00     0.031 C 
ATOM     48  C   UNL A   1      39.266  27.972  27.903  1.00  0.00     0.029 A 
ATOM     49  N   UNL A   1      40.764  27.888  29.561  1.00  0.00    -0.354 N 
ATOM     50  C   UNL A   1      40.367  30.448  33.041  1.00  0.00     0.074 A 
ATOM     51  C   UNL A   1      39.184  31.275  32.937  1.00  0.00     0.031 C 
ATOM     52  C   UNL A   1      40.198  27.069  27.559  1.00  0.00     0.029 A 
ATOM     53  C   UNL A   1      41.217  27.010  28.602  1.00  0.00     0.049 A 
ATOM     54  H   UNL A   1      41.234  28.046  30.411  1.00  0.00     0.167 HD
ATOM     55  C   UNL A   1      41.223  30.461  34.092  1.00  0.00     0.034 A 
ATOM     56  C   UNL A   1      42.334  26.256  28.562  1.00  0.00     0.034 A 
ATOM     57  C   UNL A   1      42.392  29.619  34.182  1.00  0.00     0.049 A 
ATOM     58  C   UNL A   1      43.289  26.311  29.729  1.00  0.00     0.074 A 
ATOM     59  C   UNL A   1      43.300  29.513  35.220  1.00  0.00     0.029 A 
ATOM     60  N   UNL A   1      42.820  28.744  33.191  1.00  0.00    -0.354 N 
ATOM     61  N   UNL A   1      43.211  27.027  30.828  1.00  0.00    -0.248 NA
ATOM     62  C   UNL A   1      44.474  25.448  29.656  1.00  0.00     0.031 C 
ATOM     63  C   UNL A   1      44.314  28.632  34.829  1.00  0.00     0.029 A 
ATOM     64  C   UNL A   1      43.996  28.120  33.580  1.00  0.00     0.049 A 
ATOM     65  H   UNL A   1      42.356  28.589  32.336  1.00  0.00     0.167 HD
ATOM     66  C   UNL A   1      44.321  26.672  31.590  1.00  0.00     0.074 A 
ATOM     67  C   UNL A   1      45.041  25.671  30.832  1.00  0.00     0.031 C 
ATOM     68  C   UNL A   1      44.707  27.128  32.810  1.00  0.00     0.034 A 
BRANCH  55  69
ATOM     69  C   UNL A   1      40.936  31.435  35.211  1.00  0.00     0.023 A 
ATOM     70  C   UNL A   1      39.750  31.370  35.964  1.00  0.00     0.031 A 
ATOM     71  C   UNL A   1      41.848  32.461  35.514  1.00  0.00     0.131 A 
ATOM     72  C   UNL A   1      39.471  32.356  36.921  1.00  0.00     0.055 A 
ATOM     73  C   UNL A   1      41.605  33.390  36.530  1.00  0.00     0.041 A 
ATOM     74  F   UNL A   1      42.988  32.592  34.817  1.00  0.00    -0.206 F 
ATOM     75  C   UNL A   1      40.401  33.351  37.229  1.00  0.00     0.022 A 
BRANCH  72  76
ATOM     76  S   UNL A   1      37.809  32.412  37.646  1.00  0.00     0.124 S 
ATOM     77  O   UNL A   1      37.997  33.361  38.740  1.00  0.00    -0.237 OA
ATOM     78  O   UNL A   1      36.992  32.874  36.531  1.00  0.00    -0.237 OA
ATOM     79  O   UNL A   1      37.571  31.030  38.064  1.00  0.00    -0.744 OA
ENDBRANCH  72  76
ENDBRANCH  55  69
BRANCH  56  80
ATOM     80  C   UNL A   1      42.624  25.395  27.380  1.00  0.00     0.023 A 
ATOM     81  C   UNL A   1      42.182  24.063  27.329  1.00  0.00     0.031 A 
ATOM     82  C   UNL A   1      43.387  25.877  26.301  1.00  0.00     0.131 A 
ATOM     83  C   UNL A   1      42.549  23.244  26.250  1.00  0.00     0.055 A 
ATOM     84  C   UNL A   1      43.700  25.075  25.202  1.00  0.00     0.041 A 
ATOM     85  F   UNL A   1      43.832  27.144  26.296  1.00  0.00    -0.206 F 
ATOM     86  C   UNL A   1      43.293  23.745  25.179  1.00  0.00     0.022 A 
BRANCH  83  87
ATOM     87  S   UNL A   1      42.117  21.484  26.310  1.00  0.00     0.124 S 
ATOM     88  O   UNL A   1      42.321  21.177  27.721  1.00  0.00    -0.237 OA
ATOM     89  O   UNL A   1      40.734  21.496  25.847  1.00  0.00    -0.237 OA
ATOM     90  O   UNL A   1      43.074  20.868  25.392  1.00  0.00    -0.744 OA
ENDBRANCH  83  87
ENDBRANCH  56  80
BRANCH  68  91
ATOM     91  C   UNL A   1      45.941  26.503  33.419  1.00  0.00     0.023 A 
ATOM     92  C   UNL A   1      45.886  25.291  34.129  1.00  0.00     0.031 A 
ATOM     93  C   UNL A   1      47.188  27.138  33.289  1.00  0.00     0.131 A 
ATOM     94  C   UNL A   1      47.047  24.783  34.731  1.00  0.00     0.055 A 
ATOM     95  C   UNL A   1      48.352  26.593  33.834  1.00  0.00     0.041 A 
ATOM     96  F   UNL A   1      47.299  28.299  32.623  1.00  0.00    -0.206 F 
ATOM     97  C   UNL A   1      48.283  25.415  34.572  1.00  0.00     0.022 A 
BRANCH  94  98
ATOM     98  S   UNL A   1      46.906  23.330  35.807  1.00  0.00     0.124 S 
ATOM     99  O   UNL A   1      48.237  23.260  36.400  1.00  0.00    -0.237 OA
ATOM    100  O   UNL A   1      45.825  23.714  36.709  1.00  0.00    -0.237 OA
ATOM    101  O   UNL A   1      46.583  22.246  34.881  1.00  0.00    -0.744 OA
ENDBRANCH  94  98
ENDBRANCH  68  91
ENDBRANCH  42  43
ENDBRANCH  34  37
ENDBRANCH  32  33
ENDBRANCH  31  32
ENDBRANCH   1  31
TORSDOF 21
ENDMDL
MODEL 3
REMARK VINA RESULT:     -11.3      3.620      8.632
REMARK SMILES CCCc1cc(OC(F)(F)F)cc2c1O[C@@H](C(F)(F)F)C(C(=O)NCCCCCCNC(=O)c1ccc(-c3c4nc(c(-c5cc(S(=O)(=O)[O-])ccc5F)c5ccc([nH]5)c(-c5cc(S(=O)(=O)[O-])ccc5F)c5nc(c(-c6cc(S(=O)(=O)[O-])ccc6F)c6ccc3[nH]6)C=C5)C=C4)cc1)=C2
REMARK SMILES IDX 28 1 27 2 26 3 25 4 24 5 22 6 23 7 21 9 4 10 5 11 14 12 6 13
REMARK SMILES IDX 13 14 15 15 12 16 97 17 16 18 3 19 2 20 1 21 7 22 8 23 9 24
REMARK SMILES IDX 10 25 11 26 17 27 18 28 19 29 20 30 29 31 30 32 31 33 32 34
REMARK SMILES IDX 33 36 34 37 35 38 96 39 36 40 95 41 37 42 38 43 39 44 89 45
REMARK SMILES IDX 40 46 94 47 88 48 90 49 41 50 93 51 87 52 86 53 42 55 74 56
REMARK SMILES IDX 54 57 73 58 55 59 58 60 72 61 91 62 56 63 57 64 71 66 92 67
REMARK SMILES IDX 59 68 43 69 44 70 52 71 45 72 51 73 53 74 50 75 46 76 47 77
REMARK SMILES IDX 48 78 49 79 75 80 76 81 84 82 77 83 83 84 85 85 82 86 78 87
REMARK SMILES IDX 79 88 80 89 81 90 60 91 61 92 69 93 62 94 68 95 70 96 67 97
REMARK SMILES IDX 63 98 64 99 65 100 66 101
REMARK H PARENT 24 8 31 35 90 54 58 65
REMARK Flexibility Score: inf
ROOT
ATOM      1  C   UNL A   1      31.639  29.136  25.445  1.00  0.00     0.002 C 
ENDROOT
BRANCH   1   2
ATOM      2  C   UNL A   1      31.067  27.730  25.231  1.00  0.00     0.002 C 
BRANCH   2   3
ATOM      3  C   UNL A   1      31.504  26.697  26.278  1.00  0.00     0.021 C 
BRANCH   3   4
ATOM      4  C   UNL A   1      30.513  25.535  26.425  1.00  0.00     0.116 C 
BRANCH   4   5
ATOM      5  N   UNL A   1      30.101  25.085  25.103  1.00  0.00    -0.352 N 
ATOM      6  C   UNL A   1      30.707  24.320  24.157  1.00  0.00     0.251 C 
ATOM      7  O   UNL A   1      30.214  24.289  23.034  1.00  0.00    -0.270 OA
ATOM      8  H   UNL A   1      29.205  25.398  24.841  1.00  0.00     0.163 HD
BRANCH   6   9
ATOM      9  C   UNL A   1      31.871  23.445  24.463  1.00  0.00     0.067 C 
ATOM     10  C   UNL A   1      35.294  21.006  24.595  1.00  0.00    -0.002 A 
ATOM     11  C   UNL A   1      35.103  19.619  24.747  1.00  0.00     0.054 A 
ATOM     12  C   UNL A   1      34.173  21.851  24.648  1.00  0.00     0.131 A 
ATOM     13  C   UNL A   1      33.849  19.087  25.040  1.00  0.00     0.130 A 
ATOM     14  C   UNL A   1      32.909  21.321  24.909  1.00  0.00     0.021 A 
ATOM     15  O   UNL A   1      34.361  23.171  24.356  1.00  0.00    -0.475 OA
ATOM     16  C   UNL A   1      32.755  19.945  25.119  1.00  0.00     0.058 A 
ATOM     17  C   UNL A   1      31.730  22.167  24.833  1.00  0.00     0.025 C 
ATOM     18  C   UNL A   1      33.245  24.103  24.470  1.00  0.00     0.314 C 
BRANCH  10  19
ATOM     19  C   UNL A   1      36.695  21.527  24.349  1.00  0.00     0.039 C 
BRANCH  19  20
ATOM     20  C   UNL A   1      37.694  21.229  25.480  1.00  0.00     0.001 C 
ATOM     21  C   UNL A   1      38.439  22.448  26.010  1.00  0.00     0.004 C 
ENDBRANCH  19  20
ENDBRANCH  10  19
BRANCH  13  22
ATOM     22  O   UNL A   1      33.561  17.767  25.230  1.00  0.00    -0.406 OA
BRANCH  22  23
ATOM     23  C   UNL A   1      34.094  16.845  24.291  1.00  0.00     0.573 C 
ATOM     24  F   UNL A   1      35.334  16.450  24.651  1.00  0.00    -0.132 F 
ATOM     25  F   UNL A   1      33.298  15.759  24.167  1.00  0.00    -0.132 F 
ATOM     26  F   UNL A   1      34.174  17.447  23.086  1.00  0.00    -0.132 F 
ENDBRANCH  22  23
ENDBRANCH  13  22
BRANCH  18  27
ATOM     27  C   UNL A   1      33.488  25.236  23.446  1.00  0.00     0.429 C 
ATOM     28  F   UNL A   1      34.382  24.899  22.490  1.00  0.00    -0.167 F 
ATOM     29  F   UNL A   1      32.341  25.530  22.770  1.00  0.00    -0.167 F 
ATOM     30  F   UNL A   1      33.900  26.386  24.026  1.00  0.00    -0.167 F 
ENDBRANCH  18  27
ENDBRANCH   6   9
ENDBRANCH   4   5
ENDBRANCH   3   4
ENDBRANCH   2   3
ENDBRANCH   1   2
BRANCH   1  31
ATOM     31  C   UNL A   1      33.125  29.282  25.111  1.00  0.00     0.021 C 
BRANCH  31  32
ATOM     32  C   UNL A   1      34.028  29.421  26.333  1.00  0.00     0.116 C 
BRANCH  32  33
ATOM     33  N   UNL A   1      33.884  30.728  26.952  1.00  0.00    -0.352 N 
ATOM     34  C   UNL A   1      34.589  31.271  27.999  1.00  0.00     0.251 C 
ATOM     35  H   UNL A   1      33.184  31.305  26.568  1.00  0.00     0.163 HD
ATOM     36  O   UNL A   1      34.164  32.270  28.568  1.00  0.00    -0.269 OA
BRANCH  34  37
ATOM     37  C   UNL A   1      35.850  30.635  28.436  1.00  0.00     0.039 A 
ATOM     38  C   UNL A   1      37.040  30.962  27.783  1.00  0.00     0.014 A 
ATOM     39  C   UNL A   1      35.852  29.706  29.481  1.00  0.00     0.014 A 
ATOM     40  C   UNL A   1      38.242  30.393  28.212  1.00  0.00     0.010 A 
ATOM     41  C   UNL A   1      37.058  29.198  29.954  1.00  0.00     0.010 A 
ATOM     42  C   UNL A   1      38.265  29.528  29.318  1.00  0.00    -0.014 A 
BRANCH  42  43
ATOM     43  C   UNL A   1      39.536  28.936  29.812  1.00  0.00     0.031 A 
ATOM     44  C   UNL A   1      40.275  29.591  30.946  1.00  0.00     0.074 A 
ATOM     45  C   UNL A   1      40.051  27.851  29.201  1.00  0.00     0.049 A 
ATOM     46  N   UNL A   1      41.439  29.289  31.463  1.00  0.00    -0.248 NA
ATOM     47  C   UNL A   1      39.632  30.762  31.562  1.00  0.00     0.031 C 
ATOM     48  C   UNL A   1      39.439  27.149  28.070  1.00  0.00     0.029 A 
ATOM     49  N   UNL A   1      41.210  27.154  29.436  1.00  0.00    -0.354 N 
ATOM     50  C   UNL A   1      41.674  30.238  32.452  1.00  0.00     0.074 A 
ATOM     51  C   UNL A   1      40.561  31.162  32.417  1.00  0.00     0.031 C 
ATOM     52  C   UNL A   1      40.217  26.109  27.727  1.00  0.00     0.029 A 
ATOM     53  C   UNL A   1      41.405  26.098  28.575  1.00  0.00     0.049 A 
ATOM     54  H   UNL A   1      41.841  27.388  30.154  1.00  0.00     0.167 HD
ATOM     55  C   UNL A   1      42.710  30.317  33.323  1.00  0.00     0.034 A 
ATOM     56  C   UNL A   1      42.432  25.232  28.470  1.00  0.00     0.034 A 
ATOM     57  C   UNL A   1      43.805  29.377  33.351  1.00  0.00     0.049 A 
ATOM     58  C   UNL A   1      43.590  25.358  29.429  1.00  0.00     0.074 A 
ATOM     59  C   UNL A   1      44.880  29.332  34.220  1.00  0.00     0.029 A 
ATOM     60  N   UNL A   1      43.970  28.321  32.462  1.00  0.00    -0.354 N 
ATOM     61  N   UNL A   1      43.776  26.236  30.389  1.00  0.00    -0.248 NA
ATOM     62  C   UNL A   1      44.669  24.372  29.299  1.00  0.00     0.031 C 
ATOM     63  C   UNL A   1      45.730  28.298  33.814  1.00  0.00     0.029 A 
ATOM     64  C   UNL A   1      45.145  27.641  32.743  1.00  0.00     0.049 A 
ATOM     65  H   UNL A   1      43.343  28.090  31.738  1.00  0.00     0.167 HD
ATOM     66  C   UNL A   1      44.977  25.882  30.998  1.00  0.00     0.074 A 
ATOM     67  C   UNL A   1      45.462  24.707  30.306  1.00  0.00     0.031 C 
ATOM     68  C   UNL A   1      45.620  26.472  32.039  1.00  0.00     0.034 A 
BRANCH  55  69
ATOM     69  C   UNL A   1      42.715  31.474  34.295  1.00  0.00     0.023 A 
ATOM     70  C   UNL A   1      41.927  31.465  35.461  1.00  0.00     0.031 A 
ATOM     71  C   UNL A   1      43.497  32.614  34.042  1.00  0.00     0.131 A 
ATOM     72  C   UNL A   1      41.876  32.601  36.282  1.00  0.00     0.055 A 
ATOM     73  C   UNL A   1      43.510  33.708  34.911  1.00  0.00     0.041 A 
ATOM     74  F   UNL A   1      44.252  32.694  32.935  1.00  0.00    -0.206 F 
ATOM     75  C   UNL A   1      42.683  33.713  36.031  1.00  0.00     0.022 A 
BRANCH  72  76
ATOM     76  S   UNL A   1      40.626  32.664  37.595  1.00  0.00     0.124 S 
ATOM     77  O   UNL A   1      40.209  34.062  37.537  1.00  0.00    -0.237 OA
ATOM     78  O   UNL A   1      39.645  31.684  37.144  1.00  0.00    -0.237 OA
ATOM     79  O   UNL A   1      41.372  32.292  38.797  1.00  0.00    -0.744 OA
ENDBRANCH  72  76
ENDBRANCH  55  69
BRANCH  56  80
ATOM     80  C   UNL A   1      42.427  24.175  27.417  1.00  0.00     0.023 A 
ATOM     81  C   UNL A   1      41.911  22.896  27.677  1.00  0.00     0.031 A 
ATOM     82  C   UNL A   1      42.981  24.416  26.147  1.00  0.00     0.131 A 
ATOM     83  C   UNL A   1      42.004  21.891  26.702  1.00  0.00     0.055 A 
ATOM     84  C   UNL A   1      43.019  23.429  25.160  1.00  0.00     0.041 A 
ATOM     85  F   UNL A   1      43.486  25.622  25.842  1.00  0.00    -0.206 F 
ATOM     86  C   UNL A   1      42.542  22.153  25.440  1.00  0.00     0.022 A 
BRANCH  83  87
ATOM     87  S   UNL A   1      41.496  20.206  27.141  1.00  0.00     0.124 S 
ATOM     88  O   UNL A   1      40.861  19.758  25.906  1.00  0.00    -0.237 OA
ATOM     89  O   UNL A   1      42.772  19.583  27.472  1.00  0.00    -0.237 OA
ATOM     90  O   UNL A   1      40.591  20.408  28.271  1.00  0.00    -0.744 OA
ENDBRANCH  83  87
ENDBRANCH  56  80
BRANCH  68  91
ATOM     91  C   UNL A   1      46.892  25.817  32.523  1.00  0.00     0.023 A 
ATOM     92  C   UNL A   1      48.125  26.027  31.883  1.00  0.00     0.031 A 
ATOM     93  C   UNL A   1      46.862  24.965  33.641  1.00  0.00     0.131 A 
ATOM     94  C   UNL A   1      49.268  25.347  32.332  1.00  0.00     0.055 A 
ATOM     95  C   UNL A   1      48.015  24.343  34.122  1.00  0.00     0.041 A 
ATOM     96  F   UNL A   1      45.710  24.727  34.290  1.00  0.00    -0.206 F 
ATOM     97  C   UNL A   1      49.225  24.521  33.458  1.00  0.00     0.022 A 
BRANCH  94  98
ATOM     98  S   UNL A   1      50.796  25.480  31.364  1.00  0.00     0.124 S 
ATOM     99  O   UNL A   1      51.059  26.915  31.406  1.00  0.00    -0.237 OA
ATOM    100  O   UNL A   1      51.719  24.640  32.121  1.00  0.00    -0.237 OA
ATOM    101  O   UNL A   1      50.419  24.958  30.051  1.00  0.00    -0.744 OA
ENDBRANCH  94  98
ENDBRANCH  68  91
ENDBRANCH  42  43
ENDBRANCH  34  37
ENDBRANCH  32  33
ENDBRANCH  31  32
ENDBRANCH   1  31
TORSDOF 21
ENDMDL
