MODEL 1
REMARK VINA RESULT:     -10.8      0.000      0.000
REMARK SMILES N#C/C(=C/c1ccc(-c2cccc(C(=O)NCCCCCCNC(=O)c3ccc(-c4c5nc(c(-c6cc(S(=O)(=O)[O-])ccc6F)c6ccc([nH]6)c(-c6cc(S(=O)(=O)[O-])ccc6F)c6nc(c(-c7cc(S(=O)(=O)[O-])ccc7F)c7ccc4[nH]7)C=C6)C=C5)cc3)c2)o1)c1ccc(F)cc1
REMARK SMILES IDX 19 1 18 2 17 3 16 4 14 5 15 6 13 8 9 9 10 10 89 11 11 12
REMARK SMILES IDX 12 13 8 14 5 15 6 16 90 17 7 18 4 19 3 20 2 21 1 22 91 23
REMARK SMILES IDX 92 24 97 25 93 26 96 27 94 28 95 29 20 30 21 31 22 32 23 33
REMARK SMILES IDX 24 34 25 36 26 37 27 38 88 39 28 40 87 41 29 42 30 43 31 44
REMARK SMILES IDX 81 45 32 46 86 47 80 48 82 49 33 50 85 51 79 52 78 53 34 55
REMARK SMILES IDX 66 56 46 57 65 58 47 59 50 60 64 61 83 62 48 63 49 64 63 66
REMARK SMILES IDX 84 67 51 68 35 69 36 70 44 71 37 72 43 73 45 74 42 75 38 76
REMARK SMILES IDX 39 77 40 78 41 79 67 80 68 81 76 82 69 83 75 84 77 85 74 86
REMARK SMILES IDX 70 87 71 88 72 89 73 90 52 91 53 92 61 93 54 94 60 95 62 96
REMARK SMILES IDX 59 97 55 98 56 99 57 100 58 101
REMARK H PARENT 16 7 23 35 82 54 50 65
REMARK Flexibility Score: inf
ROOT
ATOM      1  C   UNL A   1      34.638  31.552  27.626  1.00  0.00     0.002 C 
ENDROOT
BRANCH   1   2
ATOM      2  C   UNL A   1      33.516  30.521  27.552  1.00  0.00     0.021 C 
BRANCH   2   3
ATOM      3  C   UNL A   1      32.820  30.370  26.205  1.00  0.00     0.116 C 
BRANCH   3   4
ATOM      4  N   UNL A   1      33.630  29.758  25.159  1.00  0.00    -0.352 N 
ATOM      5  C   UNL A   1      33.336  28.765  24.244  1.00  0.00     0.251 C 
ATOM      6  O   UNL A   1      34.214  28.398  23.463  1.00  0.00    -0.269 OA
ATOM      7  H   UNL A   1      34.545  30.114  25.093  1.00  0.00     0.163 HD
BRANCH   5   8
ATOM      8  C   UNL A   1      32.013  28.079  24.219  1.00  0.00     0.040 A 
ATOM      9  C   UNL A   1      30.659  26.143  24.794  1.00  0.00     0.018 A 
ATOM     10  C   UNL A   1      29.716  26.521  23.837  1.00  0.00     0.012 A 
ATOM     11  C   UNL A   1      31.728  27.009  25.060  1.00  0.00     0.025 A 
ATOM     12  C   UNL A   1      29.884  27.714  23.123  1.00  0.00     0.002 A 
ATOM     13  C   UNL A   1      31.051  28.471  23.285  1.00  0.00     0.014 A 
BRANCH   9  14
ATOM     14  C   UNL A   1      30.684  24.840  25.447  1.00  0.00     0.134 A 
ATOM     15  C   UNL A   1      31.242  22.684  25.560  1.00  0.00     0.128 A 
ATOM     16  C   UNL A   1      30.941  23.124  26.846  1.00  0.00     0.051 A 
ATOM     17  O   UNL A   1      31.108  23.768  24.710  1.00  0.00    -0.457 OA
ATOM     18  C   UNL A   1      30.533  24.468  26.765  1.00  0.00     0.051 A 
BRANCH  15  19
ATOM     19  C   UNL A   1      31.560  21.354  25.136  1.00  0.00     0.067 C 
ATOM     20  C   UNL A   1      32.824  21.015  24.807  1.00  0.00     0.063 C 
BRANCH  20  21
ATOM     21  C   UNL A   1      33.182  19.631  24.290  1.00  0.00     0.100 C 
ATOM     22  N   UNL A   1      33.479  18.483  23.861  1.00  0.00    -0.192 NA
ENDBRANCH  20  21
BRANCH  20  23
ATOM     23  C   UNL A   1      33.982  21.942  24.995  1.00  0.00    -0.007 A 
ATOM     24  C   UNL A   1      34.520  22.648  23.900  1.00  0.00     0.012 A 
ATOM     25  C   UNL A   1      34.589  22.087  26.252  1.00  0.00     0.012 A 
ATOM     26  C   UNL A   1      35.686  23.404  24.038  1.00  0.00     0.040 A 
ATOM     27  C   UNL A   1      35.743  22.867  26.394  1.00  0.00     0.040 A 
ATOM     28  C   UNL A   1      36.290  23.499  25.283  1.00  0.00     0.123 A 
ATOM     29  F   UNL A   1      37.420  24.206  25.411  1.00  0.00    -0.207 F 
ENDBRANCH  20  23
ENDBRANCH  15  19
ENDBRANCH   9  14
ENDBRANCH   5   8
ENDBRANCH   3   4
ENDBRANCH   2   3
ENDBRANCH   1   2
BRANCH   1  30
ATOM     30  C   UNL A   1      35.991  31.049  28.135  1.00  0.00     0.002 C 
BRANCH  30  31
ATOM     31  C   UNL A   1      36.098  29.547  28.413  1.00  0.00     0.021 C 
BRANCH  31  32
ATOM     32  C   UNL A   1      36.797  29.164  29.714  1.00  0.00     0.116 C 
BRANCH  32  33
ATOM     33  N   UNL A   1      36.469  30.061  30.808  1.00  0.00    -0.352 N 
ATOM     34  C   UNL A   1      37.140  30.287  31.986  1.00  0.00     0.251 C 
ATOM     35  H   UNL A   1      35.644  30.586  30.688  1.00  0.00     0.163 HD
ATOM     36  O   UNL A   1      36.606  30.946  32.872  1.00  0.00    -0.269 OA
BRANCH  34  37
ATOM     37  C   UNL A   1      38.489  29.712  32.193  1.00  0.00     0.039 A 
ATOM     38  C   UNL A   1      38.656  28.328  32.101  1.00  0.00     0.014 A 
ATOM     39  C   UNL A   1      39.585  30.530  32.482  1.00  0.00     0.014 A 
ATOM     40  C   UNL A   1      39.932  27.773  32.233  1.00  0.00     0.010 A 
ATOM     41  C   UNL A   1      40.865  29.984  32.535  1.00  0.00     0.010 A 
ATOM     42  C   UNL A   1      41.053  28.599  32.413  1.00  0.00    -0.014 A 
BRANCH  42  43
ATOM     43  C   UNL A   1      42.427  28.033  32.483  1.00  0.00     0.031 A 
ATOM     44  C   UNL A   1      43.073  27.777  33.817  1.00  0.00     0.074 A 
ATOM     45  C   UNL A   1      43.114  27.802  31.346  1.00  0.00     0.049 A 
ATOM     46  N   UNL A   1      44.283  27.356  34.087  1.00  0.00    -0.248 NA
ATOM     47  C   UNL A   1      42.256  28.065  35.005  1.00  0.00     0.031 C 
ATOM     48  C   UNL A   1      42.606  28.031  29.992  1.00  0.00     0.029 A 
ATOM     49  N   UNL A   1      44.385  27.324  31.147  1.00  0.00    -0.354 N 
ATOM     50  C   UNL A   1      44.374  27.330  35.474  1.00  0.00     0.074 A 
ATOM     51  C   UNL A   1      43.125  27.858  35.983  1.00  0.00     0.031 C 
ATOM     52  C   UNL A   1      43.540  27.656  29.104  1.00  0.00     0.029 A 
ATOM     53  C   UNL A   1      44.732  27.214  29.820  1.00  0.00     0.049 A 
ATOM     54  H   UNL A   1      44.991  27.084  31.884  1.00  0.00     0.167 HD
ATOM     55  C   UNL A   1      45.391  26.881  36.253  1.00  0.00     0.034 A 
ATOM     56  C   UNL A   1      45.883  26.809  29.246  1.00  0.00     0.034 A 
ATOM     57  C   UNL A   1      46.633  26.366  35.728  1.00  0.00     0.049 A 
ATOM     58  C   UNL A   1      47.029  26.386  30.129  1.00  0.00     0.074 A 
ATOM     59  C   UNL A   1      47.719  25.857  36.420  1.00  0.00     0.029 A 
ATOM     60  N   UNL A   1      46.965  26.306  34.379  1.00  0.00    -0.354 N 
ATOM     61  N   UNL A   1      47.088  26.333  31.440  1.00  0.00    -0.248 NA
ATOM     62  C   UNL A   1      48.261  25.962  29.453  1.00  0.00     0.031 C 
ATOM     63  C   UNL A   1      48.732  25.568  35.500  1.00  0.00     0.029 A 
ATOM     64  C   UNL A   1      48.249  25.806  34.223  1.00  0.00     0.049 A 
ATOM     65  H   UNL A   1      46.372  26.578  33.642  1.00  0.00     0.167 HD
ATOM     66  C   UNL A   1      48.352  25.832  31.742  1.00  0.00     0.074 A 
ATOM     67  C   UNL A   1      49.016  25.592  30.476  1.00  0.00     0.031 C 
ATOM     68  C   UNL A   1      48.909  25.585  32.956  1.00  0.00     0.034 A 
BRANCH  55  69
ATOM     69  C   UNL A   1      45.198  26.962  37.751  1.00  0.00     0.023 A 
ATOM     70  C   UNL A   1      45.599  28.094  38.484  1.00  0.00     0.031 A 
ATOM     71  C   UNL A   1      44.663  25.877  38.467  1.00  0.00     0.131 A 
ATOM     72  C   UNL A   1      45.562  28.072  39.886  1.00  0.00     0.055 A 
ATOM     73  C   UNL A   1      44.531  25.902  39.857  1.00  0.00     0.041 A 
ATOM     74  F   UNL A   1      44.280  24.758  37.831  1.00  0.00    -0.206 F 
ATOM     75  C   UNL A   1      45.004  26.996  40.578  1.00  0.00     0.022 A 
BRANCH  72  76
ATOM     76  S   UNL A   1      46.433  29.382  40.789  1.00  0.00     0.124 S 
ATOM     77  O   UNL A   1      47.470  28.621  41.483  1.00  0.00    -0.237 OA
ATOM     78  O   UNL A   1      46.892  30.255  39.715  1.00  0.00    -0.237 OA
ATOM     79  O   UNL A   1      45.400  29.946  41.656  1.00  0.00    -0.744 OA
ENDBRANCH  72  76
ENDBRANCH  55  69
BRANCH  56  80
ATOM     80  C   UNL A   1      46.013  26.779  27.761  1.00  0.00     0.023 A 
ATOM     81  C   UNL A   1      45.875  25.573  27.055  1.00  0.00     0.031 A 
ATOM     82  C   UNL A   1      46.306  27.943  27.028  1.00  0.00     0.131 A 
ATOM     83  C   UNL A   1      46.073  25.550  25.666  1.00  0.00     0.055 A 
ATOM     84  C   UNL A   1      46.447  27.924  25.640  1.00  0.00     0.041 A 
ATOM     85  F   UNL A   1      46.447  29.122  27.654  1.00  0.00    -0.206 F 
ATOM     86  C   UNL A   1      46.341  26.720  24.951  1.00  0.00     0.022 A 
BRANCH  83  87
ATOM     87  S   UNL A   1      46.052  23.949  24.814  1.00  0.00     0.124 S 
ATOM     88  O   UNL A   1      47.056  24.153  23.777  1.00  0.00    -0.237 OA
ATOM     89  O   UNL A   1      46.413  23.029  25.888  1.00  0.00    -0.237 OA
ATOM     90  O   UNL A   1      44.675  23.836  24.338  1.00  0.00    -0.744 OA
ENDBRANCH  83  87
ENDBRANCH  56  80
BRANCH  68  91
ATOM     91  C   UNL A   1      50.292  24.977  32.969  1.00  0.00     0.023 A 
ATOM     92  C   UNL A   1      50.495  23.585  32.950  1.00  0.00     0.031 A 
ATOM     93  C   UNL A   1      51.428  25.807  33.010  1.00  0.00     0.131 A 
ATOM     94  C   UNL A   1      51.796  23.066  33.028  1.00  0.00     0.055 A 
ATOM     95  C   UNL A   1      52.722  25.285  33.018  1.00  0.00     0.041 A 
ATOM     96  F   UNL A   1      51.297  27.143  33.037  1.00  0.00    -0.206 F 
ATOM     97  C   UNL A   1      52.912  23.907  33.042  1.00  0.00     0.022 A 
BRANCH  94  98
ATOM     98  S   UNL A   1      52.010  21.274  33.215  1.00  0.00     0.124 S 
ATOM     99  O   UNL A   1      50.651  20.784  33.008  1.00  0.00    -0.237 OA
ATOM    100  O   UNL A   1      52.967  20.962  32.159  1.00  0.00    -0.237 OA
ATOM    101  O   UNL A   1      52.522  21.130  34.577  1.00  0.00    -0.744 OA
ENDBRANCH  94  98
ENDBRANCH  68  91
ENDBRANCH  42  43
ENDBRANCH  34  37
ENDBRANCH  32  33
ENDBRANCH  31  32
ENDBRANCH  30  31
ENDBRANCH   1  30
TORSDOF 20
ENDMDL
MODEL 2
REMARK VINA RESULT:     -10.7      5.299     12.499
REMARK SMILES N#C/C(=C/c1ccc(-c2cccc(C(=O)NCCCCCCNC(=O)c3ccc(-c4c5nc(c(-c6cc(S(=O)(=O)[O-])ccc6F)c6ccc([nH]6)c(-c6cc(S(=O)(=O)[O-])ccc6F)c6nc(c(-c7cc(S(=O)(=O)[O-])ccc7F)c7ccc4[nH]7)C=C6)C=C5)cc3)c2)o1)c1ccc(F)cc1
REMARK SMILES IDX 19 1 18 2 17 3 16 4 14 5 15 6 13 8 9 9 10 10 89 11 11 12
REMARK SMILES IDX 12 13 8 14 5 15 6 16 90 17 7 18 4 19 3 20 2 21 1 22 91 23
REMARK SMILES IDX 92 24 97 25 93 26 96 27 94 28 95 29 20 30 21 31 22 32 23 33
REMARK SMILES IDX 24 34 25 36 26 37 27 38 88 39 28 40 87 41 29 42 30 43 31 44
REMARK SMILES IDX 81 45 32 46 86 47 80 48 82 49 33 50 85 51 79 52 78 53 34 55
REMARK SMILES IDX 66 56 46 57 65 58 47 59 50 60 64 61 83 62 48 63 49 64 63 66
REMARK SMILES IDX 84 67 51 68 35 69 36 70 44 71 37 72 43 73 45 74 42 75 38 76
REMARK SMILES IDX 39 77 40 78 41 79 67 80 68 81 76 82 69 83 75 84 77 85 74 86
REMARK SMILES IDX 70 87 71 88 72 89 73 90 52 91 53 92 61 93 54 94 60 95 62 96
REMARK SMILES IDX 59 97 55 98 56 99 57 100 58 101
REMARK H PARENT 16 7 23 35 82 54 50 65
REMARK Flexibility Score: inf
ROOT
ATOM      1  C   UNL A   1      47.623  27.836  31.818  1.00  0.00     0.002 C 
ENDROOT
BRANCH   1   2
ATOM      2  C   UNL A   1      47.193  26.435  31.392  1.00  0.00     0.021 C 
BRANCH   2   3
ATOM      3  C   UNL A   1      47.713  25.944  30.046  1.00  0.00     0.116 C 
BRANCH   3   4
ATOM      4  N   UNL A   1      46.766  25.151  29.273  1.00  0.00    -0.352 N 
ATOM      5  C   UNL A   1      46.050  25.448  28.129  1.00  0.00     0.251 C 
ATOM      6  O   UNL A   1      45.283  24.601  27.672  1.00  0.00    -0.269 OA
ATOM      7  H   UNL A   1      46.609  24.246  29.628  1.00  0.00     0.163 HD
BRANCH   5   8
ATOM      8  C   UNL A   1      46.130  26.783  27.471  1.00  0.00     0.040 A 
ATOM      9  C   UNL A   1      45.636  29.164  27.524  1.00  0.00     0.018 A 
ATOM     10  C   UNL A   1      45.821  29.230  26.142  1.00  0.00     0.012 A 
ATOM     11  C   UNL A   1      45.928  27.961  28.181  1.00  0.00     0.025 A 
ATOM     12  C   UNL A   1      46.232  28.092  25.436  1.00  0.00     0.002 A 
ATOM     13  C   UNL A   1      46.346  26.861  26.093  1.00  0.00     0.014 A 
BRANCH   9  14
ATOM     14  C   UNL A   1      45.030  30.223  28.319  1.00  0.00     0.134 A 
ATOM     15  C   UNL A   1      44.690  31.331  30.225  1.00  0.00     0.128 A 
ATOM     16  C   UNL A   1      44.324  32.160  29.168  1.00  0.00     0.051 A 
ATOM     17  O   UNL A   1      45.154  30.147  29.681  1.00  0.00    -0.457 OA
ATOM     18  C   UNL A   1      44.484  31.439  27.970  1.00  0.00     0.051 A 
BRANCH  15  19
ATOM     19  C   UNL A   1      44.556  31.582  31.628  1.00  0.00     0.067 C 
ATOM     20  C   UNL A   1      43.626  32.443  32.093  1.00  0.00     0.063 C 
BRANCH  20  21
ATOM     21  C   UNL A   1      43.501  32.781  33.569  1.00  0.00     0.100 C 
ATOM     22  N   UNL A   1      43.398  33.062  34.794  1.00  0.00    -0.192 NA
ENDBRANCH  20  21
BRANCH  20  23
ATOM     23  C   UNL A   1      42.597  33.072  31.208  1.00  0.00    -0.007 A 
ATOM     24  C   UNL A   1      42.792  34.369  30.691  1.00  0.00     0.012 A 
ATOM     25  C   UNL A   1      41.395  32.406  30.918  1.00  0.00     0.012 A 
ATOM     26  C   UNL A   1      41.778  35.017  29.983  1.00  0.00     0.040 A 
ATOM     27  C   UNL A   1      40.390  33.049  30.186  1.00  0.00     0.040 A 
ATOM     28  C   UNL A   1      40.584  34.353  29.744  1.00  0.00     0.123 A 
ATOM     29  F   UNL A   1      39.604  34.984  29.085  1.00  0.00    -0.207 F 
ENDBRANCH  20  23
ENDBRANCH  15  19
ENDBRANCH   9  14
ENDBRANCH   5   8
ENDBRANCH   3   4
ENDBRANCH   2   3
ENDBRANCH   1   2
BRANCH   1  30
ATOM     30  C   UNL A   1      48.974  27.946  32.529  1.00  0.00     0.002 C 
BRANCH  30  31
ATOM     31  C   UNL A   1      49.179  27.039  33.746  1.00  0.00     0.021 C 
BRANCH  31  32
ATOM     32  C   UNL A   1      49.293  27.752  35.090  1.00  0.00     0.116 C 
BRANCH  32  33
ATOM     33  N   UNL A   1      48.751  26.966  36.185  1.00  0.00    -0.352 N 
ATOM     34  C   UNL A   1      47.442  26.760  36.550  1.00  0.00     0.251 C 
ATOM     35  H   UNL A   1      49.420  26.515  36.748  1.00  0.00     0.163 HD
ATOM     36  O   UNL A   1      47.189  26.217  37.619  1.00  0.00    -0.269 OA
BRANCH  34  37
ATOM     37  C   UNL A   1      46.345  27.219  35.666  1.00  0.00     0.039 A 
ATOM     38  C   UNL A   1      45.362  26.306  35.279  1.00  0.00     0.014 A 
ATOM     39  C   UNL A   1      46.287  28.541  35.217  1.00  0.00     0.014 A 
ATOM     40  C   UNL A   1      44.287  26.734  34.495  1.00  0.00     0.010 A 
ATOM     41  C   UNL A   1      45.176  28.983  34.502  1.00  0.00     0.010 A 
ATOM     42  C   UNL A   1      44.165  28.085  34.132  1.00  0.00    -0.014 A 
BRANCH  42  43
ATOM     43  C   UNL A   1      42.991  28.575  33.361  1.00  0.00     0.031 A 
ATOM     44  C   UNL A   1      41.953  29.436  34.028  1.00  0.00     0.074 A 
ATOM     45  C   UNL A   1      42.829  28.199  32.076  1.00  0.00     0.049 A 
ATOM     46  N   UNL A   1      40.828  29.903  33.548  1.00  0.00    -0.248 NA
ATOM     47  C   UNL A   1      42.203  29.792  35.432  1.00  0.00     0.031 C 
ATOM     48  C   UNL A   1      43.753  27.348  31.325  1.00  0.00     0.029 A 
ATOM     49  N   UNL A   1      41.833  28.483  31.176  1.00  0.00    -0.354 N 
ATOM     50  C   UNL A   1      40.234  30.605  34.591  1.00  0.00     0.074 A 
ATOM     51  C   UNL A   1      41.086  30.429  35.749  1.00  0.00     0.031 C 
ATOM     52  C   UNL A   1      43.301  27.212  30.068  1.00  0.00     0.029 A 
ATOM     53  C   UNL A   1      42.030  27.917  29.938  1.00  0.00     0.049 A 
ATOM     54  H   UNL A   1      41.050  29.038  31.397  1.00  0.00     0.167 HD
ATOM     55  C   UNL A   1      39.100  31.352  34.579  1.00  0.00     0.034 A 
ATOM     56  C   UNL A   1      41.269  27.956  28.826  1.00  0.00     0.034 A 
ATOM     57  C   UNL A   1      38.258  31.508  33.418  1.00  0.00     0.049 A 
ATOM     58  C   UNL A   1      39.974  28.727  28.854  1.00  0.00     0.074 A 
ATOM     59  C   UNL A   1      37.105  32.262  33.282  1.00  0.00     0.029 A 
ATOM     60  N   UNL A   1      38.468  30.888  32.191  1.00  0.00    -0.354 N 
ATOM     61  N   UNL A   1      39.443  29.416  29.838  1.00  0.00    -0.248 NA
ATOM     62  C   UNL A   1      39.181  28.731  27.619  1.00  0.00     0.031 C 
ATOM     63  C   UNL A   1      36.577  32.034  32.007  1.00  0.00     0.029 A 
ATOM     64  C   UNL A   1      37.448  31.212  31.310  1.00  0.00     0.049 A 
ATOM     65  H   UNL A   1      39.232  30.304  31.980  1.00  0.00     0.167 HD
ATOM     66  C   UNL A   1      38.271  29.967  29.325  1.00  0.00     0.074 A 
ATOM     67  C   UNL A   1      38.180  29.535  27.945  1.00  0.00     0.031 C 
ATOM     68  C   UNL A   1      37.357  30.764  29.938  1.00  0.00     0.034 A 
BRANCH  55  69
ATOM     69  C   UNL A   1      38.705  32.023  35.876  1.00  0.00     0.023 A 
ATOM     70  C   UNL A   1      38.135  31.295  36.936  1.00  0.00     0.031 A 
ATOM     71  C   UNL A   1      38.842  33.413  36.038  1.00  0.00     0.131 A 
ATOM     72  C   UNL A   1      37.625  31.969  38.057  1.00  0.00     0.055 A 
ATOM     73  C   UNL A   1      38.428  34.065  37.201  1.00  0.00     0.041 A 
ATOM     74  F   UNL A   1      39.360  34.169  35.056  1.00  0.00    -0.206 F 
ATOM     75  C   UNL A   1      37.793  33.346  38.210  1.00  0.00     0.022 A 
BRANCH  72  76
ATOM     76  S   UNL A   1      36.569  31.046  39.208  1.00  0.00     0.124 S 
ATOM     77  O   UNL A   1      37.431  30.951  40.384  1.00  0.00    -0.237 OA
ATOM     78  O   UNL A   1      35.407  31.916  39.335  1.00  0.00    -0.237 OA
ATOM     79  O   UNL A   1      36.332  29.781  38.516  1.00  0.00    -0.744 OA
ENDBRANCH  72  76
ENDBRANCH  55  69
BRANCH  56  80
ATOM     80  C   UNL A   1      41.708  27.249  27.588  1.00  0.00     0.023 A 
ATOM     81  C   UNL A   1      41.578  25.856  27.475  1.00  0.00     0.031 A 
ATOM     82  C   UNL A   1      42.292  27.946  26.516  1.00  0.00     0.131 A 
ATOM     83  C   UNL A   1      42.063  25.199  26.334  1.00  0.00     0.055 A 
ATOM     84  C   UNL A   1      42.722  27.294  25.359  1.00  0.00     0.041 A 
ATOM     85  F   UNL A   1      42.439  29.280  26.572  1.00  0.00    -0.206 F 
ATOM     86  C   UNL A   1      42.619  25.910  25.268  1.00  0.00     0.022 A 
BRANCH  83  87
ATOM     87  S   UNL A   1      42.029  23.386  26.297  1.00  0.00     0.124 S 
ATOM     88  O   UNL A   1      42.710  23.052  27.543  1.00  0.00    -0.237 OA
ATOM     89  O   UNL A   1      40.596  23.111  26.253  1.00  0.00    -0.237 OA
ATOM     90  O   UNL A   1      42.761  23.057  25.076  1.00  0.00    -0.744 OA
ENDBRANCH  83  87
ENDBRANCH  56  80
BRANCH  68  91
ATOM     91  C   UNL A   1      36.204  31.262  29.099  1.00  0.00     0.023 A 
ATOM     92  C   UNL A   1      35.232  30.391  28.576  1.00  0.00     0.031 A 
ATOM     93  C   UNL A   1      36.081  32.634  28.813  1.00  0.00     0.131 A 
ATOM     94  C   UNL A   1      34.215  30.892  27.748  1.00  0.00     0.055 A 
ATOM     95  C   UNL A   1      35.028  33.135  28.046  1.00  0.00     0.041 A 
ATOM     96  F   UNL A   1      36.982  33.513  29.280  1.00  0.00    -0.206 F 
ATOM     97  C   UNL A   1      34.095  32.261  27.497  1.00  0.00     0.022 A 
BRANCH  94  98
ATOM     98  S   UNL A   1      33.108  29.718  26.920  1.00  0.00     0.124 S 
ATOM     99  O   UNL A   1      33.322  28.500  27.696  1.00  0.00    -0.237 OA
ATOM    100  O   UNL A   1      31.804  30.354  27.078  1.00  0.00    -0.237 OA
ATOM    101  O   UNL A   1      33.614  29.678  25.549  1.00  0.00    -0.744 OA
ENDBRANCH  94  98
ENDBRANCH  68  91
ENDBRANCH  42  43
ENDBRANCH  34  37
ENDBRANCH  32  33
ENDBRANCH  31  32
ENDBRANCH  30  31
ENDBRANCH   1  30
TORSDOF 20
ENDMDL
MODEL 3
REMARK VINA RESULT:     -10.7      5.666      9.035
REMARK SMILES N#C/C(=C/c1ccc(-c2cccc(C(=O)NCCCCCCNC(=O)c3ccc(-c4c5nc(c(-c6cc(S(=O)(=O)[O-])ccc6F)c6ccc([nH]6)c(-c6cc(S(=O)(=O)[O-])ccc6F)c6nc(c(-c7cc(S(=O)(=O)[O-])ccc7F)c7ccc4[nH]7)C=C6)C=C5)cc3)c2)o1)c1ccc(F)cc1
REMARK SMILES IDX 19 1 18 2 17 3 16 4 14 5 15 6 13 8 9 9 10 10 89 11 11 12
REMARK SMILES IDX 12 13 8 14 5 15 6 16 90 17 7 18 4 19 3 20 2 21 1 22 91 23
REMARK SMILES IDX 92 24 97 25 93 26 96 27 94 28 95 29 20 30 21 31 22 32 23 33
REMARK SMILES IDX 24 34 25 36 26 37 27 38 88 39 28 40 87 41 29 42 30 43 31 44
REMARK SMILES IDX 81 45 32 46 86 47 80 48 82 49 33 50 85 51 79 52 78 53 34 55
REMARK SMILES IDX 66 56 46 57 65 58 47 59 50 60 64 61 83 62 48 63 49 64 63 66
REMARK SMILES IDX 84 67 51 68 35 69 36 70 44 71 37 72 43 73 45 74 42 75 38 76
REMARK SMILES IDX 39 77 40 78 41 79 67 80 68 81 76 82 69 83 75 84 77 85 74 86
REMARK SMILES IDX 70 87 71 88 72 89 73 90 52 91 53 92 61 93 54 94 60 95 62 96
REMARK SMILES IDX 59 97 55 98 56 99 57 100 58 101
REMARK H PARENT 16 7 23 35 82 54 50 65
REMARK Flexibility Score: inf
ROOT
ATOM      1  C   UNL A   1      34.378  34.769  31.210  1.00  0.00     0.002 C 
ENDROOT
BRANCH   1   2
ATOM      2  C   UNL A   1      34.041  34.440  29.759  1.00  0.00     0.021 C 
BRANCH   2   3
ATOM      3  C   UNL A   1      34.937  33.419  29.068  1.00  0.00     0.116 C 
BRANCH   3   4
ATOM      4  N   UNL A   1      36.326  33.830  28.905  1.00  0.00    -0.352 N 
ATOM      5  C   UNL A   1      37.508  33.138  29.091  1.00  0.00     0.251 C 
ATOM      6  O   UNL A   1      38.574  33.724  28.907  1.00  0.00    -0.269 OA
ATOM      7  H   UNL A   1      36.442  34.763  28.613  1.00  0.00     0.163 HD
BRANCH   5   8
ATOM      8  C   UNL A   1      37.530  31.727  29.570  1.00  0.00     0.040 A 
ATOM      9  C   UNL A   1      38.722  29.617  29.782  1.00  0.00     0.018 A 
ATOM     10  C   UNL A   1      37.513  28.961  30.018  1.00  0.00     0.012 A 
ATOM     11  C   UNL A   1      38.719  31.016  29.696  1.00  0.00     0.025 A 
ATOM     12  C   UNL A   1      36.323  29.695  30.103  1.00  0.00     0.002 A 
ATOM     13  C   UNL A   1      36.326  31.071  29.839  1.00  0.00     0.014 A 
BRANCH   9  14
ATOM     14  C   UNL A   1      39.976  28.938  29.483  1.00  0.00     0.134 A 
ATOM     15  C   UNL A   1      41.902  28.716  28.382  1.00  0.00     0.128 A 
ATOM     16  C   UNL A   1      41.978  27.961  29.550  1.00  0.00     0.051 A 
ATOM     17  O   UNL A   1      40.667  29.339  28.372  1.00  0.00    -0.457 OA
ATOM     18  C   UNL A   1      40.741  28.055  30.214  1.00  0.00     0.051 A 
BRANCH  15  19
ATOM     19  C   UNL A   1      42.863  28.801  27.324  1.00  0.00     0.067 C 
ATOM     20  C   UNL A   1      43.585  27.721  26.955  1.00  0.00     0.063 C 
BRANCH  20  21
ATOM     21  C   UNL A   1      44.659  27.794  25.882  1.00  0.00     0.100 C 
ATOM     22  N   UNL A   1      45.550  27.854  24.992  1.00  0.00    -0.192 NA
ENDBRANCH  20  21
BRANCH  20  23
ATOM     23  C   UNL A   1      43.335  26.356  27.513  1.00  0.00    -0.007 A 
ATOM     24  C   UNL A   1      42.206  25.613  27.112  1.00  0.00     0.012 A 
ATOM     25  C   UNL A   1      44.189  25.811  28.485  1.00  0.00     0.012 A 
ATOM     26  C   UNL A   1      41.890  24.402  27.730  1.00  0.00     0.040 A 
ATOM     27  C   UNL A   1      43.883  24.583  29.084  1.00  0.00     0.040 A 
ATOM     28  C   UNL A   1      42.728  23.903  28.716  1.00  0.00     0.123 A 
ATOM     29  F   UNL A   1      42.412  22.752  29.325  1.00  0.00    -0.207 F 
ENDBRANCH  20  23
ENDBRANCH  15  19
ENDBRANCH   9  14
ENDBRANCH   5   8
ENDBRANCH   3   4
ENDBRANCH   2   3
ENDBRANCH   1   2
BRANCH   1  30
ATOM     30  C   UNL A   1      34.411  33.590  32.185  1.00  0.00     0.002 C 
BRANCH  30  31
ATOM     31  C   UNL A   1      35.797  33.097  32.610  1.00  0.00     0.021 C 
BRANCH  31  32
ATOM     32  C   UNL A   1      36.578  34.031  33.532  1.00  0.00     0.116 C 
BRANCH  32  33
ATOM     33  N   UNL A   1      36.645  33.537  34.896  1.00  0.00    -0.352 N 
ATOM     34  C   UNL A   1      37.486  32.600  35.447  1.00  0.00     0.251 C 
ATOM     35  H   UNL A   1      35.993  33.933  35.518  1.00  0.00     0.163 HD
ATOM     36  O   UNL A   1      37.266  32.178  36.576  1.00  0.00    -0.269 OA
BRANCH  34  37
ATOM     37  C   UNL A   1      38.634  32.084  34.667  1.00  0.00     0.039 A 
ATOM     38  C   UNL A   1      39.889  32.673  34.841  1.00  0.00     0.014 A 
ATOM     39  C   UNL A   1      38.476  31.030  33.763  1.00  0.00     0.014 A 
ATOM     40  C   UNL A   1      40.996  32.161  34.158  1.00  0.00     0.010 A 
ATOM     41  C   UNL A   1      39.593  30.472  33.144  1.00  0.00     0.010 A 
ATOM     42  C   UNL A   1      40.864  31.032  33.333  1.00  0.00    -0.014 A 
BRANCH  42  43
ATOM     43  C   UNL A   1      42.043  30.428  32.656  1.00  0.00     0.031 A 
ATOM     44  C   UNL A   1      42.645  31.093  31.447  1.00  0.00     0.074 A 
ATOM     45  C   UNL A   1      42.538  29.253  33.094  1.00  0.00     0.049 A 
ATOM     46  N   UNL A   1      43.625  30.690  30.680  1.00  0.00    -0.248 NA
ATOM     47  C   UNL A   1      42.039  32.366  31.033  1.00  0.00     0.031 C 
ATOM     48  C   UNL A   1      42.027  28.498  34.240  1.00  0.00     0.029 A 
ATOM     49  N   UNL A   1      43.577  28.487  32.628  1.00  0.00    -0.354 N 
ATOM     50  C   UNL A   1      43.753  31.657  29.689  1.00  0.00     0.074 A 
ATOM     51  C   UNL A   1      42.694  32.620  29.910  1.00  0.00     0.031 C 
ATOM     52  C   UNL A   1      42.780  27.400  34.412  1.00  0.00     0.029 A 
ATOM     53  C   UNL A   1      43.789  27.341  33.360  1.00  0.00     0.049 A 
ATOM     54  H   UNL A   1      44.119  28.734  31.845  1.00  0.00     0.167 HD
ATOM     55  C   UNL A   1      44.683  31.752  28.705  1.00  0.00     0.034 A 
ATOM     56  C   UNL A   1      44.688  26.350  33.195  1.00  0.00     0.034 A 
ATOM     57  C   UNL A   1      45.726  30.776  28.493  1.00  0.00     0.049 A 
ATOM     58  C   UNL A   1      45.665  26.434  32.050  1.00  0.00     0.074 A 
ATOM     59  C   UNL A   1      46.737  30.785  27.549  1.00  0.00     0.029 A 
ATOM     60  N   UNL A   1      45.885  29.608  29.229  1.00  0.00    -0.354 N 
ATOM     61  N   UNL A   1      45.797  27.374  31.142  1.00  0.00    -0.248 NA
ATOM     62  C   UNL A   1      46.618  25.326  31.912  1.00  0.00     0.031 C 
ATOM     63  C   UNL A   1      47.454  29.589  27.661  1.00  0.00     0.029 A 
ATOM     64  C   UNL A   1      46.952  28.872  28.735  1.00  0.00     0.049 A 
ATOM     65  H   UNL A   1      45.322  29.342  29.992  1.00  0.00     0.167 HD
ATOM     66  C   UNL A   1      46.874  26.987  30.349  1.00  0.00     0.074 A 
ATOM     67  C   UNL A   1      47.359  25.734  30.893  1.00  0.00     0.031 C 
ATOM     68  C   UNL A   1      47.419  27.615  29.274  1.00  0.00     0.034 A 
BRANCH  55  69
ATOM     69  C   UNL A   1      44.581  32.940  27.773  1.00  0.00     0.023 A 
ATOM     70  C   UNL A   1      44.999  34.223  28.170  1.00  0.00     0.031 A 
ATOM     71  C   UNL A   1      44.007  32.805  26.497  1.00  0.00     0.131 A 
ATOM     72  C   UNL A   1      44.737  35.331  27.351  1.00  0.00     0.055 A 
ATOM     73  C   UNL A   1      43.844  33.898  25.642  1.00  0.00     0.041 A 
ATOM     74  F   UNL A   1      43.568  31.612  26.065  1.00  0.00    -0.206 F 
ATOM     75  C   UNL A   1      44.188  35.175  26.077  1.00  0.00     0.022 A 
BRANCH  72  76
ATOM     76  S   UNL A   1      44.941  36.990  28.057  1.00  0.00     0.124 S 
ATOM     77  O   UNL A   1      44.440  36.794  29.416  1.00  0.00    -0.237 OA
ATOM     78  O   UNL A   1      46.376  37.212  27.931  1.00  0.00    -0.237 OA
ATOM     79  O   UNL A   1      44.101  37.830  27.206  1.00  0.00    -0.744 OA
ENDBRANCH  72  76
ENDBRANCH  55  69
BRANCH  56  80
ATOM     80  C   UNL A   1      44.716  25.195  34.137  1.00  0.00     0.023 A 
ATOM     81  C   UNL A   1      45.310  25.316  35.403  1.00  0.00     0.031 A 
ATOM     82  C   UNL A   1      44.180  23.945  33.778  1.00  0.00     0.131 A 
ATOM     83  C   UNL A   1      45.392  24.199  36.248  1.00  0.00     0.055 A 
ATOM     84  C   UNL A   1      44.214  22.851  34.644  1.00  0.00     0.041 A 
ATOM     85  F   UNL A   1      43.599  23.775  32.579  1.00  0.00    -0.206 F 
ATOM     86  C   UNL A   1      44.833  22.972  35.884  1.00  0.00     0.022 A 
BRANCH  83  87
ATOM     87  S   UNL A   1      46.313  24.353  37.802  1.00  0.00     0.124 S 
ATOM     88  O   UNL A   1      45.931  25.691  38.240  1.00  0.00    -0.237 OA
ATOM     89  O   UNL A   1      45.778  23.243  38.584  1.00  0.00    -0.237 OA
ATOM     90  O   UNL A   1      47.707  24.205  37.387  1.00  0.00    -0.744 OA
ENDBRANCH  83  87
ENDBRANCH  56  80
BRANCH  68  91
ATOM     91  C   UNL A   1      48.636  26.977  28.647  1.00  0.00     0.023 A 
ATOM     92  C   UNL A   1      49.939  27.256  29.096  1.00  0.00     0.031 A 
ATOM     93  C   UNL A   1      48.488  26.080  27.573  1.00  0.00     0.131 A 
ATOM     94  C   UNL A   1      51.043  26.689  28.440  1.00  0.00     0.055 A 
ATOM     95  C   UNL A   1      49.586  25.467  26.968  1.00  0.00     0.041 A 
ATOM     96  F   UNL A   1      47.269  25.781  27.096  1.00  0.00    -0.206 F 
ATOM     97  C   UNL A   1      50.873  25.780  27.392  1.00  0.00     0.022 A 
BRANCH  94  98
ATOM     98  S   UNL A   1      52.708  27.233  28.907  1.00  0.00     0.124 S 
ATOM     99  O   UNL A   1      53.491  26.852  27.735  1.00  0.00    -0.237 OA
ATOM    100  O   UNL A   1      52.523  28.666  29.111  1.00  0.00    -0.237 OA
ATOM    101  O   UNL A   1      52.993  26.466  30.119  1.00  0.00    -0.744 OA
ENDBRANCH  94  98
ENDBRANCH  68  91
ENDBRANCH  42  43
ENDBRANCH  34  37
ENDBRANCH  32  33
ENDBRANCH  31  32
ENDBRANCH  30  31
ENDBRANCH   1  30
TORSDOF 20
ENDMDL
