MODEL 1
REMARK VINA RESULT:     -11.8      0.000      0.000
REMARK SMILES Cc1ccc(-c2ncccc2C(=O)NCCCCCCNC(=O)c2ccc(-c3c4nc(c(-c5cc(S(=O)(=O)[O-])ccc5F)c5ccc([nH]5)c(-c5cc(S(=O)(=O)[O-])ccc5F)c5nc(c(-c6cc(S(=O)(=O)[O-])ccc6F)c6ccc3[nH]6)C=C5)C=C4)cc2)c(C)c1
REMARK SMILES IDX 18 1 17 2 16 3 15 4 14 5 12 6 13 7 11 9 6 10 7 11 8 12 10 13
REMARK SMILES IDX 9 14 5 15 1 16 2 17 3 18 89 19 4 20 87 21 88 22 19 23 20 24
REMARK SMILES IDX 21 25 22 26 23 28 24 29 25 30 86 31 26 32 85 33 27 34 28 35
REMARK SMILES IDX 29 36 79 37 30 38 84 39 78 40 80 41 31 42 83 43 77 44 76 45
REMARK SMILES IDX 32 47 64 48 44 49 63 50 45 51 48 52 62 53 81 54 46 55 47 56
REMARK SMILES IDX 61 58 82 59 49 60 33 61 34 62 42 63 35 64 41 65 43 66 40 67
REMARK SMILES IDX 36 68 37 69 38 70 39 71 65 72 66 73 74 74 67 75 73 76 75 77
REMARK SMILES IDX 72 78 68 79 69 80 70 81 71 82 50 83 51 84 59 85 52 86 58 87
REMARK SMILES IDX 60 88 57 89 53 90 54 91 55 92 56 93
REMARK H PARENT 14 8 21 27 80 46 48 57
REMARK Flexibility Score: inf
ROOT
ATOM      1  C   UNL A   1      31.133  31.057  25.898  1.00  0.00     0.002 C 
ENDROOT
BRANCH   1   2
ATOM      2  C   UNL A   1      32.178  30.044  26.386  1.00  0.00     0.002 C 
BRANCH   2   3
ATOM      3  C   UNL A   1      31.606  28.807  27.096  1.00  0.00     0.021 C 
BRANCH   3   4
ATOM      4  C   UNL A   1      32.406  27.533  26.834  1.00  0.00     0.116 C 
BRANCH   4   5
ATOM      5  N   UNL A   1      31.554  26.367  26.923  1.00  0.00    -0.352 N 
ATOM      6  C   UNL A   1      31.283  25.252  26.180  1.00  0.00     0.253 C 
ATOM      7  O   UNL A   1      30.436  24.530  26.709  1.00  0.00    -0.269 OA
ATOM      8  H   UNL A   1      31.020  26.382  27.750  1.00  0.00     0.163 HD
BRANCH   6   9
ATOM      9  C   UNL A   1      31.934  24.855  24.883  1.00  0.00     0.066 A 
ATOM     10  C   UNL A   1      31.500  25.420  23.661  1.00  0.00     0.083 A 
ATOM     11  N   UNL A   1      31.959  25.000  22.439  1.00  0.00    -0.255 NA
ATOM     12  C   UNL A   1      32.873  24.016  22.402  1.00  0.00     0.112 A 
ATOM     13  C   UNL A   1      32.946  23.895  24.779  1.00  0.00     0.018 A 
ATOM     14  C   UNL A   1      33.406  23.451  23.537  1.00  0.00     0.021 A 
BRANCH  10  15
ATOM     15  C   UNL A   1      30.553  26.545  23.527  1.00  0.00     0.004 A 
ATOM     16  C   UNL A   1      27.643  29.714  23.029  1.00  0.00     0.044 C 
ATOM     17  C   UNL A   1      28.641  28.616  23.228  1.00  0.00    -0.051 A 
ATOM     18  C   UNL A   1      28.229  27.319  23.537  1.00  0.00     0.004 A 
ATOM     19  C   UNL A   1      30.010  28.882  23.106  1.00  0.00     0.007 A 
ATOM     20  C   UNL A   1      29.174  26.304  23.697  1.00  0.00     0.011 A 
ATOM     21  C   UNL A   1      30.972  27.862  23.240  1.00  0.00    -0.041 A 
ATOM     22  C   UNL A   1      32.423  28.240  23.097  1.00  0.00     0.045 C 
ENDBRANCH  10  15
ENDBRANCH   6   9
ENDBRANCH   4   5
ENDBRANCH   3   4
ENDBRANCH   2   3
ENDBRANCH   1   2
BRANCH   1  23
ATOM     23  C   UNL A   1      31.270  32.462  26.492  1.00  0.00     0.021 C 
BRANCH  23  24
ATOM     24  C   UNL A   1      32.616  32.725  27.159  1.00  0.00     0.116 C 
BRANCH  24  25
ATOM     25  N   UNL A   1      32.706  34.088  27.652  1.00  0.00    -0.352 N 
ATOM     26  C   UNL A   1      33.510  34.597  28.642  1.00  0.00     0.251 C 
ATOM     27  H   UNL A   1      32.108  34.738  27.216  1.00  0.00     0.163 HD
ATOM     28  O   UNL A   1      33.275  35.705  29.111  1.00  0.00    -0.269 OA
BRANCH  26  29
ATOM     29  C   UNL A   1      34.643  33.791  29.146  1.00  0.00     0.039 A 
ATOM     30  C   UNL A   1      35.948  34.220  28.893  1.00  0.00     0.014 A 
ATOM     31  C   UNL A   1      34.415  32.610  29.861  1.00  0.00     0.014 A 
ATOM     32  C   UNL A   1      37.023  33.491  29.402  1.00  0.00     0.010 A 
ATOM     33  C   UNL A   1      35.485  31.929  30.431  1.00  0.00     0.010 A 
ATOM     34  C   UNL A   1      36.801  32.357  30.201  1.00  0.00    -0.014 A 
BRANCH  34  35
ATOM     35  C   UNL A   1      37.934  31.594  30.789  1.00  0.00     0.031 A 
ATOM     36  C   UNL A   1      38.396  31.895  32.188  1.00  0.00     0.074 A 
ATOM     37  C   UNL A   1      38.573  30.668  30.047  1.00  0.00     0.049 A 
ATOM     38  N   UNL A   1      39.409  31.399  32.851  1.00  0.00    -0.248 NA
ATOM     39  C   UNL A   1      37.634  32.912  32.930  1.00  0.00     0.031 C 
ATOM     40  C   UNL A   1      38.231  30.305  28.669  1.00  0.00     0.029 A 
ATOM     41  N   UNL A   1      39.644  29.863  30.342  1.00  0.00    -0.354 N 
ATOM     42  C   UNL A   1      39.407  32.042  34.085  1.00  0.00     0.074 A 
ATOM     43  C   UNL A   1      38.338  33.017  34.047  1.00  0.00     0.031 C 
ATOM     44  C   UNL A   1      39.056  29.332  28.252  1.00  0.00     0.029 A 
ATOM     45  C   UNL A   1      40.018  29.035  29.308  1.00  0.00     0.049 A 
ATOM     46  H   UNL A   1      40.104  29.877  31.212  1.00  0.00     0.167 HD
ATOM     47  C   UNL A   1      40.202  31.820  35.160  1.00  0.00     0.034 A 
ATOM     48  C   UNL A   1      41.029  28.148  29.218  1.00  0.00     0.034 A 
ATOM     49  C   UNL A   1      41.263  30.842  35.183  1.00  0.00     0.049 A 
ATOM     50  C   UNL A   1      41.939  27.962  30.408  1.00  0.00     0.074 A 
ATOM     51  C   UNL A   1      42.114  30.515  36.224  1.00  0.00     0.029 A 
ATOM     52  N   UNL A   1      41.623  30.034  34.111  1.00  0.00    -0.354 N 
ATOM     53  N   UNL A   1      41.901  28.555  31.580  1.00  0.00    -0.248 NA
ATOM     54  C   UNL A   1      43.022  26.980  30.266  1.00  0.00     0.031 C 
ATOM     55  C   UNL A   1      43.030  29.564  35.763  1.00  0.00     0.029 A 
ATOM     56  C   UNL A   1      42.700  29.233  34.459  1.00  0.00     0.049 A 
ATOM     57  H   UNL A   1      41.179  30.032  33.232  1.00  0.00     0.167 HD
ATOM     58  C   UNL A   1      42.930  27.984  32.326  1.00  0.00     0.074 A 
ATOM     59  C   UNL A   1      43.557  26.993  31.477  1.00  0.00     0.031 C 
ATOM     60  C   UNL A   1      43.318  28.250  33.599  1.00  0.00     0.034 A 
BRANCH  47  61
ATOM     61  C   UNL A   1      39.962  32.666  36.389  1.00  0.00     0.023 A 
ATOM     62  C   UNL A   1      39.073  32.258  37.399  1.00  0.00     0.031 A 
ATOM     63  C   UNL A   1      40.608  33.905  36.545  1.00  0.00     0.131 A 
ATOM     64  C   UNL A   1      38.795  33.112  38.477  1.00  0.00     0.055 A 
ATOM     65  C   UNL A   1      40.394  34.712  37.664  1.00  0.00     0.041 A 
ATOM     66  F   UNL A   1      41.450  34.360  35.604  1.00  0.00    -0.206 F 
ATOM     67  C   UNL A   1      39.470  34.324  38.631  1.00  0.00     0.022 A 
BRANCH  64  68
ATOM     68  S   UNL A   1      37.428  32.683  39.589  1.00  0.00     0.124 S 
ATOM     69  O   UNL A   1      37.500  33.763  40.572  1.00  0.00    -0.237 OA
ATOM     70  O   UNL A   1      36.275  32.707  38.698  1.00  0.00    -0.237 OA
ATOM     71  O   UNL A   1      37.801  31.364  40.096  1.00  0.00    -0.744 OA
ENDBRANCH  64  68
ENDBRANCH  47  61
BRANCH  48  72
ATOM     72  C   UNL A   1      41.253  27.370  27.965  1.00  0.00     0.023 A 
ATOM     73  C   UNL A   1      40.955  25.999  27.906  1.00  0.00     0.031 A 
ATOM     74  C   UNL A   1      41.829  27.966  26.829  1.00  0.00     0.131 A 
ATOM     75  C   UNL A   1      41.293  25.257  26.763  1.00  0.00     0.055 A 
ATOM     76  C   UNL A   1      42.103  27.237  25.670  1.00  0.00     0.041 A 
ATOM     77  F   UNL A   1      42.133  29.274  26.827  1.00  0.00    -0.206 F 
ATOM     78  C   UNL A   1      41.851  25.869  25.640  1.00  0.00     0.022 A 
BRANCH  75  79
ATOM     79  S   UNL A   1      41.100  23.454  26.815  1.00  0.00     0.124 S 
ATOM     80  O   UNL A   1      42.035  23.027  25.780  1.00  0.00    -0.237 OA
ATOM     81  O   UNL A   1      41.479  23.149  28.190  1.00  0.00    -0.237 OA
ATOM     82  O   UNL A   1      39.686  23.255  26.501  1.00  0.00    -0.744 OA
ENDBRANCH  75  79
ENDBRANCH  48  72
BRANCH  60  83
ATOM     83  C   UNL A   1      44.440  27.413  34.166  1.00  0.00     0.023 A 
ATOM     84  C   UNL A   1      44.200  26.181  34.798  1.00  0.00     0.031 A 
ATOM     85  C   UNL A   1      45.770  27.865  34.080  1.00  0.00     0.131 A 
ATOM     86  C   UNL A   1      45.267  25.472  35.371  1.00  0.00     0.055 A 
ATOM     87  C   UNL A   1      46.833  27.122  34.594  1.00  0.00     0.041 A 
ATOM     88  F   UNL A   1      46.056  29.036  33.490  1.00  0.00    -0.206 F 
ATOM     89  C   UNL A   1      46.583  25.925  35.257  1.00  0.00     0.022 A 
BRANCH  86  90
ATOM     90  S   UNL A   1      44.898  23.994  36.357  1.00  0.00     0.124 S 
ATOM     91  O   UNL A   1      43.824  23.375  35.588  1.00  0.00    -0.237 OA
ATOM     92  O   UNL A   1      46.174  23.288  36.352  1.00  0.00    -0.237 OA
ATOM     93  O   UNL A   1      44.498  24.538  37.654  1.00  0.00    -0.744 OA
ENDBRANCH  86  90
ENDBRANCH  60  83
ENDBRANCH  34  35
ENDBRANCH  26  29
ENDBRANCH  24  25
ENDBRANCH  23  24
ENDBRANCH   1  23
TORSDOF 17
ENDMDL
MODEL 2
REMARK VINA RESULT:     -11.7      1.815      8.113
REMARK SMILES Cc1ccc(-c2ncccc2C(=O)NCCCCCCNC(=O)c2ccc(-c3c4nc(c(-c5cc(S(=O)(=O)[O-])ccc5F)c5ccc([nH]5)c(-c5cc(S(=O)(=O)[O-])ccc5F)c5nc(c(-c6cc(S(=O)(=O)[O-])ccc6F)c6ccc3[nH]6)C=C5)C=C4)cc2)c(C)c1
REMARK SMILES IDX 18 1 17 2 16 3 15 4 14 5 12 6 13 7 11 9 6 10 7 11 8 12 10 13
REMARK SMILES IDX 9 14 5 15 1 16 2 17 3 18 89 19 4 20 87 21 88 22 19 23 20 24
REMARK SMILES IDX 21 25 22 26 23 28 24 29 25 30 86 31 26 32 85 33 27 34 28 35
REMARK SMILES IDX 29 36 79 37 30 38 84 39 78 40 80 41 31 42 83 43 77 44 76 45
REMARK SMILES IDX 32 47 64 48 44 49 63 50 45 51 48 52 62 53 81 54 46 55 47 56
REMARK SMILES IDX 61 58 82 59 49 60 33 61 34 62 42 63 35 64 41 65 43 66 40 67
REMARK SMILES IDX 36 68 37 69 38 70 39 71 65 72 66 73 74 74 67 75 73 76 75 77
REMARK SMILES IDX 72 78 68 79 69 80 70 81 71 82 50 83 51 84 59 85 52 86 58 87
REMARK SMILES IDX 60 88 57 89 53 90 54 91 55 92 56 93
REMARK H PARENT 14 8 21 27 80 46 48 57
REMARK Flexibility Score: inf
ROOT
ATOM      1  C   UNL A   1      31.777  30.691  26.244  1.00  0.00     0.002 C 
ENDROOT
BRANCH   1   2
ATOM      2  C   UNL A   1      33.068  30.002  26.709  1.00  0.00     0.002 C 
BRANCH   2   3
ATOM      3  C   UNL A   1      32.904  28.539  27.148  1.00  0.00     0.021 C 
BRANCH   3   4
ATOM      4  C   UNL A   1      31.496  28.207  27.638  1.00  0.00     0.116 C 
BRANCH   4   5
ATOM      5  N   UNL A   1      31.149  26.841  27.308  1.00  0.00    -0.352 N 
ATOM      6  C   UNL A   1      30.934  26.095  26.183  1.00  0.00     0.253 C 
ATOM      7  O   UNL A   1      30.646  24.926  26.443  1.00  0.00    -0.269 OA
ATOM      8  H   UNL A   1      31.037  26.299  28.121  1.00  0.00     0.163 HD
BRANCH   6   9
ATOM      9  C   UNL A   1      31.062  26.560  24.757  1.00  0.00     0.066 A 
ATOM     10  C   UNL A   1      32.130  26.108  23.949  1.00  0.00     0.083 A 
ATOM     11  N   UNL A   1      32.376  26.599  22.693  1.00  0.00    -0.255 NA
ATOM     12  C   UNL A   1      31.555  27.542  22.202  1.00  0.00     0.112 A 
ATOM     13  C   UNL A   1      30.197  27.481  24.156  1.00  0.00     0.018 A 
ATOM     14  C   UNL A   1      30.451  27.997  22.884  1.00  0.00     0.021 A 
BRANCH  10  15
ATOM     15  C   UNL A   1      33.083  25.039  24.309  1.00  0.00     0.004 A 
ATOM     16  C   UNL A   1      36.035  22.031  25.309  1.00  0.00     0.044 C 
ATOM     17  C   UNL A   1      35.011  23.077  24.990  1.00  0.00    -0.051 A 
ATOM     18  C   UNL A   1      35.231  24.417  25.308  1.00  0.00     0.004 A 
ATOM     19  C   UNL A   1      33.811  22.715  24.366  1.00  0.00     0.007 A 
ATOM     20  C   UNL A   1      34.273  25.379  24.984  1.00  0.00     0.011 A 
ATOM     21  C   UNL A   1      32.848  23.679  24.011  1.00  0.00    -0.041 A 
ATOM     22  C   UNL A   1      31.584  23.200  23.346  1.00  0.00     0.045 C 
ENDBRANCH  10  15
ENDBRANCH   6   9
ENDBRANCH   4   5
ENDBRANCH   3   4
ENDBRANCH   2   3
ENDBRANCH   1   2
BRANCH   1  23
ATOM     23  C   UNL A   1      31.571  32.109  26.786  1.00  0.00     0.021 C 
BRANCH  23  24
ATOM     24  C   UNL A   1      32.841  32.755  27.328  1.00  0.00     0.116 C 
BRANCH  24  25
ATOM     25  N   UNL A   1      32.613  34.142  27.698  1.00  0.00    -0.352 N 
ATOM     26  C   UNL A   1      33.139  34.852  28.749  1.00  0.00     0.251 C 
ATOM     27  H   UNL A   1      31.997  34.641  27.114  1.00  0.00     0.163 HD
ATOM     28  O   UNL A   1      32.644  35.927  29.068  1.00  0.00    -0.269 OA
BRANCH  26  29
ATOM     29  C   UNL A   1      34.290  34.302  29.497  1.00  0.00     0.039 A 
ATOM     30  C   UNL A   1      34.060  33.623  30.695  1.00  0.00     0.014 A 
ATOM     31  C   UNL A   1      35.594  34.463  29.017  1.00  0.00     0.014 A 
ATOM     32  C   UNL A   1      35.135  33.061  31.385  1.00  0.00     0.010 A 
ATOM     33  C   UNL A   1      36.653  33.836  29.665  1.00  0.00     0.010 A 
ATOM     34  C   UNL A   1      36.436  33.135  30.861  1.00  0.00    -0.014 A 
BRANCH  34  35
ATOM     35  C   UNL A   1      37.587  32.504  31.560  1.00  0.00     0.031 A 
ATOM     36  C   UNL A   1      38.308  31.348  30.924  1.00  0.00     0.074 A 
ATOM     37  C   UNL A   1      37.947  32.941  32.783  1.00  0.00     0.049 A 
ATOM     38  N   UNL A   1      39.280  30.613  31.402  1.00  0.00    -0.248 NA
ATOM     39  C   UNL A   1      37.855  30.945  29.583  1.00  0.00     0.031 C 
ATOM     40  C   UNL A   1      37.308  34.039  33.511  1.00  0.00     0.029 A 
ATOM     41  N   UNL A   1      38.937  32.515  33.633  1.00  0.00    -0.354 N 
ATOM     42  C   UNL A   1      39.555  29.664  30.423  1.00  0.00     0.074 A 
ATOM     43  C   UNL A   1      38.595  29.870  29.359  1.00  0.00     0.031 C 
ATOM     44  C   UNL A   1      37.940  34.218  34.682  1.00  0.00     0.029 A 
ATOM     45  C   UNL A   1      38.995  33.219  34.815  1.00  0.00     0.049 A 
ATOM     46  H   UNL A   1      39.549  31.774  33.418  1.00  0.00     0.167 HD
ATOM     47  C   UNL A   1      40.535  28.727  30.399  1.00  0.00     0.034 A 
ATOM     48  C   UNL A   1      39.798  33.066  35.887  1.00  0.00     0.034 A 
ATOM     49  C   UNL A   1      41.486  28.536  31.467  1.00  0.00     0.049 A 
ATOM     50  C   UNL A   1      40.841  31.975  35.861  1.00  0.00     0.074 A 
ATOM     51  C   UNL A   1      42.535  27.636  31.540  1.00  0.00     0.029 A 
ATOM     52  N   UNL A   1      41.501  29.256  32.656  1.00  0.00    -0.354 N 
ATOM     53  N   UNL A   1      41.109  31.107  34.913  1.00  0.00    -0.248 NA
ATOM     54  C   UNL A   1      41.697  31.852  37.049  1.00  0.00     0.031 C 
ATOM     55  C   UNL A   1      43.138  27.762  32.795  1.00  0.00     0.029 A 
ATOM     56  C   UNL A   1      42.522  28.799  33.476  1.00  0.00     0.049 A 
ATOM     57  H   UNL A   1      40.878  29.984  32.884  1.00  0.00     0.167 HD
ATOM     58  C   UNL A   1      42.193  30.364  35.375  1.00  0.00     0.074 A 
ATOM     59  C   UNL A   1      42.535  30.896  36.678  1.00  0.00     0.031 C 
ATOM     60  C   UNL A   1      42.850  29.338  34.776  1.00  0.00     0.034 A 
BRANCH  47  61
ATOM     61  C   UNL A   1      40.609  27.829  29.187  1.00  0.00     0.023 A 
ATOM     62  C   UNL A   1      41.553  28.047  28.168  1.00  0.00     0.031 A 
ATOM     63  C   UNL A   1      39.713  26.757  29.032  1.00  0.00     0.131 A 
ATOM     64  C   UNL A   1      41.528  27.259  27.007  1.00  0.00     0.055 A 
ATOM     65  C   UNL A   1      39.751  25.920  27.915  1.00  0.00     0.041 A 
ATOM     66  F   UNL A   1      38.774  26.511  29.959  1.00  0.00    -0.206 F 
ATOM     67  C   UNL A   1      40.653  26.179  26.885  1.00  0.00     0.022 A 
BRANCH  64  68
ATOM     68  S   UNL A   1      42.554  27.762  25.599  1.00  0.00     0.124 S 
ATOM     69  O   UNL A   1      41.800  28.900  25.078  1.00  0.00    -0.237 OA
ATOM     70  O   UNL A   1      43.829  28.076  26.233  1.00  0.00    -0.237 OA
ATOM     71  O   UNL A   1      42.558  26.580  24.739  1.00  0.00    -0.744 OA
ENDBRANCH  64  68
ENDBRANCH  47  61
BRANCH  48  72
ATOM     72  C   UNL A   1      39.654  33.949  37.080  1.00  0.00     0.023 A 
ATOM     73  C   UNL A   1      39.053  33.477  38.257  1.00  0.00     0.031 A 
ATOM     74  C   UNL A   1      40.052  35.298  37.042  1.00  0.00     0.131 A 
ATOM     75  C   UNL A   1      38.808  34.358  39.322  1.00  0.00     0.055 A 
ATOM     76  C   UNL A   1      39.866  36.155  38.128  1.00  0.00     0.041 A 
ATOM     77  F   UNL A   1      40.634  35.804  35.943  1.00  0.00    -0.206 F 
ATOM     78  C   UNL A   1      39.224  35.690  39.272  1.00  0.00     0.022 A 
BRANCH  75  79
ATOM     79  S   UNL A   1      37.829  33.764  40.729  1.00  0.00     0.124 S 
ATOM     80  O   UNL A   1      38.781  32.886  41.401  1.00  0.00    -0.237 OA
ATOM     81  O   UNL A   1      37.505  35.008  41.418  1.00  0.00    -0.237 OA
ATOM     82  O   UNL A   1      36.698  33.090  40.095  1.00  0.00    -0.744 OA
ENDBRANCH  75  79
ENDBRANCH  48  72
BRANCH  60  83
ATOM     83  C   UNL A   1      44.042  28.765  35.505  1.00  0.00     0.023 A 
ATOM     84  C   UNL A   1      43.912  27.714  36.429  1.00  0.00     0.031 A 
ATOM     85  C   UNL A   1      45.327  29.291  35.277  1.00  0.00     0.131 A 
ATOM     86  C   UNL A   1      45.038  27.262  37.134  1.00  0.00     0.055 A 
ATOM     87  C   UNL A   1      46.452  28.792  35.933  1.00  0.00     0.041 A 
ATOM     88  F   UNL A   1      45.508  30.298  34.409  1.00  0.00    -0.206 F 
ATOM     89  C   UNL A   1      46.310  27.781  36.878  1.00  0.00     0.022 A 
BRANCH  86  90
ATOM     90  S   UNL A   1      44.802  26.051  38.464  1.00  0.00     0.124 S 
ATOM     91  O   UNL A   1      44.084  26.834  39.464  1.00  0.00    -0.237 OA
ATOM     92  O   UNL A   1      44.033  25.005  37.802  1.00  0.00    -0.237 OA
ATOM     93  O   UNL A   1      46.167  25.677  38.833  1.00  0.00    -0.744 OA
ENDBRANCH  86  90
ENDBRANCH  60  83
ENDBRANCH  34  35
ENDBRANCH  26  29
ENDBRANCH  24  25
ENDBRANCH  23  24
ENDBRANCH   1  23
TORSDOF 17
ENDMDL
MODEL 3
REMARK VINA RESULT:     -11.7      1.671      7.751
REMARK SMILES Cc1ccc(-c2ncccc2C(=O)NCCCCCCNC(=O)c2ccc(-c3c4nc(c(-c5cc(S(=O)(=O)[O-])ccc5F)c5ccc([nH]5)c(-c5cc(S(=O)(=O)[O-])ccc5F)c5nc(c(-c6cc(S(=O)(=O)[O-])ccc6F)c6ccc3[nH]6)C=C5)C=C4)cc2)c(C)c1
REMARK SMILES IDX 18 1 17 2 16 3 15 4 14 5 12 6 13 7 11 9 6 10 7 11 8 12 10 13
REMARK SMILES IDX 9 14 5 15 1 16 2 17 3 18 89 19 4 20 87 21 88 22 19 23 20 24
REMARK SMILES IDX 21 25 22 26 23 28 24 29 25 30 86 31 26 32 85 33 27 34 28 35
REMARK SMILES IDX 29 36 79 37 30 38 84 39 78 40 80 41 31 42 83 43 77 44 76 45
REMARK SMILES IDX 32 47 64 48 44 49 63 50 45 51 48 52 62 53 81 54 46 55 47 56
REMARK SMILES IDX 61 58 82 59 49 60 33 61 34 62 42 63 35 64 41 65 43 66 40 67
REMARK SMILES IDX 36 68 37 69 38 70 39 71 65 72 66 73 74 74 67 75 73 76 75 77
REMARK SMILES IDX 72 78 68 79 69 80 70 81 71 82 50 83 51 84 59 85 52 86 58 87
REMARK SMILES IDX 60 88 57 89 53 90 54 91 55 92 56 93
REMARK H PARENT 14 8 21 27 80 46 48 57
REMARK Flexibility Score: inf
ROOT
ATOM      1  C   UNL A   1      31.994  30.613  26.046  1.00  0.00     0.002 C 
ENDROOT
BRANCH   1   2
ATOM      2  C   UNL A   1      33.238  29.777  26.376  1.00  0.00     0.002 C 
BRANCH   2   3
ATOM      3  C   UNL A   1      32.951  28.387  26.965  1.00  0.00     0.021 C 
BRANCH   3   4
ATOM      4  C   UNL A   1      31.469  28.020  26.959  1.00  0.00     0.116 C 
BRANCH   4   5
ATOM      5  N   UNL A   1      31.294  26.596  27.148  1.00  0.00    -0.352 N 
ATOM      6  C   UNL A   1      31.663  25.439  26.521  1.00  0.00     0.253 C 
ATOM      7  O   UNL A   1      31.242  24.436  27.100  1.00  0.00    -0.269 OA
ATOM      8  H   UNL A   1      30.761  26.409  27.954  1.00  0.00     0.163 HD
BRANCH   6   9
ATOM      9  C   UNL A   1      32.521  25.317  25.291  1.00  0.00     0.066 A 
ATOM     10  C   UNL A   1      32.053  25.782  24.041  1.00  0.00     0.083 A 
ATOM     11  N   UNL A   1      32.729  25.576  22.866  1.00  0.00    -0.255 NA
ATOM     12  C   UNL A   1      33.897  24.914  22.907  1.00  0.00     0.112 A 
ATOM     13  C   UNL A   1      33.782  24.709  25.276  1.00  0.00     0.018 A 
ATOM     14  C   UNL A   1      34.468  24.482  24.081  1.00  0.00     0.021 A 
BRANCH  10  15
ATOM     15  C   UNL A   1      30.827  26.576  23.828  1.00  0.00     0.004 A 
ATOM     16  C   UNL A   1      27.137  28.733  23.126  1.00  0.00     0.044 C 
ATOM     17  C   UNL A   1      28.406  27.986  23.396  1.00  0.00    -0.051 A 
ATOM     18  C   UNL A   1      28.380  26.679  23.882  1.00  0.00     0.004 A 
ATOM     19  C   UNL A   1      29.643  28.599  23.162  1.00  0.00     0.007 A 
ATOM     20  C   UNL A   1      29.574  25.992  24.107  1.00  0.00     0.011 A 
ATOM     21  C   UNL A   1      30.854  27.908  23.361  1.00  0.00    -0.041 A 
ATOM     22  C   UNL A   1      32.139  28.646  23.088  1.00  0.00     0.045 C 
ENDBRANCH  10  15
ENDBRANCH   6   9
ENDBRANCH   4   5
ENDBRANCH   3   4
ENDBRANCH   2   3
ENDBRANCH   1   2
BRANCH   1  23
ATOM     23  C   UNL A   1      31.784  31.838  26.941  1.00  0.00     0.021 C 
BRANCH  23  24
ATOM     24  C   UNL A   1      33.038  32.682  27.141  1.00  0.00     0.116 C 
BRANCH  24  25
ATOM     25  N   UNL A   1      32.710  34.012  27.625  1.00  0.00    -0.352 N 
ATOM     26  C   UNL A   1      33.148  34.651  28.759  1.00  0.00     0.251 C 
ATOM     27  H   UNL A   1      32.088  34.527  27.061  1.00  0.00     0.163 HD
ATOM     28  O   UNL A   1      32.574  35.661  29.151  1.00  0.00    -0.269 OA
BRANCH  26  29
ATOM     29  C   UNL A   1      34.299  34.101  29.505  1.00  0.00     0.039 A 
ATOM     30  C   UNL A   1      34.065  33.297  30.622  1.00  0.00     0.014 A 
ATOM     31  C   UNL A   1      35.610  34.386  29.105  1.00  0.00     0.014 A 
ATOM     32  C   UNL A   1      35.144  32.735  31.307  1.00  0.00     0.010 A 
ATOM     33  C   UNL A   1      36.679  33.765  29.741  1.00  0.00     0.010 A 
ATOM     34  C   UNL A   1      36.459  32.939  30.854  1.00  0.00    -0.014 A 
BRANCH  34  35
ATOM     35  C   UNL A   1      37.617  32.314  31.545  1.00  0.00     0.031 A 
ATOM     36  C   UNL A   1      38.359  31.181  30.889  1.00  0.00     0.074 A 
ATOM     37  C   UNL A   1      37.968  32.733  32.776  1.00  0.00     0.049 A 
ATOM     38  N   UNL A   1      39.341  30.453  31.356  1.00  0.00    -0.248 NA
ATOM     39  C   UNL A   1      37.916  30.796  29.540  1.00  0.00     0.031 C 
ATOM     40  C   UNL A   1      37.308  33.807  33.523  1.00  0.00     0.029 A 
ATOM     41  N   UNL A   1      38.962  32.308  33.621  1.00  0.00    -0.354 N 
ATOM     42  C   UNL A   1      39.634  29.527  30.361  1.00  0.00     0.074 A 
ATOM     43  C   UNL A   1      38.674  29.737  29.298  1.00  0.00     0.031 C 
ATOM     44  C   UNL A   1      37.935  33.975  34.699  1.00  0.00     0.029 A 
ATOM     45  C   UNL A   1      39.005  32.990  34.816  1.00  0.00     0.049 A 
ATOM     46  H   UNL A   1      39.587  31.581  33.394  1.00  0.00     0.167 HD
ATOM     47  C   UNL A   1      40.629  28.607  30.322  1.00  0.00     0.034 A 
ATOM     48  C   UNL A   1      39.808  32.830  35.887  1.00  0.00     0.034 A 
ATOM     49  C   UNL A   1      41.580  28.412  31.389  1.00  0.00     0.049 A 
ATOM     50  C   UNL A   1      40.869  31.758  35.845  1.00  0.00     0.074 A 
ATOM     51  C   UNL A   1      42.643  27.527  31.448  1.00  0.00     0.029 A 
ATOM     52  N   UNL A   1      41.581  29.109  32.592  1.00  0.00    -0.354 N 
ATOM     53  N   UNL A   1      41.153  30.912  34.881  1.00  0.00    -0.248 NA
ATOM     54  C   UNL A   1      41.724  31.626  37.032  1.00  0.00     0.031 C 
ATOM     55  C   UNL A   1      43.241  27.640  32.707  1.00  0.00     0.029 A 
ATOM     56  C   UNL A   1      42.607  28.654  33.406  1.00  0.00     0.049 A 
ATOM     57  H   UNL A   1      40.945  29.822  32.831  1.00  0.00     0.167 HD
ATOM     58  C   UNL A   1      42.247  30.177  35.332  1.00  0.00     0.074 A 
ATOM     59  C   UNL A   1      42.577  30.690  36.646  1.00  0.00     0.031 C 
ATOM     60  C   UNL A   1      42.923  29.174  34.716  1.00  0.00     0.034 A 
BRANCH  47  61
ATOM     61  C   UNL A   1      40.721  27.732  29.093  1.00  0.00     0.023 A 
ATOM     62  C   UNL A   1      41.662  27.986  28.080  1.00  0.00     0.031 A 
ATOM     63  C   UNL A   1      39.844  26.648  28.917  1.00  0.00     0.131 A 
ATOM     64  C   UNL A   1      41.653  27.220  26.905  1.00  0.00     0.055 A 
ATOM     65  C   UNL A   1      39.899  25.833  27.785  1.00  0.00     0.041 A 
ATOM     66  F   UNL A   1      38.908  26.369  29.838  1.00  0.00    -0.206 F 
ATOM     67  C   UNL A   1      40.797  26.126  26.762  1.00  0.00     0.022 A 
BRANCH  64  68
ATOM     68  S   UNL A   1      42.673  27.766  25.509  1.00  0.00     0.124 S 
ATOM     69  O   UNL A   1      41.902  28.903  25.010  1.00  0.00    -0.237 OA
ATOM     70  O   UNL A   1      43.942  28.087  26.150  1.00  0.00    -0.237 OA
ATOM     71  O   UNL A   1      42.695  26.602  24.625  1.00  0.00    -0.744 OA
ENDBRANCH  64  68
ENDBRANCH  47  61
BRANCH  48  72
ATOM     72  C   UNL A   1      39.646  33.689  37.096  1.00  0.00     0.023 A 
ATOM     73  C   UNL A   1      39.038  33.189  38.259  1.00  0.00     0.031 A 
ATOM     74  C   UNL A   1      40.035  35.041  37.088  1.00  0.00     0.131 A 
ATOM     75  C   UNL A   1      38.778  34.047  39.338  1.00  0.00     0.055 A 
ATOM     76  C   UNL A   1      39.833  35.875  38.190  1.00  0.00     0.041 A 
ATOM     77  F   UNL A   1      40.623  35.573  36.005  1.00  0.00    -0.206 F 
ATOM     78  C   UNL A   1      39.184  35.382  39.318  1.00  0.00     0.022 A 
BRANCH  75  79
ATOM     79  S   UNL A   1      37.790  33.418  40.724  1.00  0.00     0.124 S 
ATOM     80  O   UNL A   1      36.536  33.078  40.063  1.00  0.00    -0.237 OA
ATOM     81  O   UNL A   1      38.599  32.296  41.186  1.00  0.00    -0.237 OA
ATOM     82  O   UNL A   1      37.726  34.557  41.639  1.00  0.00    -0.744 OA
ENDBRANCH  75  79
ENDBRANCH  48  72
BRANCH  60  83
ATOM     83  C   UNL A   1      44.122  28.607  35.438  1.00  0.00     0.023 A 
ATOM     84  C   UNL A   1      44.001  27.565  36.373  1.00  0.00     0.031 A 
ATOM     85  C   UNL A   1      45.405  29.129  35.191  1.00  0.00     0.131 A 
ATOM     86  C   UNL A   1      45.134  27.119  37.071  1.00  0.00     0.055 A 
ATOM     87  C   UNL A   1      46.537  28.635  35.839  1.00  0.00     0.041 A 
ATOM     88  F   UNL A   1      45.578  30.126  34.310  1.00  0.00    -0.206 F 
ATOM     89  C   UNL A   1      46.404  27.633  36.796  1.00  0.00     0.022 A 
BRANCH  86  90
ATOM     90  S   UNL A   1      44.912  25.922  38.416  1.00  0.00     0.124 S 
ATOM     91  O   UNL A   1      44.176  24.851  37.752  1.00  0.00    -0.237 OA
ATOM     92  O   UNL A   1      46.287  25.612  38.789  1.00  0.00    -0.237 OA
ATOM     93  O   UNL A   1      44.152  26.669  39.417  1.00  0.00    -0.744 OA
ENDBRANCH  86  90
ENDBRANCH  60  83
ENDBRANCH  34  35
ENDBRANCH  26  29
ENDBRANCH  24  25
ENDBRANCH  23  24
ENDBRANCH   1  23
TORSDOF 17
ENDMDL
