MODEL 1
REMARK VINA RESULT:     -10.2      0.000      0.000
REMARK SMILES O=C(CNS(=O)(=O)c1ccccc1)N[C@@H](CO)C(=O)NCCCCCCNC(=O)c1ccc(-c2c3nc(c(-c4cc(S(=O)(=O)[O-])ccc4F)c4ccc([nH]4)c(-c4cc(S(=O)(=O)[O-])ccc4F)c4nc(c(-c5cc(S(=O)(=O)[O-])ccc5F)c5ccc2[nH]5)C=C4)C=C3)cc1
REMARK SMILES IDX 22 1 21 2 20 3 18 4 19 5 15 7 14 8 1 9 2 10 3 12 4 13 5 15
REMARK SMILES IDX 6 16 7 17 8 18 9 19 13 20 10 21 12 22 11 23 16 24 17 25
REMARK SMILES IDX 23 27 24 28 25 29 26 30 27 31 28 32 29 34 30 35 31 36 92 37
REMARK SMILES IDX 32 38 91 39 33 40 34 41 35 42 85 43 36 44 90 45 84 46 86 47
REMARK SMILES IDX 37 48 89 49 83 50 82 51 38 53 70 54 50 55 69 56 51 57 54 58
REMARK SMILES IDX 68 59 87 60 52 61 53 62 67 64 88 65 55 66 39 67 40 68 48 69
REMARK SMILES IDX 41 70 47 71 49 72 46 73 42 74 43 75 44 76 45 77 71 78 72 79
REMARK SMILES IDX 80 80 73 81 79 82 81 83 78 84 74 85 75 86 76 87 77 88 56 89
REMARK SMILES IDX 57 90 65 91 58 92 64 93 66 94 63 95 59 96 60 97 61 98 62 99
REMARK H PARENT 20 6 14 11 4 14 17 26 27 33 86 52 54 63
REMARK Flexibility Score: inf
ROOT
ATOM      1  C   UNL A   1      32.953  27.894  26.781  1.00  0.00     0.021 C 
ENDROOT
BRANCH   1   2
ATOM      2  C   UNL A   1      32.744  27.191  25.441  1.00  0.00     0.116 C 
BRANCH   2   3
ATOM      3  N   UNL A   1      33.583  27.755  24.401  1.00  0.00    -0.354 N 
ATOM      4  C   UNL A   1      33.419  27.814  23.052  1.00  0.00     0.244 C 
ATOM      5  O   UNL A   1      34.168  28.578  22.432  1.00  0.00    -0.273 OA
ATOM      6  H   UNL A   1      34.415  28.167  24.728  1.00  0.00     0.163 HD
BRANCH   4   7
ATOM      7  C   UNL A   1      32.311  27.047  22.307  1.00  0.00     0.197 C 
BRANCH   7   8
ATOM      8  N   UNL A   1      32.392  25.595  22.471  1.00  0.00    -0.341 N 
ATOM      9  O   UNL A   1      33.119  25.179  20.342  1.00  0.00    -0.274 OA
ATOM     10  C   UNL A   1      32.866  24.773  21.472  1.00  0.00     0.235 C 
ATOM     11  H   UNL A   1      32.099  25.194  23.321  1.00  0.00     0.164 HD
BRANCH  10  12
ATOM     12  C   UNL A   1      33.025  23.308  21.869  1.00  0.00     0.198 C 
BRANCH  12  13
ATOM     13  N   UNL A   1      31.947  22.886  22.794  1.00  0.00    -0.202 NA
ATOM     14  H   UNL A   1      31.264  22.351  22.259  1.00  0.00     0.141 HD
BRANCH  13  15
ATOM     15  S   UNL A   1      32.441  21.934  24.108  1.00  0.00     0.241 S 
ATOM     16  O   UNL A   1      31.501  22.180  25.176  1.00  0.00    -0.207 OA
ATOM     17  O   UNL A   1      32.660  20.614  23.565  1.00  0.00    -0.207 OA
BRANCH  15  18
ATOM     18  C   UNL A   1      34.016  22.596  24.568  1.00  0.00     0.082 A 
ATOM     19  C   UNL A   1      34.064  23.857  25.171  1.00  0.00     0.022 A 
ATOM     20  C   UNL A   1      35.191  21.891  24.292  1.00  0.00     0.022 A 
ATOM     21  C   UNL A   1      35.298  24.413  25.505  1.00  0.00     0.001 A 
ATOM     22  C   UNL A   1      36.422  22.459  24.620  1.00  0.00     0.001 A 
ATOM     23  C   UNL A   1      36.475  23.716  25.226  1.00  0.00     0.000 A 
ENDBRANCH  15  18
ENDBRANCH  13  15
ENDBRANCH  12  13
ENDBRANCH  10  12
ENDBRANCH   7   8
BRANCH   7  24
ATOM     24  C   UNL A   1      30.921  27.636  22.585  1.00  0.00     0.191 C 
BRANCH  24  25
ATOM     25  O   UNL A   1      30.542  28.650  21.657  1.00  0.00    -0.394 OA
ATOM     26  H   UNL A   1      30.599  28.300  20.754  1.00  0.00     0.210 HD
ENDBRANCH  24  25
ENDBRANCH   7  24
ENDBRANCH   4   7
ENDBRANCH   2   3
ENDBRANCH   1   2
BRANCH   1  27
ATOM     27  C   UNL A   1      32.096  29.146  27.000  1.00  0.00     0.002 C 
BRANCH  27  28
ATOM     28  C   UNL A   1      32.861  30.428  27.341  1.00  0.00     0.002 C 
BRANCH  28  29
ATOM     29  C   UNL A   1      32.060  31.729  27.246  1.00  0.00     0.021 C 
BRANCH  29  30
ATOM     30  C   UNL A   1      32.842  32.954  26.776  1.00  0.00     0.116 C 
BRANCH  30  31
ATOM     31  N   UNL A   1      32.631  34.114  27.622  1.00  0.00    -0.352 N 
ATOM     32  C   UNL A   1      33.259  34.463  28.793  1.00  0.00     0.251 C 
ATOM     33  H   UNL A   1      31.940  34.741  27.311  1.00  0.00     0.163 HD
ATOM     34  O   UNL A   1      32.839  35.418  29.441  1.00  0.00    -0.269 OA
BRANCH  32  35
ATOM     35  C   UNL A   1      34.410  33.674  29.290  1.00  0.00     0.039 A 
ATOM     36  C   UNL A   1      35.700  34.068  28.923  1.00  0.00     0.014 A 
ATOM     37  C   UNL A   1      34.228  32.546  30.096  1.00  0.00     0.014 A 
ATOM     38  C   UNL A   1      36.808  33.370  29.413  1.00  0.00     0.010 A 
ATOM     39  C   UNL A   1      35.335  31.887  30.631  1.00  0.00     0.010 A 
ATOM     40  C   UNL A   1      36.636  32.292  30.295  1.00  0.00    -0.014 A 
BRANCH  40  41
ATOM     41  C   UNL A   1      37.806  31.572  30.864  1.00  0.00     0.031 A 
ATOM     42  C   UNL A   1      38.294  31.902  32.249  1.00  0.00     0.074 A 
ATOM     43  C   UNL A   1      38.456  30.656  30.119  1.00  0.00     0.049 A 
ATOM     44  N   UNL A   1      39.340  31.448  32.891  1.00  0.00    -0.248 NA
ATOM     45  C   UNL A   1      37.511  32.895  33.001  1.00  0.00     0.031 C 
ATOM     46  C   UNL A   1      38.096  30.266  28.756  1.00  0.00     0.029 A 
ATOM     47  N   UNL A   1      39.562  29.892  30.400  1.00  0.00    -0.354 N 
ATOM     48  C   UNL A   1      39.345  32.098  34.120  1.00  0.00     0.074 A 
ATOM     49  C   UNL A   1      38.232  33.025  34.105  1.00  0.00     0.031 C 
ATOM     50  C   UNL A   1      38.951  29.323  28.327  1.00  0.00     0.029 A 
ATOM     51  C   UNL A   1      39.945  29.070  29.364  1.00  0.00     0.049 A 
ATOM     52  H   UNL A   1      40.037  29.929  31.262  1.00  0.00     0.167 HD
ATOM     53  C   UNL A   1      40.183  31.924  35.173  1.00  0.00     0.034 A 
ATOM     54  C   UNL A   1      40.984  28.219  29.261  1.00  0.00     0.034 A 
ATOM     55  C   UNL A   1      41.286  30.994  35.177  1.00  0.00     0.049 A 
ATOM     56  C   UNL A   1      41.923  28.066  30.432  1.00  0.00     0.074 A 
ATOM     57  C   UNL A   1      42.189  30.728  36.193  1.00  0.00     0.029 A 
ATOM     58  N   UNL A   1      41.639  30.174  34.112  1.00  0.00    -0.354 N 
ATOM     59  N   UNL A   1      41.899  28.677  31.595  1.00  0.00    -0.248 NA
ATOM     60  C   UNL A   1      43.019  27.100  30.280  1.00  0.00     0.031 C 
ATOM     61  C   UNL A   1      43.113  29.785  35.727  1.00  0.00     0.029 A 
ATOM     62  C   UNL A   1      42.753  29.417  34.441  1.00  0.00     0.049 A 
ATOM     63  H   UNL A   1      41.167  30.137  33.249  1.00  0.00     0.167 HD
ATOM     64  C   UNL A   1      42.958  28.141  32.323  1.00  0.00     0.074 A 
ATOM     65  C   UNL A   1      43.589  27.151  31.475  1.00  0.00     0.031 C 
ATOM     66  C   UNL A   1      43.371  28.437  33.582  1.00  0.00     0.034 A 
BRANCH  53  67
ATOM     67  C   UNL A   1      39.940  32.774  36.395  1.00  0.00     0.023 A 
ATOM     68  C   UNL A   1      39.078  32.350  37.422  1.00  0.00     0.031 A 
ATOM     69  C   UNL A   1      40.549  34.035  36.526  1.00  0.00     0.131 A 
ATOM     70  C   UNL A   1      38.789  33.209  38.493  1.00  0.00     0.055 A 
ATOM     71  C   UNL A   1      40.319  34.851  37.635  1.00  0.00     0.041 A 
ATOM     72  F   UNL A   1      41.367  34.501  35.568  1.00  0.00    -0.206 F 
ATOM     73  C   UNL A   1      39.423  34.446  38.620  1.00  0.00     0.022 A 
BRANCH  70  74
ATOM     74  S   UNL A   1      37.470  32.739  39.646  1.00  0.00     0.124 S 
ATOM     75  O   UNL A   1      37.507  33.844  40.601  1.00  0.00    -0.237 OA
ATOM     76  O   UNL A   1      36.298  32.682  38.780  1.00  0.00    -0.237 OA
ATOM     77  O   UNL A   1      37.919  31.452  40.174  1.00  0.00    -0.744 OA
ENDBRANCH  70  74
ENDBRANCH  53  67
BRANCH  54  78
ATOM     78  C   UNL A   1      41.211  27.446  28.007  1.00  0.00     0.023 A 
ATOM     79  C   UNL A   1      40.956  26.067  27.954  1.00  0.00     0.031 A 
ATOM     80  C   UNL A   1      41.748  28.063  26.862  1.00  0.00     0.131 A 
ATOM     81  C   UNL A   1      41.289  25.337  26.803  1.00  0.00     0.055 A 
ATOM     82  C   UNL A   1      42.028  27.342  25.700  1.00  0.00     0.041 A 
ATOM     83  F   UNL A   1      42.005  29.380  26.857  1.00  0.00    -0.206 F 
ATOM     84  C   UNL A   1      41.813  25.967  25.672  1.00  0.00     0.022 A 
BRANCH  81  85
ATOM     85  S   UNL A   1      41.123  23.532  26.843  1.00  0.00     0.124 S 
ATOM     86  O   UNL A   1      39.700  23.357  26.575  1.00  0.00    -0.237 OA
ATOM     87  O   UNL A   1      42.032  23.122  25.778  1.00  0.00    -0.237 OA
ATOM     88  O   UNL A   1      41.551  23.181  28.195  1.00  0.00    -0.744 OA
ENDBRANCH  81  85
ENDBRANCH  54  78
BRANCH  66  89
ATOM     89  C   UNL A   1      44.527  27.635  34.124  1.00  0.00     0.023 A 
ATOM     90  C   UNL A   1      44.329  26.428  34.816  1.00  0.00     0.031 A 
ATOM     91  C   UNL A   1      45.844  28.101  33.965  1.00  0.00     0.131 A 
ATOM     92  C   UNL A   1      45.427  25.755  35.373  1.00  0.00     0.055 A 
ATOM     93  C   UNL A   1      46.937  27.400  34.475  1.00  0.00     0.041 A 
ATOM     94  F   UNL A   1      46.088  29.249  33.312  1.00  0.00    -0.206 F 
ATOM     95  C   UNL A   1      46.730  26.227  35.195  1.00  0.00     0.022 A 
BRANCH  92  96
ATOM     96  S   UNL A   1      45.121  24.296  36.405  1.00  0.00     0.124 S 
ATOM     97  O   UNL A   1      44.415  24.873  37.545  1.00  0.00    -0.237 OA
ATOM     98  O   UNL A   1      44.323  23.451  35.524  1.00  0.00    -0.237 OA
ATOM     99  O   UNL A   1      46.463  23.793  36.697  1.00  0.00    -0.744 OA
ENDBRANCH  92  96
ENDBRANCH  66  89
ENDBRANCH  40  41
ENDBRANCH  32  35
ENDBRANCH  30  31
ENDBRANCH  29  30
ENDBRANCH  28  29
ENDBRANCH  27  28
ENDBRANCH   1  27
TORSDOF 23
ENDMDL
MODEL 2
REMARK VINA RESULT:     -10.2      6.172      9.495
REMARK SMILES O=C(CNS(=O)(=O)c1ccccc1)N[C@@H](CO)C(=O)NCCCCCCNC(=O)c1ccc(-c2c3nc(c(-c4cc(S(=O)(=O)[O-])ccc4F)c4ccc([nH]4)c(-c4cc(S(=O)(=O)[O-])ccc4F)c4nc(c(-c5cc(S(=O)(=O)[O-])ccc5F)c5ccc2[nH]5)C=C4)C=C3)cc1
REMARK SMILES IDX 22 1 21 2 20 3 18 4 19 5 15 7 14 8 1 9 2 10 3 12 4 13 5 15
REMARK SMILES IDX 6 16 7 17 8 18 9 19 13 20 10 21 12 22 11 23 16 24 17 25
REMARK SMILES IDX 23 27 24 28 25 29 26 30 27 31 28 32 29 34 30 35 31 36 92 37
REMARK SMILES IDX 32 38 91 39 33 40 34 41 35 42 85 43 36 44 90 45 84 46 86 47
REMARK SMILES IDX 37 48 89 49 83 50 82 51 38 53 70 54 50 55 69 56 51 57 54 58
REMARK SMILES IDX 68 59 87 60 52 61 53 62 67 64 88 65 55 66 39 67 40 68 48 69
REMARK SMILES IDX 41 70 47 71 49 72 46 73 42 74 43 75 44 76 45 77 71 78 72 79
REMARK SMILES IDX 80 80 73 81 79 82 81 83 78 84 74 85 75 86 76 87 77 88 56 89
REMARK SMILES IDX 57 90 65 91 58 92 64 93 66 94 63 95 59 96 60 97 61 98 62 99
REMARK H PARENT 20 6 14 11 4 14 17 26 27 33 86 52 54 63
REMARK Flexibility Score: inf
ROOT
ATOM      1  C   UNL A   1      36.886  22.992  25.351  1.00  0.00     0.021 C 
ENDROOT
BRANCH   1   2
ATOM      2  C   UNL A   1      35.653  23.892  25.329  1.00  0.00     0.116 C 
BRANCH   2   3
ATOM      3  N   UNL A   1      35.161  24.098  23.980  1.00  0.00    -0.354 N 
ATOM      4  C   UNL A   1      34.045  24.724  23.519  1.00  0.00     0.244 C 
ATOM      5  O   UNL A   1      34.005  24.972  22.308  1.00  0.00    -0.273 OA
ATOM      6  H   UNL A   1      35.734  23.717  23.276  1.00  0.00     0.163 HD
BRANCH   4   7
ATOM      7  C   UNL A   1      32.905  25.194  24.440  1.00  0.00     0.197 C 
BRANCH   7   8
ATOM      8  N   UNL A   1      32.426  24.156  25.355  1.00  0.00    -0.341 N 
ATOM      9  O   UNL A   1      30.730  23.441  23.997  1.00  0.00    -0.274 OA
ATOM     10  C   UNL A   1      31.398  23.304  25.017  1.00  0.00     0.235 C 
ATOM     11  H   UNL A   1      32.851  24.066  26.238  1.00  0.00     0.164 HD
BRANCH  10  12
ATOM     12  C   UNL A   1      31.132  22.189  26.024  1.00  0.00     0.198 C 
BRANCH  12  13
ATOM     13  N   UNL A   1      31.561  20.875  25.490  1.00  0.00    -0.202 NA
ATOM     14  H   UNL A   1      31.125  20.749  24.578  1.00  0.00     0.141 HD
BRANCH  13  15
ATOM     15  S   UNL A   1      33.234  20.671  25.301  1.00  0.00     0.241 S 
ATOM     16  O   UNL A   1      33.589  21.294  24.047  1.00  0.00    -0.207 OA
ATOM     17  O   UNL A   1      33.816  21.087  26.557  1.00  0.00    -0.207 OA
BRANCH  15  18
ATOM     18  C   UNL A   1      33.455  18.922  25.156  1.00  0.00     0.082 A 
ATOM     19  C   UNL A   1      34.631  18.441  24.572  1.00  0.00     0.022 A 
ATOM     20  C   UNL A   1      32.453  18.042  25.574  1.00  0.00     0.022 A 
ATOM     21  C   UNL A   1      34.808  17.067  24.413  1.00  0.00     0.001 A 
ATOM     22  C   UNL A   1      32.633  16.670  25.401  1.00  0.00     0.001 A 
ATOM     23  C   UNL A   1      33.807  16.184  24.823  1.00  0.00     0.000 A 
ENDBRANCH  15  18
ENDBRANCH  13  15
ENDBRANCH  12  13
ENDBRANCH  10  12
ENDBRANCH   7   8
BRANCH   7  24
ATOM     24  C   UNL A   1      33.233  26.531  25.121  1.00  0.00     0.191 C 
BRANCH  24  25
ATOM     25  O   UNL A   1      32.418  27.610  24.666  1.00  0.00    -0.394 OA
ATOM     26  H   UNL A   1      32.628  28.409  25.173  1.00  0.00     0.210 HD
ENDBRANCH  24  25
ENDBRANCH   7  24
ENDBRANCH   4   7
ENDBRANCH   2   3
ENDBRANCH   1   2
BRANCH   1  27
ATOM     27  C   UNL A   1      38.174  23.664  25.840  1.00  0.00     0.002 C 
BRANCH  27  28
ATOM     28  C   UNL A   1      39.226  22.731  26.446  1.00  0.00     0.002 C 
BRANCH  28  29
ATOM     29  C   UNL A   1      39.356  21.354  25.789  1.00  0.00     0.021 C 
BRANCH  29  30
ATOM     30  C   UNL A   1      39.775  20.216  26.718  1.00  0.00     0.116 C 
BRANCH  30  31
ATOM     31  N   UNL A   1      40.826  19.389  26.154  1.00  0.00    -0.352 N 
ATOM     32  C   UNL A   1      42.115  19.725  25.822  1.00  0.00     0.251 C 
ATOM     33  H   UNL A   1      40.578  18.451  25.986  1.00  0.00     0.163 HD
ATOM     34  O   UNL A   1      42.815  18.914  25.220  1.00  0.00    -0.269 OA
BRANCH  32  35
ATOM     35  C   UNL A   1      42.649  21.066  26.156  1.00  0.00     0.039 A 
ATOM     36  C   UNL A   1      42.885  21.971  25.116  1.00  0.00     0.014 A 
ATOM     37  C   UNL A   1      42.932  21.431  27.476  1.00  0.00     0.014 A 
ATOM     38  C   UNL A   1      43.346  23.259  25.405  1.00  0.00     0.010 A 
ATOM     39  C   UNL A   1      43.337  22.734  27.766  1.00  0.00     0.010 A 
ATOM     40  C   UNL A   1      43.547  23.662  26.734  1.00  0.00    -0.014 A 
BRANCH  40  41
ATOM     41  C   UNL A   1      43.989  25.043  27.060  1.00  0.00     0.031 A 
ATOM     42  C   UNL A   1      43.001  26.044  27.598  1.00  0.00     0.074 A 
ATOM     43  C   UNL A   1      45.264  25.412  26.827  1.00  0.00     0.049 A 
ATOM     44  N   UNL A   1      43.168  27.314  27.865  1.00  0.00    -0.248 NA
ATOM     45  C   UNL A   1      41.637  25.551  27.845  1.00  0.00     0.031 C 
ATOM     46  C   UNL A   1      46.309  24.542  26.286  1.00  0.00     0.029 A 
ATOM     47  N   UNL A   1      45.898  26.615  27.010  1.00  0.00    -0.354 N 
ATOM     48  C   UNL A   1      41.934  27.775  28.309  1.00  0.00     0.074 A 
ATOM     49  C   UNL A   1      41.014  26.660  28.214  1.00  0.00     0.031 C 
ATOM     50  C   UNL A   1      47.457  25.234  26.198  1.00  0.00     0.029 A 
ATOM     51  C   UNL A   1      47.223  26.606  26.636  1.00  0.00     0.049 A 
ATOM     52  H   UNL A   1      45.447  27.412  27.374  1.00  0.00     0.167 HD
ATOM     53  C   UNL A   1      41.601  29.005  28.777  1.00  0.00     0.034 A 
ATOM     54  C   UNL A   1      48.140  27.594  26.637  1.00  0.00     0.034 A 
ATOM     55  C   UNL A   1      42.528  30.106  28.872  1.00  0.00     0.049 A 
ATOM     56  C   UNL A   1      47.739  28.962  27.130  1.00  0.00     0.074 A 
ATOM     57  C   UNL A   1      42.302  31.389  29.342  1.00  0.00     0.029 A 
ATOM     58  N   UNL A   1      43.863  30.057  28.490  1.00  0.00    -0.354 N 
ATOM     59  N   UNL A   1      46.570  29.374  27.565  1.00  0.00    -0.248 NA
ATOM     60  C   UNL A   1      48.785  29.994  27.143  1.00  0.00     0.031 C 
ATOM     61  C   UNL A   1      43.483  32.126  29.199  1.00  0.00     0.029 A 
ATOM     62  C   UNL A   1      44.465  31.289  28.698  1.00  0.00     0.049 A 
ATOM     63  H   UNL A   1      44.315  29.263  28.124  1.00  0.00     0.167 HD
ATOM     64  C   UNL A   1      46.753  30.704  27.935  1.00  0.00     0.074 A 
ATOM     65  C   UNL A   1      48.144  31.019  27.684  1.00  0.00     0.031 C 
ATOM     66  C   UNL A   1      45.853  31.586  28.440  1.00  0.00     0.034 A 
BRANCH  53  67
ATOM     67  C   UNL A   1      40.169  29.217  29.201  1.00  0.00     0.023 A 
ATOM     68  C   UNL A   1      39.797  29.191  30.557  1.00  0.00     0.031 A 
ATOM     69  C   UNL A   1      39.158  29.416  28.244  1.00  0.00     0.131 A 
ATOM     70  C   UNL A   1      38.443  29.284  30.913  1.00  0.00     0.055 A 
ATOM     71  C   UNL A   1      37.822  29.588  28.611  1.00  0.00     0.041 A 
ATOM     72  F   UNL A   1      39.452  29.430  26.934  1.00  0.00    -0.206 F 
ATOM     73  C   UNL A   1      37.455  29.507  29.951  1.00  0.00     0.022 A 
BRANCH  70  74
ATOM     74  S   UNL A   1      37.979  28.974  32.639  1.00  0.00     0.124 S 
ATOM     75  O   UNL A   1      38.914  29.838  33.354  1.00  0.00    -0.237 OA
ATOM     76  O   UNL A   1      36.580  29.382  32.669  1.00  0.00    -0.237 OA
ATOM     77  O   UNL A   1      38.215  27.541  32.804  1.00  0.00    -0.744 OA
ENDBRANCH  70  74
ENDBRANCH  53  67
BRANCH  54  78
ATOM     78  C   UNL A   1      49.527  27.344  26.152  1.00  0.00     0.023 A 
ATOM     79  C   UNL A   1      49.945  27.806  24.894  1.00  0.00     0.031 A 
ATOM     80  C   UNL A   1      50.434  26.583  26.912  1.00  0.00     0.131 A 
ATOM     81  C   UNL A   1      51.214  27.457  24.407  1.00  0.00     0.055 A 
ATOM     82  C   UNL A   1      51.715  26.285  26.445  1.00  0.00     0.041 A 
ATOM     83  F   UNL A   1      50.087  26.122  28.123  1.00  0.00    -0.206 F 
ATOM     84  C   UNL A   1      52.106  26.709  25.178  1.00  0.00     0.022 A 
BRANCH  81  85
ATOM     85  S   UNL A   1      51.643  27.911  22.704  1.00  0.00     0.124 S 
ATOM     86  O   UNL A   1      50.866  26.946  21.934  1.00  0.00    -0.237 OA
ATOM     87  O   UNL A   1      51.191  29.297  22.639  1.00  0.00    -0.237 OA
ATOM     88  O   UNL A   1      53.091  27.726  22.658  1.00  0.00    -0.744 OA
ENDBRANCH  81  85
ENDBRANCH  54  78
BRANCH  66  89
ATOM     89  C   UNL A   1      46.372  32.955  28.801  1.00  0.00     0.023 A 
ATOM     90  C   UNL A   1      46.445  33.991  27.855  1.00  0.00     0.031 A 
ATOM     91  C   UNL A   1      46.822  33.215  30.108  1.00  0.00     0.131 A 
ATOM     92  C   UNL A   1      47.009  35.224  28.214  1.00  0.00     0.055 A 
ATOM     93  C   UNL A   1      47.333  34.461  30.473  1.00  0.00     0.041 A 
ATOM     94  F   UNL A   1      46.775  32.259  31.050  1.00  0.00    -0.206 F 
ATOM     95  C   UNL A   1      47.441  35.470  29.519  1.00  0.00     0.022 A 
BRANCH  92  96
ATOM     96  S   UNL A   1      47.247  36.480  26.927  1.00  0.00     0.124 S 
ATOM     97  O   UNL A   1      47.559  35.662  25.758  1.00  0.00    -0.237 OA
ATOM     98  O   UNL A   1      45.953  37.154  26.904  1.00  0.00    -0.237 OA
ATOM     99  O   UNL A   1      48.356  37.286  27.433  1.00  0.00    -0.744 OA
ENDBRANCH  92  96
ENDBRANCH  66  89
ENDBRANCH  40  41
ENDBRANCH  32  35
ENDBRANCH  30  31
ENDBRANCH  29  30
ENDBRANCH  28  29
ENDBRANCH  27  28
ENDBRANCH   1  27
TORSDOF 23
ENDMDL
MODEL 3
REMARK VINA RESULT:     -10.2      5.456     10.814
REMARK SMILES O=C(CNS(=O)(=O)c1ccccc1)N[C@@H](CO)C(=O)NCCCCCCNC(=O)c1ccc(-c2c3nc(c(-c4cc(S(=O)(=O)[O-])ccc4F)c4ccc([nH]4)c(-c4cc(S(=O)(=O)[O-])ccc4F)c4nc(c(-c5cc(S(=O)(=O)[O-])ccc5F)c5ccc2[nH]5)C=C4)C=C3)cc1
REMARK SMILES IDX 22 1 21 2 20 3 18 4 19 5 15 7 14 8 1 9 2 10 3 12 4 13 5 15
REMARK SMILES IDX 6 16 7 17 8 18 9 19 13 20 10 21 12 22 11 23 16 24 17 25
REMARK SMILES IDX 23 27 24 28 25 29 26 30 27 31 28 32 29 34 30 35 31 36 92 37
REMARK SMILES IDX 32 38 91 39 33 40 34 41 35 42 85 43 36 44 90 45 84 46 86 47
REMARK SMILES IDX 37 48 89 49 83 50 82 51 38 53 70 54 50 55 69 56 51 57 54 58
REMARK SMILES IDX 68 59 87 60 52 61 53 62 67 64 88 65 55 66 39 67 40 68 48 69
REMARK SMILES IDX 41 70 47 71 49 72 46 73 42 74 43 75 44 76 45 77 71 78 72 79
REMARK SMILES IDX 80 80 73 81 79 82 81 83 78 84 74 85 75 86 76 87 77 88 56 89
REMARK SMILES IDX 57 90 65 91 58 92 64 93 66 94 63 95 59 96 60 97 61 98 62 99
REMARK H PARENT 20 6 14 11 4 14 17 26 27 33 86 52 54 63
REMARK Flexibility Score: inf
ROOT
ATOM      1  C   UNL A   1      35.989  22.972  26.028  1.00  0.00     0.021 C 
ENDROOT
BRANCH   1   2
ATOM      2  C   UNL A   1      34.815  23.576  25.262  1.00  0.00     0.116 C 
BRANCH   2   3
ATOM      3  N   UNL A   1      33.748  23.991  26.152  1.00  0.00    -0.354 N 
ATOM      4  C   UNL A   1      32.398  23.856  26.057  1.00  0.00     0.244 C 
ATOM      5  O   UNL A   1      31.742  24.077  27.082  1.00  0.00    -0.273 OA
ATOM      6  H   UNL A   1      34.054  24.453  26.966  1.00  0.00     0.163 HD
BRANCH   4   7
ATOM      7  C   UNL A   1      31.691  23.371  24.778  1.00  0.00     0.197 C 
BRANCH   7   8
ATOM      8  N   UNL A   1      32.023  24.159  23.590  1.00  0.00    -0.341 N 
ATOM      9  O   UNL A   1      30.033  25.286  23.519  1.00  0.00    -0.274 OA
ATOM     10  C   UNL A   1      31.172  25.120  23.092  1.00  0.00     0.235 C 
ATOM     11  H   UNL A   1      32.880  23.996  23.135  1.00  0.00     0.164 HD
BRANCH  10  12
ATOM     12  C   UNL A   1      31.742  25.949  21.944  1.00  0.00     0.198 C 
BRANCH  12  13
ATOM     13  N   UNL A   1      31.984  27.348  22.366  1.00  0.00    -0.202 NA
ATOM     14  H   UNL A   1      31.207  27.637  22.960  1.00  0.00     0.141 HD
BRANCH  13  15
ATOM     15  S   UNL A   1      33.422  27.618  23.223  1.00  0.00     0.241 S 
ATOM     16  O   UNL A   1      34.020  26.323  23.448  1.00  0.00    -0.207 OA
ATOM     17  O   UNL A   1      34.107  28.666  22.502  1.00  0.00    -0.207 OA
BRANCH  15  18
ATOM     18  C   UNL A   1      32.897  28.285  24.774  1.00  0.00     0.082 A 
ATOM     19  C   UNL A   1      33.126  27.541  25.936  1.00  0.00     0.022 A 
ATOM     20  C   UNL A   1      32.225  29.509  24.831  1.00  0.00     0.022 A 
ATOM     21  C   UNL A   1      32.684  28.031  27.165  1.00  0.00     0.001 A 
ATOM     22  C   UNL A   1      31.777  29.987  26.062  1.00  0.00     0.001 A 
ATOM     23  C   UNL A   1      32.008  29.251  27.226  1.00  0.00     0.000 A 
ENDBRANCH  15  18
ENDBRANCH  13  15
ENDBRANCH  12  13
ENDBRANCH  10  12
ENDBRANCH   7   8
BRANCH   7  24
ATOM     24  C   UNL A   1      31.831  21.854  24.587  1.00  0.00     0.191 C 
BRANCH  24  25
ATOM     25  O   UNL A   1      31.489  21.104  25.751  1.00  0.00    -0.394 OA
ATOM     26  H   UNL A   1      30.795  20.464  25.531  1.00  0.00     0.210 HD
ENDBRANCH  24  25
ENDBRANCH   7  24
ENDBRANCH   4   7
ENDBRANCH   2   3
ENDBRANCH   1   2
BRANCH   1  27
ATOM     27  C   UNL A   1      37.049  22.283  25.160  1.00  0.00     0.002 C 
BRANCH  27  28
ATOM     28  C   UNL A   1      36.785  20.813  24.825  1.00  0.00     0.002 C 
BRANCH  28  29
ATOM     29  C   UNL A   1      37.975  19.864  24.997  1.00  0.00     0.021 C 
BRANCH  29  30
ATOM     30  C   UNL A   1      39.069  20.343  25.949  1.00  0.00     0.116 C 
BRANCH  30  31
ATOM     31  N   UNL A   1      40.223  19.463  25.965  1.00  0.00    -0.352 N 
ATOM     32  C   UNL A   1      41.551  19.772  26.135  1.00  0.00     0.251 C 
ATOM     33  H   UNL A   1      40.026  18.508  25.837  1.00  0.00     0.163 HD
ATOM     34  O   UNL A   1      42.399  18.899  25.975  1.00  0.00    -0.269 OA
BRANCH  32  35
ATOM     35  C   UNL A   1      41.960  21.155  26.475  1.00  0.00     0.039 A 
ATOM     36  C   UNL A   1      42.103  22.085  25.440  1.00  0.00     0.014 A 
ATOM     37  C   UNL A   1      42.219  21.536  27.795  1.00  0.00     0.014 A 
ATOM     38  C   UNL A   1      42.444  23.409  25.734  1.00  0.00     0.010 A 
ATOM     39  C   UNL A   1      42.503  22.869  28.092  1.00  0.00     0.010 A 
ATOM     40  C   UNL A   1      42.618  23.819  27.065  1.00  0.00    -0.014 A 
BRANCH  40  41
ATOM     41  C   UNL A   1      42.932  25.234  27.397  1.00  0.00     0.031 A 
ATOM     42  C   UNL A   1      44.321  25.769  27.176  1.00  0.00     0.074 A 
ATOM     43  C   UNL A   1      41.983  26.022  27.940  1.00  0.00     0.049 A 
ATOM     44  N   UNL A   1      44.815  26.943  27.475  1.00  0.00    -0.248 NA
ATOM     45  C   UNL A   1      45.288  24.849  26.557  1.00  0.00     0.031 C 
ATOM     46  C   UNL A   1      40.607  25.613  28.225  1.00  0.00     0.029 A 
ATOM     47  N   UNL A   1      42.032  27.329  28.356  1.00  0.00    -0.354 N 
ATOM     48  C   UNL A   1      46.149  26.905  27.085  1.00  0.00     0.074 A 
ATOM     49  C   UNL A   1      46.399  25.569  26.585  1.00  0.00     0.031 C 
ATOM     50  C   UNL A   1      39.939  26.653  28.751  1.00  0.00     0.029 A 
ATOM     51  C   UNL A   1      40.845  27.789  28.880  1.00  0.00     0.049 A 
ATOM     52  H   UNL A   1      42.841  27.886  28.287  1.00  0.00     0.167 HD
ATOM     53  C   UNL A   1      47.075  27.897  27.115  1.00  0.00     0.034 A 
ATOM     54  C   UNL A   1      40.528  28.985  29.412  1.00  0.00     0.034 A 
ATOM     55  C   UNL A   1      46.812  29.227  27.611  1.00  0.00     0.049 A 
ATOM     56  C   UNL A   1      41.583  30.063  29.467  1.00  0.00     0.074 A 
ATOM     57  C   UNL A   1      47.672  30.311  27.675  1.00  0.00     0.029 A 
ATOM     58  N   UNL A   1      45.597  29.657  28.127  1.00  0.00    -0.354 N 
ATOM     59  N   UNL A   1      42.835  30.014  29.074  1.00  0.00    -0.248 NA
ATOM     60  C   UNL A   1      41.176  31.360  30.024  1.00  0.00     0.031 C 
ATOM     61  C   UNL A   1      46.992  31.378  28.274  1.00  0.00     0.029 A 
ATOM     62  C   UNL A   1      45.689  30.981  28.527  1.00  0.00     0.049 A 
ATOM     63  H   UNL A   1      44.787  29.101  28.199  1.00  0.00     0.167 HD
ATOM     64  C   UNL A   1      43.353  31.286  29.306  1.00  0.00     0.074 A 
ATOM     65  C   UNL A   1      42.276  32.079  29.861  1.00  0.00     0.031 C 
ATOM     66  C   UNL A   1      44.606  31.757  29.080  1.00  0.00     0.034 A 
BRANCH  53  67
ATOM     67  C   UNL A   1      48.458  27.566  26.612  1.00  0.00     0.023 A 
ATOM     68  C   UNL A   1      48.829  27.808  25.278  1.00  0.00     0.031 A 
ATOM     69  C   UNL A   1      49.408  26.973  27.462  1.00  0.00     0.131 A 
ATOM     70  C   UNL A   1      50.085  27.390  24.813  1.00  0.00     0.055 A 
ATOM     71  C   UNL A   1      50.686  26.632  27.013  1.00  0.00     0.041 A 
ATOM     72  F   UNL A   1      49.104  26.699  28.741  1.00  0.00    -0.206 F 
ATOM     73  C   UNL A   1      51.026  26.826  25.677  1.00  0.00     0.022 A 
BRANCH  70  74
ATOM     74  S   UNL A   1      50.419  27.472  23.032  1.00  0.00     0.124 S 
ATOM     75  O   UNL A   1      51.658  26.704  22.930  1.00  0.00    -0.237 OA
ATOM     76  O   UNL A   1      49.232  26.849  22.459  1.00  0.00    -0.237 OA
ATOM     77  O   UNL A   1      50.558  28.904  22.775  1.00  0.00    -0.744 OA
ENDBRANCH  70  74
ENDBRANCH  53  67
BRANCH  54  78
ATOM     78  C   UNL A   1      39.161  29.241  29.948  1.00  0.00     0.023 A 
ATOM     79  C   UNL A   1      38.229  29.993  29.217  1.00  0.00     0.031 A 
ATOM     80  C   UNL A   1      38.789  28.791  31.228  1.00  0.00     0.131 A 
ATOM     81  C   UNL A   1      36.991  30.323  29.790  1.00  0.00     0.055 A 
ATOM     82  C   UNL A   1      37.535  29.076  31.772  1.00  0.00     0.041 A 
ATOM     83  F   UNL A   1      39.640  28.063  31.967  1.00  0.00    -0.206 F 
ATOM     84  C   UNL A   1      36.634  29.861  31.058  1.00  0.00     0.022 A 
BRANCH  81  85
ATOM     85  S   UNL A   1      35.894  31.454  28.892  1.00  0.00     0.124 S 
ATOM     86  O   UNL A   1      35.248  30.553  27.944  1.00  0.00    -0.237 OA
ATOM     87  O   UNL A   1      35.050  31.969  29.964  1.00  0.00    -0.237 OA
ATOM     88  O   UNL A   1      36.814  32.424  28.304  1.00  0.00    -0.744 OA
ENDBRANCH  81  85
ENDBRANCH  54  78
BRANCH  66  89
ATOM     89  C   UNL A   1      44.849  33.214  29.385  1.00  0.00     0.023 A 
ATOM     90  C   UNL A   1      44.714  34.207  28.400  1.00  0.00     0.031 A 
ATOM     91  C   UNL A   1      45.245  33.607  30.675  1.00  0.00     0.131 A 
ATOM     92  C   UNL A   1      45.028  35.539  28.707  1.00  0.00     0.055 A 
ATOM     93  C   UNL A   1      45.505  34.941  30.989  1.00  0.00     0.041 A 
ATOM     94  F   UNL A   1      45.389  32.697  31.653  1.00  0.00    -0.206 F 
ATOM     95  C   UNL A   1      45.409  35.914  29.997  1.00  0.00     0.022 A 
BRANCH  92  96
ATOM     96  S   UNL A   1      45.011  36.767  27.371  1.00  0.00     0.124 S 
ATOM     97  O   UNL A   1      45.374  37.991  28.079  1.00  0.00    -0.237 OA
ATOM     98  O   UNL A   1      46.015  36.242  26.452  1.00  0.00    -0.237 OA
ATOM     99  O   UNL A   1      43.636  36.720  26.878  1.00  0.00    -0.744 OA
ENDBRANCH  92  96
ENDBRANCH  66  89
ENDBRANCH  40  41
ENDBRANCH  32  35
ENDBRANCH  30  31
ENDBRANCH  29  30
ENDBRANCH  28  29
ENDBRANCH  27  28
ENDBRANCH   1  27
TORSDOF 23
ENDMDL
