MODEL 1
REMARK VINA RESULT:     -12.5      0.000      0.000
REMARK SMILES O=C(NCCCCCCNC(=O)[C@H](c1c[nH]c2ccc(Cl)cc12)[NH+]1CCN(c2ncc(Br)cn2)CC1)c1ccc(-c2c3nc(c(-c4cc(S(=O)(=O)[O-])ccc4F)c4ccc([nH]4)c(-c4cc(S(=O)(=O)[O-])ccc4F)c4nc(c(-c5cc(S(=O)(=O)[O-])ccc5F)c5ccc2[nH]5)C=C4)C=C3)cc1
REMARK SMILES IDX 6 1 5 2 4 3 3 4 1 5 2 6 37 8 38 9 99 10 39 11 98 12 40 13
REMARK SMILES IDX 41 14 42 15 92 16 43 17 97 18 91 19 93 20 44 21 96 22 90 23
REMARK SMILES IDX 89 24 45 26 77 27 57 28 76 29 58 30 61 31 75 32 94 33 59 34
REMARK SMILES IDX 60 35 74 37 95 38 62 39 46 40 47 41 55 42 48 43 54 44 56 45
REMARK SMILES IDX 53 46 49 47 50 48 51 49 52 50 78 51 79 52 87 53 80 54 86 55
REMARK SMILES IDX 88 56 85 57 81 58 82 59 83 60 84 61 63 62 64 63 72 64 65 65
REMARK SMILES IDX 71 66 73 67 70 68 66 69 67 70 68 71 69 72 7 73 8 74 9 75
REMARK SMILES IDX 10 76 11 77 12 79 13 80 24 81 25 82 36 83 26 85 35 86 27 87
REMARK SMILES IDX 28 88 29 89 34 90 30 91 33 92 31 93 32 94 14 95 15 96 23 97
REMARK SMILES IDX 16 98 17 99 22 100 18 102 20 103 19 104 21 105
REMARK H PARENT 3 7 93 25 61 36 10 78 24 84 16 101
REMARK Flexibility Score: inf
ROOT
ATOM      1  C   UNL A   1      31.454  30.330  25.484  1.00  0.00     0.002 C 
ENDROOT
BRANCH   1   2
ATOM      2  C   UNL A   1      31.273  31.533  26.409  1.00  0.00     0.021 C 
BRANCH   2   3
ATOM      3  C   UNL A   1      32.573  32.075  26.985  1.00  0.00     0.116 C 
BRANCH   3   4
ATOM      4  N   UNL A   1      32.479  33.490  27.305  1.00  0.00    -0.352 N 
ATOM      5  O   UNL A   1      32.867  35.345  28.529  1.00  0.00    -0.269 OA
ATOM      6  C   UNL A   1      33.191  34.202  28.241  1.00  0.00     0.251 C 
ATOM      7  H   UNL A   1      31.821  34.004  26.785  1.00  0.00     0.163 HD
BRANCH   6   8
ATOM      8  C   UNL A   1      34.345  33.556  28.905  1.00  0.00     0.039 A 
ATOM      9  C   UNL A   1      35.649  33.867  28.508  1.00  0.00     0.014 A 
ATOM     10  C   UNL A   1      34.118  32.625  29.921  1.00  0.00     0.014 A 
ATOM     11  C   UNL A   1      36.717  33.159  29.039  1.00  0.00     0.010 A 
ATOM     12  C   UNL A   1      35.203  31.976  30.515  1.00  0.00     0.010 A 
ATOM     13  C   UNL A   1      36.510  32.225  30.067  1.00  0.00    -0.014 A 
BRANCH  13  14
ATOM     14  C   UNL A   1      37.685  31.584  30.710  1.00  0.00     0.031 A 
ATOM     15  C   UNL A   1      38.090  31.929  32.115  1.00  0.00     0.074 A 
ATOM     16  C   UNL A   1      38.374  30.663  30.007  1.00  0.00     0.049 A 
ATOM     17  N   UNL A   1      39.091  31.468  32.819  1.00  0.00    -0.248 NA
ATOM     18  C   UNL A   1      37.271  32.927  32.817  1.00  0.00     0.031 C 
ATOM     19  C   UNL A   1      38.067  30.255  28.633  1.00  0.00     0.029 A 
ATOM     20  N   UNL A   1      39.456  29.894  30.345  1.00  0.00    -0.354 N 
ATOM     21  C   UNL A   1      39.036  32.127  34.043  1.00  0.00     0.074 A 
ATOM     22  C   UNL A   1      37.918  33.046  33.968  1.00  0.00     0.031 C 
ATOM     23  C   UNL A   1      38.911  29.283  28.263  1.00  0.00     0.029 A 
ATOM     24  C   UNL A   1      39.866  29.050  29.339  1.00  0.00     0.049 A 
ATOM     25  H   UNL A   1      39.898  29.941  31.223  1.00  0.00     0.167 HD
ATOM     26  C   UNL A   1      39.841  31.972  35.125  1.00  0.00     0.034 A 
ATOM     27  C   UNL A   1      40.910  28.202  29.276  1.00  0.00     0.034 A 
ATOM     28  C   UNL A   1      40.952  31.050  35.172  1.00  0.00     0.049 A 
ATOM     29  C   UNL A   1      41.813  28.086  30.472  1.00  0.00     0.074 A 
ATOM     30  C   UNL A   1      41.815  30.791  36.225  1.00  0.00     0.029 A 
ATOM     31  N   UNL A   1      41.366  30.241  34.119  1.00  0.00    -0.354 N 
ATOM     32  N   UNL A   1      41.738  28.706  31.626  1.00  0.00    -0.248 NA
ATOM     33  C   UNL A   1      42.940  27.153  30.357  1.00  0.00     0.031 C 
ATOM     34  C   UNL A   1      42.787  29.884  35.786  1.00  0.00     0.029 A 
ATOM     35  C   UNL A   1      42.488  29.512  34.485  1.00  0.00     0.049 A 
ATOM     36  H   UNL A   1      40.926  30.194  33.239  1.00  0.00     0.167 HD
ATOM     37  C   UNL A   1      42.799  28.222  32.384  1.00  0.00     0.074 A 
ATOM     38  C   UNL A   1      43.482  27.245  31.562  1.00  0.00     0.031 C 
ATOM     39  C   UNL A   1      43.173  28.555  33.646  1.00  0.00     0.034 A 
BRANCH  26  40
ATOM     40  C   UNL A   1      39.576  32.852  36.324  1.00  0.00     0.023 A 
ATOM     41  C   UNL A   1      38.814  32.409  37.419  1.00  0.00     0.031 A 
ATOM     42  C   UNL A   1      40.085  34.164  36.366  1.00  0.00     0.131 A 
ATOM     43  C   UNL A   1      38.525  33.288  38.476  1.00  0.00     0.055 A 
ATOM     44  C   UNL A   1      39.859  35.008  37.457  1.00  0.00     0.041 A 
ATOM     45  F   UNL A   1      40.802  34.652  35.343  1.00  0.00    -0.206 F 
ATOM     46  C   UNL A   1      39.064  34.576  38.513  1.00  0.00     0.022 A 
BRANCH  43  47
ATOM     47  S   UNL A   1      37.326  32.770  39.734  1.00  0.00     0.124 S 
ATOM     48  O   UNL A   1      37.853  31.466  40.128  1.00  0.00    -0.237 OA
ATOM     49  O   UNL A   1      37.436  33.829  40.731  1.00  0.00    -0.237 OA
ATOM     50  O   UNL A   1      36.060  32.727  39.007  1.00  0.00    -0.744 OA
ENDBRANCH  43  47
ENDBRANCH  26  40
BRANCH  27  51
ATOM     51  C   UNL A   1      41.173  27.433  28.027  1.00  0.00     0.023 A 
ATOM     52  C   UNL A   1      40.911  26.058  27.955  1.00  0.00     0.031 A 
ATOM     53  C   UNL A   1      41.711  28.066  26.891  1.00  0.00     0.131 A 
ATOM     54  C   UNL A   1      41.222  25.349  26.782  1.00  0.00     0.055 A 
ATOM     55  C   UNL A   1      41.966  27.369  25.710  1.00  0.00     0.041 A 
ATOM     56  F   UNL A   1      41.975  29.382  26.907  1.00  0.00    -0.206 F 
ATOM     57  C   UNL A   1      41.733  25.998  25.656  1.00  0.00     0.022 A 
BRANCH  54  58
ATOM     58  S   UNL A   1      41.024  23.548  26.780  1.00  0.00     0.124 S 
ATOM     59  O   UNL A   1      41.436  23.199  28.135  1.00  0.00    -0.237 OA
ATOM     60  O   UNL A   1      39.602  23.401  26.484  1.00  0.00    -0.237 OA
ATOM     61  O   UNL A   1      41.927  23.107  25.719  1.00  0.00    -0.744 OA
ENDBRANCH  54  58
ENDBRANCH  27  51
BRANCH  39  62
ATOM     62  C   UNL A   1      44.358  27.818  34.216  1.00  0.00     0.023 A 
ATOM     63  C   UNL A   1      44.206  26.626  34.947  1.00  0.00     0.031 A 
ATOM     64  C   UNL A   1      45.656  28.333  34.052  1.00  0.00     0.131 A 
ATOM     65  C   UNL A   1      45.327  26.021  35.537  1.00  0.00     0.055 A 
ATOM     66  C   UNL A   1      46.774  27.693  34.588  1.00  0.00     0.041 A 
ATOM     67  F   UNL A   1      45.858  29.470  33.367  1.00  0.00    -0.206 F 
ATOM     68  C   UNL A   1      46.611  26.538  35.348  1.00  0.00     0.022 A 
BRANCH  65  69
ATOM     69  S   UNL A   1      45.071  24.601  36.637  1.00  0.00     0.124 S 
ATOM     70  O   UNL A   1      46.278  24.634  37.457  1.00  0.00    -0.237 OA
ATOM     71  O   UNL A   1      43.829  24.952  37.316  1.00  0.00    -0.237 OA
ATOM     72  O   UNL A   1      44.977  23.469  35.718  1.00  0.00    -0.744 OA
ENDBRANCH  65  69
ENDBRANCH  39  62
ENDBRANCH  13  14
ENDBRANCH   6   8
ENDBRANCH   3   4
ENDBRANCH   2   3
ENDBRANCH   1   2
BRANCH   1  73
ATOM     73  C   UNL A   1      32.344  29.218  26.048  1.00  0.00     0.002 C 
BRANCH  73  74
ATOM     74  C   UNL A   1      31.715  28.407  27.191  1.00  0.00     0.021 C 
BRANCH  74  75
ATOM     75  C   UNL A   1      31.893  26.895  27.037  1.00  0.00     0.116 C 
BRANCH  75  76
ATOM     76  N   UNL A   1      33.026  26.617  26.175  1.00  0.00    -0.351 N 
ATOM     77  C   UNL A   1      33.425  25.388  25.715  1.00  0.00     0.283 C 
ATOM     78  H   UNL A   1      33.564  27.391  25.891  1.00  0.00     0.163 HD
ATOM     79  O   UNL A   1      34.634  25.221  25.538  1.00  0.00    -0.268 OA
BRANCH  77  80
ATOM     80  C   UNL A   1      32.349  24.328  25.396  1.00  0.00     0.307 C 
BRANCH  80  81
ATOM     81  N   UNL A   1      31.817  24.383  24.009  1.00  0.00    -0.318 N 
ATOM     82  C   UNL A   1      30.343  24.561  23.982  1.00  0.00     0.285 C 
ATOM     83  C   UNL A   1      32.432  25.291  23.029  1.00  0.00     0.285 C 
ATOM     84  H   UNL A   1      32.102  23.461  23.683  1.00  0.00     0.349 HD
ATOM     85  C   UNL A   1      29.815  26.019  24.032  1.00  0.00     0.181 C 
ATOM     86  C   UNL A   1      31.934  26.754  22.947  1.00  0.00     0.181 C 
ATOM     87  N   UNL A   1      30.476  26.827  23.017  1.00  0.00    -0.330 N 
BRANCH  87  88
ATOM     88  C   UNL A   1      29.913  28.038  22.684  1.00  0.00     0.225 A 
ATOM     89  N   UNL A   1      28.657  28.284  23.102  1.00  0.00    -0.220 NA
ATOM     90  N   UNL A   1      30.645  28.950  22.018  1.00  0.00    -0.220 NA
ATOM     91  C   UNL A   1      28.150  29.513  22.873  1.00  0.00     0.132 A 
ATOM     92  C   UNL A   1      30.077  30.149  21.765  1.00  0.00     0.132 A 
ATOM     93  C   UNL A   1      28.824  30.496  22.196  1.00  0.00     0.054 A 
ATOM     94  Br  UNL A   1      28.088  32.196  21.899  1.00  0.00    -0.047 Br
ENDBRANCH  87  88
ENDBRANCH  80  81
BRANCH  80  95
ATOM     95  C   UNL A   1      32.793  22.959  25.868  1.00  0.00     0.044 A 
ATOM     96  C   UNL A   1      33.132  22.565  27.152  1.00  0.00     0.094 A 
ATOM     97  C   UNL A   1      32.765  21.749  25.080  1.00  0.00     0.011 A 
ATOM     98  N   UNL A   1      33.346  21.214  27.162  1.00  0.00    -0.361 N 
ATOM     99  C   UNL A   1      33.070  20.682  25.926  1.00  0.00     0.046 A 
ATOM    100  C   UNL A   1      32.444  21.455  23.736  1.00  0.00     0.031 A 
ATOM    101  H   UNL A   1      33.653  20.699  27.942  1.00  0.00     0.166 HD
ATOM    102  C   UNL A   1      33.052  19.344  25.511  1.00  0.00     0.028 A 
ATOM    103  C   UNL A   1      32.400  20.121  23.314  1.00  0.00     0.041 A 
ATOM    104  C   UNL A   1      32.694  19.080  24.187  1.00  0.00     0.022 A 
ATOM    105  Cl  UNL A   1      31.945  19.767  21.692  1.00  0.00    -0.084 Cl
ENDBRANCH  80  95
ENDBRANCH  77  80
ENDBRANCH  75  76
ENDBRANCH  74  75
ENDBRANCH  73  74
ENDBRANCH   1  73
TORSDOF 19
ENDMDL
MODEL 2
REMARK VINA RESULT:     -12.2      5.700     10.342
REMARK SMILES O=C(NCCCCCCNC(=O)[C@H](c1c[nH]c2ccc(Cl)cc12)[NH+]1CCN(c2ncc(Br)cn2)CC1)c1ccc(-c2c3nc(c(-c4cc(S(=O)(=O)[O-])ccc4F)c4ccc([nH]4)c(-c4cc(S(=O)(=O)[O-])ccc4F)c4nc(c(-c5cc(S(=O)(=O)[O-])ccc5F)c5ccc2[nH]5)C=C4)C=C3)cc1
REMARK SMILES IDX 6 1 5 2 4 3 3 4 1 5 2 6 37 8 38 9 99 10 39 11 98 12 40 13
REMARK SMILES IDX 41 14 42 15 92 16 43 17 97 18 91 19 93 20 44 21 96 22 90 23
REMARK SMILES IDX 89 24 45 26 77 27 57 28 76 29 58 30 61 31 75 32 94 33 59 34
REMARK SMILES IDX 60 35 74 37 95 38 62 39 46 40 47 41 55 42 48 43 54 44 56 45
REMARK SMILES IDX 53 46 49 47 50 48 51 49 52 50 78 51 79 52 87 53 80 54 86 55
REMARK SMILES IDX 88 56 85 57 81 58 82 59 83 60 84 61 63 62 64 63 72 64 65 65
REMARK SMILES IDX 71 66 73 67 70 68 66 69 67 70 68 71 69 72 7 73 8 74 9 75
REMARK SMILES IDX 10 76 11 77 12 79 13 80 24 81 25 82 36 83 26 85 35 86 27 87
REMARK SMILES IDX 28 88 29 89 34 90 30 91 33 92 31 93 32 94 14 95 15 96 23 97
REMARK SMILES IDX 16 98 17 99 22 100 18 102 20 103 19 104 21 105
REMARK H PARENT 3 7 93 25 61 36 10 78 24 84 16 101
REMARK Flexibility Score: inf
ROOT
ATOM      1  C   UNL A   1      39.536  22.620  26.815  1.00  0.00     0.002 C 
ENDROOT
BRANCH   1   2
ATOM      2  C   UNL A   1      39.689  21.267  26.120  1.00  0.00     0.021 C 
BRANCH   2   3
ATOM      3  C   UNL A   1      40.421  20.222  26.948  1.00  0.00     0.116 C 
BRANCH   3   4
ATOM      4  N   UNL A   1      41.513  19.608  26.211  1.00  0.00    -0.352 N 
ATOM      5  O   UNL A   1      43.384  19.597  24.951  1.00  0.00    -0.269 OA
ATOM      6  C   UNL A   1      42.648  20.204  25.715  1.00  0.00     0.251 C 
ATOM      7  H   UNL A   1      41.428  18.642  26.045  1.00  0.00     0.163 HD
BRANCH   6   8
ATOM      8  C   UNL A   1      42.955  21.597  26.110  1.00  0.00     0.039 A 
ATOM      9  C   UNL A   1      42.917  22.622  25.160  1.00  0.00     0.014 A 
ATOM     10  C   UNL A   1      43.294  21.874  27.436  1.00  0.00     0.014 A 
ATOM     11  C   UNL A   1      43.337  23.898  25.508  1.00  0.00     0.010 A 
ATOM     12  C   UNL A   1      43.633  23.179  27.803  1.00  0.00     0.010 A 
ATOM     13  C   UNL A   1      43.674  24.198  26.838  1.00  0.00    -0.014 A 
BRANCH  13  14
ATOM     14  C   UNL A   1      43.987  25.602  27.207  1.00  0.00     0.031 A 
ATOM     15  C   UNL A   1      45.372  26.160  27.046  1.00  0.00     0.074 A 
ATOM     16  C   UNL A   1      42.988  26.375  27.675  1.00  0.00     0.049 A 
ATOM     17  N   UNL A   1      45.812  27.360  27.328  1.00  0.00    -0.248 NA
ATOM     18  C   UNL A   1      46.397  25.254  26.509  1.00  0.00     0.031 C 
ATOM     19  C   UNL A   1      41.605  25.931  27.872  1.00  0.00     0.029 A 
ATOM     20  N   UNL A   1      42.968  27.692  28.053  1.00  0.00    -0.354 N 
ATOM     21  C   UNL A   1      47.169  27.353  27.018  1.00  0.00     0.074 A 
ATOM     22  C   UNL A   1      47.482  26.015  26.557  1.00  0.00     0.031 C 
ATOM     23  C   UNL A   1      40.865  26.966  28.292  1.00  0.00     0.029 A 
ATOM     24  C   UNL A   1      41.730  28.125  28.467  1.00  0.00     0.049 A 
ATOM     25  H   UNL A   1      43.763  28.272  28.030  1.00  0.00     0.167 HD
ATOM     26  C   UNL A   1      48.062  28.371  27.105  1.00  0.00     0.034 A 
ATOM     27  C   UNL A   1      41.336  29.315  28.961  1.00  0.00     0.034 A 
ATOM     28  C   UNL A   1      47.724  29.696  27.571  1.00  0.00     0.049 A 
ATOM     29  C   UNL A   1      42.358  30.411  29.092  1.00  0.00     0.074 A 
ATOM     30  C   UNL A   1      48.542  30.810  27.673  1.00  0.00     0.029 A 
ATOM     31  N   UNL A   1      46.469  30.089  28.025  1.00  0.00    -0.354 N 
ATOM     32  N   UNL A   1      43.633  30.391  28.780  1.00  0.00    -0.248 NA
ATOM     33  C   UNL A   1      41.886  31.688  29.637  1.00  0.00     0.031 C 
ATOM     34  C   UNL A   1      47.803  31.849  28.252  1.00  0.00     0.029 A 
ATOM     35  C   UNL A   1      46.501  31.413  28.438  1.00  0.00     0.049 A 
ATOM     36  H   UNL A   1      45.673  29.510  28.049  1.00  0.00     0.167 HD
ATOM     37  C   UNL A   1      44.112  31.664  29.075  1.00  0.00     0.074 A 
ATOM     38  C   UNL A   1      42.984  32.427  29.567  1.00  0.00     0.031 C 
ATOM     39  C   UNL A   1      45.371  32.156  28.948  1.00  0.00     0.034 A 
BRANCH  26  40
ATOM     40  C   UNL A   1      49.497  28.076  26.734  1.00  0.00     0.023 A 
ATOM     41  C   UNL A   1      49.999  28.324  25.444  1.00  0.00     0.031 A 
ATOM     42  C   UNL A   1      50.374  27.522  27.684  1.00  0.00     0.131 A 
ATOM     43  C   UNL A   1      51.315  27.960  25.120  1.00  0.00     0.055 A 
ATOM     44  C   UNL A   1      51.707  27.233  27.377  1.00  0.00     0.041 A 
ATOM     45  F   UNL A   1      49.950  27.242  28.926  1.00  0.00    -0.206 F 
ATOM     46  C   UNL A   1      52.180  27.439  26.085  1.00  0.00     0.022 A 
BRANCH  43  47
ATOM     47  S   UNL A   1      51.841  28.050  23.387  1.00  0.00     0.124 S 
ATOM     48  O   UNL A   1      50.566  28.239  22.699  1.00  0.00    -0.237 OA
ATOM     49  O   UNL A   1      52.741  29.198  23.389  1.00  0.00    -0.237 OA
ATOM     50  O   UNL A   1      52.480  26.757  23.153  1.00  0.00    -0.744 OA
ENDBRANCH  43  47
ENDBRANCH  26  40
BRANCH  27  51
ATOM     51  C   UNL A   1      39.927  29.513  29.400  1.00  0.00     0.023 A 
ATOM     52  C   UNL A   1      39.590  29.548  30.760  1.00  0.00     0.031 A 
ATOM     53  C   UNL A   1      38.891  29.649  28.457  1.00  0.00     0.131 A 
ATOM     54  C   UNL A   1      38.245  29.680  31.143  1.00  0.00     0.055 A 
ATOM     55  C   UNL A   1      37.563  29.836  28.842  1.00  0.00     0.041 A 
ATOM     56  F   UNL A   1      39.160  29.627  27.142  1.00  0.00    -0.206 F 
ATOM     57  C   UNL A   1      37.233  29.840  30.194  1.00  0.00     0.022 A 
BRANCH  54  58
ATOM     58  S   UNL A   1      37.829  29.559  32.903  1.00  0.00     0.124 S 
ATOM     59  O   UNL A   1      36.737  30.520  33.018  1.00  0.00    -0.237 OA
ATOM     60  O   UNL A   1      37.461  28.153  33.031  1.00  0.00    -0.237 OA
ATOM     61  O   UNL A   1      39.070  29.940  33.573  1.00  0.00    -0.744 OA
ENDBRANCH  54  58
ENDBRANCH  27  51
BRANCH  39  62
ATOM     62  C   UNL A   1      45.571  33.604  29.318  1.00  0.00     0.023 A 
ATOM     63  C   UNL A   1      45.281  34.644  28.416  1.00  0.00     0.031 A 
ATOM     64  C   UNL A   1      46.088  33.946  30.579  1.00  0.00     0.131 A 
ATOM     65  C   UNL A   1      45.566  35.972  28.768  1.00  0.00     0.055 A 
ATOM     66  C   UNL A   1      46.311  35.274  30.947  1.00  0.00     0.041 A 
ATOM     67  F   UNL A   1      46.387  32.993  31.477  1.00  0.00    -0.206 F 
ATOM     68  C   UNL A   1      46.063  36.295  30.033  1.00  0.00     0.022 A 
BRANCH  65  69
ATOM     69  S   UNL A   1      45.369  37.267  27.512  1.00  0.00     0.124 S 
ATOM     70  O   UNL A   1      45.585  38.481  28.293  1.00  0.00    -0.237 OA
ATOM     71  O   UNL A   1      46.413  36.931  26.551  1.00  0.00    -0.237 OA
ATOM     72  O   UNL A   1      44.001  37.073  27.033  1.00  0.00    -0.744 OA
ENDBRANCH  65  69
ENDBRANCH  39  62
ENDBRANCH  13  14
ENDBRANCH   6   8
ENDBRANCH   3   4
ENDBRANCH   2   3
ENDBRANCH   1   2
BRANCH   1  73
ATOM     73  C   UNL A   1      38.556  23.580  26.135  1.00  0.00     0.002 C 
BRANCH  73  74
ATOM     74  C   UNL A   1      37.170  22.987  25.840  1.00  0.00     0.021 C 
BRANCH  74  75
ATOM     75  C   UNL A   1      36.087  24.045  25.623  1.00  0.00     0.116 C 
BRANCH  75  76
ATOM     76  N   UNL A   1      35.699  24.074  24.225  1.00  0.00    -0.351 N 
ATOM     77  C   UNL A   1      34.639  23.418  23.653  1.00  0.00     0.283 C 
ATOM     78  H   UNL A   1      36.255  24.621  23.625  1.00  0.00     0.163 HD
ATOM     79  O   UNL A   1      34.774  23.045  22.486  1.00  0.00    -0.268 OA
BRANCH  77  80
ATOM     80  C   UNL A   1      33.343  23.243  24.474  1.00  0.00     0.307 C 
BRANCH  80  81
ATOM     81  N   UNL A   1      32.090  23.475  23.709  1.00  0.00    -0.318 N 
ATOM     82  C   UNL A   1      30.990  23.971  24.575  1.00  0.00     0.285 C 
ATOM     83  C   UNL A   1      32.128  24.270  22.472  1.00  0.00     0.285 C 
ATOM     84  H   UNL A   1      31.921  22.528  23.372  1.00  0.00     0.349 HD
ATOM     85  C   UNL A   1      30.909  25.505  24.790  1.00  0.00     0.181 C 
ATOM     86  C   UNL A   1      31.990  25.808  22.565  1.00  0.00     0.181 C 
ATOM     87  N   UNL A   1      30.941  26.194  23.508  1.00  0.00    -0.330 N 
BRANCH  87  88
ATOM     88  C   UNL A   1      30.547  27.512  23.470  1.00  0.00     0.225 A 
ATOM     89  N   UNL A   1      29.606  27.862  22.572  1.00  0.00    -0.220 NA
ATOM     90  N   UNL A   1      31.055  28.383  24.361  1.00  0.00    -0.220 NA
ATOM     91  C   UNL A   1      29.139  29.128  22.614  1.00  0.00     0.132 A 
ATOM     92  C   UNL A   1      30.595  29.653  24.332  1.00  0.00     0.132 A 
ATOM     93  C   UNL A   1      29.608  30.079  23.483  1.00  0.00     0.054 A 
ATOM     94  Br  UNL A   1      28.932  31.829  23.515  1.00  0.00    -0.047 Br
ENDBRANCH  87  88
ENDBRANCH  80  81
BRANCH  80  95
ATOM     95  C   UNL A   1      33.388  21.957  25.273  1.00  0.00     0.044 A 
ATOM     96  C   UNL A   1      33.506  21.806  26.645  1.00  0.00     0.094 A 
ATOM     97  C   UNL A   1      33.123  20.636  24.754  1.00  0.00     0.011 A 
ATOM     98  N   UNL A   1      33.373  20.483  26.961  1.00  0.00    -0.361 N 
ATOM     99  C   UNL A   1      33.078  19.754  25.835  1.00  0.00     0.046 A 
ATOM    100  C   UNL A   1      32.855  20.117  23.468  1.00  0.00     0.031 A 
ATOM    101  H   UNL A   1      33.473  20.108  27.865  1.00  0.00     0.166 HD
ATOM    102  C   UNL A   1      32.760  18.396  25.704  1.00  0.00     0.028 A 
ATOM    103  C   UNL A   1      32.513  18.768  23.326  1.00  0.00     0.041 A 
ATOM    104  C   UNL A   1      32.461  17.919  24.426  1.00  0.00     0.022 A 
ATOM    105  Cl  UNL A   1      32.123  18.158  21.764  1.00  0.00    -0.084 Cl
ENDBRANCH  80  95
ENDBRANCH  77  80
ENDBRANCH  75  76
ENDBRANCH  74  75
ENDBRANCH  73  74
ENDBRANCH   1  73
TORSDOF 19
ENDMDL
MODEL 3
REMARK VINA RESULT:     -12.2      2.315      7.605
REMARK SMILES O=C(NCCCCCCNC(=O)[C@H](c1c[nH]c2ccc(Cl)cc12)[NH+]1CCN(c2ncc(Br)cn2)CC1)c1ccc(-c2c3nc(c(-c4cc(S(=O)(=O)[O-])ccc4F)c4ccc([nH]4)c(-c4cc(S(=O)(=O)[O-])ccc4F)c4nc(c(-c5cc(S(=O)(=O)[O-])ccc5F)c5ccc2[nH]5)C=C4)C=C3)cc1
REMARK SMILES IDX 6 1 5 2 4 3 3 4 1 5 2 6 37 8 38 9 99 10 39 11 98 12 40 13
REMARK SMILES IDX 41 14 42 15 92 16 43 17 97 18 91 19 93 20 44 21 96 22 90 23
REMARK SMILES IDX 89 24 45 26 77 27 57 28 76 29 58 30 61 31 75 32 94 33 59 34
REMARK SMILES IDX 60 35 74 37 95 38 62 39 46 40 47 41 55 42 48 43 54 44 56 45
REMARK SMILES IDX 53 46 49 47 50 48 51 49 52 50 78 51 79 52 87 53 80 54 86 55
REMARK SMILES IDX 88 56 85 57 81 58 82 59 83 60 84 61 63 62 64 63 72 64 65 65
REMARK SMILES IDX 71 66 73 67 70 68 66 69 67 70 68 71 69 72 7 73 8 74 9 75
REMARK SMILES IDX 10 76 11 77 12 79 13 80 24 81 25 82 36 83 26 85 35 86 27 87
REMARK SMILES IDX 28 88 29 89 34 90 30 91 33 92 31 93 32 94 14 95 15 96 23 97
REMARK SMILES IDX 16 98 17 99 22 100 18 102 20 103 19 104 21 105
REMARK H PARENT 3 7 93 25 61 36 10 78 24 84 16 101
REMARK Flexibility Score: inf
ROOT
ATOM      1  C   UNL A   1      34.386  30.199  27.669  1.00  0.00     0.002 C 
ENDROOT
BRANCH   1   2
ATOM      2  C   UNL A   1      34.140  31.639  27.217  1.00  0.00     0.021 C 
BRANCH   2   3
ATOM      3  C   UNL A   1      32.773  32.185  27.601  1.00  0.00     0.116 C 
BRANCH   3   4
ATOM      4  N   UNL A   1      32.781  33.633  27.726  1.00  0.00    -0.352 N 
ATOM      5  O   UNL A   1      33.313  35.605  28.684  1.00  0.00    -0.269 OA
ATOM      6  C   UNL A   1      33.554  34.414  28.552  1.00  0.00     0.251 C 
ATOM      7  H   UNL A   1      32.151  34.117  27.145  1.00  0.00     0.163 HD
BRANCH   6   8
ATOM      8  C   UNL A   1      34.672  33.785  29.289  1.00  0.00     0.039 A 
ATOM      9  C   UNL A   1      35.995  34.078  28.944  1.00  0.00     0.014 A 
ATOM     10  C   UNL A   1      34.393  32.890  30.324  1.00  0.00     0.014 A 
ATOM     11  C   UNL A   1      37.034  33.382  29.547  1.00  0.00     0.010 A 
ATOM     12  C   UNL A   1      35.446  32.256  30.989  1.00  0.00     0.010 A 
ATOM     13  C   UNL A   1      36.774  32.484  30.594  1.00  0.00    -0.014 A 
BRANCH  13  14
ATOM     14  C   UNL A   1      37.913  31.859  31.312  1.00  0.00     0.031 A 
ATOM     15  C   UNL A   1      38.754  30.796  30.665  1.00  0.00     0.074 A 
ATOM     16  C   UNL A   1      38.191  32.285  32.560  1.00  0.00     0.049 A 
ATOM     17  N   UNL A   1      39.777  30.145  31.156  1.00  0.00    -0.248 NA
ATOM     18  C   UNL A   1      38.395  30.405  29.295  1.00  0.00     0.031 C 
ATOM     19  C   UNL A   1      37.435  33.312  33.284  1.00  0.00     0.029 A 
ATOM     20  N   UNL A   1      39.183  31.928  33.435  1.00  0.00    -0.354 N 
ATOM     21  C   UNL A   1      40.179  29.256  30.163  1.00  0.00     0.074 A 
ATOM     22  C   UNL A   1      39.263  29.433  29.054  1.00  0.00     0.031 C 
ATOM     23  C   UNL A   1      38.016  33.532  34.471  1.00  0.00     0.029 A 
ATOM     24  C   UNL A   1      39.135  32.613  34.628  1.00  0.00     0.049 A 
ATOM     25  H   UNL A   1      39.864  31.247  33.231  1.00  0.00     0.167 HD
ATOM     26  C   UNL A   1      41.219  28.383  30.179  1.00  0.00     0.034 A 
ATOM     27  C   UNL A   1      39.891  32.497  35.736  1.00  0.00     0.034 A 
ATOM     28  C   UNL A   1      42.115  28.225  31.301  1.00  0.00     0.049 A 
ATOM     29  C   UNL A   1      41.005  31.487  35.744  1.00  0.00     0.074 A 
ATOM     30  C   UNL A   1      43.217  27.392  31.414  1.00  0.00     0.029 A 
ATOM     31  N   UNL A   1      42.012  28.904  32.510  1.00  0.00    -0.354 N 
ATOM     32  N   UNL A   1      41.380  30.665  34.791  1.00  0.00    -0.248 NA
ATOM     33  C   UNL A   1      41.799  31.392  36.974  1.00  0.00     0.031 C 
ATOM     34  C   UNL A   1      43.732  27.516  32.709  1.00  0.00     0.029 A 
ATOM     35  C   UNL A   1      43.005  28.484  33.383  1.00  0.00     0.049 A 
ATOM     36  H   UNL A   1      41.331  29.584  32.717  1.00  0.00     0.167 HD
ATOM     37  C   UNL A   1      42.470  29.968  35.302  1.00  0.00     0.074 A 
ATOM     38  C   UNL A   1      42.701  30.483  36.636  1.00  0.00     0.031 C 
ATOM     39  C   UNL A   1      43.212  28.992  34.720  1.00  0.00     0.034 A 
BRANCH  26  40
ATOM     40  C   UNL A   1      41.408  27.501  28.967  1.00  0.00     0.023 A 
ATOM     41  C   UNL A   1      42.373  27.783  27.985  1.00  0.00     0.031 A 
ATOM     42  C   UNL A   1      40.598  26.365  28.784  1.00  0.00     0.131 A 
ATOM     43  C   UNL A   1      42.460  26.982  26.835  1.00  0.00     0.055 A 
ATOM     44  C   UNL A   1      40.742  25.527  27.675  1.00  0.00     0.041 A 
ATOM     45  F   UNL A   1      39.645  26.054  29.676  1.00  0.00    -0.206 F 
ATOM     46  C   UNL A   1      41.668  25.841  26.686  1.00  0.00     0.022 A 
BRANCH  43  47
ATOM     47  S   UNL A   1      43.529  27.527  25.474  1.00  0.00     0.124 S 
ATOM     48  O   UNL A   1      42.551  28.029  24.512  1.00  0.00    -0.237 OA
ATOM     49  O   UNL A   1      44.368  28.534  26.115  1.00  0.00    -0.237 OA
ATOM     50  O   UNL A   1      44.220  26.306  25.068  1.00  0.00    -0.744 OA
ENDBRANCH  43  47
ENDBRANCH  26  40
BRANCH  27  51
ATOM     51  C   UNL A   1      39.591  33.329  36.935  1.00  0.00     0.023 A 
ATOM     52  C   UNL A   1      40.311  34.503  37.200  1.00  0.00     0.031 A 
ATOM     53  C   UNL A   1      38.588  32.947  37.845  1.00  0.00     0.131 A 
ATOM     54  C   UNL A   1      40.043  35.236  38.368  1.00  0.00     0.055 A 
ATOM     55  C   UNL A   1      38.286  33.709  38.974  1.00  0.00     0.041 A 
ATOM     56  F   UNL A   1      37.866  31.835  37.634  1.00  0.00    -0.206 F 
ATOM     57  C   UNL A   1      39.026  34.856  39.247  1.00  0.00     0.022 A 
BRANCH  54  58
ATOM     58  S   UNL A   1      41.100  36.655  38.762  1.00  0.00     0.124 S 
ATOM     59  O   UNL A   1      41.913  36.128  39.852  1.00  0.00    -0.237 OA
ATOM     60  O   UNL A   1      41.791  36.878  37.496  1.00  0.00    -0.237 OA
ATOM     61  O   UNL A   1      40.146  37.696  39.140  1.00  0.00    -0.744 OA
ENDBRANCH  54  58
ENDBRANCH  27  51
BRANCH  39  62
ATOM     62  C   UNL A   1      44.367  28.451  35.524  1.00  0.00     0.023 A 
ATOM     63  C   UNL A   1      44.192  27.431  36.475  1.00  0.00     0.031 A 
ATOM     64  C   UNL A   1      45.656  28.987  35.357  1.00  0.00     0.131 A 
ATOM     65  C   UNL A   1      45.276  27.020  37.266  1.00  0.00     0.055 A 
ATOM     66  C   UNL A   1      46.744  28.531  36.103  1.00  0.00     0.041 A 
ATOM     67  F   UNL A   1      45.879  29.967  34.466  1.00  0.00    -0.206 F 
ATOM     68  C   UNL A   1      46.554  27.551  37.074  1.00  0.00     0.022 A 
BRANCH  65  69
ATOM     69  S   UNL A   1      44.974  25.847  38.617  1.00  0.00     0.124 S 
ATOM     70  O   UNL A   1      44.154  26.641  39.527  1.00  0.00    -0.237 OA
ATOM     71  O   UNL A   1      44.293  24.753  37.935  1.00  0.00    -0.237 OA
ATOM     72  O   UNL A   1      46.316  25.534  39.105  1.00  0.00    -0.744 OA
ENDBRANCH  65  69
ENDBRANCH  39  62
ENDBRANCH  13  14
ENDBRANCH   6   8
ENDBRANCH   3   4
ENDBRANCH   2   3
ENDBRANCH   1   2
BRANCH   1  73
ATOM     73  C   UNL A   1      33.425  29.168  27.071  1.00  0.00     0.002 C 
BRANCH  73  74
ATOM     74  C   UNL A   1      33.812  28.659  25.675  1.00  0.00     0.021 C 
BRANCH  74  75
ATOM     75  C   UNL A   1      33.981  27.140  25.604  1.00  0.00     0.116 C 
BRANCH  75  76
ATOM     76  N   UNL A   1      33.794  26.686  24.239  1.00  0.00    -0.351 N 
ATOM     77  C   UNL A   1      33.569  25.397  23.827  1.00  0.00     0.283 C 
ATOM     78  H   UNL A   1      33.832  27.374  23.537  1.00  0.00     0.163 HD
ATOM     79  O   UNL A   1      34.015  25.076  22.723  1.00  0.00    -0.268 OA
BRANCH  77  80
ATOM     80  C   UNL A   1      32.733  24.463  24.729  1.00  0.00     0.307 C 
BRANCH  80  81
ATOM     81  N   UNL A   1      31.271  24.489  24.463  1.00  0.00    -0.318 N 
ATOM     82  C   UNL A   1      30.568  25.493  25.302  1.00  0.00     0.285 C 
ATOM     83  C   UNL A   1      30.784  24.589  23.078  1.00  0.00     0.285 C 
ATOM     84  H   UNL A   1      31.036  23.532  24.723  1.00  0.00     0.349 HD
ATOM     85  C   UNL A   1      30.495  26.939  24.746  1.00  0.00     0.181 C 
ATOM     86  C   UNL A   1      30.611  25.991  22.445  1.00  0.00     0.181 C 
ATOM     87  N   UNL A   1      29.991  26.927  23.380  1.00  0.00    -0.330 N 
BRANCH  87  88
ATOM     88  C   UNL A   1      29.543  28.113  22.844  1.00  0.00     0.225 A 
ATOM     89  N   UNL A   1      28.274  28.481  23.103  1.00  0.00    -0.220 NA
ATOM     90  N   UNL A   1      30.392  28.888  22.145  1.00  0.00    -0.220 NA
ATOM     91  C   UNL A   1      27.873  29.696  22.673  1.00  0.00     0.132 A 
ATOM     92  C   UNL A   1      29.931  30.073  21.689  1.00  0.00     0.132 A 
ATOM     93  C   UNL A   1      28.670  30.543  21.948  1.00  0.00     0.054 A 
ATOM     94  Br  UNL A   1      28.080  32.227  21.369  1.00  0.00    -0.047 Br
ENDBRANCH  87  88
ENDBRANCH  80  81
BRANCH  80  95
ATOM     95  C   UNL A   1      33.358  23.085  24.791  1.00  0.00     0.044 A 
ATOM     96  C   UNL A   1      32.822  21.881  24.362  1.00  0.00     0.094 A 
ATOM     97  C   UNL A   1      34.729  22.799  25.146  1.00  0.00     0.011 A 
ATOM     98  N   UNL A   1      33.769  20.903  24.481  1.00  0.00    -0.361 N 
ATOM     99  C   UNL A   1      34.959  21.444  24.900  1.00  0.00     0.046 A 
ATOM    100  C   UNL A   1      35.815  23.583  25.595  1.00  0.00     0.031 A 
ATOM    101  H   UNL A   1      33.618  19.949  24.295  1.00  0.00     0.166 HD
ATOM    102  C   UNL A   1      36.213  20.839  25.056  1.00  0.00     0.028 A 
ATOM    103  C   UNL A   1      37.077  22.995  25.733  1.00  0.00     0.041 A 
ATOM    104  C   UNL A   1      37.278  21.646  25.464  1.00  0.00     0.022 A 
ATOM    105  Cl  UNL A   1      38.410  23.971  26.217  1.00  0.00    -0.084 Cl
ENDBRANCH  80  95
ENDBRANCH  77  80
ENDBRANCH  75  76
ENDBRANCH  74  75
ENDBRANCH  73  74
ENDBRANCH   1  73
TORSDOF 19
ENDMDL
