MODEL 1
REMARK VINA RESULT:     -12.5      0.000      0.000
REMARK SMILES Cc1ccccc1OCC(=O)N[C@@H](Cc1c[nH]c2ccccc12)C(=O)NCCCCCCNC(=O)c1ccc(-c2c3nc(c(-c4cc(S(=O)(=O)[O-])ccc4F)c4ccc([nH]4)c(-c4cc(S(=O)(=O)[O-])ccc4F)c4nc(c(-c5cc(S(=O)(=O)[O-])ccc5F)c5ccc2[nH]5)C=C4)C=C3)cc1
REMARK SMILES IDX 29 1 28 2 27 3 26 4 24 5 25 6 13 8 12 9 10 10 11 11 9 13
REMARK SMILES IDX 8 14 7 15 1 16 2 17 3 18 4 19 6 20 5 21 14 22 15 23 16 24
REMARK SMILES IDX 23 25 17 26 18 27 22 28 19 30 21 31 20 32 30 33 31 34 32 35
REMARK SMILES IDX 33 36 34 37 35 39 36 40 37 41 98 42 38 43 97 44 39 45 40 46
REMARK SMILES IDX 41 47 91 48 42 49 96 50 90 51 92 52 43 53 95 54 89 55 88 56
REMARK SMILES IDX 44 58 76 59 56 60 75 61 57 62 60 63 74 64 93 65 58 66 59 67
REMARK SMILES IDX 73 69 94 70 61 71 45 72 46 73 54 74 47 75 53 76 55 77 52 78
REMARK SMILES IDX 48 79 49 80 50 81 51 82 77 83 78 84 86 85 79 86 85 87 87 88
REMARK SMILES IDX 84 89 80 90 81 91 82 92 83 93 62 94 63 95 71 96 64 97 70 98
REMARK SMILES IDX 72 99 69 100 65 101 66 102 67 103 68 104
REMARK H PARENT 26 7 12 12 17 29 33 38 92 57 60 68
REMARK Flexibility Score: inf
ROOT
ATOM      1  C   UNL A   1      36.989  23.185  24.512  1.00  0.00     0.002 C 
ENDROOT
BRANCH   1   2
ATOM      2  C   UNL A   1      35.741  23.224  23.625  1.00  0.00     0.021 C 
BRANCH   2   3
ATOM      3  C   UNL A   1      34.867  24.463  23.776  1.00  0.00     0.116 C 
BRANCH   3   4
ATOM      4  N   UNL A   1      33.839  24.628  22.767  1.00  0.00    -0.354 N 
ATOM      5  C   UNL A   1      32.498  24.378  22.848  1.00  0.00     0.242 C 
ATOM      6  O   UNL A   1      31.751  25.030  22.106  1.00  0.00    -0.273 OA
ATOM      7  H   UNL A   1      34.153  24.971  21.899  1.00  0.00     0.163 HD
BRANCH   5   8
ATOM      8  C   UNL A   1      31.867  23.385  23.865  1.00  0.00     0.175 C 
BRANCH   8   9
ATOM      9  N   UNL A   1      30.669  23.924  24.502  1.00  0.00    -0.341 N 
ATOM     10  C   UNL A   1      30.632  24.897  25.457  1.00  0.00     0.258 C 
ATOM     11  O   UNL A   1      29.671  25.666  25.480  1.00  0.00    -0.271 OA
ATOM     12  H   UNL A   1      29.805  23.549  24.216  1.00  0.00     0.164 HD
BRANCH  10  13
ATOM     13  C   UNL A   1      31.764  24.995  26.484  1.00  0.00     0.329 C 
BRANCH  13  14
ATOM     14  O   UNL A   1      32.836  25.894  26.253  1.00  0.00    -0.484 OA
BRANCH  14  15
ATOM     15  C   UNL A   1      32.608  27.197  25.906  1.00  0.00     0.122 A 
ATOM     16  C   UNL A   1      31.318  28.073  27.977  1.00  0.00     0.048 C 
ATOM     17  C   UNL A   1      31.957  28.210  26.625  1.00  0.00    -0.009 A 
ATOM     18  C   UNL A   1      31.878  29.499  26.051  1.00  0.00     0.007 A 
ATOM     19  C   UNL A   1      32.363  29.765  24.773  1.00  0.00     0.001 A 
ATOM     20  C   UNL A   1      33.067  27.475  24.605  1.00  0.00     0.047 A 
ATOM     21  C   UNL A   1      32.948  28.745  24.039  1.00  0.00     0.004 A 
ENDBRANCH  14  15
ENDBRANCH  13  14
ENDBRANCH  10  13
ENDBRANCH   8   9
BRANCH   8  22
ATOM     22  C   UNL A   1      31.736  21.943  23.353  1.00  0.00     0.072 C 
BRANCH  22  23
ATOM     23  C   UNL A   1      32.279  20.855  24.225  1.00  0.00    -0.020 A 
ATOM     24  C   UNL A   1      32.591  20.976  25.567  1.00  0.00     0.087 A 
ATOM     25  C   UNL A   1      32.566  19.502  23.854  1.00  0.00     0.003 A 
ATOM     26  N   UNL A   1      33.118  19.788  25.997  1.00  0.00    -0.361 N 
ATOM     27  C   UNL A   1      33.132  18.876  24.967  1.00  0.00     0.046 A 
ATOM     28  C   UNL A   1      32.434  18.759  22.663  1.00  0.00     0.010 A 
ATOM     29  H   UNL A   1      33.440  19.612  26.909  1.00  0.00     0.166 HD
ATOM     30  C   UNL A   1      33.611  17.562  24.938  1.00  0.00     0.026 A 
ATOM     31  C   UNL A   1      32.893  17.437  22.622  1.00  0.00     0.001 A 
ATOM     32  C   UNL A   1      33.483  16.853  23.740  1.00  0.00     0.002 A 
ENDBRANCH  22  23
ENDBRANCH   8  22
ENDBRANCH   5   8
ENDBRANCH   3   4
ENDBRANCH   2   3
ENDBRANCH   1   2
BRANCH   1  33
ATOM     33  C   UNL A   1      37.568  21.800  24.849  1.00  0.00     0.002 C 
BRANCH  33  34
ATOM     34  C   UNL A   1      38.670  21.744  25.906  1.00  0.00     0.021 C 
BRANCH  34  35
ATOM     35  C   UNL A   1      39.126  23.094  26.438  1.00  0.00     0.116 C 
BRANCH  35  36
ATOM     36  N   UNL A   1      40.556  23.346  26.308  1.00  0.00    -0.352 N 
ATOM     37  C   UNL A   1      41.236  24.539  26.525  1.00  0.00     0.251 C 
ATOM     38  H   UNL A   1      41.107  22.579  26.032  1.00  0.00     0.163 HD
ATOM     39  O   UNL A   1      42.434  24.641  26.363  1.00  0.00    -0.269 OA
BRANCH  37  40
ATOM     40  C   UNL A   1      40.462  25.673  27.094  1.00  0.00     0.039 A 
ATOM     41  C   UNL A   1      40.610  26.916  26.473  1.00  0.00     0.014 A 
ATOM     42  C   UNL A   1      39.864  25.568  28.348  1.00  0.00     0.014 A 
ATOM     43  C   UNL A   1      40.388  28.072  27.214  1.00  0.00     0.010 A 
ATOM     44  C   UNL A   1      39.731  26.713  29.114  1.00  0.00     0.010 A 
ATOM     45  C   UNL A   1      40.063  27.957  28.570  1.00  0.00    -0.014 A 
BRANCH  45  46
ATOM     46  C   UNL A   1      40.227  29.073  29.498  1.00  0.00     0.031 A 
ATOM     47  C   UNL A   1      39.155  30.067  29.691  1.00  0.00     0.074 A 
ATOM     48  C   UNL A   1      41.405  29.257  30.135  1.00  0.00     0.049 A 
ATOM     49  N   UNL A   1      39.363  31.330  29.865  1.00  0.00    -0.248 NA
ATOM     50  C   UNL A   1      37.743  29.708  29.668  1.00  0.00     0.031 C 
ATOM     51  C   UNL A   1      41.703  30.238  31.176  1.00  0.00     0.029 A 
ATOM     52  N   UNL A   1      42.644  28.737  29.800  1.00  0.00    -0.354 N 
ATOM     53  C   UNL A   1      38.169  31.900  30.239  1.00  0.00     0.074 A 
ATOM     54  C   UNL A   1      37.179  30.863  30.033  1.00  0.00     0.031 C 
ATOM     55  C   UNL A   1      43.032  30.429  31.223  1.00  0.00     0.029 A 
ATOM     56  C   UNL A   1      43.627  29.668  30.136  1.00  0.00     0.049 A 
ATOM     57  H   UNL A   1      42.805  27.856  29.392  1.00  0.00     0.167 HD
ATOM     58  C   UNL A   1      38.145  33.132  30.822  1.00  0.00     0.034 A 
ATOM     59  C   UNL A   1      44.479  30.175  29.199  1.00  0.00     0.034 A 
ATOM     60  C   UNL A   1      39.487  33.680  31.000  1.00  0.00     0.049 A 
ATOM     61  C   UNL A   1      44.360  31.673  29.021  1.00  0.00     0.074 A 
ATOM     62  C   UNL A   1      40.329  33.723  32.099  1.00  0.00     0.029 A 
ATOM     63  N   UNL A   1      40.255  34.045  29.900  1.00  0.00    -0.354 N 
ATOM     64  N   UNL A   1      43.353  32.389  29.441  1.00  0.00    -0.248 NA
ATOM     65  C   UNL A   1      45.359  32.472  28.319  1.00  0.00     0.031 C 
ATOM     66  C   UNL A   1      41.626  34.067  31.646  1.00  0.00     0.029 A 
ATOM     67  C   UNL A   1      41.568  34.262  30.276  1.00  0.00     0.049 A 
ATOM     68  H   UNL A   1      39.912  34.135  28.981  1.00  0.00     0.167 HD
ATOM     69  C   UNL A   1      43.526  33.695  29.053  1.00  0.00     0.074 A 
ATOM     70  C   UNL A   1      44.816  33.699  28.385  1.00  0.00     0.031 C 
ATOM     71  C   UNL A   1      42.582  34.655  29.306  1.00  0.00     0.034 A 
BRANCH  58  72
ATOM     72  C   UNL A   1      36.928  33.680  31.535  1.00  0.00     0.023 A 
ATOM     73  C   UNL A   1      35.812  34.109  30.787  1.00  0.00     0.031 A 
ATOM     74  C   UNL A   1      36.820  33.839  32.930  1.00  0.00     0.131 A 
ATOM     75  C   UNL A   1      34.729  34.769  31.395  1.00  0.00     0.055 A 
ATOM     76  C   UNL A   1      35.773  34.551  33.532  1.00  0.00     0.041 A 
ATOM     77  F   UNL A   1      37.705  33.278  33.767  1.00  0.00    -0.206 F 
ATOM     78  C   UNL A   1      34.728  35.038  32.761  1.00  0.00     0.022 A 
BRANCH  75  79
ATOM     79  S   UNL A   1      33.313  35.266  30.375  1.00  0.00     0.124 S 
ATOM     80  O   UNL A   1      33.723  36.580  29.891  1.00  0.00    -0.237 OA
ATOM     81  O   UNL A   1      33.260  34.198  29.383  1.00  0.00    -0.237 OA
ATOM     82  O   UNL A   1      32.200  35.280  31.324  1.00  0.00    -0.744 OA
ENDBRANCH  75  79
ENDBRANCH  58  72
BRANCH  59  83
ATOM     83  C   UNL A   1      44.820  29.223  28.106  1.00  0.00     0.023 A 
ATOM     84  C   UNL A   1      45.760  28.208  28.379  1.00  0.00     0.031 A 
ATOM     85  C   UNL A   1      44.016  29.086  26.966  1.00  0.00     0.131 A 
ATOM     86  C   UNL A   1      45.794  27.047  27.594  1.00  0.00     0.055 A 
ATOM     87  C   UNL A   1      44.075  27.938  26.167  1.00  0.00     0.041 A 
ATOM     88  F   UNL A   1      43.082  30.002  26.674  1.00  0.00    -0.206 F 
ATOM     89  C   UNL A   1      44.938  26.896  26.501  1.00  0.00     0.022 A 
BRANCH  86  90
ATOM     90  S   UNL A   1      46.804  25.633  28.123  1.00  0.00     0.124 S 
ATOM     91  O   UNL A   1      47.359  26.106  29.385  1.00  0.00    -0.237 OA
ATOM     92  O   UNL A   1      45.831  24.550  28.227  1.00  0.00    -0.237 OA
ATOM     93  O   UNL A   1      47.760  25.485  27.027  1.00  0.00    -0.744 OA
ENDBRANCH  86  90
ENDBRANCH  59  83
BRANCH  71  94
ATOM     94  C   UNL A   1      42.583  36.073  28.764  1.00  0.00     0.023 A 
ATOM     95  C   UNL A   1      43.150  37.163  29.441  1.00  0.00     0.031 A 
ATOM     96  C   UNL A   1      42.048  36.367  27.485  1.00  0.00     0.131 A 
ATOM     97  C   UNL A   1      43.082  38.468  28.917  1.00  0.00     0.055 A 
ATOM     98  C   UNL A   1      42.054  37.652  26.929  1.00  0.00     0.041 A 
ATOM     99  F   UNL A   1      41.501  35.419  26.710  1.00  0.00    -0.206 F 
ATOM    100  C   UNL A   1      42.555  38.719  27.655  1.00  0.00     0.022 A 
BRANCH  97 101
ATOM    101  S   UNL A   1      43.640  39.841  29.962  1.00  0.00     0.124 S 
ATOM    102  O   UNL A   1      42.561  40.810  29.785  1.00  0.00    -0.237 OA
ATOM    103  O   UNL A   1      43.722  39.220  31.280  1.00  0.00    -0.237 OA
ATOM    104  O   UNL A   1      44.921  40.226  29.374  1.00  0.00    -0.744 OA
ENDBRANCH  97 101
ENDBRANCH  71  94
ENDBRANCH  45  46
ENDBRANCH  37  40
ENDBRANCH  35  36
ENDBRANCH  34  35
ENDBRANCH  33  34
ENDBRANCH   1  33
TORSDOF 22
ENDMDL
MODEL 2
REMARK VINA RESULT:     -12.3      2.872      5.066
REMARK SMILES Cc1ccccc1OCC(=O)N[C@@H](Cc1c[nH]c2ccccc12)C(=O)NCCCCCCNC(=O)c1ccc(-c2c3nc(c(-c4cc(S(=O)(=O)[O-])ccc4F)c4ccc([nH]4)c(-c4cc(S(=O)(=O)[O-])ccc4F)c4nc(c(-c5cc(S(=O)(=O)[O-])ccc5F)c5ccc2[nH]5)C=C4)C=C3)cc1
REMARK SMILES IDX 29 1 28 2 27 3 26 4 24 5 25 6 13 8 12 9 10 10 11 11 9 13
REMARK SMILES IDX 8 14 7 15 1 16 2 17 3 18 4 19 6 20 5 21 14 22 15 23 16 24
REMARK SMILES IDX 23 25 17 26 18 27 22 28 19 30 21 31 20 32 30 33 31 34 32 35
REMARK SMILES IDX 33 36 34 37 35 39 36 40 37 41 98 42 38 43 97 44 39 45 40 46
REMARK SMILES IDX 41 47 91 48 42 49 96 50 90 51 92 52 43 53 95 54 89 55 88 56
REMARK SMILES IDX 44 58 76 59 56 60 75 61 57 62 60 63 74 64 93 65 58 66 59 67
REMARK SMILES IDX 73 69 94 70 61 71 45 72 46 73 54 74 47 75 53 76 55 77 52 78
REMARK SMILES IDX 48 79 49 80 50 81 51 82 77 83 78 84 86 85 79 86 85 87 87 88
REMARK SMILES IDX 84 89 80 90 81 91 82 92 83 93 62 94 63 95 71 96 64 97 70 98
REMARK SMILES IDX 72 99 69 100 65 101 66 102 67 103 68 104
REMARK H PARENT 26 7 12 12 17 29 33 38 92 57 60 68
REMARK Flexibility Score: inf
ROOT
ATOM      1  C   UNL A   1      37.677  21.448  25.635  1.00  0.00     0.002 C 
ENDROOT
BRANCH   1   2
ATOM      2  C   UNL A   1      36.170  21.246  25.815  1.00  0.00     0.021 C 
BRANCH   2   3
ATOM      3  C   UNL A   1      35.342  22.523  25.897  1.00  0.00     0.116 C 
BRANCH   3   4
ATOM      4  N   UNL A   1      34.601  22.708  27.129  1.00  0.00    -0.354 N 
ATOM      5  C   UNL A   1      33.252  22.660  27.344  1.00  0.00     0.242 C 
ATOM      6  O   UNL A   1      32.867  22.344  28.478  1.00  0.00    -0.273 OA
ATOM      7  H   UNL A   1      35.149  22.894  27.926  1.00  0.00     0.163 HD
BRANCH   5   8
ATOM      8  C   UNL A   1      32.194  22.904  26.232  1.00  0.00     0.175 C 
BRANCH   8   9
ATOM      9  N   UNL A   1      31.744  21.663  25.606  1.00  0.00    -0.341 N 
ATOM     10  C   UNL A   1      32.074  21.225  24.359  1.00  0.00     0.258 C 
ATOM     11  O   UNL A   1      32.172  20.013  24.165  1.00  0.00    -0.271 OA
ATOM     12  H   UNL A   1      31.145  21.089  26.135  1.00  0.00     0.164 HD
BRANCH  10  13
ATOM     13  C   UNL A   1      32.292  22.239  23.231  1.00  0.00     0.329 C 
BRANCH  13  14
ATOM     14  O   UNL A   1      33.465  23.035  23.229  1.00  0.00    -0.484 OA
BRANCH  14  15
ATOM     15  C   UNL A   1      33.425  24.359  22.889  1.00  0.00     0.122 A 
ATOM     16  C   UNL A   1      34.451  25.469  24.996  1.00  0.00     0.048 C 
ATOM     17  C   UNL A   1      33.855  25.478  23.618  1.00  0.00    -0.009 A 
ATOM     18  C   UNL A   1      33.729  26.755  23.026  1.00  0.00     0.007 A 
ATOM     19  C   UNL A   1      33.131  26.932  21.780  1.00  0.00     0.001 A 
ATOM     20  C   UNL A   1      32.798  24.557  21.646  1.00  0.00     0.047 A 
ATOM     21  C   UNL A   1      32.649  25.829  21.092  1.00  0.00     0.004 A 
ENDBRANCH  14  15
ENDBRANCH  13  14
ENDBRANCH  10  13
ENDBRANCH   8   9
BRANCH   8  22
ATOM     22  C   UNL A   1      31.071  23.877  26.621  1.00  0.00     0.072 C 
BRANCH  22  23
ATOM     23  C   UNL A   1      30.790  25.009  25.683  1.00  0.00    -0.020 A 
ATOM     24  C   UNL A   1      30.186  24.899  24.444  1.00  0.00     0.087 A 
ATOM     25  C   UNL A   1      31.075  26.399  25.883  1.00  0.00     0.003 A 
ATOM     26  N   UNL A   1      30.163  26.139  23.863  1.00  0.00    -0.361 N 
ATOM     27  C   UNL A   1      30.717  27.069  24.712  1.00  0.00     0.046 A 
ATOM     28  C   UNL A   1      31.641  27.145  26.937  1.00  0.00     0.010 A 
ATOM     29  H   UNL A   1      29.804  26.336  22.969  1.00  0.00     0.166 HD
ATOM     30  C   UNL A   1      30.934  28.439  24.524  1.00  0.00     0.026 A 
ATOM     31  C   UNL A   1      31.851  28.519  26.771  1.00  0.00     0.001 A 
ATOM     32  C   UNL A   1      31.512  29.153  25.579  1.00  0.00     0.002 A 
ENDBRANCH  22  23
ENDBRANCH   8  22
ENDBRANCH   5   8
ENDBRANCH   3   4
ENDBRANCH   2   3
ENDBRANCH   1   2
BRANCH   1  33
ATOM     33  C   UNL A   1      38.225  22.869  25.849  1.00  0.00     0.002 C 
BRANCH  33  34
ATOM     34  C   UNL A   1      39.621  22.993  26.459  1.00  0.00     0.021 C 
BRANCH  34  35
ATOM     35  C   UNL A   1      40.150  21.733  27.127  1.00  0.00     0.116 C 
BRANCH  35  36
ATOM     36  N   UNL A   1      40.976  20.892  26.270  1.00  0.00    -0.352 N 
ATOM     37  C   UNL A   1      42.327  21.040  25.973  1.00  0.00     0.251 C 
ATOM     38  H   UNL A   1      40.523  20.126  25.849  1.00  0.00     0.163 HD
ATOM     39  O   UNL A   1      42.911  20.287  25.224  1.00  0.00    -0.269 OA
BRANCH  37  40
ATOM     40  C   UNL A   1      43.077  22.087  26.715  1.00  0.00     0.039 A 
ATOM     41  C   UNL A   1      43.195  21.920  28.098  1.00  0.00     0.014 A 
ATOM     42  C   UNL A   1      43.381  23.306  26.114  1.00  0.00     0.014 A 
ATOM     43  C   UNL A   1      43.375  23.043  28.900  1.00  0.00     0.010 A 
ATOM     44  C   UNL A   1      43.469  24.432  26.912  1.00  0.00     0.010 A 
ATOM     45  C   UNL A   1      43.392  24.308  28.303  1.00  0.00    -0.014 A 
BRANCH  45  46
ATOM     46  C   UNL A   1      43.153  25.525  29.073  1.00  0.00     0.031 A 
ATOM     47  C   UNL A   1      41.883  26.266  28.953  1.00  0.00     0.074 A 
ATOM     48  C   UNL A   1      44.133  26.040  29.849  1.00  0.00     0.049 A 
ATOM     49  N   UNL A   1      41.793  27.555  28.970  1.00  0.00    -0.248 NA
ATOM     50  C   UNL A   1      40.603  25.596  28.765  1.00  0.00     0.031 C 
ATOM     51  C   UNL A   1      44.030  27.170  30.770  1.00  0.00     0.029 A 
ATOM     52  N   UNL A   1      45.492  25.781  29.787  1.00  0.00    -0.354 N 
ATOM     53  C   UNL A   1      40.460  27.876  29.070  1.00  0.00     0.074 A 
ATOM     54  C   UNL A   1      39.758  26.626  28.868  1.00  0.00     0.031 C 
ATOM     55  C   UNL A   1      45.261  27.661  30.991  1.00  0.00     0.029 A 
ATOM     56  C   UNL A   1      46.186  26.942  30.131  1.00  0.00     0.049 A 
ATOM     57  H   UNL A   1      45.902  24.921  29.542  1.00  0.00     0.167 HD
ATOM     58  C   UNL A   1      40.079  29.126  29.457  1.00  0.00     0.034 A 
ATOM     59  C   UNL A   1      47.072  27.524  29.272  1.00  0.00     0.034 A 
ATOM     60  C   UNL A   1      41.225  29.981  29.757  1.00  0.00     0.049 A 
ATOM     61  C   UNL A   1      46.682  28.928  28.862  1.00  0.00     0.074 A 
ATOM     62  C   UNL A   1      41.827  30.332  30.954  1.00  0.00     0.029 A 
ATOM     63  N   UNL A   1      42.089  30.388  28.747  1.00  0.00    -0.354 N 
ATOM     64  N   UNL A   1      45.491  29.438  29.015  1.00  0.00    -0.248 NA
ATOM     65  C   UNL A   1      47.607  29.851  28.213  1.00  0.00     0.031 C 
ATOM     66  C   UNL A   1      43.086  30.910  30.660  1.00  0.00     0.029 A 
ATOM     67  C   UNL A   1      43.239  30.937  29.285  1.00  0.00     0.049 A 
ATOM     68  H   UNL A   1      41.907  30.298  27.783  1.00  0.00     0.167 HD
ATOM     69  C   UNL A   1      45.460  30.700  28.472  1.00  0.00     0.074 A 
ATOM     70  C   UNL A   1      46.822  30.923  28.016  1.00  0.00     0.031 C 
ATOM     71  C   UNL A   1      44.310  31.442  28.434  1.00  0.00     0.034 A 
BRANCH  58  72
ATOM     72  C   UNL A   1      38.667  29.459  29.888  1.00  0.00     0.023 A 
ATOM     73  C   UNL A   1      37.903  30.375  29.136  1.00  0.00     0.031 A 
ATOM     74  C   UNL A   1      38.036  28.942  31.035  1.00  0.00     0.131 A 
ATOM     75  C   UNL A   1      36.651  30.831  29.586  1.00  0.00     0.055 A 
ATOM     76  C   UNL A   1      36.818  29.441  31.520  1.00  0.00     0.041 A 
ATOM     77  F   UNL A   1      38.557  27.908  31.713  1.00  0.00    -0.206 F 
ATOM     78  C   UNL A   1      36.127  30.406  30.803  1.00  0.00     0.022 A 
BRANCH  75  79
ATOM     79  S   UNL A   1      35.709  31.987  28.551  1.00  0.00     0.124 S 
ATOM     80  O   UNL A   1      35.240  31.127  27.470  1.00  0.00    -0.237 OA
ATOM     81  O   UNL A   1      34.694  32.473  29.479  1.00  0.00    -0.237 OA
ATOM     82  O   UNL A   1      36.708  32.981  28.157  1.00  0.00    -0.744 OA
ENDBRANCH  75  79
ENDBRANCH  58  72
BRANCH  59  83
ATOM     83  C   UNL A   1      47.793  26.561  28.394  1.00  0.00     0.023 A 
ATOM     84  C   UNL A   1      47.408  26.482  27.040  1.00  0.00     0.031 A 
ATOM     85  C   UNL A   1      49.024  26.002  28.763  1.00  0.00     0.131 A 
ATOM     86  C   UNL A   1      48.293  25.965  26.083  1.00  0.00     0.055 A 
ATOM     87  C   UNL A   1      49.891  25.459  27.808  1.00  0.00     0.041 A 
ATOM     88  F   UNL A   1      49.458  26.077  30.029  1.00  0.00    -0.206 F 
ATOM     89  C   UNL A   1      49.545  25.474  26.458  1.00  0.00     0.022 A 
BRANCH  86  90
ATOM     90  S   UNL A   1      47.904  26.130  24.317  1.00  0.00     0.124 S 
ATOM     91  O   UNL A   1      46.771  27.048  24.335  1.00  0.00    -0.237 OA
ATOM     92  O   UNL A   1      49.141  26.663  23.753  1.00  0.00    -0.237 OA
ATOM     93  O   UNL A   1      47.599  24.756  23.920  1.00  0.00    -0.744 OA
ENDBRANCH  86  90
ENDBRANCH  59  83
BRANCH  71  94
ATOM     94  C   UNL A   1      44.119  32.755  27.698  1.00  0.00     0.023 A 
ATOM     95  C   UNL A   1      43.673  33.934  28.316  1.00  0.00     0.031 A 
ATOM     96  C   UNL A   1      44.444  32.879  26.325  1.00  0.00     0.131 A 
ATOM     97  C   UNL A   1      43.466  35.116  27.579  1.00  0.00     0.055 A 
ATOM     98  C   UNL A   1      44.314  34.076  25.610  1.00  0.00     0.041 A 
ATOM     99  F   UNL A   1      44.911  31.843  25.611  1.00  0.00    -0.206 F 
ATOM    100  C   UNL A   1      43.802  35.202  26.232  1.00  0.00     0.022 A 
BRANCH  97 101
ATOM    101  S   UNL A   1      42.677  36.519  28.414  1.00  0.00     0.124 S 
ATOM    102  O   UNL A   1      43.525  36.681  29.592  1.00  0.00    -0.237 OA
ATOM    103  O   UNL A   1      42.777  37.576  27.413  1.00  0.00    -0.237 OA
ATOM    104  O   UNL A   1      41.322  36.044  28.685  1.00  0.00    -0.744 OA
ENDBRANCH  97 101
ENDBRANCH  71  94
ENDBRANCH  45  46
ENDBRANCH  37  40
ENDBRANCH  35  36
ENDBRANCH  34  35
ENDBRANCH  33  34
ENDBRANCH   1  33
TORSDOF 22
ENDMDL
MODEL 3
REMARK VINA RESULT:     -12.3      2.042      4.464
REMARK SMILES Cc1ccccc1OCC(=O)N[C@@H](Cc1c[nH]c2ccccc12)C(=O)NCCCCCCNC(=O)c1ccc(-c2c3nc(c(-c4cc(S(=O)(=O)[O-])ccc4F)c4ccc([nH]4)c(-c4cc(S(=O)(=O)[O-])ccc4F)c4nc(c(-c5cc(S(=O)(=O)[O-])ccc5F)c5ccc2[nH]5)C=C4)C=C3)cc1
REMARK SMILES IDX 29 1 28 2 27 3 26 4 24 5 25 6 13 8 12 9 10 10 11 11 9 13
REMARK SMILES IDX 8 14 7 15 1 16 2 17 3 18 4 19 6 20 5 21 14 22 15 23 16 24
REMARK SMILES IDX 23 25 17 26 18 27 22 28 19 30 21 31 20 32 30 33 31 34 32 35
REMARK SMILES IDX 33 36 34 37 35 39 36 40 37 41 98 42 38 43 97 44 39 45 40 46
REMARK SMILES IDX 41 47 91 48 42 49 96 50 90 51 92 52 43 53 95 54 89 55 88 56
REMARK SMILES IDX 44 58 76 59 56 60 75 61 57 62 60 63 74 64 93 65 58 66 59 67
REMARK SMILES IDX 73 69 94 70 61 71 45 72 46 73 54 74 47 75 53 76 55 77 52 78
REMARK SMILES IDX 48 79 49 80 50 81 51 82 77 83 78 84 86 85 79 86 85 87 87 88
REMARK SMILES IDX 84 89 80 90 81 91 82 92 83 93 62 94 63 95 71 96 64 97 70 98
REMARK SMILES IDX 72 99 69 100 65 101 66 102 67 103 68 104
REMARK H PARENT 26 7 12 12 17 29 33 38 92 57 60 68
REMARK Flexibility Score: inf
ROOT
ATOM      1  C   UNL A   1      35.295  22.784  24.627  1.00  0.00     0.002 C 
ENDROOT
BRANCH   1   2
ATOM      2  C   UNL A   1      34.054  23.446  25.232  1.00  0.00     0.021 C 
BRANCH   2   3
ATOM      3  C   UNL A   1      34.158  24.948  25.463  1.00  0.00     0.116 C 
BRANCH   3   4
ATOM      4  N   UNL A   1      34.153  25.765  24.266  1.00  0.00    -0.354 N 
ATOM      5  C   UNL A   1      33.696  27.041  24.090  1.00  0.00     0.242 C 
ATOM      6  O   UNL A   1      34.218  27.715  23.192  1.00  0.00    -0.273 OA
ATOM      7  H   UNL A   1      34.536  25.340  23.464  1.00  0.00     0.163 HD
BRANCH   5   8
ATOM      8  C   UNL A   1      32.623  27.704  24.999  1.00  0.00     0.175 C 
BRANCH   8   9
ATOM      9  N   UNL A   1      31.320  27.051  24.894  1.00  0.00    -0.341 N 
ATOM     10  C   UNL A   1      30.617  26.836  23.746  1.00  0.00     0.258 C 
ATOM     11  O   UNL A   1      29.915  25.829  23.663  1.00  0.00    -0.271 OA
ATOM     12  H   UNL A   1      30.911  26.737  25.732  1.00  0.00     0.164 HD
BRANCH  10  13
ATOM     13  C   UNL A   1      30.698  27.855  22.606  1.00  0.00     0.329 C 
BRANCH  13  14
ATOM     14  O   UNL A   1      29.502  28.310  21.993  1.00  0.00    -0.484 OA
BRANCH  14  15
ATOM     15  C   UNL A   1      28.850  29.423  22.447  1.00  0.00     0.122 A 
ATOM     16  C   UNL A   1      26.729  28.386  23.519  1.00  0.00     0.048 C 
ATOM     17  C   UNL A   1      27.633  29.523  23.137  1.00  0.00    -0.009 A 
ATOM     18  C   UNL A   1      27.183  30.805  23.526  1.00  0.00     0.007 A 
ATOM     19  C   UNL A   1      27.877  31.963  23.183  1.00  0.00     0.001 A 
ATOM     20  C   UNL A   1      29.524  30.604  22.083  1.00  0.00     0.047 A 
ATOM     21  C   UNL A   1      29.046  31.864  22.445  1.00  0.00     0.004 A 
ENDBRANCH  14  15
ENDBRANCH  13  14
ENDBRANCH  10  13
ENDBRANCH   8   9
BRANCH   8  22
ATOM     22  C   UNL A   1      33.090  27.991  26.434  1.00  0.00     0.072 C 
BRANCH  22  23
ATOM     23  C   UNL A   1      33.093  29.419  26.880  1.00  0.00    -0.020 A 
ATOM     24  C   UNL A   1      31.982  30.236  26.979  1.00  0.00     0.087 A 
ATOM     25  C   UNL A   1      34.219  30.201  27.294  1.00  0.00     0.003 A 
ATOM     26  N   UNL A   1      32.395  31.485  27.358  1.00  0.00    -0.361 N 
ATOM     27  C   UNL A   1      33.759  31.497  27.539  1.00  0.00     0.046 A 
ATOM     28  C   UNL A   1      35.596  29.939  27.445  1.00  0.00     0.010 A 
ATOM     29  H   UNL A   1      31.804  32.261  27.483  1.00  0.00     0.166 HD
ATOM     30  C   UNL A   1      34.610  32.552  27.886  1.00  0.00     0.026 A 
ATOM     31  C   UNL A   1      36.459  30.981  27.808  1.00  0.00     0.001 A 
ATOM     32  C   UNL A   1      35.973  32.269  28.013  1.00  0.00     0.002 A 
ENDBRANCH  22  23
ENDBRANCH   8  22
ENDBRANCH   5   8
ENDBRANCH   3   4
ENDBRANCH   2   3
ENDBRANCH   1   2
BRANCH   1  33
ATOM     33  C   UNL A   1      36.166  21.933  25.567  1.00  0.00     0.002 C 
BRANCH  33  34
ATOM     34  C   UNL A   1      37.681  22.026  25.388  1.00  0.00     0.021 C 
BRANCH  34  35
ATOM     35  C   UNL A   1      38.340  23.224  26.056  1.00  0.00     0.116 C 
BRANCH  35  36
ATOM     36  N   UNL A   1      39.791  23.135  26.169  1.00  0.00    -0.352 N 
ATOM     37  C   UNL A   1      40.670  24.095  26.655  1.00  0.00     0.251 C 
ATOM     38  H   UNL A   1      40.197  22.292  25.862  1.00  0.00     0.163 HD
ATOM     39  O   UNL A   1      41.870  23.920  26.683  1.00  0.00    -0.269 OA
BRANCH  37  40
ATOM     40  C   UNL A   1      40.079  25.312  27.272  1.00  0.00     0.039 A 
ATOM     41  C   UNL A   1      40.341  26.531  26.640  1.00  0.00     0.014 A 
ATOM     42  C   UNL A   1      39.555  25.274  28.562  1.00  0.00     0.014 A 
ATOM     43  C   UNL A   1      40.311  27.701  27.393  1.00  0.00     0.010 A 
ATOM     44  C   UNL A   1      39.613  26.421  29.333  1.00  0.00     0.010 A 
ATOM     45  C   UNL A   1      40.060  27.618  28.767  1.00  0.00    -0.014 A 
BRANCH  45  46
ATOM     46  C   UNL A   1      40.420  28.698  29.681  1.00  0.00     0.031 A 
ATOM     47  C   UNL A   1      39.427  29.708  30.096  1.00  0.00     0.074 A 
ATOM     48  C   UNL A   1      41.698  28.838  30.098  1.00  0.00     0.049 A 
ATOM     49  N   UNL A   1      39.696  30.960  30.265  1.00  0.00    -0.248 NA
ATOM     50  C   UNL A   1      38.026  29.378  30.320  1.00  0.00     0.031 C 
ATOM     51  C   UNL A   1      42.206  29.778  31.094  1.00  0.00     0.029 A 
ATOM     52  N   UNL A   1      42.842  28.304  29.527  1.00  0.00    -0.354 N 
ATOM     53  C   UNL A   1      38.605  31.541  30.867  1.00  0.00     0.074 A 
ATOM     54  C   UNL A   1      37.568  30.532  30.815  1.00  0.00     0.031 C 
ATOM     55  C   UNL A   1      43.526  29.939  30.903  1.00  0.00     0.029 A 
ATOM     56  C   UNL A   1      43.894  29.203  29.704  1.00  0.00     0.049 A 
ATOM     57  H   UNL A   1      42.903  27.433  29.071  1.00  0.00     0.167 HD
ATOM     58  C   UNL A   1      38.720  32.753  31.480  1.00  0.00     0.034 A 
ATOM     59  C   UNL A   1      44.574  29.723  28.643  1.00  0.00     0.034 A 
ATOM     60  C   UNL A   1      40.086  33.268  31.426  1.00  0.00     0.049 A 
ATOM     61  C   UNL A   1      44.463  31.229  28.532  1.00  0.00     0.074 A 
ATOM     62  C   UNL A   1      41.115  33.257  32.353  1.00  0.00     0.029 A 
ATOM     63  N   UNL A   1      40.650  33.653  30.215  1.00  0.00    -0.354 N 
ATOM     64  N   UNL A   1      43.570  31.950  29.150  1.00  0.00    -0.248 NA
ATOM     65  C   UNL A   1      45.339  32.030  27.683  1.00  0.00     0.031 C 
ATOM     66  C   UNL A   1      42.317  33.590  31.681  1.00  0.00     0.029 A 
ATOM     67  C   UNL A   1      42.016  33.831  30.351  1.00  0.00     0.049 A 
ATOM     68  H   UNL A   1      40.149  33.781  29.377  1.00  0.00     0.167 HD
ATOM     69  C   UNL A   1      43.703  33.265  28.775  1.00  0.00     0.074 A 
ATOM     70  C   UNL A   1      44.850  33.265  27.882  1.00  0.00     0.031 C 
ATOM     71  C   UNL A   1      42.846  34.235  29.223  1.00  0.00     0.034 A 
BRANCH  58  72
ATOM     72  C   UNL A   1      37.668  33.303  32.419  1.00  0.00     0.023 A 
ATOM     73  C   UNL A   1      36.489  33.870  31.894  1.00  0.00     0.031 A 
ATOM     74  C   UNL A   1      37.782  33.331  33.822  1.00  0.00     0.131 A 
ATOM     75  C   UNL A   1      35.561  34.531  32.718  1.00  0.00     0.055 A 
ATOM     76  C   UNL A   1      36.894  34.043  34.639  1.00  0.00     0.041 A 
ATOM     77  F   UNL A   1      38.738  32.638  34.459  1.00  0.00    -0.206 F 
ATOM     78  C   UNL A   1      35.784  34.666  34.086  1.00  0.00     0.022 A 
BRANCH  75  79
ATOM     79  S   UNL A   1      34.050  35.211  31.979  1.00  0.00     0.124 S 
ATOM     80  O   UNL A   1      34.088  36.603  32.415  1.00  0.00    -0.237 OA
ATOM     81  O   UNL A   1      34.270  34.972  30.557  1.00  0.00    -0.237 OA
ATOM     82  O   UNL A   1      32.987  34.406  32.581  1.00  0.00    -0.744 OA
ENDBRANCH  75  79
ENDBRANCH  58  72
BRANCH  59  83
ATOM     83  C   UNL A   1      44.685  28.801  27.478  1.00  0.00     0.023 A 
ATOM     84  C   UNL A   1      45.596  27.728  27.567  1.00  0.00     0.031 A 
ATOM     85  C   UNL A   1      43.707  28.754  26.476  1.00  0.00     0.131 A 
ATOM     86  C   UNL A   1      45.440  26.600  26.748  1.00  0.00     0.055 A 
ATOM     87  C   UNL A   1      43.575  27.639  25.640  1.00  0.00     0.041 A 
ATOM     88  F   UNL A   1      42.794  29.729  26.364  1.00  0.00    -0.206 F 
ATOM     89  C   UNL A   1      44.418  26.540  25.799  1.00  0.00     0.022 A 
BRANCH  86  90
ATOM     90  S   UNL A   1      46.436  25.115  27.065  1.00  0.00     0.124 S 
ATOM     91  O   UNL A   1      46.803  25.283  28.466  1.00  0.00    -0.237 OA
ATOM     92  O   UNL A   1      45.507  24.025  26.780  1.00  0.00    -0.237 OA
ATOM     93  O   UNL A   1      47.531  25.244  26.104  1.00  0.00    -0.744 OA
ENDBRANCH  86  90
ENDBRANCH  59  83
BRANCH  71  94
ATOM     94  C   UNL A   1      42.785  35.670  28.731  1.00  0.00     0.023 A 
ATOM     95  C   UNL A   1      43.275  36.763  29.462  1.00  0.00     0.031 A 
ATOM     96  C   UNL A   1      42.270  35.982  27.449  1.00  0.00     0.131 A 
ATOM     97  C   UNL A   1      43.151  38.081  28.983  1.00  0.00     0.055 A 
ATOM     98  C   UNL A   1      42.221  37.285  26.939  1.00  0.00     0.041 A 
ATOM     99  F   UNL A   1      41.795  35.035  26.626  1.00  0.00    -0.206 F 
ATOM    100  C   UNL A   1      42.645  38.350  27.716  1.00  0.00     0.022 A 
BRANCH  97 101
ATOM    101  S   UNL A   1      43.607  39.442  30.091  1.00  0.00     0.124 S 
ATOM    102  O   UNL A   1      42.401  40.267  30.062  1.00  0.00    -0.237 OA
ATOM    103  O   UNL A   1      43.871  38.750  31.348  1.00  0.00    -0.237 OA
ATOM    104  O   UNL A   1      44.778  40.035  29.448  1.00  0.00    -0.744 OA
ENDBRANCH  97 101
ENDBRANCH  71  94
ENDBRANCH  45  46
ENDBRANCH  37  40
ENDBRANCH  35  36
ENDBRANCH  34  35
ENDBRANCH  33  34
ENDBRANCH   1  33
TORSDOF 22
ENDMDL
