MODEL 1
REMARK VINA RESULT:     -12.5      0.000      0.000
REMARK SMILES O=C(NCCCCCCNC(=O)c1ccc(-c2c3nc(c(-c4cc(S(=O)(=O)[O-])ccc4F)c4ccc([nH]4)c(-c4cc(S(=O)(=O)[O-])ccc4F)c4nc(c(-c5cc(S(=O)(=O)[O-])ccc5F)c5ccc2[nH]5)C=C4)C=C3)cc1)C1=Cc2c(ccc(Cl)c2Sc2ccccc2)O[C@H]1C(F)(F)F
REMARK SMILES IDX 7 1 6 2 5 3 4 4 3 5 1 6 2 7 76 9 77 10 93 11 78 12 92 13
REMARK SMILES IDX 79 14 84 15 80 16 82 17 81 18 83 19 94 20 95 21 96 22 97 23
REMARK SMILES IDX 85 24 86 25 87 26 91 27 88 28 90 29 89 30 8 31 9 32 10 33
REMARK SMILES IDX 11 34 12 36 13 37 14 38 75 39 15 40 74 41 16 42 17 43 18 44
REMARK SMILES IDX 68 45 19 46 73 47 67 48 69 49 20 50 72 51 66 52 65 53 21 55
REMARK SMILES IDX 53 56 33 57 52 58 34 59 37 60 51 61 70 62 35 63 36 64 50 66
REMARK SMILES IDX 71 67 38 68 22 69 23 70 31 71 24 72 30 73 32 74 29 75 25 76
REMARK SMILES IDX 26 77 27 78 28 79 54 80 55 81 63 82 56 83 62 84 64 85 61 86
REMARK SMILES IDX 57 87 58 88 59 89 60 90 39 91 40 92 48 93 41 94 47 95 49 96
REMARK SMILES IDX 46 97 42 98 43 99 44 100 45 101
REMARK H PARENT 3 8 10 35 69 54 37 65
REMARK Flexibility Score: inf
ROOT
ATOM      1  C   UNL A   1      31.355  30.884  25.693  1.00  0.00     0.002 C 
ENDROOT
BRANCH   1   2
ATOM      2  C   UNL A   1      32.159  29.586  25.838  1.00  0.00     0.002 C 
BRANCH   2   3
ATOM      3  C   UNL A   1      31.454  28.400  26.502  1.00  0.00     0.021 C 
BRANCH   3   4
ATOM      4  C   UNL A   1      32.311  27.146  26.671  1.00  0.00     0.116 C 
BRANCH   4   5
ATOM      5  N   UNL A   1      31.552  25.987  27.121  1.00  0.00    -0.352 N 
ATOM      6  O   UNL A   1      31.002  23.802  27.255  1.00  0.00    -0.270 OA
ATOM      7  C   UNL A   1      31.771  24.663  26.852  1.00  0.00     0.251 C 
ATOM      8  H   UNL A   1      30.778  26.183  27.696  1.00  0.00     0.163 HD
BRANCH   7   9
ATOM      9  C   UNL A   1      32.940  24.282  26.032  1.00  0.00     0.067 C 
ATOM     10  C   UNL A   1      33.328  25.134  25.078  1.00  0.00     0.026 C 
ATOM     11  C   UNL A   1      33.317  22.837  25.994  1.00  0.00     0.314 C 
ATOM     12  C   UNL A   1      33.301  24.593  23.706  1.00  0.00     0.033 A 
ATOM     13  O   UNL A   1      33.495  22.324  24.645  1.00  0.00    -0.475 OA
ATOM     14  C   UNL A   1      33.355  23.187  23.587  1.00  0.00     0.129 A 
ATOM     15  C   UNL A   1      33.086  25.413  22.564  1.00  0.00     0.042 A 
ATOM     16  C   UNL A   1      33.197  22.573  22.351  1.00  0.00     0.049 A 
ATOM     17  C   UNL A   1      32.898  24.748  21.325  1.00  0.00     0.055 A 
ATOM     18  C   UNL A   1      32.955  23.350  21.225  1.00  0.00     0.025 A 
ATOM     19  Cl  UNL A   1      32.533  25.582  19.844  1.00  0.00    -0.083 Cl
BRANCH  11  20
ATOM     20  C   UNL A   1      34.596  22.598  26.810  1.00  0.00     0.429 C 
ATOM     21  F   UNL A   1      34.404  22.825  28.133  1.00  0.00    -0.167 F 
ATOM     22  F   UNL A   1      35.052  21.330  26.685  1.00  0.00    -0.167 F 
ATOM     23  F   UNL A   1      35.598  23.414  26.404  1.00  0.00    -0.167 F 
ENDBRANCH  11  20
BRANCH  15  24
ATOM     24  S   UNL A   1      32.902  27.223  22.567  1.00  0.00    -0.088 SA
BRANCH  24  25
ATOM     25  C   UNL A   1      31.199  27.630  22.842  1.00  0.00     0.012 A 
ATOM     26  C   UNL A   1      30.711  28.873  22.416  1.00  0.00     0.015 A 
ATOM     27  C   UNL A   1      30.327  26.732  23.469  1.00  0.00     0.015 A 
ATOM     28  C   UNL A   1      29.357  29.182  22.543  1.00  0.00     0.001 A 
ATOM     29  C   UNL A   1      28.970  27.045  23.598  1.00  0.00     0.001 A 
ATOM     30  C   UNL A   1      28.485  28.263  23.123  1.00  0.00     0.000 A 
ENDBRANCH  24  25
ENDBRANCH  15  24
ENDBRANCH   7   9
ENDBRANCH   4   5
ENDBRANCH   3   4
ENDBRANCH   2   3
ENDBRANCH   1   2
BRANCH   1  31
ATOM     31  C   UNL A   1      31.423  31.887  26.849  1.00  0.00     0.021 C 
BRANCH  31  32
ATOM     32  C   UNL A   1      32.746  32.629  27.045  1.00  0.00     0.116 C 
BRANCH  32  33
ATOM     33  N   UNL A   1      32.592  33.949  27.625  1.00  0.00    -0.352 N 
ATOM     34  C   UNL A   1      33.278  34.561  28.648  1.00  0.00     0.251 C 
ATOM     35  H   UNL A   1      31.881  34.496  27.221  1.00  0.00     0.163 HD
ATOM     36  O   UNL A   1      32.911  35.676  29.015  1.00  0.00    -0.269 OA
BRANCH  34  37
ATOM     37  C   UNL A   1      34.418  33.900  29.337  1.00  0.00     0.039 A 
ATOM     38  C   UNL A   1      35.715  34.313  29.009  1.00  0.00     0.014 A 
ATOM     39  C   UNL A   1      34.244  32.856  30.250  1.00  0.00     0.014 A 
ATOM     40  C   UNL A   1      36.825  33.731  29.634  1.00  0.00     0.010 A 
ATOM     41  C   UNL A   1      35.348  32.310  30.912  1.00  0.00     0.010 A 
ATOM     42  C   UNL A   1      36.650  32.742  30.612  1.00  0.00    -0.014 A 
BRANCH  42  43
ATOM     43  C   UNL A   1      37.815  32.147  31.322  1.00  0.00     0.031 A 
ATOM     44  C   UNL A   1      38.601  31.030  30.693  1.00  0.00     0.074 A 
ATOM     45  C   UNL A   1      38.132  32.570  32.561  1.00  0.00     0.049 A 
ATOM     46  N   UNL A   1      39.583  30.322  31.191  1.00  0.00    -0.248 NA
ATOM     47  C   UNL A   1      38.207  30.641  29.331  1.00  0.00     0.031 C 
ATOM     48  C   UNL A   1      37.430  33.621  33.303  1.00  0.00     0.029 A 
ATOM     49  N   UNL A   1      39.117  32.156  33.423  1.00  0.00    -0.354 N 
ATOM     50  C   UNL A   1      39.917  29.391  30.212  1.00  0.00     0.074 A 
ATOM     51  C   UNL A   1      38.999  29.602  29.110  1.00  0.00     0.031 C 
ATOM     52  C   UNL A   1      38.004  33.765  34.508  1.00  0.00     0.029 A 
ATOM     53  C   UNL A   1      39.095  32.803  34.637  1.00  0.00     0.049 A 
ATOM     54  H   UNL A   1      39.775  31.461  33.195  1.00  0.00     0.167 HD
ATOM     55  C   UNL A   1      40.901  28.457  30.224  1.00  0.00     0.034 A 
ATOM     56  C   UNL A   1      39.856  32.632  35.734  1.00  0.00     0.034 A 
ATOM     57  C   UNL A   1      41.822  28.261  31.318  1.00  0.00     0.049 A 
ATOM     58  C   UNL A   1      40.952  31.603  35.723  1.00  0.00     0.074 A 
ATOM     59  C   UNL A   1      42.882  27.375  31.410  1.00  0.00     0.029 A 
ATOM     60  N   UNL A   1      41.790  28.961  32.517  1.00  0.00    -0.354 N 
ATOM     61  N   UNL A   1      41.269  30.747  34.781  1.00  0.00    -0.248 NA
ATOM     62  C   UNL A   1      41.800  31.526  36.921  1.00  0.00     0.031 C 
ATOM     63  C   UNL A   1      43.463  27.510  32.678  1.00  0.00     0.029 A 
ATOM     64  C   UNL A   1      42.798  28.515  33.360  1.00  0.00     0.049 A 
ATOM     65  H   UNL A   1      41.144  29.672  32.738  1.00  0.00     0.167 HD
ATOM     66  C   UNL A   1      42.363  30.039  35.267  1.00  0.00     0.074 A 
ATOM     67  C   UNL A   1      42.657  30.573  36.582  1.00  0.00     0.031 C 
ATOM     68  C   UNL A   1      43.066  29.040  34.676  1.00  0.00     0.034 A 
BRANCH  55  69
ATOM     69  C   UNL A   1      41.003  27.557  29.018  1.00  0.00     0.023 A 
ATOM     70  C   UNL A   1      42.006  27.736  28.049  1.00  0.00     0.031 A 
ATOM     71  C   UNL A   1      40.054  26.541  28.806  1.00  0.00     0.131 A 
ATOM     72  C   UNL A   1      41.987  26.970  26.874  1.00  0.00     0.055 A 
ATOM     73  C   UNL A   1      40.087  25.730  27.670  1.00  0.00     0.041 A 
ATOM     74  F   UNL A   1      39.063  26.336  29.688  1.00  0.00    -0.206 F 
ATOM     75  C   UNL A   1      41.047  25.953  26.687  1.00  0.00     0.022 A 
BRANCH  72  76
ATOM     76  S   UNL A   1      43.114  27.426  25.528  1.00  0.00     0.124 S 
ATOM     77  O   UNL A   1      44.130  28.195  26.244  1.00  0.00    -0.237 OA
ATOM     78  O   UNL A   1      43.536  26.128  25.016  1.00  0.00    -0.237 OA
ATOM     79  O   UNL A   1      42.272  28.210  24.627  1.00  0.00    -0.744 OA
ENDBRANCH  72  76
ENDBRANCH  55  69
BRANCH  56  80
ATOM     80  C   UNL A   1      39.591  33.440  36.954  1.00  0.00     0.023 A 
ATOM     81  C   UNL A   1      38.838  32.921  38.016  1.00  0.00     0.031 A 
ATOM     82  C   UNL A   1      40.079  34.754  37.060  1.00  0.00     0.131 A 
ATOM     83  C   UNL A   1      38.567  33.725  39.133  1.00  0.00     0.055 A 
ATOM     84  C   UNL A   1      39.834  35.539  38.187  1.00  0.00     0.041 A 
ATOM     85  F   UNL A   1      40.817  35.285  36.071  1.00  0.00    -0.206 F 
ATOM     86  C   UNL A   1      39.067  35.027  39.230  1.00  0.00     0.022 A 
BRANCH  83  87
ATOM     87  S   UNL A   1      37.517  33.055  40.452  1.00  0.00     0.124 S 
ATOM     88  O   UNL A   1      36.299  32.720  39.722  1.00  0.00    -0.237 OA
ATOM     89  O   UNL A   1      38.311  31.927  40.928  1.00  0.00    -0.237 OA
ATOM     90  O   UNL A   1      37.397  34.168  41.391  1.00  0.00    -0.744 OA
ENDBRANCH  83  87
ENDBRANCH  56  80
BRANCH  68  91
ATOM     91  C   UNL A   1      44.237  28.490  35.444  1.00  0.00     0.023 A 
ATOM     92  C   UNL A   1      44.074  27.489  36.418  1.00  0.00     0.031 A 
ATOM     93  C   UNL A   1      45.529  28.991  35.214  1.00  0.00     0.131 A 
ATOM     94  C   UNL A   1      45.182  27.049  37.158  1.00  0.00     0.055 A 
ATOM     95  C   UNL A   1      46.634  28.523  35.925  1.00  0.00     0.041 A 
ATOM     96  F   UNL A   1      45.736  29.949  34.296  1.00  0.00    -0.206 F 
ATOM     97  C   UNL A   1      46.463  27.553  36.911  1.00  0.00     0.022 A 
BRANCH  94  98
ATOM     98  S   UNL A   1      44.920  25.852  38.495  1.00  0.00     0.124 S 
ATOM     99  O   UNL A   1      46.272  25.674  39.015  1.00  0.00    -0.237 OA
ATOM    100  O   UNL A   1      43.989  26.559  39.369  1.00  0.00    -0.237 OA
ATOM    101  O   UNL A   1      44.361  24.688  37.810  1.00  0.00    -0.744 OA
ENDBRANCH  94  98
ENDBRANCH  68  91
ENDBRANCH  42  43
ENDBRANCH  34  37
ENDBRANCH  32  33
ENDBRANCH  31  32
ENDBRANCH   1  31
TORSDOF 19
ENDMDL
MODEL 2
REMARK VINA RESULT:     -12.4      1.983      3.279
REMARK SMILES O=C(NCCCCCCNC(=O)c1ccc(-c2c3nc(c(-c4cc(S(=O)(=O)[O-])ccc4F)c4ccc([nH]4)c(-c4cc(S(=O)(=O)[O-])ccc4F)c4nc(c(-c5cc(S(=O)(=O)[O-])ccc5F)c5ccc2[nH]5)C=C4)C=C3)cc1)C1=Cc2c(ccc(Cl)c2Sc2ccccc2)O[C@H]1C(F)(F)F
REMARK SMILES IDX 7 1 6 2 5 3 4 4 3 5 1 6 2 7 76 9 77 10 93 11 78 12 92 13
REMARK SMILES IDX 79 14 84 15 80 16 82 17 81 18 83 19 94 20 95 21 96 22 97 23
REMARK SMILES IDX 85 24 86 25 87 26 91 27 88 28 90 29 89 30 8 31 9 32 10 33
REMARK SMILES IDX 11 34 12 36 13 37 14 38 75 39 15 40 74 41 16 42 17 43 18 44
REMARK SMILES IDX 68 45 19 46 73 47 67 48 69 49 20 50 72 51 66 52 65 53 21 55
REMARK SMILES IDX 53 56 33 57 52 58 34 59 37 60 51 61 70 62 35 63 36 64 50 66
REMARK SMILES IDX 71 67 38 68 22 69 23 70 31 71 24 72 30 73 32 74 29 75 25 76
REMARK SMILES IDX 26 77 27 78 28 79 54 80 55 81 63 82 56 83 62 84 64 85 61 86
REMARK SMILES IDX 57 87 58 88 59 89 60 90 39 91 40 92 48 93 41 94 47 95 49 96
REMARK SMILES IDX 46 97 42 98 43 99 44 100 45 101
REMARK H PARENT 3 8 10 35 69 54 37 65
REMARK Flexibility Score: inf
ROOT
ATOM      1  C   UNL A   1      31.361  31.001  26.089  1.00  0.00     0.002 C 
ENDROOT
BRANCH   1   2
ATOM      2  C   UNL A   1      32.192  29.995  26.894  1.00  0.00     0.002 C 
BRANCH   2   3
ATOM      3  C   UNL A   1      31.612  28.587  27.061  1.00  0.00     0.021 C 
BRANCH   3   4
ATOM      4  C   UNL A   1      32.645  27.465  27.150  1.00  0.00     0.116 C 
BRANCH   4   5
ATOM      5  N   UNL A   1      33.464  27.341  25.952  1.00  0.00    -0.352 N 
ATOM      6  O   UNL A   1      34.124  26.459  23.981  1.00  0.00    -0.270 OA
ATOM      7  C   UNL A   1      33.310  26.487  24.894  1.00  0.00     0.251 C 
ATOM      8  H   UNL A   1      34.231  27.955  25.895  1.00  0.00     0.163 HD
BRANCH   7   9
ATOM      9  C   UNL A   1      32.157  25.562  24.880  1.00  0.00     0.067 C 
ATOM     10  C   UNL A   1      32.287  24.406  25.538  1.00  0.00     0.026 C 
ATOM     11  C   UNL A   1      31.139  25.741  23.802  1.00  0.00     0.314 C 
ATOM     12  C   UNL A   1      32.141  23.194  24.711  1.00  0.00     0.033 A 
ATOM     13  O   UNL A   1      30.826  24.510  23.096  1.00  0.00    -0.475 OA
ATOM     14  C   UNL A   1      31.430  23.345  23.500  1.00  0.00     0.129 A 
ATOM     15  C   UNL A   1      32.796  21.970  25.023  1.00  0.00     0.042 A 
ATOM     16  C   UNL A   1      31.355  22.301  22.586  1.00  0.00     0.049 A 
ATOM     17  C   UNL A   1      32.723  20.939  24.051  1.00  0.00     0.055 A 
ATOM     18  C   UNL A   1      32.012  21.107  22.854  1.00  0.00     0.025 A 
ATOM     19  Cl  UNL A   1      33.537  19.414  24.221  1.00  0.00    -0.083 Cl
BRANCH  11  20
ATOM     20  C   UNL A   1      29.851  26.347  24.380  1.00  0.00     0.429 C 
ATOM     21  F   UNL A   1      29.840  27.699  24.287  1.00  0.00    -0.167 F 
ATOM     22  F   UNL A   1      28.745  25.894  23.746  1.00  0.00    -0.167 F 
ATOM     23  F   UNL A   1      29.705  26.034  25.690  1.00  0.00    -0.167 F 
ENDBRANCH  11  20
BRANCH  15  24
ATOM     24  S   UNL A   1      33.821  21.652  26.492  1.00  0.00    -0.088 SA
BRANCH  24  25
ATOM     25  C   UNL A   1      35.487  22.152  26.151  1.00  0.00     0.012 A 
ATOM     26  C   UNL A   1      36.406  21.206  25.676  1.00  0.00     0.015 A 
ATOM     27  C   UNL A   1      35.904  23.475  26.339  1.00  0.00     0.015 A 
ATOM     28  C   UNL A   1      37.698  21.592  25.319  1.00  0.00     0.001 A 
ATOM     29  C   UNL A   1      37.201  23.860  25.984  1.00  0.00     0.001 A 
ATOM     30  C   UNL A   1      38.091  22.922  25.462  1.00  0.00     0.000 A 
ENDBRANCH  24  25
ENDBRANCH  15  24
ENDBRANCH   7   9
ENDBRANCH   4   5
ENDBRANCH   3   4
ENDBRANCH   2   3
ENDBRANCH   1   2
BRANCH   1  31
ATOM     31  C   UNL A   1      31.436  32.472  26.510  1.00  0.00     0.021 C 
BRANCH  31  32
ATOM     32  C   UNL A   1      32.700  32.917  27.249  1.00  0.00     0.116 C 
BRANCH  32  33
ATOM     33  N   UNL A   1      32.609  34.255  27.802  1.00  0.00    -0.352 N 
ATOM     34  C   UNL A   1      33.341  34.862  28.796  1.00  0.00     0.251 C 
ATOM     35  H   UNL A   1      31.910  34.820  27.401  1.00  0.00     0.163 HD
ATOM     36  O   UNL A   1      33.025  35.998  29.146  1.00  0.00    -0.269 OA
BRANCH  34  37
ATOM     37  C   UNL A   1      34.469  34.171  29.475  1.00  0.00     0.039 A 
ATOM     38  C   UNL A   1      35.768  34.428  29.020  1.00  0.00     0.014 A 
ATOM     39  C   UNL A   1      34.278  33.246  30.505  1.00  0.00     0.014 A 
ATOM     40  C   UNL A   1      36.869  33.813  29.628  1.00  0.00     0.010 A 
ATOM     41  C   UNL A   1      35.379  32.670  31.147  1.00  0.00     0.010 A 
ATOM     42  C   UNL A   1      36.686  32.949  30.716  1.00  0.00    -0.014 A 
BRANCH  42  43
ATOM     43  C   UNL A   1      37.847  32.325  31.407  1.00  0.00     0.031 A 
ATOM     44  C   UNL A   1      38.586  31.180  30.770  1.00  0.00     0.074 A 
ATOM     45  C   UNL A   1      38.202  32.746  32.636  1.00  0.00     0.049 A 
ATOM     46  N   UNL A   1      39.557  30.446  31.254  1.00  0.00    -0.248 NA
ATOM     47  C   UNL A   1      38.154  30.794  29.420  1.00  0.00     0.031 C 
ATOM     48  C   UNL A   1      37.546  33.822  33.384  1.00  0.00     0.029 A 
ATOM     49  N   UNL A   1      39.191  32.309  33.482  1.00  0.00    -0.354 N 
ATOM     50  C   UNL A   1      39.843  29.500  30.276  1.00  0.00     0.074 A 
ATOM     51  C   UNL A   1      38.910  29.730  29.191  1.00  0.00     0.031 C 
ATOM     52  C   UNL A   1      38.148  33.958  34.576  1.00  0.00     0.029 A 
ATOM     53  C   UNL A   1      39.213  32.964  34.691  1.00  0.00     0.049 A 
ATOM     54  H   UNL A   1      39.823  31.593  33.246  1.00  0.00     0.167 HD
ATOM     55  C   UNL A   1      40.800  28.537  30.275  1.00  0.00     0.034 A 
ATOM     56  C   UNL A   1      39.990  32.778  35.774  1.00  0.00     0.034 A 
ATOM     57  C   UNL A   1      41.736  28.321  31.352  1.00  0.00     0.049 A 
ATOM     58  C   UNL A   1      41.055  31.717  35.748  1.00  0.00     0.074 A 
ATOM     59  C   UNL A   1      42.771  27.404  31.429  1.00  0.00     0.029 A 
ATOM     60  N   UNL A   1      41.749  29.029  32.546  1.00  0.00    -0.354 N 
ATOM     61  N   UNL A   1      41.327  30.845  34.807  1.00  0.00    -0.248 NA
ATOM     62  C   UNL A   1      41.924  31.622  36.929  1.00  0.00     0.031 C 
ATOM     63  C   UNL A   1      43.381  27.530  32.684  1.00  0.00     0.029 A 
ATOM     64  C   UNL A   1      42.760  28.559  33.372  1.00  0.00     0.049 A 
ATOM     65  H   UNL A   1      41.129  29.761  32.774  1.00  0.00     0.167 HD
ATOM     66  C   UNL A   1      42.410  30.109  35.275  1.00  0.00     0.074 A 
ATOM     67  C   UNL A   1      42.745  30.642  36.580  1.00  0.00     0.031 C 
ATOM     68  C   UNL A   1      43.070  29.085  34.678  1.00  0.00     0.034 A 
BRANCH  55  69
ATOM     69  C   UNL A   1      40.850  27.626  29.073  1.00  0.00     0.023 A 
ATOM     70  C   UNL A   1      41.789  27.816  28.045  1.00  0.00     0.031 A 
ATOM     71  C   UNL A   1      39.913  26.587  28.928  1.00  0.00     0.131 A 
ATOM     72  C   UNL A   1      41.719  27.037  26.880  1.00  0.00     0.055 A 
ATOM     73  C   UNL A   1      39.897  25.764  27.800  1.00  0.00     0.041 A 
ATOM     74  F   UNL A   1      38.982  26.370  29.869  1.00  0.00    -0.206 F 
ATOM     75  C   UNL A   1      40.793  25.998  26.759  1.00  0.00     0.022 A 
BRANCH  72  76
ATOM     76  S   UNL A   1      42.754  27.503  25.466  1.00  0.00     0.124 S 
ATOM     77  O   UNL A   1      44.004  27.871  26.126  1.00  0.00    -0.237 OA
ATOM     78  O   UNL A   1      42.783  26.277  24.678  1.00  0.00    -0.237 OA
ATOM     79  O   UNL A   1      42.027  28.618  24.862  1.00  0.00    -0.744 OA
ENDBRANCH  72  76
ENDBRANCH  55  69
BRANCH  56  80
ATOM     80  C   UNL A   1      39.774  33.602  36.992  1.00  0.00     0.023 A 
ATOM     81  C   UNL A   1      39.006  33.123  38.063  1.00  0.00     0.031 A 
ATOM     82  C   UNL A   1      40.325  34.891  37.090  1.00  0.00     0.131 A 
ATOM     83  C   UNL A   1      38.783  33.942  39.179  1.00  0.00     0.055 A 
ATOM     84  C   UNL A   1      40.126  35.691  38.216  1.00  0.00     0.041 A 
ATOM     85  F   UNL A   1      41.078  35.383  36.093  1.00  0.00    -0.206 F 
ATOM     86  C   UNL A   1      39.345  35.220  39.267  1.00  0.00     0.022 A 
BRANCH  83  87
ATOM     87  S   UNL A   1      37.714  33.327  40.509  1.00  0.00     0.124 S 
ATOM     88  O   UNL A   1      38.546  32.288  41.104  1.00  0.00    -0.237 OA
ATOM     89  O   UNL A   1      37.511  34.527  41.315  1.00  0.00    -0.237 OA
ATOM     90  O   UNL A   1      36.528  32.850  39.800  1.00  0.00    -0.744 OA
ENDBRANCH  83  87
ENDBRANCH  56  80
BRANCH  68  91
ATOM     91  C   UNL A   1      44.240  28.505  35.427  1.00  0.00     0.023 A 
ATOM     92  C   UNL A   1      44.067  27.519  36.413  1.00  0.00     0.031 A 
ATOM     93  C   UNL A   1      45.542  28.964  35.165  1.00  0.00     0.131 A 
ATOM     94  C   UNL A   1      45.176  27.051  37.133  1.00  0.00     0.055 A 
ATOM     95  C   UNL A   1      46.646  28.468  35.857  1.00  0.00     0.041 A 
ATOM     96  F   UNL A   1      45.758  29.907  34.234  1.00  0.00    -0.206 F 
ATOM     97  C   UNL A   1      46.466  27.513  36.855  1.00  0.00     0.022 A 
BRANCH  94  98
ATOM     98  S   UNL A   1      44.905  25.875  38.488  1.00  0.00     0.124 S 
ATOM     99  O   UNL A   1      46.269  25.598  38.929  1.00  0.00    -0.237 OA
ATOM    100  O   UNL A   1      44.080  26.646  39.412  1.00  0.00    -0.237 OA
ATOM    101  O   UNL A   1      44.225  24.755  37.839  1.00  0.00    -0.744 OA
ENDBRANCH  94  98
ENDBRANCH  68  91
ENDBRANCH  42  43
ENDBRANCH  34  37
ENDBRANCH  32  33
ENDBRANCH  31  32
ENDBRANCH   1  31
TORSDOF 19
ENDMDL
MODEL 3
REMARK VINA RESULT:     -12.1      2.539      3.779
REMARK SMILES O=C(NCCCCCCNC(=O)c1ccc(-c2c3nc(c(-c4cc(S(=O)(=O)[O-])ccc4F)c4ccc([nH]4)c(-c4cc(S(=O)(=O)[O-])ccc4F)c4nc(c(-c5cc(S(=O)(=O)[O-])ccc5F)c5ccc2[nH]5)C=C4)C=C3)cc1)C1=Cc2c(ccc(Cl)c2Sc2ccccc2)O[C@H]1C(F)(F)F
REMARK SMILES IDX 7 1 6 2 5 3 4 4 3 5 1 6 2 7 76 9 77 10 93 11 78 12 92 13
REMARK SMILES IDX 79 14 84 15 80 16 82 17 81 18 83 19 94 20 95 21 96 22 97 23
REMARK SMILES IDX 85 24 86 25 87 26 91 27 88 28 90 29 89 30 8 31 9 32 10 33
REMARK SMILES IDX 11 34 12 36 13 37 14 38 75 39 15 40 74 41 16 42 17 43 18 44
REMARK SMILES IDX 68 45 19 46 73 47 67 48 69 49 20 50 72 51 66 52 65 53 21 55
REMARK SMILES IDX 53 56 33 57 52 58 34 59 37 60 51 61 70 62 35 63 36 64 50 66
REMARK SMILES IDX 71 67 38 68 22 69 23 70 31 71 24 72 30 73 32 74 29 75 25 76
REMARK SMILES IDX 26 77 27 78 28 79 54 80 55 81 63 82 56 83 62 84 64 85 61 86
REMARK SMILES IDX 57 87 58 88 59 89 60 90 39 91 40 92 48 93 41 94 47 95 49 96
REMARK SMILES IDX 46 97 42 98 43 99 44 100 45 101
REMARK H PARENT 3 8 10 35 69 54 37 65
REMARK Flexibility Score: inf
ROOT
ATOM      1  C   UNL A   1      31.609  30.242  25.955  1.00  0.00     0.002 C 
ENDROOT
BRANCH   1   2
ATOM      2  C   UNL A   1      32.767  29.414  26.526  1.00  0.00     0.002 C 
BRANCH   2   3
ATOM      3  C   UNL A   1      32.404  28.110  27.243  1.00  0.00     0.021 C 
BRANCH   3   4
ATOM      4  C   UNL A   1      32.214  26.899  26.331  1.00  0.00     0.116 C 
BRANCH   4   5
ATOM      5  N   UNL A   1      31.324  25.891  26.892  1.00  0.00    -0.352 N 
ATOM      6  O   UNL A   1      30.108  23.989  26.913  1.00  0.00    -0.270 OA
ATOM      7  C   UNL A   1      30.915  24.707  26.340  1.00  0.00     0.251 C 
ATOM      8  H   UNL A   1      30.971  26.087  27.789  1.00  0.00     0.163 HD
BRANCH   7   9
ATOM      9  C   UNL A   1      31.436  24.317  25.013  1.00  0.00     0.067 C 
ATOM     10  C   UNL A   1      31.904  23.071  24.878  1.00  0.00     0.026 C 
ATOM     11  C   UNL A   1      31.833  25.410  24.076  1.00  0.00     0.314 C 
ATOM     12  C   UNL A   1      33.322  22.973  24.485  1.00  0.00     0.033 A 
ATOM     13  O   UNL A   1      33.161  25.231  23.513  1.00  0.00    -0.475 OA
ATOM     14  C   UNL A   1      33.872  24.105  23.842  1.00  0.00     0.129 A 
ATOM     15  C   UNL A   1      34.144  21.873  24.852  1.00  0.00     0.042 A 
ATOM     16  C   UNL A   1      35.230  24.167  23.556  1.00  0.00     0.049 A 
ATOM     17  C   UNL A   1      35.531  21.988  24.572  1.00  0.00     0.055 A 
ATOM     18  C   UNL A   1      36.059  23.118  23.933  1.00  0.00     0.025 A 
ATOM     19  Cl  UNL A   1      36.696  20.783  25.032  1.00  0.00    -0.083 Cl
BRANCH  11  20
ATOM     20  C   UNL A   1      30.804  25.538  22.941  1.00  0.00     0.429 C 
ATOM     21  F   UNL A   1      30.037  24.427  22.825  1.00  0.00    -0.167 F 
ATOM     22  F   UNL A   1      29.968  26.585  23.127  1.00  0.00    -0.167 F 
ATOM     23  F   UNL A   1      31.412  25.733  21.746  1.00  0.00    -0.167 F 
ENDBRANCH  11  20
BRANCH  15  24
ATOM     24  S   UNL A   1      33.604  20.392  25.761  1.00  0.00    -0.088 SA
BRANCH  24  25
ATOM     25  C   UNL A   1      33.524  19.023  24.638  1.00  0.00     0.012 A 
ATOM     26  C   UNL A   1      32.559  19.024  23.620  1.00  0.00     0.015 A 
ATOM     27  C   UNL A   1      34.410  17.945  24.739  1.00  0.00     0.015 A 
ATOM     28  C   UNL A   1      32.532  18.000  22.672  1.00  0.00     0.001 A 
ATOM     29  C   UNL A   1      34.378  16.918  23.790  1.00  0.00     0.001 A 
ATOM     30  C   UNL A   1      33.449  16.954  22.751  1.00  0.00     0.000 A 
ENDBRANCH  24  25
ENDBRANCH  15  24
ENDBRANCH   7   9
ENDBRANCH   4   5
ENDBRANCH   3   4
ENDBRANCH   2   3
ENDBRANCH   1   2
BRANCH   1  31
ATOM     31  C   UNL A   1      31.400  31.648  26.527  1.00  0.00     0.021 C 
BRANCH  31  32
ATOM     32  C   UNL A   1      32.644  32.524  26.683  1.00  0.00     0.116 C 
BRANCH  32  33
ATOM     33  N   UNL A   1      32.377  33.806  27.306  1.00  0.00    -0.352 N 
ATOM     34  C   UNL A   1      33.016  34.446  28.342  1.00  0.00     0.251 C 
ATOM     35  H   UNL A   1      31.615  34.299  26.925  1.00  0.00     0.163 HD
ATOM     36  O   UNL A   1      32.554  35.511  28.748  1.00  0.00    -0.269 OA
BRANCH  34  37
ATOM     37  C   UNL A   1      34.218  33.869  29.001  1.00  0.00     0.039 A 
ATOM     38  C   UNL A   1      34.032  32.822  29.912  1.00  0.00     0.014 A 
ATOM     39  C   UNL A   1      35.508  34.363  28.785  1.00  0.00     0.014 A 
ATOM     40  C   UNL A   1      35.128  32.236  30.555  1.00  0.00     0.010 A 
ATOM     41  C   UNL A   1      36.608  33.745  29.387  1.00  0.00     0.010 A 
ATOM     42  C   UNL A   1      36.430  32.674  30.277  1.00  0.00    -0.014 A 
BRANCH  42  43
ATOM     43  C   UNL A   1      37.611  32.029  30.913  1.00  0.00     0.031 A 
ATOM     44  C   UNL A   1      38.404  30.989  30.170  1.00  0.00     0.074 A 
ATOM     45  C   UNL A   1      37.937  32.333  32.184  1.00  0.00     0.049 A 
ATOM     46  N   UNL A   1      39.402  30.250  30.587  1.00  0.00    -0.248 NA
ATOM     47  C   UNL A   1      38.001  30.731  28.781  1.00  0.00     0.031 C 
ATOM     48  C   UNL A   1      37.229  33.296  33.033  1.00  0.00     0.029 A 
ATOM     49  N   UNL A   1      38.936  31.850  32.992  1.00  0.00    -0.354 N 
ATOM     50  C   UNL A   1      39.737  29.425  29.519  1.00  0.00     0.074 A 
ATOM     51  C   UNL A   1      38.804  29.729  28.451  1.00  0.00     0.031 C 
ATOM     52  C   UNL A   1      37.815  33.330  34.240  1.00  0.00     0.029 A 
ATOM     53  C   UNL A   1      38.920  32.375  34.264  1.00  0.00     0.049 A 
ATOM     54  H   UNL A   1      39.600  31.191  32.691  1.00  0.00     0.167 HD
ATOM     55  C   UNL A   1      40.733  28.508  29.429  1.00  0.00     0.034 A 
ATOM     56  C   UNL A   1      39.694  32.109  35.332  1.00  0.00     0.034 A 
ATOM     57  C   UNL A   1      41.669  28.219  30.490  1.00  0.00     0.049 A 
ATOM     58  C   UNL A   1      40.804  31.101  35.209  1.00  0.00     0.074 A 
ATOM     59  C   UNL A   1      42.742  27.343  30.484  1.00  0.00     0.029 A 
ATOM     60  N   UNL A   1      41.641  28.798  31.751  1.00  0.00    -0.354 N 
ATOM     61  N   UNL A   1      41.122  30.346  34.185  1.00  0.00    -0.248 NA
ATOM     62  C   UNL A   1      41.666  30.919  36.385  1.00  0.00     0.031 C 
ATOM     63  C   UNL A   1      43.334  27.362  31.753  1.00  0.00     0.029 A 
ATOM     64  C   UNL A   1      42.664  28.286  32.536  1.00  0.00     0.049 A 
ATOM     65  H   UNL A   1      40.988  29.474  32.047  1.00  0.00     0.167 HD
ATOM     66  C   UNL A   1      42.231  29.610  34.588  1.00  0.00     0.074 A 
ATOM     67  C   UNL A   1      42.532  30.017  35.946  1.00  0.00     0.031 C 
ATOM     68  C   UNL A   1      42.939  28.683  33.895  1.00  0.00     0.034 A 
BRANCH  55  69
ATOM     69  C   UNL A   1      40.833  27.732  28.139  1.00  0.00     0.023 A 
ATOM     70  C   UNL A   1      40.361  26.411  28.038  1.00  0.00     0.031 A 
ATOM     71  C   UNL A   1      41.455  28.299  27.013  1.00  0.00     0.131 A 
ATOM     72  C   UNL A   1      40.594  25.674  26.868  1.00  0.00     0.055 A 
ATOM     73  C   UNL A   1      41.614  27.585  25.824  1.00  0.00     0.041 A 
ATOM     74  F   UNL A   1      41.941  29.549  27.057  1.00  0.00    -0.206 F 
ATOM     75  C   UNL A   1      41.198  26.257  25.752  1.00  0.00     0.022 A 
BRANCH  72  76
ATOM     76  S   UNL A   1      40.232  23.897  26.881  1.00  0.00     0.124 S 
ATOM     77  O   UNL A   1      41.262  23.380  25.983  1.00  0.00    -0.237 OA
ATOM     78  O   UNL A   1      40.381  23.555  28.290  1.00  0.00    -0.237 OA
ATOM     79  O   UNL A   1      38.869  23.821  26.360  1.00  0.00    -0.744 OA
ENDBRANCH  72  76
ENDBRANCH  55  69
BRANCH  56  80
ATOM     80  C   UNL A   1      39.432  32.789  36.627  1.00  0.00     0.023 A 
ATOM     81  C   UNL A   1      38.484  32.288  37.530  1.00  0.00     0.031 A 
ATOM     82  C   UNL A   1      40.122  33.966  36.968  1.00  0.00     0.131 A 
ATOM     83  C   UNL A   1      38.228  32.979  38.723  1.00  0.00     0.055 A 
ATOM     84  C   UNL A   1      39.886  34.632  38.171  1.00  0.00     0.041 A 
ATOM     85  F   UNL A   1      41.049  34.473  36.138  1.00  0.00    -0.206 F 
ATOM     86  C   UNL A   1      38.928  34.143  39.053  1.00  0.00     0.022 A 
BRANCH  83  87
ATOM     87  S   UNL A   1      36.934  32.352  39.829  1.00  0.00     0.124 S 
ATOM     88  O   UNL A   1      35.764  32.368  38.958  1.00  0.00    -0.237 OA
ATOM     89  O   UNL A   1      37.452  31.034  40.185  1.00  0.00    -0.237 OA
ATOM     90  O   UNL A   1      36.916  33.325  40.919  1.00  0.00    -0.744 OA
ENDBRANCH  83  87
ENDBRANCH  56  80
BRANCH  68  91
ATOM     91  C   UNL A   1      44.127  28.077  34.594  1.00  0.00     0.023 A 
ATOM     92  C   UNL A   1      44.016  26.887  35.333  1.00  0.00     0.031 A 
ATOM     93  C   UNL A   1      45.378  28.713  34.537  1.00  0.00     0.131 A 
ATOM     94  C   UNL A   1      45.132  26.390  36.024  1.00  0.00     0.055 A 
ATOM     95  C   UNL A   1      46.494  28.193  35.194  1.00  0.00     0.041 A 
ATOM     96  F   UNL A   1      45.533  29.854  33.846  1.00  0.00    -0.206 F 
ATOM     97  C   UNL A   1      46.372  27.030  35.951  1.00  0.00     0.022 A 
BRANCH  94  98
ATOM     98  S   UNL A   1      44.927  24.925  37.074  1.00  0.00     0.124 S 
ATOM     99  O   UNL A   1      44.149  25.455  38.189  1.00  0.00    -0.237 OA
ATOM    100  O   UNL A   1      44.226  24.001  36.189  1.00  0.00    -0.237 OA
ATOM    101  O   UNL A   1      46.300  24.544  37.403  1.00  0.00    -0.744 OA
ENDBRANCH  94  98
ENDBRANCH  68  91
ENDBRANCH  42  43
ENDBRANCH  34  37
ENDBRANCH  32  33
ENDBRANCH  31  32
ENDBRANCH   1  31
TORSDOF 19
ENDMDL
