MODEL 1
REMARK VINA RESULT:     -12.0      0.000      0.000
REMARK SMILES CC1(C)S[C@H](c2ccc(-c3cccc([N+](=O)[O-])c3)o2)[NH2+][C@@H]1C(=O)NCCCCCCNC(=O)c1ccc(-c2c3nc(c(-c4cc(S(=O)(=O)[O-])ccc4F)c4ccc([nH]4)c(-c4cc(S(=O)(=O)[O-])ccc4F)c4nc(c(-c5cc(S(=O)(=O)[O-])ccc5F)c5ccc2[nH]5)C=C4)C=C3)cc1
REMARK SMILES IDX 27 1 26 2 25 3 24 4 22 5 23 6 21 8 1 9 2 10 3 11 4 12 5 13
REMARK SMILES IDX 20 14 6 17 7 18 19 19 8 20 9 21 10 22 11 23 18 24 12 25
REMARK SMILES IDX 14 26 13 27 15 28 16 29 17 30 28 31 29 32 30 33 31 34 32 35
REMARK SMILES IDX 33 37 34 38 35 39 96 40 36 41 95 42 37 43 38 44 39 45 89 46
REMARK SMILES IDX 40 47 94 48 88 49 90 50 41 51 93 52 87 53 86 54 42 56 74 57
REMARK SMILES IDX 54 58 73 59 55 60 58 61 72 62 91 63 56 64 57 65 71 67 92 68
REMARK SMILES IDX 59 69 43 70 44 71 52 72 45 73 51 74 53 75 50 76 46 77 47 78
REMARK SMILES IDX 48 79 49 80 75 81 76 82 84 83 77 84 83 85 85 86 82 87 78 88
REMARK SMILES IDX 79 89 80 90 81 91 60 92 61 93 69 94 62 95 68 96 70 97 67 98
REMARK SMILES IDX 63 99 64 100 65 101 66 102
REMARK H PARENT 24 7 20 15 20 16 31 36 90 55 58 66
REMARK Flexibility Score: inf
ROOT
ATOM      1  C   UNL A   1      32.168  29.729  26.998  1.00  0.00     0.002 C 
ENDROOT
BRANCH   1   2
ATOM      2  C   UNL A   1      31.409  28.414  27.168  1.00  0.00     0.021 C 
BRANCH   2   3
ATOM      3  C   UNL A   1      32.290  27.171  27.270  1.00  0.00     0.116 C 
BRANCH   3   4
ATOM      4  N   UNL A   1      31.649  25.971  26.757  1.00  0.00    -0.351 N 
ATOM      5  C   UNL A   1      31.994  25.251  25.639  1.00  0.00     0.279 C 
ATOM      6  O   UNL A   1      31.405  24.188  25.447  1.00  0.00    -0.268 OA
ATOM      7  H   UNL A   1      30.878  25.636  27.270  1.00  0.00     0.163 HD
BRANCH   5   8
ATOM      8  C   UNL A   1      33.001  25.883  24.648  1.00  0.00     0.289 C 
ATOM      9  C   UNL A   1      33.400  26.980  22.401  1.00  0.00     0.030 C 
ATOM     10  C   UNL A   1      32.707  25.805  23.128  1.00  0.00     0.078 C 
ATOM     11  C   UNL A   1      31.241  25.782  22.696  1.00  0.00     0.030 C 
ATOM     12  S   UNL A   1      33.514  24.256  22.600  1.00  0.00    -0.078 SA
ATOM     13  C   UNL A   1      34.540  24.124  24.081  1.00  0.00     0.311 C 
ATOM     14  N   UNL A   1      34.374  25.339  24.883  1.00  0.00    -0.317 N 
ATOM     15  H   UNL A   1      35.070  26.032  24.606  1.00  0.00     0.348 HD
ATOM     16  H   UNL A   1      34.499  25.123  25.873  1.00  0.00     0.348 HD
BRANCH  13  17
ATOM     17  C   UNL A   1      34.364  22.810  24.786  1.00  0.00     0.172 A 
ATOM     18  C   UNL A   1      34.239  22.546  26.139  1.00  0.00     0.054 A 
ATOM     19  O   UNL A   1      34.264  21.631  24.084  1.00  0.00    -0.454 OA
ATOM     20  C   UNL A   1      34.028  21.159  26.273  1.00  0.00     0.051 A 
ATOM     21  C   UNL A   1      34.044  20.632  24.999  1.00  0.00     0.134 A 
BRANCH  21  22
ATOM     22  C   UNL A   1      33.783  19.289  24.495  1.00  0.00     0.024 A 
ATOM     23  C   UNL A   1      32.847  19.040  23.480  1.00  0.00     0.012 A 
ATOM     24  C   UNL A   1      34.470  18.202  25.063  1.00  0.00     0.097 A 
ATOM     25  C   UNL A   1      32.597  17.731  23.041  1.00  0.00     0.008 A 
ATOM     26  C   UNL A   1      34.198  16.894  24.638  1.00  0.00     0.270 A 
ATOM     27  C   UNL A   1      33.270  16.650  23.620  1.00  0.00     0.085 A 
BRANCH  26  28
ATOM     28  N   UNL A   1      34.862  15.767  25.304  1.00  0.00     0.062 N 
ATOM     29  O   UNL A   1      34.242  14.698  25.375  1.00  0.00    -0.258 OA
ATOM     30  O   UNL A   1      36.010  15.954  25.733  1.00  0.00    -0.258 OA
ENDBRANCH  26  28
ENDBRANCH  21  22
ENDBRANCH  13  17
ENDBRANCH   5   8
ENDBRANCH   3   4
ENDBRANCH   2   3
ENDBRANCH   1   2
BRANCH   1  31
ATOM     31  C   UNL A   1      31.492  30.730  26.069  1.00  0.00     0.002 C 
BRANCH  31  32
ATOM     32  C   UNL A   1      31.395  32.167  26.559  1.00  0.00     0.021 C 
BRANCH  32  33
ATOM     33  C   UNL A   1      32.712  32.731  27.058  1.00  0.00     0.116 C 
BRANCH  33  34
ATOM     34  N   UNL A   1      32.568  34.016  27.727  1.00  0.00    -0.352 N 
ATOM     35  C   UNL A   1      33.311  34.539  28.760  1.00  0.00     0.251 C 
ATOM     36  H   UNL A   1      31.839  34.589  27.395  1.00  0.00     0.163 HD
ATOM     37  O   UNL A   1      32.980  35.597  29.274  1.00  0.00    -0.269 OA
BRANCH  35  38
ATOM     38  C   UNL A   1      34.496  33.795  29.240  1.00  0.00     0.039 A 
ATOM     39  C   UNL A   1      35.768  34.201  28.834  1.00  0.00     0.014 A 
ATOM     40  C   UNL A   1      34.348  32.713  30.110  1.00  0.00     0.014 A 
ATOM     41  C   UNL A   1      36.890  33.541  29.340  1.00  0.00     0.010 A 
ATOM     42  C   UNL A   1      35.463  32.142  30.704  1.00  0.00     0.010 A 
ATOM     43  C   UNL A   1      36.747  32.523  30.298  1.00  0.00    -0.014 A 
BRANCH  43  44
ATOM     44  C   UNL A   1      37.925  31.798  30.838  1.00  0.00     0.031 A 
ATOM     45  C   UNL A   1      38.442  32.138  32.213  1.00  0.00     0.074 A 
ATOM     46  C   UNL A   1      38.549  30.874  30.080  1.00  0.00     0.049 A 
ATOM     47  N   UNL A   1      39.474  31.654  32.854  1.00  0.00    -0.248 NA
ATOM     48  C   UNL A   1      37.728  33.194  32.947  1.00  0.00     0.031 C 
ATOM     49  C   UNL A   1      38.174  30.507  28.712  1.00  0.00     0.029 A 
ATOM     50  N   UNL A   1      39.626  30.070  30.353  1.00  0.00    -0.354 N 
ATOM     51  C   UNL A   1      39.538  32.356  34.053  1.00  0.00     0.074 A 
ATOM     52  C   UNL A   1      38.499  33.359  34.009  1.00  0.00     0.031 C 
ATOM     53  C   UNL A   1      38.976  29.519  28.286  1.00  0.00     0.029 A 
ATOM     54  C   UNL A   1      39.950  29.212  29.328  1.00  0.00     0.049 A 
ATOM     55  H   UNL A   1      40.120  30.104  31.204  1.00  0.00     0.167 HD
ATOM     56  C   UNL A   1      40.361  32.157  35.112  1.00  0.00     0.034 A 
ATOM     57  C   UNL A   1      40.921  28.283  29.243  1.00  0.00     0.034 A 
ATOM     58  C   UNL A   1      41.374  31.132  35.145  1.00  0.00     0.049 A 
ATOM     59  C   UNL A   1      41.826  28.079  30.433  1.00  0.00     0.074 A 
ATOM     60  C   UNL A   1      42.230  30.797  36.179  1.00  0.00     0.029 A 
ATOM     61  N   UNL A   1      41.672  30.277  34.090  1.00  0.00    -0.354 N 
ATOM     62  N   UNL A   1      41.833  28.709  31.587  1.00  0.00    -0.248 NA
ATOM     63  C   UNL A   1      42.841  27.028  30.314  1.00  0.00     0.031 C 
ATOM     64  C   UNL A   1      43.091  29.792  35.725  1.00  0.00     0.029 A 
ATOM     65  C   UNL A   1      42.718  29.437  34.438  1.00  0.00     0.049 A 
ATOM     66  H   UNL A   1      41.206  30.269  33.223  1.00  0.00     0.167 HD
ATOM     67  C   UNL A   1      42.836  28.106  32.341  1.00  0.00     0.074 A 
ATOM     68  C   UNL A   1      43.387  27.046  31.521  1.00  0.00     0.031 C 
ATOM     69  C   UNL A   1      43.266  28.398  33.597  1.00  0.00     0.034 A 
BRANCH  56  70
ATOM     70  C   UNL A   1      40.201  33.078  36.301  1.00  0.00     0.023 A 
ATOM     71  C   UNL A   1      40.991  34.233  36.455  1.00  0.00     0.031 A 
ATOM     72  C   UNL A   1      39.274  32.781  37.315  1.00  0.00     0.131 A 
ATOM     73  C   UNL A   1      40.903  34.994  37.630  1.00  0.00     0.055 A 
ATOM     74  C   UNL A   1      39.125  33.595  38.440  1.00  0.00     0.041 A 
ATOM     75  F   UNL A   1      38.508  31.681  37.240  1.00  0.00    -0.206 F 
ATOM     76  C   UNL A   1      39.954  34.699  38.611  1.00  0.00     0.022 A 
BRANCH  73  77
ATOM     77  S   UNL A   1      42.152  36.275  37.931  1.00  0.00     0.124 S 
ATOM     78  O   UNL A   1      42.274  36.882  36.608  1.00  0.00    -0.237 OA
ATOM     79  O   UNL A   1      41.521  37.097  38.957  1.00  0.00    -0.237 OA
ATOM     80  O   UNL A   1      43.321  35.517  38.370  1.00  0.00    -0.744 OA
ENDBRANCH  73  77
ENDBRANCH  56  70
BRANCH  57  81
ATOM     81  C   UNL A   1      41.090  27.470  28.003  1.00  0.00     0.023 A 
ATOM     82  C   UNL A   1      40.680  26.128  27.954  1.00  0.00     0.031 A 
ATOM     83  C   UNL A   1      41.711  28.009  26.862  1.00  0.00     0.131 A 
ATOM     84  C   UNL A   1      40.942  25.356  26.811  1.00  0.00     0.055 A 
ATOM     85  C   UNL A   1      41.916  27.254  25.706  1.00  0.00     0.041 A 
ATOM     86  F   UNL A   1      42.121  29.288  26.852  1.00  0.00    -0.206 F 
ATOM     87  C   UNL A   1      41.544  25.914  25.682  1.00  0.00     0.022 A 
BRANCH  84  88
ATOM     88  S   UNL A   1      40.576  23.580  26.860  1.00  0.00     0.124 S 
ATOM     89  O   UNL A   1      39.261  23.529  26.233  1.00  0.00    -0.237 OA
ATOM     90  O   UNL A   1      41.679  23.021  26.085  1.00  0.00    -0.237 OA
ATOM     91  O   UNL A   1      40.600  23.267  28.288  1.00  0.00    -0.744 OA
ENDBRANCH  84  88
ENDBRANCH  57  81
BRANCH  69  92
ATOM     92  C   UNL A   1      44.367  27.529  34.158  1.00  0.00     0.023 A 
ATOM     93  C   UNL A   1      44.091  26.292  34.766  1.00  0.00     0.031 A 
ATOM     94  C   UNL A   1      45.704  27.962  34.118  1.00  0.00     0.131 A 
ATOM     95  C   UNL A   1      45.124  25.572  35.384  1.00  0.00     0.055 A 
ATOM     96  C   UNL A   1      46.739  27.203  34.665  1.00  0.00     0.041 A 
ATOM     97  F   UNL A   1      46.027  29.136  33.552  1.00  0.00    -0.206 F 
ATOM     98  C   UNL A   1      46.449  26.010  35.320  1.00  0.00     0.022 A 
BRANCH  95  99
ATOM     99  S   UNL A   1      44.690  24.128  36.392  1.00  0.00     0.124 S 
ATOM    100  O   UNL A   1      43.732  23.438  35.535  1.00  0.00    -0.237 OA
ATOM    101  O   UNL A   1      45.980  23.469  36.565  1.00  0.00    -0.237 OA
ATOM    102  O   UNL A   1      44.126  24.715  37.606  1.00  0.00    -0.744 OA
ENDBRANCH  95  99
ENDBRANCH  69  92
ENDBRANCH  43  44
ENDBRANCH  35  38
ENDBRANCH  33  34
ENDBRANCH  32  33
ENDBRANCH  31  32
ENDBRANCH   1  31
TORSDOF 19
ENDMDL
MODEL 2
REMARK VINA RESULT:     -12.0      1.647      7.365
REMARK SMILES CC1(C)S[C@H](c2ccc(-c3cccc([N+](=O)[O-])c3)o2)[NH2+][C@@H]1C(=O)NCCCCCCNC(=O)c1ccc(-c2c3nc(c(-c4cc(S(=O)(=O)[O-])ccc4F)c4ccc([nH]4)c(-c4cc(S(=O)(=O)[O-])ccc4F)c4nc(c(-c5cc(S(=O)(=O)[O-])ccc5F)c5ccc2[nH]5)C=C4)C=C3)cc1
REMARK SMILES IDX 27 1 26 2 25 3 24 4 22 5 23 6 21 8 1 9 2 10 3 11 4 12 5 13
REMARK SMILES IDX 20 14 6 17 7 18 19 19 8 20 9 21 10 22 11 23 18 24 12 25
REMARK SMILES IDX 14 26 13 27 15 28 16 29 17 30 28 31 29 32 30 33 31 34 32 35
REMARK SMILES IDX 33 37 34 38 35 39 96 40 36 41 95 42 37 43 38 44 39 45 89 46
REMARK SMILES IDX 40 47 94 48 88 49 90 50 41 51 93 52 87 53 86 54 42 56 74 57
REMARK SMILES IDX 54 58 73 59 55 60 58 61 72 62 91 63 56 64 57 65 71 67 92 68
REMARK SMILES IDX 59 69 43 70 44 71 52 72 45 73 51 74 53 75 50 76 46 77 47 78
REMARK SMILES IDX 48 79 49 80 75 81 76 82 84 83 77 84 83 85 85 86 82 87 78 88
REMARK SMILES IDX 79 89 80 90 81 91 60 92 61 93 69 94 62 95 68 96 70 97 67 98
REMARK SMILES IDX 63 99 64 100 65 101 66 102
REMARK H PARENT 24 7 20 15 20 16 31 36 90 55 58 66
REMARK Flexibility Score: inf
ROOT
ATOM      1  C   UNL A   1      32.127  29.569  27.241  1.00  0.00     0.002 C 
ENDROOT
BRANCH   1   2
ATOM      2  C   UNL A   1      31.434  28.221  27.422  1.00  0.00     0.021 C 
BRANCH   2   3
ATOM      3  C   UNL A   1      32.316  27.003  27.156  1.00  0.00     0.116 C 
BRANCH   3   4
ATOM      4  N   UNL A   1      31.593  25.894  26.553  1.00  0.00    -0.351 N 
ATOM      5  C   UNL A   1      31.886  25.244  25.379  1.00  0.00     0.279 C 
ATOM      6  O   UNL A   1      31.226  24.241  25.108  1.00  0.00    -0.268 OA
ATOM      7  H   UNL A   1      30.803  25.572  27.044  1.00  0.00     0.163 HD
BRANCH   5   8
ATOM      8  C   UNL A   1      32.931  25.884  24.433  1.00  0.00     0.289 C 
ATOM      9  C   UNL A   1      33.433  26.928  22.181  1.00  0.00     0.030 C 
ATOM     10  C   UNL A   1      32.738  25.750  22.901  1.00  0.00     0.078 C 
ATOM     11  C   UNL A   1      31.305  25.658  22.378  1.00  0.00     0.030 C 
ATOM     12  S   UNL A   1      33.633  24.217  22.476  1.00  0.00    -0.078 SA
ATOM     13  C   UNL A   1      34.567  24.170  24.021  1.00  0.00     0.311 C 
ATOM     14  N   UNL A   1      34.305  25.400  24.772  1.00  0.00    -0.317 N 
ATOM     15  H   UNL A   1      34.991  26.111  24.517  1.00  0.00     0.348 HD
ATOM     16  H   UNL A   1      34.374  25.220  25.774  1.00  0.00     0.348 HD
BRANCH  13  17
ATOM     17  C   UNL A   1      34.393  22.872  24.756  1.00  0.00     0.172 A 
ATOM     18  C   UNL A   1      34.245  22.640  26.112  1.00  0.00     0.054 A 
ATOM     19  O   UNL A   1      34.322  21.674  24.083  1.00  0.00    -0.454 OA
ATOM     20  C   UNL A   1      34.050  21.254  26.278  1.00  0.00     0.051 A 
ATOM     21  C   UNL A   1      34.097  20.696  25.018  1.00  0.00     0.134 A 
BRANCH  21  22
ATOM     22  C   UNL A   1      33.863  19.337  24.543  1.00  0.00     0.024 A 
ATOM     23  C   UNL A   1      32.851  19.031  23.622  1.00  0.00     0.012 A 
ATOM     24  C   UNL A   1      34.658  18.292  25.047  1.00  0.00     0.097 A 
ATOM     25  C   UNL A   1      32.632  17.707  23.211  1.00  0.00     0.008 A 
ATOM     26  C   UNL A   1      34.419  16.968  24.652  1.00  0.00     0.270 A 
ATOM     27  C   UNL A   1      33.414  16.668  23.726  1.00  0.00     0.085 A 
BRANCH  26  28
ATOM     28  N   UNL A   1      35.202  15.883  25.255  1.00  0.00     0.062 N 
ATOM     29  O   UNL A   1      34.740  14.737  25.187  1.00  0.00    -0.258 OA
ATOM     30  O   UNL A   1      36.287  16.183  25.775  1.00  0.00    -0.258 OA
ENDBRANCH  26  28
ENDBRANCH  21  22
ENDBRANCH  13  17
ENDBRANCH   5   8
ENDBRANCH   3   4
ENDBRANCH   2   3
ENDBRANCH   1   2
BRANCH   1  31
ATOM     31  C   UNL A   1      31.495  30.466  26.184  1.00  0.00     0.002 C 
BRANCH  31  32
ATOM     32  C   UNL A   1      31.363  31.943  26.523  1.00  0.00     0.021 C 
BRANCH  32  33
ATOM     33  C   UNL A   1      32.654  32.577  27.003  1.00  0.00     0.116 C 
BRANCH  33  34
ATOM     34  N   UNL A   1      32.476  33.930  27.507  1.00  0.00    -0.352 N 
ATOM     35  C   UNL A   1      33.157  34.573  28.515  1.00  0.00     0.251 C 
ATOM     36  H   UNL A   1      31.771  34.458  27.067  1.00  0.00     0.163 HD
ATOM     37  O   UNL A   1      32.800  35.683  28.880  1.00  0.00    -0.269 OA
BRANCH  35  38
ATOM     38  C   UNL A   1      34.308  33.894  29.150  1.00  0.00     0.039 A 
ATOM     39  C   UNL A   1      35.592  34.405  28.960  1.00  0.00     0.014 A 
ATOM     40  C   UNL A   1      34.111  32.767  29.951  1.00  0.00     0.014 A 
ATOM     41  C   UNL A   1      36.671  33.804  29.613  1.00  0.00     0.010 A 
ATOM     42  C   UNL A   1      35.161  32.251  30.693  1.00  0.00     0.010 A 
ATOM     43  C   UNL A   1      36.460  32.738  30.505  1.00  0.00    -0.014 A 
BRANCH  43  44
ATOM     44  C   UNL A   1      37.593  32.074  31.198  1.00  0.00     0.031 A 
ATOM     45  C   UNL A   1      38.402  31.031  30.468  1.00  0.00     0.074 A 
ATOM     46  C   UNL A   1      37.862  32.375  32.484  1.00  0.00     0.049 A 
ATOM     47  N   UNL A   1      39.403  30.308  30.899  1.00  0.00    -0.248 NA
ATOM     48  C   UNL A   1      38.005  30.733  29.083  1.00  0.00     0.031 C 
ATOM     49  C   UNL A   1      37.107  33.322  33.307  1.00  0.00     0.029 A 
ATOM     50  N   UNL A   1      38.847  31.920  33.323  1.00  0.00    -0.354 N 
ATOM     51  C   UNL A   1      39.740  29.463  29.846  1.00  0.00     0.074 A 
ATOM     52  C   UNL A   1      38.779  29.701  28.792  1.00  0.00     0.031 C 
ATOM     53  C   UNL A   1      37.686  33.413  34.515  1.00  0.00     0.029 A 
ATOM     54  C   UNL A   1      38.821  32.500  34.570  1.00  0.00     0.049 A 
ATOM     55  H   UNL A   1      39.509  31.242  33.057  1.00  0.00     0.167 HD
ATOM     56  C   UNL A   1      40.779  28.598  29.749  1.00  0.00     0.034 A 
ATOM     57  C   UNL A   1      39.628  32.315  35.633  1.00  0.00     0.034 A 
ATOM     58  C   UNL A   1      41.741  28.396  30.803  1.00  0.00     0.049 A 
ATOM     59  C   UNL A   1      40.777  31.346  35.504  1.00  0.00     0.074 A 
ATOM     60  C   UNL A   1      42.866  27.590  30.803  1.00  0.00     0.029 A 
ATOM     61  N   UNL A   1      41.688  29.004  32.052  1.00  0.00    -0.354 N 
ATOM     62  N   UNL A   1      41.122  30.601  34.477  1.00  0.00    -0.248 NA
ATOM     63  C   UNL A   1      41.655  31.209  36.670  1.00  0.00     0.031 C 
ATOM     64  C   UNL A   1      43.450  27.655  32.073  1.00  0.00     0.029 A 
ATOM     65  C   UNL A   1      42.742  28.567  32.840  1.00  0.00     0.049 A 
ATOM     66  H   UNL A   1      41.003  29.651  32.335  1.00  0.00     0.167 HD
ATOM     67  C   UNL A   1      42.276  29.928  34.868  1.00  0.00     0.074 A 
ATOM     68  C   UNL A   1      42.582  30.381  36.210  1.00  0.00     0.031 C 
ATOM     69  C   UNL A   1      43.019  29.018  34.184  1.00  0.00     0.034 A 
BRANCH  56  70
ATOM     70  C   UNL A   1      40.906  27.803  28.468  1.00  0.00     0.023 A 
ATOM     71  C   UNL A   1      40.581  26.435  28.409  1.00  0.00     0.031 A 
ATOM     72  C   UNL A   1      41.396  28.409  27.298  1.00  0.00     0.131 A 
ATOM     73  C   UNL A   1      40.830  25.702  27.239  1.00  0.00     0.055 A 
ATOM     74  C   UNL A   1      41.555  27.695  26.109  1.00  0.00     0.041 A 
ATOM     75  F   UNL A   1      41.749  29.704  27.295  1.00  0.00    -0.206 F 
ATOM     76  C   UNL A   1      41.287  26.329  26.079  1.00  0.00     0.022 A 
BRANCH  73  77
ATOM     77  S   UNL A   1      40.701  23.894  27.304  1.00  0.00     0.124 S 
ATOM     78  O   UNL A   1      41.344  23.600  28.582  1.00  0.00    -0.237 OA
ATOM     79  O   UNL A   1      39.260  23.678  27.248  1.00  0.00    -0.237 OA
ATOM     80  O   UNL A   1      41.444  23.455  26.125  1.00  0.00    -0.744 OA
ENDBRANCH  73  77
ENDBRANCH  56  70
BRANCH  57  81
ATOM     81  C   UNL A   1      39.392  33.059  36.905  1.00  0.00     0.023 A 
ATOM     82  C   UNL A   1      38.699  32.468  37.974  1.00  0.00     0.031 A 
ATOM     83  C   UNL A   1      39.816  34.392  37.055  1.00  0.00     0.131 A 
ATOM     84  C   UNL A   1      38.401  33.222  39.120  1.00  0.00     0.055 A 
ATOM     85  C   UNL A   1      39.571  35.119  38.220  1.00  0.00     0.041 A 
ATOM     86  F   UNL A   1      40.486  35.006  36.067  1.00  0.00    -0.206 F 
ATOM     87  C   UNL A   1      38.845  34.539  39.256  1.00  0.00     0.022 A 
BRANCH  84  88
ATOM     88  S   UNL A   1      37.335  32.488  40.390  1.00  0.00     0.124 S 
ATOM     89  O   UNL A   1      37.604  31.065  40.220  1.00  0.00    -0.237 OA
ATOM     90  O   UNL A   1      37.853  33.099  41.610  1.00  0.00    -0.237 OA
ATOM     91  O   UNL A   1      35.994  32.921  40.001  1.00  0.00    -0.744 OA
ENDBRANCH  84  88
ENDBRANCH  57  81
BRANCH  69  92
ATOM     92  C   UNL A   1      44.249  28.485  34.879  1.00  0.00     0.023 A 
ATOM     93  C   UNL A   1      44.176  27.425  35.799  1.00  0.00     0.031 A 
ATOM     94  C   UNL A   1      45.506  29.072  34.647  1.00  0.00     0.131 A 
ATOM     95  C   UNL A   1      45.319  27.041  36.516  1.00  0.00     0.055 A 
ATOM     96  C   UNL A   1      46.655  28.632  35.304  1.00  0.00     0.041 A 
ATOM     97  F   UNL A   1      45.637  30.089  33.780  1.00  0.00    -0.206 F 
ATOM     98  C   UNL A   1      46.562  27.624  36.260  1.00  0.00     0.022 A 
BRANCH  95  99
ATOM     99  S   UNL A   1      45.128  25.867  37.885  1.00  0.00     0.124 S 
ATOM    100  O   UNL A   1      44.266  24.850  37.294  1.00  0.00    -0.237 OA
ATOM    101  O   UNL A   1      46.506  25.463  38.143  1.00  0.00    -0.237 OA
ATOM    102  O   UNL A   1      44.510  26.668  38.940  1.00  0.00    -0.744 OA
ENDBRANCH  95  99
ENDBRANCH  69  92
ENDBRANCH  43  44
ENDBRANCH  35  38
ENDBRANCH  33  34
ENDBRANCH  32  33
ENDBRANCH  31  32
ENDBRANCH   1  31
TORSDOF 19
ENDMDL
MODEL 3
REMARK VINA RESULT:     -12.0      2.631      7.686
REMARK SMILES CC1(C)S[C@H](c2ccc(-c3cccc([N+](=O)[O-])c3)o2)[NH2+][C@@H]1C(=O)NCCCCCCNC(=O)c1ccc(-c2c3nc(c(-c4cc(S(=O)(=O)[O-])ccc4F)c4ccc([nH]4)c(-c4cc(S(=O)(=O)[O-])ccc4F)c4nc(c(-c5cc(S(=O)(=O)[O-])ccc5F)c5ccc2[nH]5)C=C4)C=C3)cc1
REMARK SMILES IDX 27 1 26 2 25 3 24 4 22 5 23 6 21 8 1 9 2 10 3 11 4 12 5 13
REMARK SMILES IDX 20 14 6 17 7 18 19 19 8 20 9 21 10 22 11 23 18 24 12 25
REMARK SMILES IDX 14 26 13 27 15 28 16 29 17 30 28 31 29 32 30 33 31 34 32 35
REMARK SMILES IDX 33 37 34 38 35 39 96 40 36 41 95 42 37 43 38 44 39 45 89 46
REMARK SMILES IDX 40 47 94 48 88 49 90 50 41 51 93 52 87 53 86 54 42 56 74 57
REMARK SMILES IDX 54 58 73 59 55 60 58 61 72 62 91 63 56 64 57 65 71 67 92 68
REMARK SMILES IDX 59 69 43 70 44 71 52 72 45 73 51 74 53 75 50 76 46 77 47 78
REMARK SMILES IDX 48 79 49 80 75 81 76 82 84 83 77 84 83 85 85 86 82 87 78 88
REMARK SMILES IDX 79 89 80 90 81 91 60 92 61 93 69 94 62 95 68 96 70 97 67 98
REMARK SMILES IDX 63 99 64 100 65 101 66 102
REMARK H PARENT 24 7 20 15 20 16 31 36 90 55 58 66
REMARK Flexibility Score: inf
ROOT
ATOM      1  C   UNL A   1      32.853  29.989  26.890  1.00  0.00     0.002 C 
ENDROOT
BRANCH   1   2
ATOM      2  C   UNL A   1      32.313  28.765  27.626  1.00  0.00     0.021 C 
BRANCH   2   3
ATOM      3  C   UNL A   1      32.778  27.421  27.068  1.00  0.00     0.116 C 
BRANCH   3   4
ATOM      4  N   UNL A   1      31.681  26.521  26.751  1.00  0.00    -0.351 N 
ATOM      5  C   UNL A   1      31.033  26.382  25.548  1.00  0.00     0.279 C 
ATOM      6  O   UNL A   1      30.215  25.469  25.449  1.00  0.00    -0.268 OA
ATOM      7  H   UNL A   1      31.367  25.945  27.485  1.00  0.00     0.163 HD
BRANCH   5   8
ATOM      8  C   UNL A   1      31.288  27.449  24.456  1.00  0.00     0.289 C 
ATOM      9  C   UNL A   1      30.332  28.928  22.636  1.00  0.00     0.030 C 
ATOM     10  C   UNL A   1      30.352  27.497  23.222  1.00  0.00     0.078 C 
ATOM     11  C   UNL A   1      28.904  27.049  23.419  1.00  0.00     0.030 C 
ATOM     12  S   UNL A   1      31.162  26.399  22.010  1.00  0.00    -0.078 SA
ATOM     13  C   UNL A   1      32.755  26.406  22.862  1.00  0.00     0.311 C 
ATOM     14  N   UNL A   1      32.698  27.367  23.966  1.00  0.00    -0.317 N 
ATOM     15  H   UNL A   1      33.002  28.284  23.640  1.00  0.00     0.348 HD
ATOM     16  H   UNL A   1      33.313  27.066  24.723  1.00  0.00     0.348 HD
BRANCH  13  17
ATOM     17  C   UNL A   1      33.239  25.022  23.185  1.00  0.00     0.172 A 
ATOM     18  C   UNL A   1      32.706  23.796  22.826  1.00  0.00     0.054 A 
ATOM     19  O   UNL A   1      34.390  24.819  23.909  1.00  0.00    -0.454 OA
ATOM     20  C   UNL A   1      33.574  22.804  23.325  1.00  0.00     0.051 A 
ATOM     21  C   UNL A   1      34.594  23.464  23.976  1.00  0.00     0.134 A 
BRANCH  21  22
ATOM     22  C   UNL A   1      35.825  22.987  24.597  1.00  0.00     0.024 A 
ATOM     23  C   UNL A   1      36.755  23.861  25.179  1.00  0.00     0.012 A 
ATOM     24  C   UNL A   1      36.105  21.610  24.586  1.00  0.00     0.097 A 
ATOM     25  C   UNL A   1      37.945  23.371  25.739  1.00  0.00     0.008 A 
ATOM     26  C   UNL A   1      37.307  21.128  25.124  1.00  0.00     0.270 A 
ATOM     27  C   UNL A   1      38.228  22.002  25.713  1.00  0.00     0.085 A 
BRANCH  26  28
ATOM     28  N   UNL A   1      37.619  19.698  25.026  1.00  0.00     0.062 N 
ATOM     29  O   UNL A   1      38.756  19.336  25.359  1.00  0.00    -0.258 OA
ATOM     30  O   UNL A   1      36.717  18.942  24.636  1.00  0.00    -0.258 OA
ENDBRANCH  26  28
ENDBRANCH  21  22
ENDBRANCH  13  17
ENDBRANCH   5   8
ENDBRANCH   3   4
ENDBRANCH   2   3
ENDBRANCH   1   2
BRANCH   1  31
ATOM     31  C   UNL A   1      31.788  30.829  26.197  1.00  0.00     0.002 C 
BRANCH  31  32
ATOM     32  C   UNL A   1      31.502  32.203  26.786  1.00  0.00     0.021 C 
BRANCH  32  33
ATOM     33  C   UNL A   1      32.710  32.851  27.436  1.00  0.00     0.116 C 
BRANCH  33  34
ATOM     34  N   UNL A   1      32.503  34.255  27.757  1.00  0.00    -0.352 N 
ATOM     35  C   UNL A   1      33.132  35.024  28.709  1.00  0.00     0.251 C 
ATOM     36  H   UNL A   1      31.820  34.718  27.220  1.00  0.00     0.163 HD
ATOM     37  O   UNL A   1      32.754  36.168  28.914  1.00  0.00    -0.269 OA
BRANCH  35  38
ATOM     38  C   UNL A   1      34.251  34.440  29.480  1.00  0.00     0.039 A 
ATOM     39  C   UNL A   1      33.986  33.813  30.699  1.00  0.00     0.014 A 
ATOM     40  C   UNL A   1      35.555  34.493  28.986  1.00  0.00     0.014 A 
ATOM     41  C   UNL A   1      35.032  33.204  31.395  1.00  0.00     0.010 A 
ATOM     42  C   UNL A   1      36.566  33.783  29.615  1.00  0.00     0.010 A 
ATOM     43  C   UNL A   1      36.325  33.162  30.846  1.00  0.00    -0.014 A 
BRANCH  43  44
ATOM     44  C   UNL A   1      37.455  32.533  31.576  1.00  0.00     0.031 A 
ATOM     45  C   UNL A   1      38.207  31.391  30.940  1.00  0.00     0.074 A 
ATOM     46  C   UNL A   1      37.772  32.957  32.816  1.00  0.00     0.049 A 
ATOM     47  N   UNL A   1      39.196  30.681  31.418  1.00  0.00    -0.248 NA
ATOM     48  C   UNL A   1      37.760  30.964  29.605  1.00  0.00     0.031 C 
ATOM     49  C   UNL A   1      37.074  34.012  33.554  1.00  0.00     0.029 A 
ATOM     50  N   UNL A   1      38.765  32.557  33.672  1.00  0.00    -0.354 N 
ATOM     51  C   UNL A   1      39.473  29.720  30.452  1.00  0.00     0.074 A 
ATOM     52  C   UNL A   1      38.490  29.880  29.405  1.00  0.00     0.031 C 
ATOM     53  C   UNL A   1      37.691  34.208  34.730  1.00  0.00     0.029 A 
ATOM     54  C   UNL A   1      38.796  33.265  34.852  1.00  0.00     0.049 A 
ATOM     55  H   UNL A   1      39.397  31.831  33.463  1.00  0.00     0.167 HD
ATOM     56  C   UNL A   1      40.480  28.812  30.420  1.00  0.00     0.034 A 
ATOM     57  C   UNL A   1      39.627  33.163  35.907  1.00  0.00     0.034 A 
ATOM     58  C   UNL A   1      41.465  28.686  31.465  1.00  0.00     0.049 A 
ATOM     59  C   UNL A   1      40.739  32.145  35.851  1.00  0.00     0.074 A 
ATOM     60  C   UNL A   1      42.562  27.845  31.520  1.00  0.00     0.029 A 
ATOM     61  N   UNL A   1      41.469  29.423  32.644  1.00  0.00    -0.354 N 
ATOM     62  N   UNL A   1      41.028  31.284  34.900  1.00  0.00    -0.248 NA
ATOM     63  C   UNL A   1      41.646  32.098  37.002  1.00  0.00     0.031 C 
ATOM     64  C   UNL A   1      43.185  28.021  32.761  1.00  0.00     0.029 A 
ATOM     65  C   UNL A   1      42.531  29.033  33.445  1.00  0.00     0.049 A 
ATOM     66  H   UNL A   1      40.815  30.121  32.874  1.00  0.00     0.167 HD
ATOM     67  C   UNL A   1      42.171  30.615  35.330  1.00  0.00     0.074 A 
ATOM     68  C   UNL A   1      42.531  31.194  36.608  1.00  0.00     0.031 C 
ATOM     69  C   UNL A   1      42.862  29.611  34.727  1.00  0.00     0.034 A 
BRANCH  56  70
ATOM     70  C   UNL A   1      40.542  27.883  29.228  1.00  0.00     0.023 A 
ATOM     71  C   UNL A   1      41.472  28.073  28.188  1.00  0.00     0.031 A 
ATOM     72  C   UNL A   1      39.637  26.815  29.107  1.00  0.00     0.131 A 
ATOM     73  C   UNL A   1      41.418  27.268  27.041  1.00  0.00     0.055 A 
ATOM     74  C   UNL A   1      39.649  25.959  28.004  1.00  0.00     0.041 A 
ATOM     75  F   UNL A   1      38.708  26.595  30.052  1.00  0.00    -0.206 F 
ATOM     76  C   UNL A   1      40.532  26.194  26.954  1.00  0.00     0.022 A 
BRANCH  73  77
ATOM     77  S   UNL A   1      42.411  27.745  25.599  1.00  0.00     0.124 S 
ATOM     78  O   UNL A   1      41.733  28.965  25.167  1.00  0.00    -0.237 OA
ATOM     79  O   UNL A   1      43.740  27.921  26.175  1.00  0.00    -0.237 OA
ATOM     80  O   UNL A   1      42.269  26.608  24.693  1.00  0.00    -0.744 OA
ENDBRANCH  73  77
ENDBRANCH  56  70
BRANCH  57  81
ATOM     81  C   UNL A   1      39.454  34.044  37.099  1.00  0.00     0.023 A 
ATOM     82  C   UNL A   1      38.906  33.550  38.294  1.00  0.00     0.031 A 
ATOM     83  C   UNL A   1      39.791  35.409  37.047  1.00  0.00     0.131 A 
ATOM     84  C   UNL A   1      38.660  34.421  39.366  1.00  0.00     0.055 A 
ATOM     85  C   UNL A   1      39.599  36.259  38.137  1.00  0.00     0.041 A 
ATOM     86  F   UNL A   1      40.321  35.935  35.931  1.00  0.00    -0.206 F 
ATOM     87  C   UNL A   1      39.016  35.769  39.300  1.00  0.00     0.022 A 
BRANCH  84  88
ATOM     88  S   UNL A   1      37.771  33.786  40.815  1.00  0.00     0.124 S 
ATOM     89  O   UNL A   1      38.769  32.909  41.416  1.00  0.00    -0.237 OA
ATOM     90  O   UNL A   1      37.469  35.013  41.546  1.00  0.00    -0.237 OA
ATOM     91  O   UNL A   1      36.613  33.110  40.234  1.00  0.00    -0.744 OA
ENDBRANCH  84  88
ENDBRANCH  57  81
BRANCH  69  92
ATOM     92  C   UNL A   1      44.094  29.111  35.442  1.00  0.00     0.023 A 
ATOM     93  C   UNL A   1      44.008  28.196  36.506  1.00  0.00     0.031 A 
ATOM     94  C   UNL A   1      45.368  29.585  35.080  1.00  0.00     0.131 A 
ATOM     95  C   UNL A   1      45.162  27.849  37.225  1.00  0.00     0.055 A 
ATOM     96  C   UNL A   1      46.521  29.174  35.748  1.00  0.00     0.041 A 
ATOM     97  F   UNL A   1      45.511  30.461  34.073  1.00  0.00    -0.206 F 
ATOM     98  C   UNL A   1      46.421  28.317  36.840  1.00  0.00     0.022 A 
BRANCH  95  99
ATOM     99  S   UNL A   1      44.974  26.891  38.752  1.00  0.00     0.124 S 
ATOM    100  O   UNL A   1      43.654  26.297  38.577  1.00  0.00    -0.237 OA
ATOM    101  O   UNL A   1      46.103  25.968  38.683  1.00  0.00    -0.237 OA
ATOM    102  O   UNL A   1      45.066  27.902  39.805  1.00  0.00    -0.744 OA
ENDBRANCH  95  99
ENDBRANCH  69  92
ENDBRANCH  43  44
ENDBRANCH  35  38
ENDBRANCH  33  34
ENDBRANCH  32  33
ENDBRANCH  31  32
ENDBRANCH   1  31
TORSDOF 19
ENDMDL
