MODEL 1
REMARK VINA RESULT:     -10.6      0.000      0.000
REMARK SMILES CC(=O)N[C@H](C(=O)NC1(CC(=O)NCCCCCCNC(=O)c2ccc(-c3c4nc(c(-c5cc(S(=O)(=O)[O-])ccc5F)c5ccc([nH]5)c(-c5cc(S(=O)(=O)[O-])ccc5F)c5nc(c(-c6cc(S(=O)(=O)[O-])ccc6F)c6ccc3[nH]6)C=C5)C=C4)cc2)CCC1)C(C)C
REMARK SMILES IDX 16 1 15 2 14 3 13 4 11 5 12 6 10 8 9 9 86 10 88 11 87 12
REMARK SMILES IDX 8 13 6 14 7 15 5 17 4 18 1 19 2 20 3 21 89 23 90 24 91 25
REMARK SMILES IDX 17 26 18 27 19 28 20 29 21 30 22 32 23 33 24 34 85 35 25 36
REMARK SMILES IDX 84 37 26 38 27 39 28 40 78 41 29 42 83 43 77 44 79 45 30 46
REMARK SMILES IDX 82 47 76 48 75 49 31 51 63 52 43 53 62 54 44 55 47 56 61 57
REMARK SMILES IDX 80 58 45 59 46 60 60 62 81 63 48 64 32 65 33 66 41 67 34 68
REMARK SMILES IDX 40 69 42 70 39 71 35 72 36 73 37 74 38 75 64 76 65 77 73 78
REMARK SMILES IDX 66 79 72 80 74 81 71 82 67 83 68 84 69 85 70 86 49 87 50 88
REMARK SMILES IDX 58 89 51 90 57 91 59 92 56 93 52 94 53 95 54 96 55 97
REMARK H PARENT 13 7 8 16 4 22 20 31 79 50 47 61
REMARK Flexibility Score: inf
ROOT
ATOM      1  C   UNL A   1      34.452  21.326  25.148  1.00  0.00     0.002 C 
ENDROOT
BRANCH   1   2
ATOM      2  C   UNL A   1      33.091  21.124  25.817  1.00  0.00     0.021 C 
BRANCH   2   3
ATOM      3  C   UNL A   1      32.921  22.084  26.987  1.00  0.00     0.116 C 
BRANCH   3   4
ATOM      4  N   UNL A   1      31.549  22.508  26.986  1.00  0.00    -0.356 N 
ATOM      5  C   UNL A   1      31.150  23.758  26.629  1.00  0.00     0.222 C 
ATOM      6  O   UNL A   1      30.087  24.181  27.071  1.00  0.00    -0.275 OA
ATOM      7  H   UNL A   1      30.861  21.859  27.258  1.00  0.00     0.163 HD
BRANCH   5   8
ATOM      8  C   UNL A   1      32.016  24.449  25.597  1.00  0.00     0.128 C 
BRANCH   8   9
ATOM      9  C   UNL A   1      31.488  24.573  24.199  1.00  0.00     0.049 C 
ATOM     10  C   UNL A   1      31.638  23.421  23.144  1.00  0.00     0.029 C 
ATOM     11  C   UNL A   1      32.641  25.263  23.385  1.00  0.00     0.029 C 
ATOM     12  C   UNL A   1      33.117  23.817  23.019  1.00  0.00     0.005 C 
BRANCH   9  13
ATOM     13  N   UNL A   1      30.129  25.105  24.167  1.00  0.00    -0.348 N 
ATOM     14  C   UNL A   1      29.589  26.349  24.020  1.00  0.00     0.243 C 
ATOM     15  O   UNL A   1      28.342  26.320  24.114  1.00  0.00    -0.273 OA
ATOM     16  H   UNL A   1      29.445  24.406  24.276  1.00  0.00     0.164 HD
BRANCH  14  17
ATOM     17  C   UNL A   1      30.259  27.802  23.745  1.00  0.00     0.173 C 
BRANCH  17  18
ATOM     18  N   UNL A   1      29.041  28.594  23.454  1.00  0.00    -0.344 N 
ATOM     19  C   UNL A   1      29.869  30.056  21.628  1.00  0.00     0.114 C 
ATOM     20  C   UNL A   1      28.774  29.528  22.508  1.00  0.00     0.217 C 
ATOM     21  O   UNL A   1      27.629  29.971  22.421  1.00  0.00    -0.275 OA
ATOM     22  H   UNL A   1      28.288  28.408  24.058  1.00  0.00     0.164 HD
ENDBRANCH  17  18
BRANCH  17  23
ATOM     23  C   UNL A   1      31.237  28.607  24.681  1.00  0.00     0.015 C 
ATOM     24  C   UNL A   1      31.428  27.923  26.074  1.00  0.00     0.010 C 
ATOM     25  C   UNL A   1      32.678  28.870  24.198  1.00  0.00     0.010 C 
ENDBRANCH  17  23
ENDBRANCH  14  17
ENDBRANCH   9  13
ENDBRANCH   8   9
ENDBRANCH   5   8
ENDBRANCH   3   4
ENDBRANCH   2   3
ENDBRANCH   1   2
BRANCH   1  26
ATOM     26  C   UNL A   1      35.462  22.041  26.055  1.00  0.00     0.002 C 
BRANCH  26  27
ATOM     27  C   UNL A   1      35.851  23.437  25.556  1.00  0.00     0.021 C 
BRANCH  27  28
ATOM     28  C   UNL A   1      37.243  23.483  24.947  1.00  0.00     0.116 C 
BRANCH  28  29
ATOM     29  N   UNL A   1      38.084  22.455  25.526  1.00  0.00    -0.352 N 
ATOM     30  C   UNL A   1      39.262  22.624  26.201  1.00  0.00     0.251 C 
ATOM     31  H   UNL A   1      37.771  21.528  25.422  1.00  0.00     0.163 HD
ATOM     32  O   UNL A   1      40.029  21.693  26.364  1.00  0.00    -0.269 OA
BRANCH  30  33
ATOM     33  C   UNL A   1      39.564  23.977  26.701  1.00  0.00     0.039 A 
ATOM     34  C   UNL A   1      39.294  24.277  28.034  1.00  0.00     0.014 A 
ATOM     35  C   UNL A   1      40.174  24.911  25.854  1.00  0.00     0.014 A 
ATOM     36  C   UNL A   1      39.666  25.521  28.531  1.00  0.00     0.010 A 
ATOM     37  C   UNL A   1      40.619  26.115  26.376  1.00  0.00     0.010 A 
ATOM     38  C   UNL A   1      40.352  26.437  27.714  1.00  0.00    -0.014 A 
BRANCH  38  39
ATOM     39  C   UNL A   1      40.787  27.748  28.247  1.00  0.00     0.031 A 
ATOM     40  C   UNL A   1      42.253  28.060  28.351  1.00  0.00     0.074 A 
ATOM     41  C   UNL A   1      39.860  28.630  28.665  1.00  0.00     0.049 A 
ATOM     42  N   UNL A   1      42.837  29.127  28.826  1.00  0.00    -0.248 NA
ATOM     43  C   UNL A   1      43.186  27.019  27.888  1.00  0.00     0.031 C 
ATOM     44  C   UNL A   1      38.412  28.408  28.640  1.00  0.00     0.029 A 
ATOM     45  N   UNL A   1      39.993  29.887  29.193  1.00  0.00    -0.354 N 
ATOM     46  C   UNL A   1      44.202  28.889  28.723  1.00  0.00     0.074 A 
ATOM     47  C   UNL A   1      44.357  27.545  28.208  1.00  0.00     0.031 C 
ATOM     48  C   UNL A   1      37.792  29.506  29.098  1.00  0.00     0.029 A 
ATOM     49  C   UNL A   1      38.794  30.487  29.501  1.00  0.00     0.049 A 
ATOM     50  H   UNL A   1      40.865  30.321  29.340  1.00  0.00     0.167 HD
ATOM     51  C   UNL A   1      45.229  29.725  29.009  1.00  0.00     0.034 A 
ATOM     52  C   UNL A   1      38.536  31.685  30.059  1.00  0.00     0.034 A 
ATOM     53  C   UNL A   1      45.046  31.061  29.519  1.00  0.00     0.049 A 
ATOM     54  C   UNL A   1      39.699  32.580  30.410  1.00  0.00     0.074 A 
ATOM     55  C   UNL A   1      46.009  32.015  29.797  1.00  0.00     0.029 A 
ATOM     56  N   UNL A   1      43.819  31.630  29.840  1.00  0.00    -0.354 N 
ATOM     57  N   UNL A   1      40.985  32.361  30.255  1.00  0.00    -0.248 NA
ATOM     58  C   UNL A   1      39.374  33.883  31.001  1.00  0.00     0.031 C 
ATOM     59  C   UNL A   1      45.372  33.125  30.363  1.00  0.00     0.029 A 
ATOM     60  C   UNL A   1      44.004  32.905  30.353  1.00  0.00     0.049 A 
ATOM     61  H   UNL A   1      42.946  31.192  29.719  1.00  0.00     0.167 HD
ATOM     62  C   UNL A   1      41.621  33.515  30.705  1.00  0.00     0.074 A 
ATOM     63  C   UNL A   1      40.575  34.430  31.114  1.00  0.00     0.031 C 
ATOM     64  C   UNL A   1      42.947  33.796  30.773  1.00  0.00     0.034 A 
BRANCH  51  65
ATOM     65  C   UNL A   1      46.631  29.203  28.806  1.00  0.00     0.023 A 
ATOM     66  C   UNL A   1      47.187  29.054  27.522  1.00  0.00     0.031 A 
ATOM     67  C   UNL A   1      47.418  28.828  29.908  1.00  0.00     0.131 A 
ATOM     68  C   UNL A   1      48.457  28.478  27.370  1.00  0.00     0.055 A 
ATOM     69  C   UNL A   1      48.716  28.335  29.755  1.00  0.00     0.041 A 
ATOM     70  F   UNL A   1      46.934  28.921  31.156  1.00  0.00    -0.206 F 
ATOM     71  C   UNL A   1      49.237  28.143  28.479  1.00  0.00     0.022 A 
BRANCH  68  72
ATOM     72  S   UNL A   1      49.012  28.031  25.702  1.00  0.00     0.124 S 
ATOM     73  O   UNL A   1      49.296  26.606  25.858  1.00  0.00    -0.237 OA
ATOM     74  O   UNL A   1      47.851  28.365  24.885  1.00  0.00    -0.237 OA
ATOM     75  O   UNL A   1      50.186  28.874  25.494  1.00  0.00    -0.744 OA
ENDBRANCH  68  72
ENDBRANCH  51  65
BRANCH  52  76
ATOM     76  C   UNL A   1      37.132  32.104  30.337  1.00  0.00     0.023 A 
ATOM     77  C   UNL A   1      36.295  32.558  29.306  1.00  0.00     0.031 A 
ATOM     78  C   UNL A   1      36.619  32.098  31.646  1.00  0.00     0.131 A 
ATOM     79  C   UNL A   1      35.011  33.038  29.608  1.00  0.00     0.055 A 
ATOM     80  C   UNL A   1      35.320  32.517  31.933  1.00  0.00     0.041 A 
ATOM     81  F   UNL A   1      37.376  31.671  32.671  1.00  0.00    -0.206 F 
ATOM     82  C   UNL A   1      34.512  33.005  30.911  1.00  0.00     0.022 A 
BRANCH  79  83
ATOM     83  S   UNL A   1      34.036  33.800  28.281  1.00  0.00     0.124 S 
ATOM     84  O   UNL A   1      33.321  32.649  27.743  1.00  0.00    -0.237 OA
ATOM     85  O   UNL A   1      33.232  34.770  29.018  1.00  0.00    -0.237 OA
ATOM     86  O   UNL A   1      35.051  34.374  27.401  1.00  0.00    -0.744 OA
ENDBRANCH  79  83
ENDBRANCH  52  76
BRANCH  64  87
ATOM     87  C   UNL A   1      43.332  35.166  31.279  1.00  0.00     0.023 A 
ATOM     88  C   UNL A   1      43.503  36.254  30.406  1.00  0.00     0.031 A 
ATOM     89  C   UNL A   1      43.544  35.380  32.652  1.00  0.00     0.131 A 
ATOM     90  C   UNL A   1      43.935  37.491  30.907  1.00  0.00     0.055 A 
ATOM     91  C   UNL A   1      43.903  36.631  33.154  1.00  0.00     0.041 A 
ATOM     92  F   UNL A   1      43.399  34.376  33.531  1.00  0.00    -0.206 F 
ATOM     93  C   UNL A   1      44.116  37.692  32.278  1.00  0.00     0.022 A 
BRANCH  90  94
ATOM     94  S   UNL A   1      44.363  38.803  29.732  1.00  0.00     0.124 S 
ATOM     95  O   UNL A   1      43.280  39.759  29.939  1.00  0.00    -0.237 OA
ATOM     96  O   UNL A   1      45.680  39.223  30.198  1.00  0.00    -0.237 OA
ATOM     97  O   UNL A   1      44.351  38.123  28.438  1.00  0.00    -0.744 OA
ENDBRANCH  90  94
ENDBRANCH  64  87
ENDBRANCH  38  39
ENDBRANCH  30  33
ENDBRANCH  28  29
ENDBRANCH  27  28
ENDBRANCH  26  27
ENDBRANCH   1  26
TORSDOF 21
ENDMDL
MODEL 2
REMARK VINA RESULT:     -10.5      1.848      2.309
REMARK SMILES CC(=O)N[C@H](C(=O)NC1(CC(=O)NCCCCCCNC(=O)c2ccc(-c3c4nc(c(-c5cc(S(=O)(=O)[O-])ccc5F)c5ccc([nH]5)c(-c5cc(S(=O)(=O)[O-])ccc5F)c5nc(c(-c6cc(S(=O)(=O)[O-])ccc6F)c6ccc3[nH]6)C=C5)C=C4)cc2)CCC1)C(C)C
REMARK SMILES IDX 16 1 15 2 14 3 13 4 11 5 12 6 10 8 9 9 86 10 88 11 87 12
REMARK SMILES IDX 8 13 6 14 7 15 5 17 4 18 1 19 2 20 3 21 89 23 90 24 91 25
REMARK SMILES IDX 17 26 18 27 19 28 20 29 21 30 22 32 23 33 24 34 85 35 25 36
REMARK SMILES IDX 84 37 26 38 27 39 28 40 78 41 29 42 83 43 77 44 79 45 30 46
REMARK SMILES IDX 82 47 76 48 75 49 31 51 63 52 43 53 62 54 44 55 47 56 61 57
REMARK SMILES IDX 80 58 45 59 46 60 60 62 81 63 48 64 32 65 33 66 41 67 34 68
REMARK SMILES IDX 40 69 42 70 39 71 35 72 36 73 37 74 38 75 64 76 65 77 73 78
REMARK SMILES IDX 66 79 72 80 74 81 71 82 67 83 68 84 69 85 70 86 49 87 50 88
REMARK SMILES IDX 58 89 51 90 57 91 59 92 56 93 52 94 53 95 54 96 55 97
REMARK H PARENT 13 7 8 16 4 22 20 31 79 50 47 61
REMARK Flexibility Score: inf
ROOT
ATOM      1  C   UNL A   1      34.579  21.097  24.311  1.00  0.00     0.002 C 
ENDROOT
BRANCH   1   2
ATOM      2  C   UNL A   1      33.180  20.518  24.531  1.00  0.00     0.021 C 
BRANCH   2   3
ATOM      3  C   UNL A   1      32.694  20.813  25.944  1.00  0.00     0.116 C 
BRANCH   3   4
ATOM      4  N   UNL A   1      31.486  21.580  25.822  1.00  0.00    -0.356 N 
ATOM      5  C   UNL A   1      31.313  22.805  26.388  1.00  0.00     0.222 C 
ATOM      6  O   UNL A   1      30.171  23.180  26.632  1.00  0.00    -0.275 OA
ATOM      7  H   UNL A   1      30.744  21.199  25.300  1.00  0.00     0.163 HD
BRANCH   5   8
ATOM      8  C   UNL A   1      32.569  23.639  26.532  1.00  0.00     0.128 C 
BRANCH   8   9
ATOM      9  C   UNL A   1      32.578  25.012  25.930  1.00  0.00     0.049 C 
ATOM     10  C   UNL A   1      32.286  25.259  24.408  1.00  0.00     0.029 C 
ATOM     11  C   UNL A   1      34.075  25.274  25.530  1.00  0.00     0.029 C 
ATOM     12  C   UNL A   1      33.694  24.716  24.117  1.00  0.00     0.005 C 
BRANCH   9  13
ATOM     13  N   UNL A   1      31.842  25.977  26.742  1.00  0.00    -0.348 N 
ATOM     14  C   UNL A   1      31.796  27.339  26.807  1.00  0.00     0.243 C 
ATOM     15  O   UNL A   1      31.036  27.726  27.722  1.00  0.00    -0.273 OA
ATOM     16  H   UNL A   1      31.241  25.546  27.391  1.00  0.00     0.164 HD
BRANCH  14  17
ATOM     17  C   UNL A   1      32.521  28.496  25.931  1.00  0.00     0.173 C 
BRANCH  17  18
ATOM     18  N   UNL A   1      31.343  29.062  25.232  1.00  0.00    -0.344 N 
ATOM     19  C   UNL A   1      32.020  28.750  22.864  1.00  0.00     0.114 C 
ATOM     20  C   UNL A   1      31.021  29.137  23.917  1.00  0.00     0.217 C 
ATOM     21  O   UNL A   1      29.916  29.578  23.602  1.00  0.00    -0.275 OA
ATOM     22  H   UNL A   1      30.671  29.456  25.832  1.00  0.00     0.164 HD
ENDBRANCH  17  18
BRANCH  17  23
ATOM     23  C   UNL A   1      33.469  29.645  26.443  1.00  0.00     0.015 C 
ATOM     24  C   UNL A   1      32.677  30.831  27.084  1.00  0.00     0.010 C 
ATOM     25  C   UNL A   1      34.542  29.306  27.498  1.00  0.00     0.010 C 
ENDBRANCH  17  23
ENDBRANCH  14  17
ENDBRANCH   9  13
ENDBRANCH   8   9
ENDBRANCH   5   8
ENDBRANCH   3   4
ENDBRANCH   2   3
ENDBRANCH   1   2
BRANCH   1  26
ATOM     26  C   UNL A   1      35.423  21.121  25.591  1.00  0.00     0.002 C 
BRANCH  26  27
ATOM     27  C   UNL A   1      36.183  22.436  25.797  1.00  0.00     0.021 C 
BRANCH  27  28
ATOM     28  C   UNL A   1      37.581  22.413  25.199  1.00  0.00     0.116 C 
BRANCH  28  29
ATOM     29  N   UNL A   1      38.363  21.342  25.779  1.00  0.00    -0.352 N 
ATOM     30  C   UNL A   1      39.573  21.441  26.412  1.00  0.00     0.251 C 
ATOM     31  H   UNL A   1      37.981  20.438  25.711  1.00  0.00     0.163 HD
ATOM     32  O   UNL A   1      40.275  20.460  26.576  1.00  0.00    -0.269 OA
BRANCH  30  33
ATOM     33  C   UNL A   1      39.989  22.780  26.864  1.00  0.00     0.039 A 
ATOM     34  C   UNL A   1      40.870  22.883  27.937  1.00  0.00     0.014 A 
ATOM     35  C   UNL A   1      39.550  23.915  26.172  1.00  0.00     0.014 A 
ATOM     36  C   UNL A   1      41.338  24.141  28.304  1.00  0.00     0.010 A 
ATOM     37  C   UNL A   1      40.084  25.155  26.485  1.00  0.00     0.010 A 
ATOM     38  C   UNL A   1      40.969  25.279  27.566  1.00  0.00    -0.014 A 
BRANCH  38  39
ATOM     39  C   UNL A   1      41.494  26.617  27.925  1.00  0.00     0.031 A 
ATOM     40  C   UNL A   1      42.903  26.985  27.557  1.00  0.00     0.074 A 
ATOM     41  C   UNL A   1      40.710  27.470  28.610  1.00  0.00     0.049 A 
ATOM     42  N   UNL A   1      43.561  28.084  27.816  1.00  0.00    -0.248 NA
ATOM     43  C   UNL A   1      43.685  25.972  26.830  1.00  0.00     0.031 C 
ATOM     44  C   UNL A   1      39.339  27.193  29.046  1.00  0.00     0.029 A 
ATOM     45  N   UNL A   1      40.950  28.741  29.060  1.00  0.00    -0.354 N 
ATOM     46  C   UNL A   1      44.833  27.895  27.287  1.00  0.00     0.074 A 
ATOM     47  C   UNL A   1      44.873  26.549  26.758  1.00  0.00     0.031 C 
ATOM     48  C   UNL A   1      38.850  28.276  29.670  1.00  0.00     0.029 A 
ATOM     49  C   UNL A   1      39.885  29.301  29.728  1.00  0.00     0.049 A 
ATOM     50  H   UNL A   1      41.805  29.211  28.920  1.00  0.00     0.167 HD
ATOM     51  C   UNL A   1      45.861  28.776  27.228  1.00  0.00     0.034 A 
ATOM     52  C   UNL A   1      39.767  30.500  30.331  1.00  0.00     0.034 A 
ATOM     53  C   UNL A   1      45.792  30.114  27.760  1.00  0.00     0.049 A 
ATOM     54  C   UNL A   1      40.942  31.444  30.289  1.00  0.00     0.074 A 
ATOM     55  C   UNL A   1      46.753  31.109  27.713  1.00  0.00     0.029 A 
ATOM     56  N   UNL A   1      44.707  30.641  28.450  1.00  0.00    -0.354 N 
ATOM     57  N   UNL A   1      42.121  31.272  29.737  1.00  0.00    -0.248 NA
ATOM     58  C   UNL A   1      40.766  32.746  30.944  1.00  0.00     0.031 C 
ATOM     59  C   UNL A   1      46.281  32.205  28.444  1.00  0.00     0.029 A 
ATOM     60  C   UNL A   1      44.991  31.932  28.869  1.00  0.00     0.049 A 
ATOM     61  H   UNL A   1      43.860  30.168  28.615  1.00  0.00     0.167 HD
ATOM     62  C   UNL A   1      42.817  32.458  29.954  1.00  0.00     0.074 A 
ATOM     63  C   UNL A   1      41.917  33.340  30.668  1.00  0.00     0.031 C 
ATOM     64  C   UNL A   1      44.084  32.790  29.596  1.00  0.00     0.034 A 
BRANCH  51  65
ATOM     65  C   UNL A   1      47.148  28.303  26.594  1.00  0.00     0.023 A 
ATOM     66  C   UNL A   1      47.327  28.297  25.199  1.00  0.00     0.031 A 
ATOM     67  C   UNL A   1      48.204  27.833  27.393  1.00  0.00     0.131 A 
ATOM     68  C   UNL A   1      48.500  27.762  24.645  1.00  0.00     0.055 A 
ATOM     69  C   UNL A   1      49.404  27.383  26.839  1.00  0.00     0.041 A 
ATOM     70  F   UNL A   1      48.083  27.789  28.729  1.00  0.00    -0.206 F 
ATOM     71  C   UNL A   1      49.552  27.332  25.456  1.00  0.00     0.022 A 
BRANCH  68  72
ATOM     72  S   UNL A   1      48.570  27.498  22.851  1.00  0.00     0.124 S 
ATOM     73  O   UNL A   1      48.501  26.041  22.766  1.00  0.00    -0.237 OA
ATOM     74  O   UNL A   1      47.394  28.222  22.382  1.00  0.00    -0.237 OA
ATOM     75  O   UNL A   1      49.855  28.077  22.469  1.00  0.00    -0.744 OA
ENDBRANCH  68  72
ENDBRANCH  51  65
BRANCH  52  76
ATOM     76  C   UNL A   1      38.507  30.870  31.036  1.00  0.00     0.023 A 
ATOM     77  C   UNL A   1      37.530  31.658  30.407  1.00  0.00     0.031 A 
ATOM     78  C   UNL A   1      38.278  30.478  32.367  1.00  0.00     0.131 A 
ATOM     79  C   UNL A   1      36.398  32.074  31.125  1.00  0.00     0.055 A 
ATOM     80  C   UNL A   1      37.121  30.841  33.057  1.00  0.00     0.041 A 
ATOM     81  F   UNL A   1      39.178  29.720  33.017  1.00  0.00    -0.206 F 
ATOM     82  C   UNL A   1      36.179  31.657  32.440  1.00  0.00     0.022 A 
BRANCH  79  83
ATOM     83  S   UNL A   1      35.261  33.252  30.345  1.00  0.00     0.124 S 
ATOM     84  O   UNL A   1      34.353  32.359  29.635  1.00  0.00    -0.237 OA
ATOM     85  O   UNL A   1      34.705  33.946  31.503  1.00  0.00    -0.237 OA
ATOM     86  O   UNL A   1      36.136  34.058  29.497  1.00  0.00    -0.744 OA
ENDBRANCH  79  83
ENDBRANCH  52  76
BRANCH  64  87
ATOM     87  C   UNL A   1      44.551  34.183  29.946  1.00  0.00     0.023 A 
ATOM     88  C   UNL A   1      44.344  35.270  29.079  1.00  0.00     0.031 A 
ATOM     89  C   UNL A   1      45.224  34.423  31.156  1.00  0.00     0.131 A 
ATOM     90  C   UNL A   1      44.860  36.533  29.405  1.00  0.00     0.055 A 
ATOM     91  C   UNL A   1      45.671  35.696  31.510  1.00  0.00     0.041 A 
ATOM     92  F   UNL A   1      45.453  33.421  32.021  1.00  0.00    -0.206 F 
ATOM     93  C   UNL A   1      45.504  36.757  30.625  1.00  0.00     0.022 A 
BRANCH  90  94
ATOM     94  S   UNL A   1      44.774  37.854  28.166  1.00  0.00     0.124 S 
ATOM     95  O   UNL A   1      46.175  38.002  27.786  1.00  0.00    -0.237 OA
ATOM     96  O   UNL A   1      43.897  37.276  27.154  1.00  0.00    -0.237 OA
ATOM     97  O   UNL A   1      44.210  38.981  28.905  1.00  0.00    -0.744 OA
ENDBRANCH  90  94
ENDBRANCH  64  87
ENDBRANCH  38  39
ENDBRANCH  30  33
ENDBRANCH  28  29
ENDBRANCH  27  28
ENDBRANCH  26  27
ENDBRANCH   1  26
TORSDOF 21
ENDMDL
MODEL 3
REMARK VINA RESULT:     -10.3      2.374      3.570
REMARK SMILES CC(=O)N[C@H](C(=O)NC1(CC(=O)NCCCCCCNC(=O)c2ccc(-c3c4nc(c(-c5cc(S(=O)(=O)[O-])ccc5F)c5ccc([nH]5)c(-c5cc(S(=O)(=O)[O-])ccc5F)c5nc(c(-c6cc(S(=O)(=O)[O-])ccc6F)c6ccc3[nH]6)C=C5)C=C4)cc2)CCC1)C(C)C
REMARK SMILES IDX 16 1 15 2 14 3 13 4 11 5 12 6 10 8 9 9 86 10 88 11 87 12
REMARK SMILES IDX 8 13 6 14 7 15 5 17 4 18 1 19 2 20 3 21 89 23 90 24 91 25
REMARK SMILES IDX 17 26 18 27 19 28 20 29 21 30 22 32 23 33 24 34 85 35 25 36
REMARK SMILES IDX 84 37 26 38 27 39 28 40 78 41 29 42 83 43 77 44 79 45 30 46
REMARK SMILES IDX 82 47 76 48 75 49 31 51 63 52 43 53 62 54 44 55 47 56 61 57
REMARK SMILES IDX 80 58 45 59 46 60 60 62 81 63 48 64 32 65 33 66 41 67 34 68
REMARK SMILES IDX 40 69 42 70 39 71 35 72 36 73 37 74 38 75 64 76 65 77 73 78
REMARK SMILES IDX 66 79 72 80 74 81 71 82 67 83 68 84 69 85 70 86 49 87 50 88
REMARK SMILES IDX 58 89 51 90 57 91 59 92 56 93 52 94 53 95 54 96 55 97
REMARK H PARENT 13 7 8 16 4 22 20 31 79 50 47 61
REMARK Flexibility Score: inf
ROOT
ATOM      1  C   UNL A   1      38.902  22.442  26.317  1.00  0.00     0.002 C 
ENDROOT
BRANCH   1   2
ATOM      2  C   UNL A   1      38.134  23.766  26.320  1.00  0.00     0.021 C 
BRANCH   2   3
ATOM      3  C   UNL A   1      36.766  23.593  25.674  1.00  0.00     0.116 C 
BRANCH   3   4
ATOM      4  N   UNL A   1      35.927  22.935  26.637  1.00  0.00    -0.356 N 
ATOM      5  C   UNL A   1      34.568  22.965  26.594  1.00  0.00     0.222 C 
ATOM      6  O   UNL A   1      33.947  22.795  27.637  1.00  0.00    -0.275 OA
ATOM      7  H   UNL A   1      36.360  22.435  27.366  1.00  0.00     0.163 HD
BRANCH   5   8
ATOM      8  C   UNL A   1      33.962  23.073  25.210  1.00  0.00     0.128 C 
BRANCH   8   9
ATOM      9  C   UNL A   1      32.539  22.639  25.026  1.00  0.00     0.049 C 
ATOM     10  C   UNL A   1      32.098  21.139  25.165  1.00  0.00     0.029 C 
ATOM     11  C   UNL A   1      32.387  22.382  23.482  1.00  0.00     0.029 C 
ATOM     12  C   UNL A   1      32.744  20.890  23.794  1.00  0.00     0.005 C 
BRANCH   9  13
ATOM     13  N   UNL A   1      31.601  23.504  25.736  1.00  0.00    -0.348 N 
ATOM     14  C   UNL A   1      31.536  24.842  25.992  1.00  0.00     0.243 C 
ATOM     15  O   UNL A   1      30.547  25.123  26.704  1.00  0.00    -0.273 OA
ATOM     16  H   UNL A   1      30.842  23.008  26.117  1.00  0.00     0.164 HD
BRANCH  14  17
ATOM     17  C   UNL A   1      32.478  26.084  25.540  1.00  0.00     0.173 C 
BRANCH  17  18
ATOM     18  N   UNL A   1      31.775  26.502  24.305  1.00  0.00    -0.344 N 
ATOM     19  C   UNL A   1      33.443  25.853  22.585  1.00  0.00     0.114 C 
ATOM     20  C   UNL A   1      32.093  26.366  22.993  1.00  0.00     0.217 C 
ATOM     21  O   UNL A   1      31.273  26.721  22.146  1.00  0.00    -0.275 OA
ATOM     22  H   UNL A   1      30.920  26.962  24.464  1.00  0.00     0.164 HD
ENDBRANCH  17  18
BRANCH  17  23
ATOM     23  C   UNL A   1      32.895  27.340  26.394  1.00  0.00     0.015 C 
ATOM     24  C   UNL A   1      33.752  28.361  25.576  1.00  0.00     0.010 C 
ATOM     25  C   UNL A   1      31.788  28.211  27.024  1.00  0.00     0.010 C 
ENDBRANCH  17  23
ENDBRANCH  14  17
ENDBRANCH   9  13
ENDBRANCH   8   9
ENDBRANCH   5   8
ENDBRANCH   3   4
ENDBRANCH   2   3
ENDBRANCH   1   2
BRANCH   1  26
ATOM     26  C   UNL A   1      38.413  21.471  25.235  1.00  0.00     0.002 C 
BRANCH  26  27
ATOM     27  C   UNL A   1      39.085  20.095  25.302  1.00  0.00     0.021 C 
BRANCH  27  28
ATOM     28  C   UNL A   1      39.958  19.920  26.534  1.00  0.00     0.116 C 
BRANCH  28  29
ATOM     29  N   UNL A   1      41.220  19.305  26.178  1.00  0.00    -0.352 N 
ATOM     30  C   UNL A   1      42.402  19.932  25.892  1.00  0.00     0.251 C 
ATOM     31  H   UNL A   1      41.228  18.321  26.137  1.00  0.00     0.163 HD
ATOM     32  O   UNL A   1      43.296  19.346  25.309  1.00  0.00    -0.269 OA
BRANCH  30  33
ATOM     33  C   UNL A   1      42.534  21.341  26.303  1.00  0.00     0.039 A 
ATOM     34  C   UNL A   1      42.748  21.631  27.648  1.00  0.00     0.014 A 
ATOM     35  C   UNL A   1      42.508  22.353  25.336  1.00  0.00     0.014 A 
ATOM     36  C   UNL A   1      42.967  22.952  28.024  1.00  0.00     0.010 A 
ATOM     37  C   UNL A   1      42.812  23.655  25.702  1.00  0.00     0.010 A 
ATOM     38  C   UNL A   1      43.026  23.967  27.052  1.00  0.00    -0.014 A 
BRANCH  38  39
ATOM     39  C   UNL A   1      43.298  25.370  27.439  1.00  0.00     0.031 A 
ATOM     40  C   UNL A   1      44.688  25.923  27.303  1.00  0.00     0.074 A 
ATOM     41  C   UNL A   1      42.300  26.121  27.943  1.00  0.00     0.049 A 
ATOM     42  N   UNL A   1      45.140  27.106  27.625  1.00  0.00    -0.248 NA
ATOM     43  C   UNL A   1      45.713  25.013  26.764  1.00  0.00     0.031 C 
ATOM     44  C   UNL A   1      40.923  25.666  28.149  1.00  0.00     0.029 A 
ATOM     45  N   UNL A   1      42.287  27.421  28.373  1.00  0.00    -0.354 N 
ATOM     46  C   UNL A   1      46.498  27.084  27.330  1.00  0.00     0.074 A 
ATOM     47  C   UNL A   1      46.809  25.746  26.873  1.00  0.00     0.031 C 
ATOM     48  C   UNL A   1      40.193  26.682  28.633  1.00  0.00     0.029 A 
ATOM     49  C   UNL A   1      41.057  27.841  28.825  1.00  0.00     0.049 A 
ATOM     50  H   UNL A   1      43.083  28.001  28.362  1.00  0.00     0.167 HD
ATOM     51  C   UNL A   1      47.395  28.096  27.411  1.00  0.00     0.034 A 
ATOM     52  C   UNL A   1      40.677  29.023  29.347  1.00  0.00     0.034 A 
ATOM     53  C   UNL A   1      47.058  29.422  27.866  1.00  0.00     0.049 A 
ATOM     54  C   UNL A   1      41.705  30.119  29.468  1.00  0.00     0.074 A 
ATOM     55  C   UNL A   1      47.871  30.539  27.943  1.00  0.00     0.029 A 
ATOM     56  N   UNL A   1      45.808  29.807  28.337  1.00  0.00    -0.354 N 
ATOM     57  N   UNL A   1      42.976  30.101  29.133  1.00  0.00    -0.248 NA
ATOM     58  C   UNL A   1      41.247  31.396  30.027  1.00  0.00     0.031 C 
ATOM     59  C   UNL A   1      47.138  31.573  28.535  1.00  0.00     0.029 A 
ATOM     60  C   UNL A   1      45.840  31.133  28.744  1.00  0.00     0.049 A 
ATOM     61  H   UNL A   1      45.015  29.226  28.374  1.00  0.00     0.167 HD
ATOM     62  C   UNL A   1      43.460  31.375  29.416  1.00  0.00     0.074 A 
ATOM     63  C   UNL A   1      42.339  32.138  29.927  1.00  0.00     0.031 C 
ATOM     64  C   UNL A   1      44.715  31.872  29.268  1.00  0.00     0.034 A 
BRANCH  51  65
ATOM     65  C   UNL A   1      48.824  27.794  27.027  1.00  0.00     0.023 A 
ATOM     66  C   UNL A   1      49.309  28.031  25.728  1.00  0.00     0.031 A 
ATOM     67  C   UNL A   1      49.711  27.241  27.967  1.00  0.00     0.131 A 
ATOM     68  C   UNL A   1      50.614  27.649  25.386  1.00  0.00     0.055 A 
ATOM     69  C   UNL A   1      51.037  26.943  27.644  1.00  0.00     0.041 A 
ATOM     70  F   UNL A   1      49.301  26.967  29.215  1.00  0.00    -0.206 F 
ATOM     71  C   UNL A   1      51.491  27.133  26.342  1.00  0.00     0.022 A 
BRANCH  68  72
ATOM     72  S   UNL A   1      51.101  27.694  23.639  1.00  0.00     0.124 S 
ATOM     73  O   UNL A   1      49.908  27.156  22.988  1.00  0.00    -0.237 OA
ATOM     74  O   UNL A   1      51.362  29.113  23.423  1.00  0.00    -0.237 OA
ATOM     75  O   UNL A   1      52.275  26.827  23.587  1.00  0.00    -0.744 OA
ENDBRANCH  68  72
ENDBRANCH  51  65
BRANCH  52  76
ATOM     76  C   UNL A   1      39.275  29.230  29.809  1.00  0.00     0.023 A 
ATOM     77  C   UNL A   1      38.360  29.965  29.040  1.00  0.00     0.031 A 
ATOM     78  C   UNL A   1      38.839  28.730  31.050  1.00  0.00     0.131 A 
ATOM     79  C   UNL A   1      37.076  30.227  29.542  1.00  0.00     0.055 A 
ATOM     80  C   UNL A   1      37.541  28.941  31.517  1.00  0.00     0.041 A 
ATOM     81  F   UNL A   1      39.672  28.016  31.826  1.00  0.00    -0.206 F 
ATOM     82  C   UNL A   1      36.655  29.707  30.767  1.00  0.00     0.022 A 
BRANCH  79  83
ATOM     83  S   UNL A   1      35.993  31.347  28.612  1.00  0.00     0.124 S 
ATOM     84  O   UNL A   1      36.844  32.521  28.459  1.00  0.00    -0.237 OA
ATOM     85  O   UNL A   1      35.735  30.578  27.398  1.00  0.00    -0.237 OA
ATOM     86  O   UNL A   1      34.843  31.518  29.496  1.00  0.00    -0.744 OA
ENDBRANCH  79  83
ENDBRANCH  52  76
BRANCH  64  87
ATOM     87  C   UNL A   1      44.924  33.322  29.633  1.00  0.00     0.023 A 
ATOM     88  C   UNL A   1      44.723  34.354  28.700  1.00  0.00     0.031 A 
ATOM     89  C   UNL A   1      45.344  33.673  30.927  1.00  0.00     0.131 A 
ATOM     90  C   UNL A   1      45.002  35.682  29.056  1.00  0.00     0.055 A 
ATOM     91  C   UNL A   1      45.550  35.002  31.298  1.00  0.00     0.041 A 
ATOM     92  F   UNL A   1      45.556  32.729  31.858  1.00  0.00    -0.206 F 
ATOM     93  C   UNL A   1      45.395  36.015  30.356  1.00  0.00     0.022 A 
BRANCH  90  94
ATOM     94  S   UNL A   1      44.952  36.956  27.768  1.00  0.00     0.124 S 
ATOM     95  O   UNL A   1      45.020  38.184  28.554  1.00  0.00    -0.237 OA
ATOM     96  O   UNL A   1      46.134  36.644  26.972  1.00  0.00    -0.237 OA
ATOM     97  O   UNL A   1      43.674  36.718  27.100  1.00  0.00    -0.744 OA
ENDBRANCH  90  94
ENDBRANCH  64  87
ENDBRANCH  38  39
ENDBRANCH  30  33
ENDBRANCH  28  29
ENDBRANCH  27  28
ENDBRANCH  26  27
ENDBRANCH   1  26
TORSDOF 21
ENDMDL
