MODEL 1
REMARK VINA RESULT:     -11.3      0.000      0.000
REMARK SMILES CCc1cc(Oc2cncc(C(=O)NCCCCCCNC(=O)c3ccc(-c4c5nc(c(-c6cc(S(=O)(=O)[O-])ccc6F)c6ccc([nH]6)c(-c6cc(S(=O)(=O)[O-])ccc6F)c6nc(c(-c7cc(S(=O)(=O)[O-])ccc7F)c7ccc4[nH]7)C=C6)C=C5)cc3)n2)ccc1Cl
REMARK SMILES IDX 17 1 16 2 15 3 14 4 12 5 13 6 11 8 7 9 8 10 87 11 9 12 10 13
REMARK SMILES IDX 6 14 5 15 3 16 4 17 90 18 89 19 91 20 88 21 2 22 1 23 18 24
REMARK SMILES IDX 19 25 20 26 21 27 22 28 23 30 24 31 25 32 86 33 26 34 85 35
REMARK SMILES IDX 27 36 28 37 29 38 79 39 30 40 84 41 78 42 80 43 31 44 83 45
REMARK SMILES IDX 77 46 76 47 32 49 64 50 44 51 63 52 45 53 48 54 62 55 81 56
REMARK SMILES IDX 46 57 47 58 61 60 82 61 49 62 33 63 34 64 42 65 35 66 41 67
REMARK SMILES IDX 43 68 40 69 36 70 37 71 38 72 39 73 65 74 66 75 74 76 67 77
REMARK SMILES IDX 73 78 75 79 72 80 68 81 69 82 70 83 71 84 50 85 51 86 59 87
REMARK SMILES IDX 52 88 58 89 60 90 57 91 53 92 54 93 55 94 56 95
REMARK H PARENT 14 7 21 29 80 48 48 59
REMARK Flexibility Score: inf
ROOT
ATOM      1  C   UNL A   1      34.540  20.457  24.962  1.00  0.00     0.002 C 
ENDROOT
BRANCH   1   2
ATOM      2  C   UNL A   1      33.494  20.478  26.083  1.00  0.00     0.021 C 
BRANCH   2   3
ATOM      3  C   UNL A   1      33.620  21.680  27.017  1.00  0.00     0.116 C 
BRANCH   3   4
ATOM      4  N   UNL A   1      32.309  22.199  27.377  1.00  0.00    -0.351 N 
ATOM      5  C   UNL A   1      31.493  23.127  26.772  1.00  0.00     0.271 C 
ATOM      6  O   UNL A   1      30.414  23.383  27.311  1.00  0.00    -0.267 OA
ATOM      7  H   UNL A   1      31.938  21.815  28.204  1.00  0.00     0.163 HD
BRANCH   5   8
ATOM      8  C   UNL A   1      31.838  23.804  25.490  1.00  0.00     0.150 A 
ATOM      9  C   UNL A   1      32.868  25.477  24.312  1.00  0.00     0.238 A 
ATOM     10  C   UNL A   1      32.553  24.844  23.117  1.00  0.00     0.179 A 
ATOM     11  N   UNL A   1      32.523  24.969  25.511  1.00  0.00    -0.205 NA
ATOM     12  N   UNL A   1      31.823  23.704  23.075  1.00  0.00    -0.257 NA
ATOM     13  C   UNL A   1      31.474  23.200  24.290  1.00  0.00     0.145 A 
BRANCH   9  14
ATOM     14  O   UNL A   1      33.614  26.628  24.340  1.00  0.00    -0.437 OA
BRANCH  14  15
ATOM     15  C   UNL A   1      33.033  27.758  24.870  1.00  0.00     0.129 A 
ATOM     16  C   UNL A   1      33.328  29.592  26.469  1.00  0.00    -0.026 A 
ATOM     17  C   UNL A   1      33.764  28.384  25.888  1.00  0.00     0.052 A 
ATOM     18  C   UNL A   1      32.142  30.167  25.987  1.00  0.00     0.044 A 
ATOM     19  C   UNL A   1      31.384  29.517  25.009  1.00  0.00     0.024 A 
ATOM     20  Cl  UNL A   1      31.573  31.706  26.526  1.00  0.00    -0.084 Cl
ATOM     21  C   UNL A   1      31.818  28.310  24.461  1.00  0.00     0.049 A 
BRANCH  16  22
ATOM     22  C   UNL A   1      34.159  30.218  27.567  1.00  0.00     0.034 C 
ATOM     23  C   UNL A   1      35.591  29.698  27.613  1.00  0.00     0.009 C 
ENDBRANCH  16  22
ENDBRANCH  14  15
ENDBRANCH   9  14
ENDBRANCH   5   8
ENDBRANCH   3   4
ENDBRANCH   2   3
ENDBRANCH   1   2
BRANCH   1  24
ATOM     24  C   UNL A   1      34.954  21.837  24.434  1.00  0.00     0.002 C 
BRANCH  24  25
ATOM     25  C   UNL A   1      36.463  22.092  24.401  1.00  0.00     0.021 C 
BRANCH  25  26
ATOM     26  C   UNL A   1      37.085  22.357  25.767  1.00  0.00     0.116 C 
BRANCH  26  27
ATOM     27  N   UNL A   1      38.124  21.390  26.085  1.00  0.00    -0.352 N 
ATOM     28  C   UNL A   1      39.414  21.617  26.497  1.00  0.00     0.251 C 
ATOM     29  H   UNL A   1      37.866  20.444  25.992  1.00  0.00     0.163 HD
ATOM     30  O   UNL A   1      40.225  20.696  26.513  1.00  0.00    -0.269 OA
BRANCH  28  31
ATOM     31  C   UNL A   1      39.817  22.982  26.898  1.00  0.00     0.039 A 
ATOM     32  C   UNL A   1      40.684  23.148  27.981  1.00  0.00     0.014 A 
ATOM     33  C   UNL A   1      39.346  24.094  26.195  1.00  0.00     0.014 A 
ATOM     34  C   UNL A   1      41.124  24.430  28.323  1.00  0.00     0.010 A 
ATOM     35  C   UNL A   1      39.842  25.358  26.491  1.00  0.00     0.010 A 
ATOM     36  C   UNL A   1      40.731  25.542  27.563  1.00  0.00    -0.014 A 
BRANCH  36  37
ATOM     37  C   UNL A   1      41.203  26.916  27.880  1.00  0.00     0.031 A 
ATOM     38  C   UNL A   1      42.625  27.300  27.566  1.00  0.00     0.074 A 
ATOM     39  C   UNL A   1      40.390  27.783  28.517  1.00  0.00     0.049 A 
ATOM     40  N   UNL A   1      43.281  28.384  27.886  1.00  0.00    -0.248 NA
ATOM     41  C   UNL A   1      43.423  26.314  26.819  1.00  0.00     0.031 C 
ATOM     42  C   UNL A   1      38.997  27.520  28.887  1.00  0.00     0.029 A 
ATOM     43  N   UNL A   1      40.619  29.055  28.978  1.00  0.00    -0.354 N 
ATOM     44  C   UNL A   1      44.573  28.202  27.405  1.00  0.00     0.074 A 
ATOM     45  C   UNL A   1      44.620  26.880  26.817  1.00  0.00     0.031 C 
ATOM     46  C   UNL A   1      38.494  28.605  29.501  1.00  0.00     0.029 A 
ATOM     47  C   UNL A   1      39.539  29.617  29.620  1.00  0.00     0.049 A 
ATOM     48  H   UNL A   1      41.478  29.523  28.861  1.00  0.00     0.167 HD
ATOM     49  C   UNL A   1      45.619  29.063  27.437  1.00  0.00     0.034 A 
ATOM     50  C   UNL A   1      39.412  30.803  30.252  1.00  0.00     0.034 A 
ATOM     51  C   UNL A   1      45.546  30.387  28.004  1.00  0.00     0.049 A 
ATOM     52  C   UNL A   1      40.603  31.731  30.301  1.00  0.00     0.074 A 
ATOM     53  C   UNL A   1      46.527  31.363  28.037  1.00  0.00     0.029 A 
ATOM     54  N   UNL A   1      44.432  30.922  28.638  1.00  0.00    -0.354 N 
ATOM     55  N   UNL A   1      41.808  31.557  29.812  1.00  0.00    -0.248 NA
ATOM     56  C   UNL A   1      40.414  33.021  30.982  1.00  0.00     0.031 C 
ATOM     57  C   UNL A   1      46.034  32.456  28.756  1.00  0.00     0.029 A 
ATOM     58  C   UNL A   1      44.714  32.200  29.093  1.00  0.00     0.049 A 
ATOM     59  H   UNL A   1      43.570  30.460  28.749  1.00  0.00     0.167 HD
ATOM     60  C   UNL A   1      42.502  32.734  30.080  1.00  0.00     0.074 A 
ATOM     61  C   UNL A   1      41.582  33.610  30.774  1.00  0.00     0.031 C 
ATOM     62  C   UNL A   1      43.780  33.067  29.770  1.00  0.00     0.034 A 
BRANCH  49  63
ATOM     63  C   UNL A   1      46.936  28.591  26.872  1.00  0.00     0.023 A 
ATOM     64  C   UNL A   1      47.133  28.414  25.491  1.00  0.00     0.031 A 
ATOM     65  C   UNL A   1      48.014  28.308  27.730  1.00  0.00     0.131 A 
ATOM     66  C   UNL A   1      48.351  27.906  25.016  1.00  0.00     0.055 A 
ATOM     67  C   UNL A   1      49.252  27.882  27.244  1.00  0.00     0.041 A 
ATOM     68  F   UNL A   1      47.880  28.436  29.060  1.00  0.00    -0.206 F 
ATOM     69  C   UNL A   1      49.422  27.666  25.881  1.00  0.00     0.022 A 
BRANCH  66  70
ATOM     70  S   UNL A   1      48.473  27.440  23.268  1.00  0.00     0.124 S 
ATOM     71  O   UNL A   1      47.393  28.228  22.678  1.00  0.00    -0.237 OA
ATOM     72  O   UNL A   1      49.827  27.854  22.923  1.00  0.00    -0.237 OA
ATOM     73  O   UNL A   1      48.244  25.996  23.282  1.00  0.00    -0.744 OA
ENDBRANCH  66  70
ENDBRANCH  49  63
BRANCH  50  74
ATOM     74  C   UNL A   1      38.126  31.189  30.903  1.00  0.00     0.023 A 
ATOM     75  C   UNL A   1      37.195  31.997  30.231  1.00  0.00     0.031 A 
ATOM     76  C   UNL A   1      37.837  30.817  32.229  1.00  0.00     0.131 A 
ATOM     77  C   UNL A   1      36.054  32.462  30.905  1.00  0.00     0.055 A 
ATOM     78  C   UNL A   1      36.669  31.228  32.873  1.00  0.00     0.041 A 
ATOM     79  F   UNL A   1      38.691  30.045  32.919  1.00  0.00    -0.206 F 
ATOM     80  C   UNL A   1      35.777  32.071  32.217  1.00  0.00     0.022 A 
BRANCH  77  81
ATOM     81  S   UNL A   1      34.998  33.684  30.079  1.00  0.00     0.124 S 
ATOM     82  O   UNL A   1      35.894  34.199  29.051  1.00  0.00    -0.237 OA
ATOM     83  O   UNL A   1      33.890  32.859  29.612  1.00  0.00    -0.237 OA
ATOM     84  O   UNL A   1      34.669  34.624  31.149  1.00  0.00    -0.744 OA
ENDBRANCH  77  81
ENDBRANCH  50  74
BRANCH  62  85
ATOM     85  C   UNL A   1      44.235  34.467  30.102  1.00  0.00     0.023 A 
ATOM     86  C   UNL A   1      44.061  35.543  29.216  1.00  0.00     0.031 A 
ATOM     87  C   UNL A   1      44.839  34.726  31.348  1.00  0.00     0.131 A 
ATOM     88  C   UNL A   1      44.524  36.820  29.569  1.00  0.00     0.055 A 
ATOM     89  C   UNL A   1      45.241  36.009  31.718  1.00  0.00     0.041 A 
ATOM     90  F   UNL A   1      45.031  33.734  32.232  1.00  0.00    -0.206 F 
ATOM     91  C   UNL A   1      45.095  37.063  30.822  1.00  0.00     0.022 A 
BRANCH  88  92
ATOM     92  S   UNL A   1      44.437  38.152  28.341  1.00  0.00     0.124 S 
ATOM     93  O   UNL A   1      43.752  39.205  29.083  1.00  0.00    -0.237 OA
ATOM     94  O   UNL A   1      45.845  38.395  28.044  1.00  0.00    -0.237 OA
ATOM     95  O   UNL A   1      43.667  37.562  27.248  1.00  0.00    -0.744 OA
ENDBRANCH  88  92
ENDBRANCH  62  85
ENDBRANCH  36  37
ENDBRANCH  28  31
ENDBRANCH  26  27
ENDBRANCH  25  26
ENDBRANCH  24  25
ENDBRANCH   1  24
TORSDOF 19
ENDMDL
MODEL 2
REMARK VINA RESULT:     -11.2      2.412      2.916
REMARK SMILES CCc1cc(Oc2cncc(C(=O)NCCCCCCNC(=O)c3ccc(-c4c5nc(c(-c6cc(S(=O)(=O)[O-])ccc6F)c6ccc([nH]6)c(-c6cc(S(=O)(=O)[O-])ccc6F)c6nc(c(-c7cc(S(=O)(=O)[O-])ccc7F)c7ccc4[nH]7)C=C6)C=C5)cc3)n2)ccc1Cl
REMARK SMILES IDX 17 1 16 2 15 3 14 4 12 5 13 6 11 8 7 9 8 10 87 11 9 12 10 13
REMARK SMILES IDX 6 14 5 15 3 16 4 17 90 18 89 19 91 20 88 21 2 22 1 23 18 24
REMARK SMILES IDX 19 25 20 26 21 27 22 28 23 30 24 31 25 32 86 33 26 34 85 35
REMARK SMILES IDX 27 36 28 37 29 38 79 39 30 40 84 41 78 42 80 43 31 44 83 45
REMARK SMILES IDX 77 46 76 47 32 49 64 50 44 51 63 52 45 53 48 54 62 55 81 56
REMARK SMILES IDX 46 57 47 58 61 60 82 61 49 62 33 63 34 64 42 65 35 66 41 67
REMARK SMILES IDX 43 68 40 69 36 70 37 71 38 72 39 73 65 74 66 75 74 76 67 77
REMARK SMILES IDX 73 78 75 79 72 80 68 81 69 82 70 83 71 84 50 85 51 86 59 87
REMARK SMILES IDX 52 88 58 89 60 90 57 91 53 92 54 93 55 94 56 95
REMARK H PARENT 14 7 21 29 80 48 48 59
REMARK Flexibility Score: inf
ROOT
ATOM      1  C   UNL A   1      34.929  20.804  25.332  1.00  0.00     0.002 C 
ENDROOT
BRANCH   1   2
ATOM      2  C   UNL A   1      33.752  20.814  26.314  1.00  0.00     0.021 C 
BRANCH   2   3
ATOM      3  C   UNL A   1      33.783  21.980  27.300  1.00  0.00     0.116 C 
BRANCH   3   4
ATOM      4  N   UNL A   1      32.440  22.471  27.568  1.00  0.00    -0.351 N 
ATOM      5  C   UNL A   1      31.597  23.278  26.838  1.00  0.00     0.271 C 
ATOM      6  O   UNL A   1      30.493  23.542  27.320  1.00  0.00    -0.267 OA
ATOM      7  H   UNL A   1      32.066  22.171  28.427  1.00  0.00     0.163 HD
BRANCH   5   8
ATOM      8  C   UNL A   1      31.943  23.813  25.491  1.00  0.00     0.150 A 
ATOM      9  C   UNL A   1      33.038  25.303  24.138  1.00  0.00     0.238 A 
ATOM     10  C   UNL A   1      32.646  24.588  23.015  1.00  0.00     0.179 A 
ATOM     11  N   UNL A   1      32.700  24.929  25.388  1.00  0.00    -0.205 NA
ATOM     12  N   UNL A   1      31.846  23.498  23.097  1.00  0.00    -0.257 NA
ATOM     13  C   UNL A   1      31.505  23.128  24.361  1.00  0.00     0.145 A 
BRANCH   9  14
ATOM     14  O   UNL A   1      33.855  26.401  24.042  1.00  0.00    -0.437 OA
BRANCH  14  15
ATOM     15  C   UNL A   1      33.424  27.576  24.618  1.00  0.00     0.129 A 
ATOM     16  C   UNL A   1      31.649  29.266  24.617  1.00  0.00    -0.026 A 
ATOM     17  C   UNL A   1      32.247  28.110  24.077  1.00  0.00     0.052 A 
ATOM     18  C   UNL A   1      32.257  29.865  25.731  1.00  0.00     0.044 A 
ATOM     19  C   UNL A   1      33.459  29.365  26.239  1.00  0.00     0.024 A 
ATOM     20  Cl  UNL A   1      31.552  31.206  26.561  1.00  0.00    -0.084 Cl
ATOM     21  C   UNL A   1      34.050  28.233  25.678  1.00  0.00     0.049 A 
BRANCH  16  22
ATOM     22  C   UNL A   1      30.380  29.796  23.986  1.00  0.00     0.034 C 
ATOM     23  C   UNL A   1      29.616  28.746  23.190  1.00  0.00     0.009 C 
ENDBRANCH  16  22
ENDBRANCH  14  15
ENDBRANCH   9  14
ENDBRANCH   5   8
ENDBRANCH   3   4
ENDBRANCH   2   3
ENDBRANCH   1   2
BRANCH   1  24
ATOM     24  C   UNL A   1      35.046  22.053  24.447  1.00  0.00     0.002 C 
BRANCH  24  25
ATOM     25  C   UNL A   1      36.446  22.668  24.375  1.00  0.00     0.021 C 
BRANCH  25  26
ATOM     26  C   UNL A   1      37.040  23.036  25.729  1.00  0.00     0.116 C 
BRANCH  26  27
ATOM     27  N   UNL A   1      38.143  22.161  26.093  1.00  0.00    -0.352 N 
ATOM     28  C   UNL A   1      39.397  22.497  26.540  1.00  0.00     0.251 C 
ATOM     29  H   UNL A   1      37.965  21.196  26.006  1.00  0.00     0.163 HD
ATOM     30  O   UNL A   1      40.279  21.645  26.594  1.00  0.00    -0.269 OA
BRANCH  28  31
ATOM     31  C   UNL A   1      39.676  23.894  26.933  1.00  0.00     0.039 A 
ATOM     32  C   UNL A   1      39.588  24.257  28.279  1.00  0.00     0.014 A 
ATOM     33  C   UNL A   1      40.037  24.841  25.970  1.00  0.00     0.014 A 
ATOM     34  C   UNL A   1      39.918  25.558  28.667  1.00  0.00     0.010 A 
ATOM     35  C   UNL A   1      40.434  26.112  26.368  1.00  0.00     0.010 A 
ATOM     36  C   UNL A   1      40.372  26.488  27.719  1.00  0.00    -0.014 A 
BRANCH  36  37
ATOM     37  C   UNL A   1      40.759  27.872  28.101  1.00  0.00     0.031 A 
ATOM     38  C   UNL A   1      42.214  28.260  28.099  1.00  0.00     0.074 A 
ATOM     39  C   UNL A   1      39.824  28.746  28.523  1.00  0.00     0.049 A 
ATOM     40  N   UNL A   1      42.781  29.356  28.531  1.00  0.00    -0.248 NA
ATOM     41  C   UNL A   1      43.159  27.264  27.569  1.00  0.00     0.031 C 
ATOM     42  C   UNL A   1      38.384  28.481  28.584  1.00  0.00     0.029 A 
ATOM     43  N   UNL A   1      39.942  30.031  28.994  1.00  0.00    -0.354 N 
ATOM     44  C   UNL A   1      44.148  29.173  28.350  1.00  0.00     0.074 A 
ATOM     45  C   UNL A   1      44.326  27.840  27.817  1.00  0.00     0.031 C 
ATOM     46  C   UNL A   1      37.755  29.575  29.047  1.00  0.00     0.029 A 
ATOM     47  C   UNL A   1      38.745  30.598  29.370  1.00  0.00     0.049 A 
ATOM     48  H   UNL A   1      40.804  30.502  29.058  1.00  0.00     0.167 HD
ATOM     49  C   UNL A   1      45.158  30.043  28.592  1.00  0.00     0.034 A 
ATOM     50  C   UNL A   1      38.479  31.796  29.931  1.00  0.00     0.034 A 
ATOM     51  C   UNL A   1      44.959  31.378  29.098  1.00  0.00     0.049 A 
ATOM     52  C   UNL A   1      39.627  32.735  30.219  1.00  0.00     0.074 A 
ATOM     53  C   UNL A   1      45.906  32.363  29.324  1.00  0.00     0.029 A 
ATOM     54  N   UNL A   1      43.732  31.918  29.460  1.00  0.00    -0.354 N 
ATOM     55  N   UNL A   1      40.912  32.558  30.012  1.00  0.00    -0.248 NA
ATOM     56  C   UNL A   1      39.290  34.037  30.812  1.00  0.00     0.031 C 
ATOM     57  C   UNL A   1      45.264  33.467  29.892  1.00  0.00     0.029 A 
ATOM     58  C   UNL A   1      43.903  33.208  29.935  1.00  0.00     0.049 A 
ATOM     59  H   UNL A   1      42.868  31.452  29.388  1.00  0.00     0.167 HD
ATOM     60  C   UNL A   1      41.526  33.747  30.399  1.00  0.00     0.074 A 
ATOM     61  C   UNL A   1      40.473  34.631  30.853  1.00  0.00     0.031 C 
ATOM     62  C   UNL A   1      42.841  34.083  30.370  1.00  0.00     0.034 A 
BRANCH  49  63
ATOM     63  C   UNL A   1      46.569  29.568  28.342  1.00  0.00     0.023 A 
ATOM     64  C   UNL A   1      47.317  28.905  29.330  1.00  0.00     0.031 A 
ATOM     65  C   UNL A   1      47.179  29.787  27.093  1.00  0.00     0.131 A 
ATOM     66  C   UNL A   1      48.649  28.544  29.077  1.00  0.00     0.055 A 
ATOM     67  C   UNL A   1      48.477  29.351  26.820  1.00  0.00     0.041 A 
ATOM     68  F   UNL A   1      46.524  30.436  26.117  1.00  0.00    -0.206 F 
ATOM     69  C   UNL A   1      49.225  28.737  27.819  1.00  0.00     0.022 A 
BRANCH  66  70
ATOM     70  S   UNL A   1      49.658  27.937  30.455  1.00  0.00     0.124 S 
ATOM     71  O   UNL A   1      51.004  28.301  30.018  1.00  0.00    -0.237 OA
ATOM     72  O   UNL A   1      49.130  28.686  31.588  1.00  0.00    -0.237 OA
ATOM     73  O   UNL A   1      49.385  26.500  30.473  1.00  0.00    -0.744 OA
ENDBRANCH  66  70
ENDBRANCH  49  63
BRANCH  50  74
ATOM     74  C   UNL A   1      37.080  32.187  30.274  1.00  0.00     0.023 A 
ATOM     75  C   UNL A   1      36.280  32.876  29.349  1.00  0.00     0.031 A 
ATOM     76  C   UNL A   1      36.545  31.940  31.551  1.00  0.00     0.131 A 
ATOM     77  C   UNL A   1      35.017  33.354  29.734  1.00  0.00     0.055 A 
ATOM     78  C   UNL A   1      35.262  32.360  31.907  1.00  0.00     0.041 A 
ATOM     79  F   UNL A   1      37.265  31.284  32.475  1.00  0.00    -0.206 F 
ATOM     80  C   UNL A   1      34.496  33.088  31.003  1.00  0.00     0.022 A 
BRANCH  77  81
ATOM     81  S   UNL A   1      34.114  34.434  28.589  1.00  0.00     0.124 S 
ATOM     82  O   UNL A   1      32.776  33.856  28.634  1.00  0.00    -0.237 OA
ATOM     83  O   UNL A   1      34.273  35.740  29.218  1.00  0.00    -0.237 OA
ATOM     84  O   UNL A   1      34.827  34.259  27.325  1.00  0.00    -0.744 OA
ENDBRANCH  77  81
ENDBRANCH  50  74
BRANCH  62  85
ATOM     85  C   UNL A   1      43.207  35.493  30.762  1.00  0.00     0.023 A 
ATOM     86  C   UNL A   1      43.377  35.880  32.102  1.00  0.00     0.031 A 
ATOM     87  C   UNL A   1      43.410  36.463  29.762  1.00  0.00     0.131 A 
ATOM     88  C   UNL A   1      43.697  37.212  32.410  1.00  0.00     0.055 A 
ATOM     89  C   UNL A   1      43.787  37.770  30.071  1.00  0.00     0.041 A 
ATOM     90  F   UNL A   1      43.259  36.149  28.466  1.00  0.00    -0.206 F 
ATOM     91  C   UNL A   1      43.922  38.154  31.401  1.00  0.00     0.022 A 
BRANCH  88  92
ATOM     92  S   UNL A   1      43.745  37.720  34.150  1.00  0.00     0.124 S 
ATOM     93  O   UNL A   1      45.179  37.827  34.395  1.00  0.00    -0.237 OA
ATOM     94  O   UNL A   1      43.008  38.979  34.128  1.00  0.00    -0.237 OA
ATOM     95  O   UNL A   1      43.077  36.623  34.847  1.00  0.00    -0.744 OA
ENDBRANCH  88  92
ENDBRANCH  62  85
ENDBRANCH  36  37
ENDBRANCH  28  31
ENDBRANCH  26  27
ENDBRANCH  25  26
ENDBRANCH  24  25
ENDBRANCH   1  24
TORSDOF 19
ENDMDL
MODEL 3
REMARK VINA RESULT:     -11.2      4.561      9.348
REMARK SMILES CCc1cc(Oc2cncc(C(=O)NCCCCCCNC(=O)c3ccc(-c4c5nc(c(-c6cc(S(=O)(=O)[O-])ccc6F)c6ccc([nH]6)c(-c6cc(S(=O)(=O)[O-])ccc6F)c6nc(c(-c7cc(S(=O)(=O)[O-])ccc7F)c7ccc4[nH]7)C=C6)C=C5)cc3)n2)ccc1Cl
REMARK SMILES IDX 17 1 16 2 15 3 14 4 12 5 13 6 11 8 7 9 8 10 87 11 9 12 10 13
REMARK SMILES IDX 6 14 5 15 3 16 4 17 90 18 89 19 91 20 88 21 2 22 1 23 18 24
REMARK SMILES IDX 19 25 20 26 21 27 22 28 23 30 24 31 25 32 86 33 26 34 85 35
REMARK SMILES IDX 27 36 28 37 29 38 79 39 30 40 84 41 78 42 80 43 31 44 83 45
REMARK SMILES IDX 77 46 76 47 32 49 64 50 44 51 63 52 45 53 48 54 62 55 81 56
REMARK SMILES IDX 46 57 47 58 61 60 82 61 49 62 33 63 34 64 42 65 35 66 41 67
REMARK SMILES IDX 43 68 40 69 36 70 37 71 38 72 39 73 65 74 66 75 74 76 67 77
REMARK SMILES IDX 73 78 75 79 72 80 68 81 69 82 70 83 71 84 50 85 51 86 59 87
REMARK SMILES IDX 52 88 58 89 60 90 57 91 53 92 54 93 55 94 56 95
REMARK H PARENT 14 7 21 29 80 48 48 59
REMARK Flexibility Score: inf
ROOT
ATOM      1  C   UNL A   1      30.796  25.997  26.302  1.00  0.00     0.002 C 
ENDROOT
BRANCH   1   2
ATOM      2  C   UNL A   1      30.619  24.505  25.995  1.00  0.00     0.021 C 
BRANCH   2   3
ATOM      3  C   UNL A   1      31.528  23.597  26.821  1.00  0.00     0.116 C 
BRANCH   3   4
ATOM      4  N   UNL A   1      31.464  22.223  26.344  1.00  0.00    -0.351 N 
ATOM      5  C   UNL A   1      32.097  21.585  25.303  1.00  0.00     0.271 C 
ATOM      6  O   UNL A   1      31.846  20.392  25.122  1.00  0.00    -0.267 OA
ATOM      7  H   UNL A   1      30.857  21.646  26.861  1.00  0.00     0.163 HD
BRANCH   5   8
ATOM      8  C   UNL A   1      33.088  22.256  24.415  1.00  0.00     0.150 A 
ATOM      9  C   UNL A   1      33.625  23.777  22.787  1.00  0.00     0.238 A 
ATOM     10  C   UNL A   1      34.976  23.531  22.989  1.00  0.00     0.179 A 
ATOM     11  N   UNL A   1      32.663  23.152  23.495  1.00  0.00    -0.205 NA
ATOM     12  N   UNL A   1      35.417  22.600  23.869  1.00  0.00    -0.257 NA
ATOM     13  C   UNL A   1      34.440  21.971  24.577  1.00  0.00     0.145 A 
BRANCH   9  14
ATOM     14  O   UNL A   1      33.192  24.727  21.897  1.00  0.00    -0.437 OA
BRANCH  14  15
ATOM     15  C   UNL A   1      32.830  25.958  22.397  1.00  0.00     0.129 A 
ATOM     16  C   UNL A   1      30.934  27.420  22.921  1.00  0.00    -0.026 A 
ATOM     17  C   UNL A   1      31.456  26.232  22.373  1.00  0.00     0.052 A 
ATOM     18  C   UNL A   1      31.830  28.324  23.514  1.00  0.00     0.044 A 
ATOM     19  C   UNL A   1      33.206  28.078  23.491  1.00  0.00     0.024 A 
ATOM     20  Cl  UNL A   1      31.302  29.750  24.332  1.00  0.00    -0.084 Cl
ATOM     21  C   UNL A   1      33.708  26.907  22.923  1.00  0.00     0.049 A 
BRANCH  16  22
ATOM     22  C   UNL A   1      29.442  27.661  22.862  1.00  0.00     0.034 C 
ATOM     23  C   UNL A   1      28.642  26.720  23.755  1.00  0.00     0.009 C 
ENDBRANCH  16  22
ENDBRANCH  14  15
ENDBRANCH   9  14
ENDBRANCH   5   8
ENDBRANCH   3   4
ENDBRANCH   2   3
ENDBRANCH   1   2
BRANCH   1  24
ATOM     24  C   UNL A   1      32.238  26.434  26.591  1.00  0.00     0.002 C 
BRANCH  24  25
ATOM     25  C   UNL A   1      32.384  27.835  27.191  1.00  0.00     0.021 C 
BRANCH  25  26
ATOM     26  C   UNL A   1      33.720  28.507  26.899  1.00  0.00     0.116 C 
BRANCH  26  27
ATOM     27  N   UNL A   1      33.631  29.955  26.999  1.00  0.00    -0.352 N 
ATOM     28  C   UNL A   1      34.442  30.821  27.689  1.00  0.00     0.251 C 
ATOM     29  H   UNL A   1      32.887  30.370  26.505  1.00  0.00     0.163 HD
ATOM     30  O   UNL A   1      34.101  31.989  27.847  1.00  0.00    -0.269 OA
BRANCH  28  31
ATOM     31  C   UNL A   1      35.715  30.327  28.256  1.00  0.00     0.039 A 
ATOM     32  C   UNL A   1      35.736  29.830  29.561  1.00  0.00     0.014 A 
ATOM     33  C   UNL A   1      36.884  30.345  27.489  1.00  0.00     0.014 A 
ATOM     34  C   UNL A   1      36.921  29.298  30.079  1.00  0.00     0.010 A 
ATOM     35  C   UNL A   1      38.040  29.750  27.980  1.00  0.00     0.010 A 
ATOM     36  C   UNL A   1      38.075  29.226  29.283  1.00  0.00    -0.014 A 
BRANCH  36  37
ATOM     37  C   UNL A   1      39.343  28.640  29.791  1.00  0.00     0.031 A 
ATOM     38  C   UNL A   1      39.998  29.237  31.008  1.00  0.00     0.074 A 
ATOM     39  C   UNL A   1      39.942  27.635  29.121  1.00  0.00     0.049 A 
ATOM     40  N   UNL A   1      41.168  28.979  31.531  1.00  0.00    -0.248 NA
ATOM     41  C   UNL A   1      39.247  30.291  31.709  1.00  0.00     0.031 C 
ATOM     42  C   UNL A   1      39.411  26.983  27.921  1.00  0.00     0.029 A 
ATOM     43  N   UNL A   1      41.134  26.992  29.345  1.00  0.00    -0.354 N 
ATOM     44  C   UNL A   1      41.306  29.853  32.604  1.00  0.00     0.074 A 
ATOM     45  C   UNL A   1      40.121  30.684  32.623  1.00  0.00     0.031 C 
ATOM     46  C   UNL A   1      40.266  26.024  27.528  1.00  0.00     0.029 A 
ATOM     47  C   UNL A   1      41.430  26.027  28.408  1.00  0.00     0.049 A 
ATOM     48  H   UNL A   1      41.724  27.202  30.104  1.00  0.00     0.167 HD
ATOM     49  C   UNL A   1      42.320  29.943  33.498  1.00  0.00     0.034 A 
ATOM     50  C   UNL A   1      42.524  25.250  28.264  1.00  0.00     0.034 A 
ATOM     51  C   UNL A   1      43.481  29.090  33.479  1.00  0.00     0.049 A 
ATOM     52  C   UNL A   1      43.654  25.393  29.256  1.00  0.00     0.074 A 
ATOM     53  C   UNL A   1      44.539  29.056  34.371  1.00  0.00     0.029 A 
ATOM     54  N   UNL A   1      43.740  28.120  32.519  1.00  0.00    -0.354 N 
ATOM     55  N   UNL A   1      43.753  26.203  30.285  1.00  0.00    -0.248 NA
ATOM     56  C   UNL A   1      44.817  24.513  29.073  1.00  0.00     0.031 C 
ATOM     57  C   UNL A   1      45.472  28.122  33.910  1.00  0.00     0.029 A 
ATOM     58  C   UNL A   1      44.955  27.506  32.781  1.00  0.00     0.049 A 
ATOM     59  H   UNL A   1      43.148  27.901  31.764  1.00  0.00     0.167 HD
ATOM     60  C   UNL A   1      44.964  25.891  30.899  1.00  0.00     0.074 A 
ATOM     61  C   UNL A   1      45.559  24.821  30.126  1.00  0.00     0.031 C 
ATOM     62  C   UNL A   1      45.528  26.430  32.009  1.00  0.00     0.034 A 
BRANCH  49  63
ATOM     63  C   UNL A   1      42.233  31.021  34.552  1.00  0.00     0.023 A 
ATOM     64  C   UNL A   1      42.691  32.329  34.318  1.00  0.00     0.031 A 
ATOM     65  C   UNL A   1      41.686  30.733  35.815  1.00  0.00     0.131 A 
ATOM     66  C   UNL A   1      42.655  33.280  35.349  1.00  0.00     0.055 A 
ATOM     67  C   UNL A   1      41.576  31.706  36.811  1.00  0.00     0.041 A 
ATOM     68  F   UNL A   1      41.252  29.496  36.107  1.00  0.00    -0.206 F 
ATOM     69  C   UNL A   1      42.075  32.985  36.585  1.00  0.00     0.022 A 
BRANCH  66  70
ATOM     70  S   UNL A   1      43.496  34.866  35.094  1.00  0.00     0.124 S 
ATOM     71  O   UNL A   1      44.867  34.433  34.834  1.00  0.00    -0.237 OA
ATOM     72  O   UNL A   1      42.777  35.427  33.958  1.00  0.00    -0.237 OA
ATOM     73  O   UNL A   1      43.302  35.564  36.364  1.00  0.00    -0.744 OA
ENDBRANCH  66  70
ENDBRANCH  49  63
BRANCH  50  74
ATOM     74  C   UNL A   1      42.626  24.275  27.138  1.00  0.00     0.023 A 
ATOM     75  C   UNL A   1      42.016  23.013  27.223  1.00  0.00     0.031 A 
ATOM     76  C   UNL A   1      43.390  24.559  25.992  1.00  0.00     0.131 A 
ATOM     77  C   UNL A   1      42.235  22.060  26.216  1.00  0.00     0.055 A 
ATOM     78  C   UNL A   1      43.550  23.630  24.963  1.00  0.00     0.041 A 
ATOM     79  F   UNL A   1      43.995  25.750  25.857  1.00  0.00    -0.206 F 
ATOM     80  C   UNL A   1      42.986  22.365  25.079  1.00  0.00     0.022 A 
BRANCH  77  81
ATOM     81  S   UNL A   1      41.621  20.372  26.474  1.00  0.00     0.124 S 
ATOM     82  O   UNL A   1      42.172  20.056  27.787  1.00  0.00    -0.237 OA
ATOM     83  O   UNL A   1      40.176  20.564  26.413  1.00  0.00    -0.237 OA
ATOM     84  O   UNL A   1      42.199  19.627  25.358  1.00  0.00    -0.744 OA
ENDBRANCH  77  81
ENDBRANCH  50  74
BRANCH  62  85
ATOM     85  C   UNL A   1      46.815  25.817  32.504  1.00  0.00     0.023 A 
ATOM     86  C   UNL A   1      46.838  24.817  33.491  1.00  0.00     0.031 A 
ATOM     87  C   UNL A   1      48.042  26.235  31.955  1.00  0.00     0.131 A 
ATOM     88  C   UNL A   1      48.066  24.298  33.929  1.00  0.00     0.055 A 
ATOM     89  C   UNL A   1      49.255  25.672  32.352  1.00  0.00     0.041 A 
ATOM     90  F   UNL A   1      48.077  27.188  31.011  1.00  0.00    -0.206 F 
ATOM     91  C   UNL A   1      49.273  24.706  33.351  1.00  0.00     0.022 A 
BRANCH  88  92
ATOM     92  S   UNL A   1      48.076  23.132  35.318  1.00  0.00     0.124 S 
ATOM     93  O   UNL A   1      48.494  21.892  34.671  1.00  0.00    -0.237 OA
ATOM     94  O   UNL A   1      49.047  23.735  36.225  1.00  0.00    -0.237 OA
ATOM     95  O   UNL A   1      46.693  23.149  35.792  1.00  0.00    -0.744 OA
ENDBRANCH  88  92
ENDBRANCH  62  85
ENDBRANCH  36  37
ENDBRANCH  28  31
ENDBRANCH  26  27
ENDBRANCH  25  26
ENDBRANCH  24  25
ENDBRANCH   1  24
TORSDOF 19
ENDMDL
