MODEL 1
REMARK VINA RESULT:     -11.2      0.000      0.000
REMARK SMILES CCC(C)(C)c1ccc(O[C@H](F)C(=O)NCCCCCCNC(=O)c2ccc(-c3c4nc(c(-c5cc(S(=O)(=O)[O-])ccc5F)c5ccc([nH]5)c(-c5cc(S(=O)(=O)[O-])ccc5F)c5nc(c(-c6cc(S(=O)(=O)[O-])ccc6F)c6ccc3[nH]6)C=C5)C=C4)cc2)cc1
REMARK SMILES IDX 18 1 17 2 16 3 15 4 13 5 14 6 11 8 12 9 10 10 9 11 6 12 7 13
REMARK SMILES IDX 89 14 8 15 88 16 3 17 4 18 5 19 2 20 1 21 19 22 20 23 21 24
REMARK SMILES IDX 22 25 23 26 24 28 25 29 26 30 87 31 27 32 86 33 28 34 29 35
REMARK SMILES IDX 30 36 80 37 31 38 85 39 79 40 81 41 32 42 84 43 78 44 77 45
REMARK SMILES IDX 33 47 65 48 45 49 64 50 46 51 49 52 63 53 82 54 47 55 48 56
REMARK SMILES IDX 62 58 83 59 50 60 34 61 35 62 43 63 36 64 42 65 44 66 41 67
REMARK SMILES IDX 37 68 38 69 39 70 40 71 66 72 67 73 75 74 68 75 74 76 76 77
REMARK SMILES IDX 73 78 69 79 70 80 71 81 72 82 51 83 52 84 60 85 53 86 59 87
REMARK SMILES IDX 61 88 58 89 54 90 55 91 56 92 57 93
REMARK H PARENT 15 7 22 27 81 46 49 57
REMARK Flexibility Score: inf
ROOT
ATOM      1  C   UNL A   1      33.739  26.591  25.579  1.00  0.00     0.002 C 
ENDROOT
BRANCH   1   2
ATOM      2  C   UNL A   1      34.198  25.139  25.746  1.00  0.00     0.021 C 
BRANCH   2   3
ATOM      3  C   UNL A   1      33.093  24.162  26.143  1.00  0.00     0.116 C 
BRANCH   3   4
ATOM      4  N   UNL A   1      33.073  22.982  25.294  1.00  0.00    -0.350 N 
ATOM      5  C   UNL A   1      32.169  22.672  24.306  1.00  0.00     0.294 C 
ATOM      6  O   UNL A   1      32.336  21.634  23.658  1.00  0.00    -0.267 OA
ATOM      7  H   UNL A   1      33.795  22.329  25.443  1.00  0.00     0.163 HD
BRANCH   5   8
ATOM      8  C   UNL A   1      30.995  23.628  24.035  1.00  0.00     0.440 C 
ATOM      9  F   UNL A   1      30.347  23.925  25.199  1.00  0.00    -0.191 F 
BRANCH   8  10
ATOM     10  O   UNL A   1      31.545  24.799  23.423  1.00  0.00    -0.452 OA
BRANCH  10  11
ATOM     11  C   UNL A   1      30.796  25.924  23.277  1.00  0.00     0.123 A 
ATOM     12  C   UNL A   1      29.534  28.454  22.925  1.00  0.00    -0.042 A 
ATOM     13  C   UNL A   1      28.904  27.394  23.603  1.00  0.00     0.008 A 
ATOM     14  C   UNL A   1      30.797  28.183  22.377  1.00  0.00     0.008 A 
ATOM     15  C   UNL A   1      29.522  26.147  23.778  1.00  0.00     0.047 A 
ATOM     16  C   UNL A   1      31.412  26.936  22.546  1.00  0.00     0.047 A 
BRANCH  12  17
ATOM     17  C   UNL A   1      28.840  29.825  22.776  1.00  0.00    -0.011 C 
ATOM     18  C   UNL A   1      29.393  30.793  23.847  1.00  0.00     0.016 C 
ATOM     19  C   UNL A   1      27.306  29.741  23.024  1.00  0.00     0.016 C 
BRANCH  17  20
ATOM     20  C   UNL A   1      28.987  30.421  21.338  1.00  0.00     0.008 C 
ATOM     21  C   UNL A   1      27.959  31.439  20.859  1.00  0.00     0.005 C 
ENDBRANCH  17  20
ENDBRANCH  12  17
ENDBRANCH  10  11
ENDBRANCH   8  10
ENDBRANCH   5   8
ENDBRANCH   3   4
ENDBRANCH   2   3
ENDBRANCH   1   2
BRANCH   1  22
ATOM     22  C   UNL A   1      32.524  26.998  26.418  1.00  0.00     0.002 C 
BRANCH  22  23
ATOM     23  C   UNL A   1      31.843  28.303  25.999  1.00  0.00     0.021 C 
BRANCH  23  24
ATOM     24  C   UNL A   1      32.791  29.415  25.563  1.00  0.00     0.116 C 
BRANCH  24  25
ATOM     25  N   UNL A   1      32.328  30.732  25.976  1.00  0.00    -0.352 N 
ATOM     26  C   UNL A   1      32.842  31.570  26.936  1.00  0.00     0.251 C 
ATOM     27  H   UNL A   1      31.534  31.069  25.502  1.00  0.00     0.163 HD
ATOM     28  O   UNL A   1      32.216  32.569  27.275  1.00  0.00    -0.269 OA
BRANCH  26  29
ATOM     29  C   UNL A   1      34.135  31.245  27.576  1.00  0.00     0.039 A 
ATOM     30  C   UNL A   1      35.065  32.266  27.791  1.00  0.00     0.014 A 
ATOM     31  C   UNL A   1      34.425  29.936  27.972  1.00  0.00     0.014 A 
ATOM     32  C   UNL A   1      36.256  31.989  28.468  1.00  0.00     0.010 A 
ATOM     33  C   UNL A   1      35.579  29.677  28.705  1.00  0.00     0.010 A 
ATOM     34  C   UNL A   1      36.507  30.700  28.961  1.00  0.00    -0.014 A 
BRANCH  34  35
ATOM     35  C   UNL A   1      37.731  30.385  29.744  1.00  0.00     0.031 A 
ATOM     36  C   UNL A   1      38.753  29.436  29.182  1.00  0.00     0.074 A 
ATOM     37  C   UNL A   1      37.869  30.866  30.995  1.00  0.00     0.049 A 
ATOM     38  N   UNL A   1      39.806  28.914  29.756  1.00  0.00    -0.248 NA
ATOM     39  C   UNL A   1      38.532  28.985  27.801  1.00  0.00     0.031 C 
ATOM     40  C   UNL A   1      36.923  31.758  31.666  1.00  0.00     0.029 A 
ATOM     41  N   UNL A   1      38.844  30.647  31.937  1.00  0.00    -0.354 N 
ATOM     42  C   UNL A   1      40.359  28.049  28.816  1.00  0.00     0.074 A 
ATOM     43  C   UNL A   1      39.486  28.079  27.661  1.00  0.00     0.031 C 
ATOM     44  C   UNL A   1      37.361  32.007  32.910  1.00  0.00     0.029 A 
ATOM     45  C   UNL A   1      38.592  31.257  33.144  1.00  0.00     0.049 A 
ATOM     46  H   UNL A   1      39.648  30.105  31.764  1.00  0.00     0.167 HD
ATOM     47  C   UNL A   1      41.495  27.313  28.906  1.00  0.00     0.034 A 
ATOM     48  C   UNL A   1      39.256  31.195  34.315  1.00  0.00     0.034 A 
ATOM     49  C   UNL A   1      42.356  27.313  30.064  1.00  0.00     0.049 A 
ATOM     50  C   UNL A   1      40.511  30.368  34.402  1.00  0.00     0.074 A 
ATOM     51  C   UNL A   1      43.573  26.675  30.234  1.00  0.00     0.029 A 
ATOM     52  N   UNL A   1      42.083  27.968  31.259  1.00  0.00    -0.354 N 
ATOM     53  N   UNL A   1      41.060  29.605  33.485  1.00  0.00    -0.248 NA
ATOM     54  C   UNL A   1      41.243  30.401  35.676  1.00  0.00     0.031 C 
ATOM     55  C   UNL A   1      43.997  26.883  31.551  1.00  0.00     0.029 A 
ATOM     56  C   UNL A   1      43.088  27.719  32.182  1.00  0.00     0.049 A 
ATOM     57  H   UNL A   1      41.292  28.530  31.426  1.00  0.00     0.167 HD
ATOM     58  C   UNL A   1      42.217  29.088  34.062  1.00  0.00     0.074 A 
ATOM     59  C   UNL A   1      42.286  29.628  35.405  1.00  0.00     0.031 C 
ATOM     60  C   UNL A   1      43.141  28.252  33.524  1.00  0.00     0.034 A 
BRANCH  47  61
ATOM     61  C   UNL A   1      41.838  26.424  27.732  1.00  0.00     0.023 A 
ATOM     62  C   UNL A   1      41.360  25.105  27.637  1.00  0.00     0.031 A 
ATOM     63  C   UNL A   1      42.704  26.880  26.723  1.00  0.00     0.131 A 
ATOM     64  C   UNL A   1      41.833  24.258  26.622  1.00  0.00     0.055 A 
ATOM     65  C   UNL A   1      43.094  26.061  25.660  1.00  0.00     0.041 A 
ATOM     66  F   UNL A   1      43.209  28.123  26.764  1.00  0.00    -0.206 F 
ATOM     67  C   UNL A   1      42.677  24.735  25.618  1.00  0.00     0.022 A 
BRANCH  64  68
ATOM     68  S   UNL A   1      41.481  22.483  26.748  1.00  0.00     0.124 S 
ATOM     69  O   UNL A   1      40.020  22.472  26.773  1.00  0.00    -0.237 OA
ATOM     70  O   UNL A   1      42.104  21.953  25.541  1.00  0.00    -0.237 OA
ATOM     71  O   UNL A   1      42.119  22.096  28.005  1.00  0.00    -0.744 OA
ENDBRANCH  64  68
ENDBRANCH  47  61
BRANCH  48  72
ATOM     72  C   UNL A   1      38.724  31.919  35.504  1.00  0.00     0.023 A 
ATOM     73  C   UNL A   1      38.120  31.230  36.567  1.00  0.00     0.031 A 
ATOM     74  C   UNL A   1      38.826  33.320  35.595  1.00  0.00     0.131 A 
ATOM     75  C   UNL A   1      37.618  31.947  37.666  1.00  0.00     0.055 A 
ATOM     76  C   UNL A   1      38.365  34.022  36.708  1.00  0.00     0.041 A 
ATOM     77  F   UNL A   1      39.405  34.023  34.608  1.00  0.00    -0.206 F 
ATOM     78  C   UNL A   1      37.750  33.336  37.750  1.00  0.00     0.022 A 
BRANCH  75  79
ATOM     79  S   UNL A   1      36.751  31.039  38.975  1.00  0.00     0.124 S 
ATOM     80  O   UNL A   1      36.463  29.770  38.315  1.00  0.00    -0.237 OA
ATOM     81  O   UNL A   1      37.753  31.001  40.034  1.00  0.00    -0.237 OA
ATOM     82  O   UNL A   1      35.586  31.876  39.255  1.00  0.00    -0.744 OA
ENDBRANCH  75  79
ENDBRANCH  48  72
BRANCH  60  83
ATOM     83  C   UNL A   1      44.340  27.907  34.373  1.00  0.00     0.023 A 
ATOM     84  C   UNL A   1      44.366  26.769  35.197  1.00  0.00     0.031 A 
ATOM     85  C   UNL A   1      45.486  28.721  34.330  1.00  0.00     0.131 A 
ATOM     86  C   UNL A   1      45.505  26.495  35.971  1.00  0.00     0.055 A 
ATOM     87  C   UNL A   1      46.634  28.414  35.062  1.00  0.00     0.041 A 
ATOM     88  F   UNL A   1      45.513  29.822  33.561  1.00  0.00    -0.206 F 
ATOM     89  C   UNL A   1      46.644  27.300  35.894  1.00  0.00     0.022 A 
BRANCH  86  90
ATOM     90  S   UNL A   1      45.462  25.099  37.129  1.00  0.00     0.124 S 
ATOM     91  O   UNL A   1      46.784  25.175  37.743  1.00  0.00    -0.237 OA
ATOM     92  O   UNL A   1      44.338  25.442  37.994  1.00  0.00    -0.237 OA
ATOM     93  O   UNL A   1      45.247  23.941  36.264  1.00  0.00    -0.744 OA
ENDBRANCH  86  90
ENDBRANCH  60  83
ENDBRANCH  34  35
ENDBRANCH  26  29
ENDBRANCH  24  25
ENDBRANCH  23  24
ENDBRANCH  22  23
ENDBRANCH   1  22
TORSDOF 20
ENDMDL
MODEL 2
REMARK VINA RESULT:     -11.0      5.682     10.975
REMARK SMILES CCC(C)(C)c1ccc(O[C@H](F)C(=O)NCCCCCCNC(=O)c2ccc(-c3c4nc(c(-c5cc(S(=O)(=O)[O-])ccc5F)c5ccc([nH]5)c(-c5cc(S(=O)(=O)[O-])ccc5F)c5nc(c(-c6cc(S(=O)(=O)[O-])ccc6F)c6ccc3[nH]6)C=C5)C=C4)cc2)cc1
REMARK SMILES IDX 18 1 17 2 16 3 15 4 13 5 14 6 11 8 12 9 10 10 9 11 6 12 7 13
REMARK SMILES IDX 89 14 8 15 88 16 3 17 4 18 5 19 2 20 1 21 19 22 20 23 21 24
REMARK SMILES IDX 22 25 23 26 24 28 25 29 26 30 87 31 27 32 86 33 28 34 29 35
REMARK SMILES IDX 30 36 80 37 31 38 85 39 79 40 81 41 32 42 84 43 78 44 77 45
REMARK SMILES IDX 33 47 65 48 45 49 64 50 46 51 49 52 63 53 82 54 47 55 48 56
REMARK SMILES IDX 62 58 83 59 50 60 34 61 35 62 43 63 36 64 42 65 44 66 41 67
REMARK SMILES IDX 37 68 38 69 39 70 40 71 66 72 67 73 75 74 68 75 74 76 76 77
REMARK SMILES IDX 73 78 69 79 70 80 71 81 72 82 51 83 52 84 60 85 53 86 59 87
REMARK SMILES IDX 61 88 58 89 54 90 55 91 56 92 57 93
REMARK H PARENT 15 7 22 27 81 46 49 57
REMARK Flexibility Score: inf
ROOT
ATOM      1  C   UNL A   1      35.885  21.992  24.198  1.00  0.00     0.002 C 
ENDROOT
BRANCH   1   2
ATOM      2  C   UNL A   1      35.382  23.328  23.643  1.00  0.00     0.021 C 
BRANCH   2   3
ATOM      3  C   UNL A   1      34.826  24.288  24.693  1.00  0.00     0.116 C 
BRANCH   3   4
ATOM      4  N   UNL A   1      34.142  25.421  24.091  1.00  0.00    -0.350 N 
ATOM      5  C   UNL A   1      32.815  25.762  24.209  1.00  0.00     0.294 C 
ATOM      6  O   UNL A   1      32.418  26.790  23.651  1.00  0.00    -0.267 OA
ATOM      7  H   UNL A   1      34.695  26.016  23.534  1.00  0.00     0.163 HD
BRANCH   5   8
ATOM      8  C   UNL A   1      31.880  24.864  25.036  1.00  0.00     0.440 C 
ATOM      9  F   UNL A   1      30.935  25.617  25.669  1.00  0.00    -0.191 F 
BRANCH   8  10
ATOM     10  O   UNL A   1      31.289  23.930  24.127  1.00  0.00    -0.452 OA
BRANCH  10  11
ATOM     11  C   UNL A   1      31.707  22.636  24.090  1.00  0.00     0.123 A 
ATOM     12  C   UNL A   1      32.728  19.988  24.330  1.00  0.00    -0.042 A 
ATOM     13  C   UNL A   1      32.426  20.560  23.081  1.00  0.00     0.008 A 
ATOM     14  C   UNL A   1      32.444  20.769  25.461  1.00  0.00     0.008 A 
ATOM     15  C   UNL A   1      31.923  21.864  22.959  1.00  0.00     0.047 A 
ATOM     16  C   UNL A   1      31.936  22.069  25.340  1.00  0.00     0.047 A 
BRANCH  12  17
ATOM     17  C   UNL A   1      33.310  18.561  24.430  1.00  0.00    -0.011 C 
ATOM     18  C   UNL A   1      32.677  17.838  25.640  1.00  0.00     0.016 C 
ATOM     19  C   UNL A   1      34.845  18.566  24.687  1.00  0.00     0.016 C 
BRANCH  17  20
ATOM     20  C   UNL A   1      33.121  17.741  23.112  1.00  0.00     0.008 C 
ATOM     21  C   UNL A   1      34.073  16.586  22.827  1.00  0.00     0.005 C 
ENDBRANCH  17  20
ENDBRANCH  12  17
ENDBRANCH  10  11
ENDBRANCH   8  10
ENDBRANCH   5   8
ENDBRANCH   3   4
ENDBRANCH   2   3
ENDBRANCH   1   2
BRANCH   1  22
ATOM     22  C   UNL A   1      37.369  21.955  24.578  1.00  0.00     0.002 C 
BRANCH  22  23
ATOM     23  C   UNL A   1      37.935  20.566  24.883  1.00  0.00     0.021 C 
BRANCH  23  24
ATOM     24  C   UNL A   1      38.801  20.482  26.135  1.00  0.00     0.116 C 
BRANCH  24  25
ATOM     25  N   UNL A   1      39.834  19.463  26.027  1.00  0.00    -0.352 N 
ATOM     26  C   UNL A   1      41.200  19.608  26.048  1.00  0.00     0.251 C 
ATOM     27  H   UNL A   1      39.508  18.540  25.923  1.00  0.00     0.163 HD
ATOM     28  O   UNL A   1      41.921  18.656  25.766  1.00  0.00    -0.269 OA
BRANCH  26  29
ATOM     29  C   UNL A   1      41.793  20.920  26.384  1.00  0.00     0.039 A 
ATOM     30  C   UNL A   1      41.965  21.869  25.373  1.00  0.00     0.014 A 
ATOM     31  C   UNL A   1      42.168  21.216  27.698  1.00  0.00     0.014 A 
ATOM     32  C   UNL A   1      42.447  23.142  25.691  1.00  0.00     0.010 A 
ATOM     33  C   UNL A   1      42.583  22.505  28.023  1.00  0.00     0.010 A 
ATOM     34  C   UNL A   1      42.727  23.482  27.023  1.00  0.00    -0.014 A 
BRANCH  34  35
ATOM     35  C   UNL A   1      43.176  24.846  27.406  1.00  0.00     0.031 A 
ATOM     36  C   UNL A   1      42.212  25.792  28.065  1.00  0.00     0.074 A 
ATOM     37  C   UNL A   1      44.411  25.265  27.066  1.00  0.00     0.049 A 
ATOM     38  N   UNL A   1      42.353  27.064  28.341  1.00  0.00    -0.248 NA
ATOM     39  C   UNL A   1      40.899  25.239  28.423  1.00  0.00     0.031 C 
ATOM     40  C   UNL A   1      45.420  24.454  26.384  1.00  0.00     0.029 A 
ATOM     41  N   UNL A   1      45.016  26.488  27.220  1.00  0.00    -0.354 N 
ATOM     42  C   UNL A   1      41.135  27.470  28.878  1.00  0.00     0.074 A 
ATOM     43  C   UNL A   1      40.255  26.321  28.832  1.00  0.00     0.031 C 
ATOM     44  C   UNL A   1      46.516  25.201  26.175  1.00  0.00     0.029 A 
ATOM     45  C   UNL A   1      46.273  26.555  26.664  1.00  0.00     0.049 A 
ATOM     46  H   UNL A   1      44.591  27.245  27.685  1.00  0.00     0.167 HD
ATOM     47  C   UNL A   1      40.791  28.685  29.375  1.00  0.00     0.034 A 
ATOM     48  C   UNL A   1      47.121  27.594  26.532  1.00  0.00     0.034 A 
ATOM     49  C   UNL A   1      41.692  29.812  29.424  1.00  0.00     0.049 A 
ATOM     50  C   UNL A   1      46.723  28.938  27.083  1.00  0.00     0.074 A 
ATOM     51  C   UNL A   1      41.481  31.061  29.982  1.00  0.00     0.029 A 
ATOM     52  N   UNL A   1      42.970  29.833  28.878  1.00  0.00    -0.354 N 
ATOM     53  N   UNL A   1      45.592  29.295  27.648  1.00  0.00    -0.248 NA
ATOM     54  C   UNL A   1      47.716  30.016  26.988  1.00  0.00     0.031 C 
ATOM     55  C   UNL A   1      42.598  31.857  29.709  1.00  0.00     0.029 A 
ATOM     56  C   UNL A   1      43.543  31.084  29.052  1.00  0.00     0.049 A 
ATOM     57  H   UNL A   1      43.406  29.070  28.434  1.00  0.00     0.167 HD
ATOM     58  C   UNL A   1      45.749  30.632  28.001  1.00  0.00     0.074 A 
ATOM     59  C   UNL A   1      47.083  31.017  27.587  1.00  0.00     0.031 C 
ATOM     60  C   UNL A   1      44.871  31.461  28.622  1.00  0.00     0.034 A 
BRANCH  47  61
ATOM     61  C   UNL A   1      39.371  28.855  29.866  1.00  0.00     0.023 A 
ATOM     62  C   UNL A   1      38.354  29.354  29.033  1.00  0.00     0.031 A 
ATOM     63  C   UNL A   1      39.041  28.571  31.203  1.00  0.00     0.131 A 
ATOM     64  C   UNL A   1      37.092  29.654  29.569  1.00  0.00     0.055 A 
ATOM     65  C   UNL A   1      37.754  28.781  31.706  1.00  0.00     0.041 A 
ATOM     66  F   UNL A   1      39.970  28.109  32.054  1.00  0.00    -0.206 F 
ATOM     67  C   UNL A   1      36.777  29.347  30.894  1.00  0.00     0.022 A 
BRANCH  64  68
ATOM     68  S   UNL A   1      35.937  30.627  28.562  1.00  0.00     0.124 S 
ATOM     69  O   UNL A   1      35.121  29.578  27.953  1.00  0.00    -0.237 OA
ATOM     70  O   UNL A   1      35.272  31.456  29.559  1.00  0.00    -0.237 OA
ATOM     71  O   UNL A   1      36.811  31.341  27.633  1.00  0.00    -0.744 OA
ENDBRANCH  64  68
ENDBRANCH  47  61
BRANCH  48  72
ATOM     72  C   UNL A   1      48.418  27.404  25.824  1.00  0.00     0.023 A 
ATOM     73  C   UNL A   1      48.508  27.510  24.427  1.00  0.00     0.031 A 
ATOM     74  C   UNL A   1      49.594  27.122  26.544  1.00  0.00     0.131 A 
ATOM     75  C   UNL A   1      49.745  27.310  23.792  1.00  0.00     0.055 A 
ATOM     76  C   UNL A   1      50.827  26.969  25.912  1.00  0.00     0.041 A 
ATOM     77  F   UNL A   1      49.561  27.022  27.883  1.00  0.00    -0.206 F 
ATOM     78  C   UNL A   1      50.907  27.056  24.526  1.00  0.00     0.022 A 
BRANCH  75  79
ATOM     79  S   UNL A   1      49.810  27.350  21.980  1.00  0.00     0.124 S 
ATOM     80  O   UNL A   1      49.538  28.756  21.704  1.00  0.00    -0.237 OA
ATOM     81  O   UNL A   1      51.170  26.895  21.715  1.00  0.00    -0.237 OA
ATOM     82  O   UNL A   1      48.757  26.420  21.581  1.00  0.00    -0.744 OA
ENDBRANCH  75  79
ENDBRANCH  48  72
BRANCH  60  83
ATOM     83  C   UNL A   1      45.344  32.858  28.939  1.00  0.00     0.023 A 
ATOM     84  C   UNL A   1      45.261  33.902  28.003  1.00  0.00     0.031 A 
ATOM     85  C   UNL A   1      45.859  33.151  30.215  1.00  0.00     0.131 A 
ATOM     86  C   UNL A   1      45.720  35.185  28.345  1.00  0.00     0.055 A 
ATOM     87  C   UNL A   1      46.264  34.439  30.566  1.00  0.00     0.041 A 
ATOM     88  F   UNL A   1      45.962  32.189  31.146  1.00  0.00    -0.206 F 
ATOM     89  C   UNL A   1      46.203  35.463  29.627  1.00  0.00     0.022 A 
BRANCH  86  90
ATOM     90  S   UNL A   1      45.730  36.480  27.075  1.00  0.00     0.124 S 
ATOM     91  O   UNL A   1      46.714  37.418  27.609  1.00  0.00    -0.237 OA
ATOM     92  O   UNL A   1      46.133  35.746  25.881  1.00  0.00    -0.237 OA
ATOM     93  O   UNL A   1      44.352  36.966  27.068  1.00  0.00    -0.744 OA
ENDBRANCH  86  90
ENDBRANCH  60  83
ENDBRANCH  34  35
ENDBRANCH  26  29
ENDBRANCH  24  25
ENDBRANCH  23  24
ENDBRANCH  22  23
ENDBRANCH   1  22
TORSDOF 20
ENDMDL
MODEL 3
REMARK VINA RESULT:     -10.8      5.379     10.551
REMARK SMILES CCC(C)(C)c1ccc(O[C@H](F)C(=O)NCCCCCCNC(=O)c2ccc(-c3c4nc(c(-c5cc(S(=O)(=O)[O-])ccc5F)c5ccc([nH]5)c(-c5cc(S(=O)(=O)[O-])ccc5F)c5nc(c(-c6cc(S(=O)(=O)[O-])ccc6F)c6ccc3[nH]6)C=C5)C=C4)cc2)cc1
REMARK SMILES IDX 18 1 17 2 16 3 15 4 13 5 14 6 11 8 12 9 10 10 9 11 6 12 7 13
REMARK SMILES IDX 89 14 8 15 88 16 3 17 4 18 5 19 2 20 1 21 19 22 20 23 21 24
REMARK SMILES IDX 22 25 23 26 24 28 25 29 26 30 87 31 27 32 86 33 28 34 29 35
REMARK SMILES IDX 30 36 80 37 31 38 85 39 79 40 81 41 32 42 84 43 78 44 77 45
REMARK SMILES IDX 33 47 65 48 45 49 64 50 46 51 49 52 63 53 82 54 47 55 48 56
REMARK SMILES IDX 62 58 83 59 50 60 34 61 35 62 43 63 36 64 42 65 44 66 41 67
REMARK SMILES IDX 37 68 38 69 39 70 40 71 66 72 67 73 75 74 68 75 74 76 76 77
REMARK SMILES IDX 73 78 69 79 70 80 71 81 72 82 51 83 52 84 60 85 53 86 59 87
REMARK SMILES IDX 61 88 58 89 54 90 55 91 56 92 57 93
REMARK H PARENT 15 7 22 27 81 46 49 57
REMARK Flexibility Score: inf
ROOT
ATOM      1  C   UNL A   1      35.172  24.057  24.097  1.00  0.00     0.002 C 
ENDROOT
BRANCH   1   2
ATOM      2  C   UNL A   1      33.967  24.565  23.297  1.00  0.00     0.021 C 
BRANCH   2   3
ATOM      3  C   UNL A   1      33.535  25.991  23.631  1.00  0.00     0.116 C 
BRANCH   3   4
ATOM      4  N   UNL A   1      32.100  26.092  23.844  1.00  0.00    -0.350 N 
ATOM      5  C   UNL A   1      31.418  26.008  25.035  1.00  0.00     0.294 C 
ATOM      6  O   UNL A   1      30.192  26.156  25.026  1.00  0.00    -0.267 OA
ATOM      7  H   UNL A   1      31.551  26.240  23.040  1.00  0.00     0.163 HD
BRANCH   5   8
ATOM      8  C   UNL A   1      32.203  25.746  26.332  1.00  0.00     0.440 C 
ATOM      9  F   UNL A   1      32.050  26.789  27.198  1.00  0.00    -0.191 F 
BRANCH   8  10
ATOM     10  O   UNL A   1      31.702  24.524  26.882  1.00  0.00    -0.452 OA
BRANCH  10  11
ATOM     11  C   UNL A   1      32.157  23.322  26.437  1.00  0.00     0.123 A 
ATOM     12  C   UNL A   1      32.774  20.734  25.420  1.00  0.00    -0.042 A 
ATOM     13  C   UNL A   1      33.610  21.392  26.340  1.00  0.00     0.008 A 
ATOM     14  C   UNL A   1      31.645  21.444  24.981  1.00  0.00     0.008 A 
ATOM     15  C   UNL A   1      33.309  22.667  26.844  1.00  0.00     0.047 A 
ATOM     16  C   UNL A   1      31.349  22.720  25.478  1.00  0.00     0.047 A 
BRANCH  12  17
ATOM     17  C   UNL A   1      33.115  19.318  24.909  1.00  0.00    -0.011 C 
ATOM     18  C   UNL A   1      32.412  19.084  23.553  1.00  0.00     0.016 C 
ATOM     19  C   UNL A   1      32.594  18.204  25.862  1.00  0.00     0.016 C 
BRANCH  17  20
ATOM     20  C   UNL A   1      34.656  19.072  24.803  1.00  0.00     0.008 C 
ATOM     21  C   UNL A   1      35.148  17.725  24.287  1.00  0.00     0.005 C 
ENDBRANCH  17  20
ENDBRANCH  12  17
ENDBRANCH  10  11
ENDBRANCH   8  10
ENDBRANCH   5   8
ENDBRANCH   3   4
ENDBRANCH   2   3
ENDBRANCH   1   2
BRANCH   1  22
ATOM     22  C   UNL A   1      36.155  23.179  23.316  1.00  0.00     0.002 C 
BRANCH  22  23
ATOM     23  C   UNL A   1      36.514  21.846  23.978  1.00  0.00     0.021 C 
BRANCH  23  24
ATOM     24  C   UNL A   1      37.150  21.961  25.359  1.00  0.00     0.116 C 
BRANCH  24  25
ATOM     25  N   UNL A   1      38.057  20.859  25.645  1.00  0.00    -0.352 N 
ATOM     26  C   UNL A   1      39.336  20.898  26.146  1.00  0.00     0.251 C 
ATOM     27  H   UNL A   1      37.705  19.961  25.452  1.00  0.00     0.163 HD
ATOM     28  O   UNL A   1      40.020  19.879  26.156  1.00  0.00    -0.269 OA
BRANCH  26  29
ATOM     29  C   UNL A   1      39.891  22.175  26.643  1.00  0.00     0.039 A 
ATOM     30  C   UNL A   1      40.856  22.152  27.654  1.00  0.00     0.014 A 
ATOM     31  C   UNL A   1      39.466  23.393  26.104  1.00  0.00     0.014 A 
ATOM     32  C   UNL A   1      41.447  23.346  28.075  1.00  0.00     0.010 A 
ATOM     33  C   UNL A   1      40.105  24.572  26.476  1.00  0.00     0.010 A 
ATOM     34  C   UNL A   1      41.103  24.562  27.465  1.00  0.00    -0.014 A 
BRANCH  34  35
ATOM     35  C   UNL A   1      41.760  25.840  27.841  1.00  0.00     0.031 A 
ATOM     36  C   UNL A   1      40.973  26.904  28.554  1.00  0.00     0.074 A 
ATOM     37  C   UNL A   1      43.026  26.085  27.448  1.00  0.00     0.049 A 
ATOM     38  N   UNL A   1      41.307  28.137  28.836  1.00  0.00    -0.248 NA
ATOM     39  C   UNL A   1      39.611  26.538  28.967  1.00  0.00     0.031 C 
ATOM     40  C   UNL A   1      43.877  25.149  26.711  1.00  0.00     0.029 A 
ATOM     41  N   UNL A   1      43.807  27.206  27.586  1.00  0.00    -0.354 N 
ATOM     42  C   UNL A   1      40.185  28.704  29.434  1.00  0.00     0.074 A 
ATOM     43  C   UNL A   1      39.149  27.693  29.417  1.00  0.00     0.031 C 
ATOM     44  C   UNL A   1      45.058  25.735  26.459  1.00  0.00     0.029 A 
ATOM     45  C   UNL A   1      45.034  27.102  26.973  1.00  0.00     0.049 A 
ATOM     46  H   UNL A   1      43.516  28.008  28.079  1.00  0.00     0.167 HD
ATOM     47  C   UNL A   1      40.042  29.947  29.960  1.00  0.00     0.034 A 
ATOM     48  C   UNL A   1      46.016  28.011  26.813  1.00  0.00     0.034 A 
ATOM     49  C   UNL A   1      41.097  30.933  29.979  1.00  0.00     0.049 A 
ATOM     50  C   UNL A   1      45.840  29.388  27.395  1.00  0.00     0.074 A 
ATOM     51  C   UNL A   1      41.093  32.189  30.559  1.00  0.00     0.029 A 
ATOM     52  N   UNL A   1      42.339  30.780  29.374  1.00  0.00    -0.354 N 
ATOM     53  N   UNL A   1      44.799  29.893  28.017  1.00  0.00    -0.248 NA
ATOM     54  C   UNL A   1      46.973  30.315  27.266  1.00  0.00     0.031 C 
ATOM     55  C   UNL A   1      42.300  32.822  30.242  1.00  0.00     0.029 A 
ATOM     56  C   UNL A   1      43.094  31.933  29.534  1.00  0.00     0.049 A 
ATOM     57  H   UNL A   1      42.640  29.970  28.901  1.00  0.00     0.167 HD
ATOM     58  C   UNL A   1      45.162  31.188  28.377  1.00  0.00     0.074 A 
ATOM     59  C   UNL A   1      46.518  31.385  27.905  1.00  0.00     0.031 C 
ATOM     60  C   UNL A   1      44.441  32.123  29.047  1.00  0.00     0.034 A 
BRANCH  47  61
ATOM     61  C   UNL A   1      38.685  30.310  30.518  1.00  0.00     0.023 A 
ATOM     62  C   UNL A   1      37.740  31.026  29.763  1.00  0.00     0.031 A 
ATOM     63  C   UNL A   1      38.352  29.988  31.846  1.00  0.00     0.131 A 
ATOM     64  C   UNL A   1      36.561  31.488  30.368  1.00  0.00     0.055 A 
ATOM     65  C   UNL A   1      37.133  30.367  32.414  1.00  0.00     0.041 A 
ATOM     66  F   UNL A   1      39.216  29.321  32.626  1.00  0.00    -0.206 F 
ATOM     67  C   UNL A   1      36.239  31.142  31.681  1.00  0.00     0.022 A 
BRANCH  64  68
ATOM     68  S   UNL A   1      35.554  32.706  29.475  1.00  0.00     0.124 S 
ATOM     69  O   UNL A   1      34.245  32.521  30.100  1.00  0.00    -0.237 OA
ATOM     70  O   UNL A   1      36.235  33.959  29.776  1.00  0.00    -0.237 OA
ATOM     71  O   UNL A   1      35.637  32.264  28.084  1.00  0.00    -0.744 OA
ENDBRANCH  64  68
ENDBRANCH  47  61
BRANCH  48  72
ATOM     72  C   UNL A   1      47.239  27.649  26.042  1.00  0.00     0.023 A 
ATOM     73  C   UNL A   1      47.309  27.838  24.653  1.00  0.00     0.031 A 
ATOM     74  C   UNL A   1      48.366  27.116  26.695  1.00  0.00     0.131 A 
ATOM     75  C   UNL A   1      48.473  27.473  23.958  1.00  0.00     0.055 A 
ATOM     76  C   UNL A   1      49.535  26.796  26.006  1.00  0.00     0.041 A 
ATOM     77  F   UNL A   1      48.352  26.926  28.025  1.00  0.00    -0.206 F 
ATOM     78  C   UNL A   1      49.592  26.967  24.627  1.00  0.00     0.022 A 
BRANCH  75  79
ATOM     79  S   UNL A   1      48.495  27.632  22.151  1.00  0.00     0.124 S 
ATOM     80  O   UNL A   1      48.719  26.252  21.735  1.00  0.00    -0.237 OA
ATOM     81  O   UNL A   1      47.170  28.178  21.878  1.00  0.00    -0.237 OA
ATOM     82  O   UNL A   1      49.605  28.548  21.903  1.00  0.00    -0.744 OA
ENDBRANCH  75  79
ENDBRANCH  48  72
BRANCH  60  83
ATOM     83  C   UNL A   1      45.123  33.433  29.356  1.00  0.00     0.023 A 
ATOM     84  C   UNL A   1      44.968  34.565  28.538  1.00  0.00     0.031 A 
ATOM     85  C   UNL A   1      45.920  33.552  30.509  1.00  0.00     0.131 A 
ATOM     86  C   UNL A   1      45.628  35.759  28.867  1.00  0.00     0.055 A 
ATOM     87  C   UNL A   1      46.532  34.757  30.859  1.00  0.00     0.041 A 
ATOM     88  F   UNL A   1      46.104  32.500  31.323  1.00  0.00    -0.206 F 
ATOM     89  C   UNL A   1      46.394  35.867  30.032  1.00  0.00     0.022 A 
BRANCH  86  90
ATOM     90  S   UNL A   1      45.523  37.163  27.723  1.00  0.00     0.124 S 
ATOM     91  O   UNL A   1      44.387  36.787  26.887  1.00  0.00    -0.237 OA
ATOM     92  O   UNL A   1      45.304  38.288  28.625  1.00  0.00    -0.237 OA
ATOM     93  O   UNL A   1      46.818  37.154  27.047  1.00  0.00    -0.744 OA
ENDBRANCH  86  90
ENDBRANCH  60  83
ENDBRANCH  34  35
ENDBRANCH  26  29
ENDBRANCH  24  25
ENDBRANCH  23  24
ENDBRANCH  22  23
ENDBRANCH   1  22
TORSDOF 20
ENDMDL
