MODEL 1
REMARK VINA RESULT:     -10.4      0.000      0.000
REMARK SMILES CC[C@H]1CC[C@](NC(=O)C[NH2+]CC(F)(F)F)(C(=O)NCCCCCCNC(=O)c2ccc(-c3c4nc(c(-c5cc(S(=O)(=O)[O-])ccc5F)c5ccc([nH]5)c(-c5cc(S(=O)(=O)[O-])ccc5F)c5nc(c(-c6cc(S(=O)(=O)[O-])ccc6F)c6ccc3[nH]6)C=C5)C=C4)cc2)CC1
REMARK SMILES IDX 21 1 20 2 19 3 17 4 18 5 6 7 3 8 93 9 4 10 92 11 5 12 2 13
REMARK SMILES IDX 1 14 7 15 8 16 9 18 10 19 11 20 12 23 13 24 14 25 15 26
REMARK SMILES IDX 16 27 22 28 23 29 24 30 25 31 26 32 27 33 28 35 29 36 30 37
REMARK SMILES IDX 91 38 31 39 90 40 32 41 33 42 34 43 84 44 35 45 89 46 83 47
REMARK SMILES IDX 85 48 36 49 88 50 82 51 81 52 37 54 69 55 49 56 68 57 50 58
REMARK SMILES IDX 53 59 67 60 86 61 51 62 52 63 66 65 87 66 54 67 38 68 39 69
REMARK SMILES IDX 47 70 40 71 46 72 48 73 45 74 41 75 42 76 43 77 44 78 70 79
REMARK SMILES IDX 71 80 79 81 72 82 78 83 80 84 77 85 73 86 74 87 75 88 76 89
REMARK SMILES IDX 55 90 56 91 64 92 57 93 63 94 65 95 62 96 58 97 59 98 60 99
REMARK SMILES IDX 61 100
REMARK H PARENT 19 6 7 17 11 21 11 22 26 34 85 53 53 64
REMARK Flexibility Score: inf
ROOT
ATOM      1  C   UNL A   1      35.276  29.289  27.487  1.00  0.00     0.021 C 
ENDROOT
BRANCH   1   2
ATOM      2  C   UNL A   1      33.981  28.759  26.886  1.00  0.00     0.116 C 
BRANCH   2   3
ATOM      3  N   UNL A   1      33.813  29.236  25.519  1.00  0.00    -0.354 N 
ATOM      4  C   UNL A   1      33.205  28.650  24.447  1.00  0.00     0.245 C 
ATOM      5  O   UNL A   1      33.088  29.328  23.421  1.00  0.00    -0.272 OA
ATOM      6  H   UNL A   1      34.199  30.125  25.340  1.00  0.00     0.163 HD
BRANCH   4   7
ATOM      7  C   UNL A   1      32.780  27.155  24.498  1.00  0.00     0.119 C 
ATOM      8  C   UNL A   1      32.404  24.887  26.490  1.00  0.00    -0.011 C 
ATOM      9  C   UNL A   1      33.497  24.827  25.408  1.00  0.00     0.006 C 
ATOM     10  C   UNL A   1      31.230  25.710  25.973  1.00  0.00     0.006 C 
ATOM     11  C   UNL A   1      33.946  26.229  24.942  1.00  0.00     0.039 C 
ATOM     12  C   UNL A   1      31.693  27.107  25.612  1.00  0.00     0.039 C 
BRANCH   8  13
ATOM     13  C   UNL A   1      31.885  23.511  26.934  1.00  0.00    -0.000 C 
ATOM     14  C   UNL A   1      32.974  22.616  27.500  1.00  0.00     0.004 C 
ENDBRANCH   8  13
BRANCH   7  15
ATOM     15  N   UNL A   1      32.252  26.705  23.189  1.00  0.00    -0.337 N 
ATOM     16  C   UNL A   1      31.115  27.079  22.516  1.00  0.00     0.275 C 
ATOM     17  H   UNL A   1      32.802  26.031  22.728  1.00  0.00     0.164 HD
ATOM     18  O   UNL A   1      31.057  26.828  21.308  1.00  0.00    -0.268 OA
BRANCH  16  19
ATOM     19  C   UNL A   1      29.897  27.677  23.245  1.00  0.00     0.362 C 
BRANCH  19  20
ATOM     20  N   UNL A   1      29.911  29.134  23.053  1.00  0.00    -0.331 N 
ATOM     21  H   UNL A   1      30.132  29.324  22.075  1.00  0.00     0.346 HD
ATOM     22  H   UNL A   1      30.607  29.505  23.699  1.00  0.00     0.346 HD
BRANCH  20  23
ATOM     23  C   UNL A   1      28.637  29.809  23.375  1.00  0.00     0.378 C 
BRANCH  23  24
ATOM     24  C   UNL A   1      28.566  31.328  23.112  1.00  0.00     0.438 C 
ATOM     25  F   UNL A   1      29.169  32.035  24.093  1.00  0.00    -0.165 F 
ATOM     26  F   UNL A   1      29.174  31.643  21.946  1.00  0.00    -0.165 F 
ATOM     27  F   UNL A   1      27.283  31.743  23.032  1.00  0.00    -0.165 F 
ENDBRANCH  23  24
ENDBRANCH  20  23
ENDBRANCH  19  20
ENDBRANCH  16  19
ENDBRANCH   7  15
ENDBRANCH   4   7
ENDBRANCH   2   3
ENDBRANCH   1   2
BRANCH   1  28
ATOM     28  C   UNL A   1      35.052  30.408  28.509  1.00  0.00     0.002 C 
BRANCH  28  29
ATOM     29  C   UNL A   1      35.233  31.825  27.955  1.00  0.00     0.002 C 
BRANCH  29  30
ATOM     30  C   UNL A   1      33.971  32.688  27.955  1.00  0.00     0.021 C 
BRANCH  30  31
ATOM     31  C   UNL A   1      34.238  34.184  27.997  1.00  0.00     0.116 C 
BRANCH  31  32
ATOM     32  N   UNL A   1      33.394  34.873  28.962  1.00  0.00    -0.352 N 
ATOM     33  C   UNL A   1      33.479  34.853  30.331  1.00  0.00     0.251 C 
ATOM     34  H   UNL A   1      32.669  35.420  28.584  1.00  0.00     0.163 HD
ATOM     35  O   UNL A   1      32.603  35.370  31.016  1.00  0.00    -0.269 OA
BRANCH  33  36
ATOM     36  C   UNL A   1      34.626  34.167  30.957  1.00  0.00     0.039 A 
ATOM     37  C   UNL A   1      34.397  33.008  31.700  1.00  0.00     0.014 A 
ATOM     38  C   UNL A   1      35.925  34.636  30.746  1.00  0.00     0.014 A 
ATOM     39  C   UNL A   1      35.486  32.278  32.179  1.00  0.00     0.010 A 
ATOM     40  C   UNL A   1      37.006  33.865  31.154  1.00  0.00     0.010 A 
ATOM     41  C   UNL A   1      36.797  32.679  31.876  1.00  0.00    -0.014 A 
BRANCH  41  42
ATOM     42  C   UNL A   1      37.969  31.880  32.313  1.00  0.00     0.031 A 
ATOM     43  C   UNL A   1      38.645  32.202  33.617  1.00  0.00     0.074 A 
ATOM     44  C   UNL A   1      38.465  30.924  31.503  1.00  0.00     0.049 A 
ATOM     45  N   UNL A   1      39.736  31.697  34.131  1.00  0.00    -0.248 NA
ATOM     46  C   UNL A   1      38.027  33.257  34.435  1.00  0.00     0.031 C 
ATOM     47  C   UNL A   1      37.917  30.556  30.194  1.00  0.00     0.029 A 
ATOM     48  N   UNL A   1      39.547  30.093  31.653  1.00  0.00    -0.354 N 
ATOM     49  C   UNL A   1      39.945  32.384  35.322  1.00  0.00     0.074 A 
ATOM     50  C   UNL A   1      38.904  33.384  35.418  1.00  0.00     0.031 C 
ATOM     51  C   UNL A   1      38.651  29.558  29.675  1.00  0.00     0.029 A 
ATOM     52  C   UNL A   1      39.749  29.249  30.586  1.00  0.00     0.049 A 
ATOM     53  H   UNL A   1      40.124  30.102  32.450  1.00  0.00     0.167 HD
ATOM     54  C   UNL A   1      40.902  32.180  36.261  1.00  0.00     0.034 A 
ATOM     55  C   UNL A   1      40.718  28.340  30.361  1.00  0.00     0.034 A 
ATOM     56  C   UNL A   1      41.919  31.164  36.154  1.00  0.00     0.049 A 
ATOM     57  C   UNL A   1      41.787  28.146  31.408  1.00  0.00     0.074 A 
ATOM     58  C   UNL A   1      42.899  30.825  37.070  1.00  0.00     0.029 A 
ATOM     59  N   UNL A   1      42.091  30.323  35.060  1.00  0.00    -0.354 N 
ATOM     60  N   UNL A   1      41.941  28.769  32.555  1.00  0.00    -0.248 NA
ATOM     61  C   UNL A   1      42.806  27.126  31.135  1.00  0.00     0.031 C 
ATOM     62  C   UNL A   1      43.704  29.831  36.503  1.00  0.00     0.029 A 
ATOM     63  C   UNL A   1      43.182  29.493  35.265  1.00  0.00     0.049 A 
ATOM     64  H   UNL A   1      41.523  30.320  34.257  1.00  0.00     0.167 HD
ATOM     65  C   UNL A   1      43.058  28.193  33.151  1.00  0.00     0.074 A 
ATOM     66  C   UNL A   1      43.529  27.165  32.244  1.00  0.00     0.031 C 
ATOM     67  C   UNL A   1      43.643  28.481  34.342  1.00  0.00     0.034 A 
BRANCH  54  68
ATOM     68  C   UNL A   1      40.899  33.091  37.465  1.00  0.00     0.023 A 
ATOM     69  C   UNL A   1      40.239  32.738  38.656  1.00  0.00     0.031 A 
ATOM     70  C   UNL A   1      41.536  34.343  37.413  1.00  0.00     0.131 A 
ATOM     71  C   UNL A   1      40.162  33.657  39.713  1.00  0.00     0.055 A 
ATOM     72  C   UNL A   1      41.527  35.219  38.500  1.00  0.00     0.041 A 
ATOM     73  F   UNL A   1      42.162  34.746  36.296  1.00  0.00    -0.206 F 
ATOM     74  C   UNL A   1      40.824  34.885  39.654  1.00  0.00     0.022 A 
BRANCH  71  75
ATOM     75  S   UNL A   1      39.059  33.284  41.104  1.00  0.00     0.124 S 
ATOM     76  O   UNL A   1      39.884  33.671  42.246  1.00  0.00    -0.237 OA
ATOM     77  O   UNL A   1      37.907  34.136  40.830  1.00  0.00    -0.237 OA
ATOM     78  O   UNL A   1      38.819  31.849  40.975  1.00  0.00    -0.744 OA
ENDBRANCH  71  75
ENDBRANCH  54  68
BRANCH  55  79
ATOM     79  C   UNL A   1      40.739  27.551  29.096  1.00  0.00     0.023 A 
ATOM     80  C   UNL A   1      41.667  27.838  28.082  1.00  0.00     0.031 A 
ATOM     81  C   UNL A   1      39.806  26.525  28.863  1.00  0.00     0.131 A 
ATOM     82  C   UNL A   1      41.612  27.141  26.864  1.00  0.00     0.055 A 
ATOM     83  C   UNL A   1      39.790  25.798  27.671  1.00  0.00     0.041 A 
ATOM     84  F   UNL A   1      38.898  26.207  29.800  1.00  0.00    -0.206 F 
ATOM     85  C   UNL A   1      40.689  26.114  26.657  1.00  0.00     0.022 A 
BRANCH  82  86
ATOM     86  S   UNL A   1      42.714  27.658  25.519  1.00  0.00     0.124 S 
ATOM     87  O   UNL A   1      42.651  26.506  24.625  1.00  0.00    -0.237 OA
ATOM     88  O   UNL A   1      42.064  28.873  25.044  1.00  0.00    -0.237 OA
ATOM     89  O   UNL A   1      43.997  27.860  26.189  1.00  0.00    -0.744 OA
ENDBRANCH  82  86
ENDBRANCH  55  79
BRANCH  67  90
ATOM     90  C   UNL A   1      44.831  27.643  34.744  1.00  0.00     0.023 A 
ATOM     91  C   UNL A   1      44.678  26.425  35.428  1.00  0.00     0.031 A 
ATOM     92  C   UNL A   1      46.134  28.072  34.434  1.00  0.00     0.131 A 
ATOM     93  C   UNL A   1      45.812  25.702  35.825  1.00  0.00     0.055 A 
ATOM     94  C   UNL A   1      47.256  27.319  34.780  1.00  0.00     0.041 A 
ATOM     95  F   UNL A   1      46.336  29.229  33.784  1.00  0.00    -0.206 F 
ATOM     96  C   UNL A   1      47.099  26.131  35.490  1.00  0.00     0.022 A 
BRANCH  93  97
ATOM     97  S   UNL A   1      45.588  24.226  36.856  1.00  0.00     0.124 S 
ATOM     98  O   UNL A   1      45.002  24.789  38.067  1.00  0.00    -0.237 OA
ATOM     99  O   UNL A   1      44.699  23.406  36.039  1.00  0.00    -0.237 OA
ATOM    100  O   UNL A   1      46.945  23.703  37.007  1.00  0.00    -0.744 OA
ENDBRANCH  93  97
ENDBRANCH  67  90
ENDBRANCH  41  42
ENDBRANCH  33  36
ENDBRANCH  31  32
ENDBRANCH  30  31
ENDBRANCH  29  30
ENDBRANCH  28  29
ENDBRANCH   1  28
TORSDOF 22
ENDMDL
MODEL 2
REMARK VINA RESULT:     -10.3      5.389     10.298
REMARK SMILES CC[C@H]1CC[C@](NC(=O)C[NH2+]CC(F)(F)F)(C(=O)NCCCCCCNC(=O)c2ccc(-c3c4nc(c(-c5cc(S(=O)(=O)[O-])ccc5F)c5ccc([nH]5)c(-c5cc(S(=O)(=O)[O-])ccc5F)c5nc(c(-c6cc(S(=O)(=O)[O-])ccc6F)c6ccc3[nH]6)C=C5)C=C4)cc2)CC1
REMARK SMILES IDX 21 1 20 2 19 3 17 4 18 5 6 7 3 8 93 9 4 10 92 11 5 12 2 13
REMARK SMILES IDX 1 14 7 15 8 16 9 18 10 19 11 20 12 23 13 24 14 25 15 26
REMARK SMILES IDX 16 27 22 28 23 29 24 30 25 31 26 32 27 33 28 35 29 36 30 37
REMARK SMILES IDX 91 38 31 39 90 40 32 41 33 42 34 43 84 44 35 45 89 46 83 47
REMARK SMILES IDX 85 48 36 49 88 50 82 51 81 52 37 54 69 55 49 56 68 57 50 58
REMARK SMILES IDX 53 59 67 60 86 61 51 62 52 63 66 65 87 66 54 67 38 68 39 69
REMARK SMILES IDX 47 70 40 71 46 72 48 73 45 74 41 75 42 76 43 77 44 78 70 79
REMARK SMILES IDX 71 80 79 81 72 82 78 83 80 84 77 85 73 86 74 87 75 88 76 89
REMARK SMILES IDX 55 90 56 91 64 92 57 93 63 94 65 95 62 96 58 97 59 98 60 99
REMARK SMILES IDX 61 100
REMARK H PARENT 19 6 7 17 11 21 11 22 26 34 85 53 53 64
REMARK Flexibility Score: inf
ROOT
ATOM      1  C   UNL A   1      33.704  23.625  25.841  1.00  0.00     0.021 C 
ENDROOT
BRANCH   1   2
ATOM      2  C   UNL A   1      32.379  24.372  25.769  1.00  0.00     0.116 C 
BRANCH   2   3
ATOM      3  N   UNL A   1      31.914  24.466  24.391  1.00  0.00    -0.354 N 
ATOM      4  C   UNL A   1      31.860  25.537  23.548  1.00  0.00     0.245 C 
ATOM      5  O   UNL A   1      31.537  25.321  22.376  1.00  0.00    -0.272 OA
ATOM      6  H   UNL A   1      31.585  23.621  24.006  1.00  0.00     0.163 HD
BRANCH   4   7
ATOM      7  C   UNL A   1      32.096  26.979  24.083  1.00  0.00     0.119 C 
ATOM      8  C   UNL A   1      33.238  28.427  26.501  1.00  0.00    -0.011 C 
ATOM      9  C   UNL A   1      31.739  28.500  26.162  1.00  0.00     0.006 C 
ATOM     10  C   UNL A   1      34.037  28.249  25.215  1.00  0.00     0.006 C 
ATOM     11  C   UNL A   1      31.255  27.275  25.356  1.00  0.00     0.039 C 
ATOM     12  C   UNL A   1      33.596  26.989  24.500  1.00  0.00     0.039 C 
BRANCH   8  13
ATOM     13  C   UNL A   1      33.773  29.660  27.247  1.00  0.00    -0.000 C 
ATOM     14  C   UNL A   1      32.873  30.876  27.113  1.00  0.00     0.004 C 
ENDBRANCH   8  13
BRANCH   7  15
ATOM     15  N   UNL A   1      31.803  27.990  23.041  1.00  0.00    -0.337 N 
ATOM     16  C   UNL A   1      30.629  28.632  22.734  1.00  0.00     0.275 C 
ATOM     17  H   UNL A   1      32.571  28.242  22.479  1.00  0.00     0.164 HD
ATOM     18  O   UNL A   1      30.701  29.666  22.061  1.00  0.00    -0.268 OA
BRANCH  16  19
ATOM     19  C   UNL A   1      29.256  28.037  23.099  1.00  0.00     0.362 C 
BRANCH  19  20
ATOM     20  N   UNL A   1      28.215  28.815  22.413  1.00  0.00    -0.331 N 
ATOM     21  H   UNL A   1      27.569  28.162  21.969  1.00  0.00     0.346 HD
ATOM     22  H   UNL A   1      28.697  29.417  21.745  1.00  0.00     0.346 HD
BRANCH  20  23
ATOM     23  C   UNL A   1      27.434  29.708  23.294  1.00  0.00     0.378 C 
BRANCH  23  24
ATOM     24  C   UNL A   1      27.856  31.191  23.335  1.00  0.00     0.438 C 
ATOM     25  F   UNL A   1      28.974  31.374  24.071  1.00  0.00    -0.165 F 
ATOM     26  F   UNL A   1      28.104  31.655  22.090  1.00  0.00    -0.165 F 
ATOM     27  F   UNL A   1      26.879  31.955  23.872  1.00  0.00    -0.165 F 
ENDBRANCH  23  24
ENDBRANCH  20  23
ENDBRANCH  19  20
ENDBRANCH  16  19
ENDBRANCH   7  15
ENDBRANCH   4   7
ENDBRANCH   2   3
ENDBRANCH   1   2
BRANCH   1  28
ATOM     28  C   UNL A   1      34.368  23.441  24.473  1.00  0.00     0.002 C 
BRANCH  28  29
ATOM     29  C   UNL A   1      35.005  22.065  24.251  1.00  0.00     0.002 C 
BRANCH  29  30
ATOM     30  C   UNL A   1      35.705  21.469  25.473  1.00  0.00     0.021 C 
BRANCH  30  31
ATOM     31  C   UNL A   1      37.046  22.108  25.797  1.00  0.00     0.116 C 
BRANCH  31  32
ATOM     32  N   UNL A   1      38.113  21.127  25.921  1.00  0.00    -0.352 N 
ATOM     33  C   UNL A   1      39.413  21.329  26.310  1.00  0.00     0.251 C 
ATOM     34  H   UNL A   1      37.872  20.199  25.695  1.00  0.00     0.163 HD
ATOM     35  O   UNL A   1      40.236  20.424  26.225  1.00  0.00    -0.269 OA
BRANCH  33  36
ATOM     36  C   UNL A   1      39.803  22.667  26.795  1.00  0.00     0.039 A 
ATOM     37  C   UNL A   1      40.735  22.767  27.829  1.00  0.00     0.014 A 
ATOM     38  C   UNL A   1      39.296  23.814  26.177  1.00  0.00     0.014 A 
ATOM     39  C   UNL A   1      41.212  24.024  28.200  1.00  0.00     0.010 A 
ATOM     40  C   UNL A   1      39.831  25.056  26.494  1.00  0.00     0.010 A 
ATOM     41  C   UNL A   1      40.794  25.173  27.509  1.00  0.00    -0.014 A 
BRANCH  41  42
ATOM     42  C   UNL A   1      41.340  26.514  27.838  1.00  0.00     0.031 A 
ATOM     43  C   UNL A   1      42.745  26.865  27.433  1.00  0.00     0.074 A 
ATOM     44  C   UNL A   1      40.601  27.378  28.562  1.00  0.00     0.049 A 
ATOM     45  N   UNL A   1      43.444  27.934  27.709  1.00  0.00    -0.248 NA
ATOM     46  C   UNL A   1      43.471  25.860  26.640  1.00  0.00     0.031 C 
ATOM     47  C   UNL A   1      39.241  27.127  29.047  1.00  0.00     0.029 A 
ATOM     48  N   UNL A   1      40.890  28.636  29.026  1.00  0.00    -0.354 N 
ATOM     49  C   UNL A   1      44.695  27.725  27.139  1.00  0.00     0.074 A 
ATOM     50  C   UNL A   1      44.677  26.399  26.562  1.00  0.00     0.031 C 
ATOM     51  C   UNL A   1      38.808  28.207  29.718  1.00  0.00     0.029 A 
ATOM     52  C   UNL A   1      39.872  29.205  29.756  1.00  0.00     0.049 A 
ATOM     53  H   UNL A   1      41.747  29.089  28.854  1.00  0.00     0.167 HD
ATOM     54  C   UNL A   1      45.752  28.573  27.082  1.00  0.00     0.034 A 
ATOM     55  C   UNL A   1      39.809  30.390  30.393  1.00  0.00     0.034 A 
ATOM     56  C   UNL A   1      45.742  29.899  27.649  1.00  0.00     0.049 A 
ATOM     57  C   UNL A   1      41.006  31.307  30.337  1.00  0.00     0.074 A 
ATOM     58  C   UNL A   1      46.730  30.866  27.597  1.00  0.00     0.029 A 
ATOM     59  N   UNL A   1      44.691  30.444  28.377  1.00  0.00    -0.354 N 
ATOM     60  N   UNL A   1      42.166  31.116  29.750  1.00  0.00    -0.248 NA
ATOM     61  C   UNL A   1      40.884  32.600  31.023  1.00  0.00     0.031 C 
ATOM     62  C   UNL A   1      46.306  31.966  28.350  1.00  0.00     0.029 A 
ATOM     63  C   UNL A   1      45.022  31.719  28.809  1.00  0.00     0.049 A 
ATOM     64  H   UNL A   1      43.838  29.990  28.562  1.00  0.00     0.167 HD
ATOM     65  C   UNL A   1      42.898  32.278  29.971  1.00  0.00     0.074 A 
ATOM     66  C   UNL A   1      42.045  33.168  30.733  1.00  0.00     0.031 C 
ATOM     67  C   UNL A   1      44.161  32.587  29.579  1.00  0.00     0.034 A 
BRANCH  54  68
ATOM     68  C   UNL A   1      47.006  28.075  26.404  1.00  0.00     0.023 A 
ATOM     69  C   UNL A   1      47.190  28.194  25.014  1.00  0.00     0.031 A 
ATOM     70  C   UNL A   1      48.017  27.443  27.149  1.00  0.00     0.131 A 
ATOM     71  C   UNL A   1      48.316  27.619  24.405  1.00  0.00     0.055 A 
ATOM     72  C   UNL A   1      49.175  26.948  26.546  1.00  0.00     0.041 A 
ATOM     73  F   UNL A   1      47.888  27.279  28.475  1.00  0.00    -0.206 F 
ATOM     74  C   UNL A   1      49.322  27.020  25.164  1.00  0.00     0.022 A 
BRANCH  71  75
ATOM     75  S   UNL A   1      48.369  27.533  22.594  1.00  0.00     0.124 S 
ATOM     76  O   UNL A   1      48.355  26.090  22.367  1.00  0.00    -0.237 OA
ATOM     77  O   UNL A   1      47.159  28.251  22.208  1.00  0.00    -0.237 OA
ATOM     78  O   UNL A   1      49.625  28.198  22.256  1.00  0.00    -0.744 OA
ENDBRANCH  71  75
ENDBRANCH  54  68
BRANCH  55  79
ATOM     79  C   UNL A   1      38.586  30.779  31.152  1.00  0.00     0.023 A 
ATOM     80  C   UNL A   1      37.570  31.534  30.545  1.00  0.00     0.031 A 
ATOM     81  C   UNL A   1      38.432  30.438  32.507  1.00  0.00     0.131 A 
ATOM     82  C   UNL A   1      36.468  31.964  31.303  1.00  0.00     0.055 A 
ATOM     83  C   UNL A   1      37.309  30.822  33.243  1.00  0.00     0.041 A 
ATOM     84  F   UNL A   1      39.373  29.714  33.136  1.00  0.00    -0.206 F 
ATOM     85  C   UNL A   1      36.325  31.601  32.643  1.00  0.00     0.022 A 
BRANCH  82  86
ATOM     86  S   UNL A   1      35.266  33.079  30.530  1.00  0.00     0.124 S 
ATOM     87  O   UNL A   1      35.368  32.699  29.125  1.00  0.00    -0.237 OA
ATOM     88  O   UNL A   1      34.028  32.708  31.206  1.00  0.00    -0.237 OA
ATOM     89  O   UNL A   1      35.777  34.409  30.856  1.00  0.00    -0.744 OA
ENDBRANCH  82  86
ENDBRANCH  55  79
BRANCH  67  90
ATOM     90  C   UNL A   1      44.673  33.960  29.934  1.00  0.00     0.023 A 
ATOM     91  C   UNL A   1      44.445  35.071  29.106  1.00  0.00     0.031 A 
ATOM     92  C   UNL A   1      45.399  34.155  31.123  1.00  0.00     0.131 A 
ATOM     93  C   UNL A   1      44.981  36.320  29.452  1.00  0.00     0.055 A 
ATOM     94  C   UNL A   1      45.880  35.413  31.491  1.00  0.00     0.041 A 
ATOM     95  F   UNL A   1      45.647  33.127  31.950  1.00  0.00    -0.206 F 
ATOM     96  C   UNL A   1      45.681  36.502  30.647  1.00  0.00     0.022 A 
BRANCH  93  97
ATOM     97  S   UNL A   1      44.818  37.693  28.278  1.00  0.00     0.124 S 
ATOM     98  O   UNL A   1      44.170  37.047  27.142  1.00  0.00    -0.237 OA
ATOM     99  O   UNL A   1      43.999  38.646  29.021  1.00  0.00    -0.237 OA
ATOM    100  O   UNL A   1      46.199  38.114  28.048  1.00  0.00    -0.744 OA
ENDBRANCH  93  97
ENDBRANCH  67  90
ENDBRANCH  41  42
ENDBRANCH  33  36
ENDBRANCH  31  32
ENDBRANCH  30  31
ENDBRANCH  29  30
ENDBRANCH  28  29
ENDBRANCH   1  28
TORSDOF 22
ENDMDL
MODEL 3
REMARK VINA RESULT:     -10.2      1.039      7.673
REMARK SMILES CC[C@H]1CC[C@](NC(=O)C[NH2+]CC(F)(F)F)(C(=O)NCCCCCCNC(=O)c2ccc(-c3c4nc(c(-c5cc(S(=O)(=O)[O-])ccc5F)c5ccc([nH]5)c(-c5cc(S(=O)(=O)[O-])ccc5F)c5nc(c(-c6cc(S(=O)(=O)[O-])ccc6F)c6ccc3[nH]6)C=C5)C=C4)cc2)CC1
REMARK SMILES IDX 21 1 20 2 19 3 17 4 18 5 6 7 3 8 93 9 4 10 92 11 5 12 2 13
REMARK SMILES IDX 1 14 7 15 8 16 9 18 10 19 11 20 12 23 13 24 14 25 15 26
REMARK SMILES IDX 16 27 22 28 23 29 24 30 25 31 26 32 27 33 28 35 29 36 30 37
REMARK SMILES IDX 91 38 31 39 90 40 32 41 33 42 34 43 84 44 35 45 89 46 83 47
REMARK SMILES IDX 85 48 36 49 88 50 82 51 81 52 37 54 69 55 49 56 68 57 50 58
REMARK SMILES IDX 53 59 67 60 86 61 51 62 52 63 66 65 87 66 54 67 38 68 39 69
REMARK SMILES IDX 47 70 40 71 46 72 48 73 45 74 41 75 42 76 43 77 44 78 70 79
REMARK SMILES IDX 71 80 79 81 72 82 78 83 80 84 77 85 73 86 74 87 75 88 76 89
REMARK SMILES IDX 55 90 56 91 64 92 57 93 63 94 65 95 62 96 58 97 59 98 60 99
REMARK SMILES IDX 61 100
REMARK H PARENT 19 6 7 17 11 21 11 22 26 34 85 53 53 64
REMARK Flexibility Score: inf
ROOT
ATOM      1  C   UNL A   1      35.539  29.219  27.546  1.00  0.00     0.021 C 
ENDROOT
BRANCH   1   2
ATOM      2  C   UNL A   1      34.329  28.625  26.837  1.00  0.00     0.116 C 
BRANCH   2   3
ATOM      3  N   UNL A   1      34.235  29.121  25.471  1.00  0.00    -0.354 N 
ATOM      4  C   UNL A   1      33.560  28.624  24.394  1.00  0.00     0.245 C 
ATOM      5  O   UNL A   1      33.541  29.312  23.369  1.00  0.00    -0.272 OA
ATOM      6  H   UNL A   1      34.741  29.948  25.295  1.00  0.00     0.163 HD
BRANCH   4   7
ATOM      7  C   UNL A   1      32.933  27.201  24.441  1.00  0.00     0.119 C 
ATOM      8  C   UNL A   1      32.697  24.800  26.292  1.00  0.00    -0.011 C 
ATOM      9  C   UNL A   1      33.479  24.714  24.970  1.00  0.00     0.006 C 
ATOM     10  C   UNL A   1      31.574  25.821  26.148  1.00  0.00     0.006 C 
ATOM     11  C   UNL A   1      34.015  26.088  24.509  1.00  0.00     0.039 C 
ATOM     12  C   UNL A   1      32.148  27.176  25.785  1.00  0.00     0.039 C 
BRANCH   8  13
ATOM     13  C   UNL A   1      32.092  23.463  26.750  1.00  0.00    -0.000 C 
ATOM     14  C   UNL A   1      30.954  22.988  25.864  1.00  0.00     0.004 C 
ENDBRANCH   8  13
BRANCH   7  15
ATOM     15  N   UNL A   1      32.047  26.970  23.277  1.00  0.00    -0.337 N 
ATOM     16  C   UNL A   1      30.955  27.678  22.840  1.00  0.00     0.275 C 
ATOM     17  H   UNL A   1      32.276  26.184  22.730  1.00  0.00     0.164 HD
ATOM     18  O   UNL A   1      30.585  27.499  21.675  1.00  0.00    -0.268 OA
BRANCH  16  19
ATOM     19  C   UNL A   1      30.133  28.573  23.787  1.00  0.00     0.362 C 
BRANCH  19  20
ATOM     20  N   UNL A   1      30.382  29.977  23.431  1.00  0.00    -0.331 N 
ATOM     21  H   UNL A   1      30.761  30.003  22.484  1.00  0.00     0.346 HD
ATOM     22  H   UNL A   1      31.028  30.342  24.130  1.00  0.00     0.346 HD
BRANCH  20  23
ATOM     23  C   UNL A   1      29.186  30.843  23.471  1.00  0.00     0.378 C 
BRANCH  23  24
ATOM     24  C   UNL A   1      28.162  30.673  22.331  1.00  0.00     0.438 C 
ATOM     25  F   UNL A   1      28.761  30.349  21.164  1.00  0.00    -0.165 F 
ATOM     26  F   UNL A   1      27.276  29.694  22.623  1.00  0.00    -0.165 F 
ATOM     27  F   UNL A   1      27.465  31.814  22.135  1.00  0.00    -0.165 F 
ENDBRANCH  23  24
ENDBRANCH  20  23
ENDBRANCH  19  20
ENDBRANCH  16  19
ENDBRANCH   7  15
ENDBRANCH   4   7
ENDBRANCH   2   3
ENDBRANCH   1   2
BRANCH   1  28
ATOM     28  C   UNL A   1      35.172  30.326  28.539  1.00  0.00     0.002 C 
BRANCH  28  29
ATOM     29  C   UNL A   1      35.349  31.751  28.003  1.00  0.00     0.002 C 
BRANCH  29  30
ATOM     30  C   UNL A   1      34.049  32.512  27.742  1.00  0.00     0.021 C 
BRANCH  30  31
ATOM     31  C   UNL A   1      34.221  34.018  27.623  1.00  0.00     0.116 C 
BRANCH  31  32
ATOM     32  N   UNL A   1      33.269  34.752  28.443  1.00  0.00    -0.352 N 
ATOM     33  C   UNL A   1      33.257  34.899  29.807  1.00  0.00     0.251 C 
ATOM     34  H   UNL A   1      32.538  35.199  27.956  1.00  0.00     0.163 HD
ATOM     35  O   UNL A   1      32.304  35.428  30.368  1.00  0.00    -0.269 OA
BRANCH  33  36
ATOM     36  C   UNL A   1      34.398  34.374  30.582  1.00  0.00     0.039 A 
ATOM     37  C   UNL A   1      34.208  33.253  31.390  1.00  0.00     0.014 A 
ATOM     38  C   UNL A   1      35.663  34.954  30.449  1.00  0.00     0.014 A 
ATOM     39  C   UNL A   1      35.310  32.669  32.017  1.00  0.00     0.010 A 
ATOM     40  C   UNL A   1      36.767  34.324  31.009  1.00  0.00     0.010 A 
ATOM     41  C   UNL A   1      36.601  33.176  31.800  1.00  0.00    -0.014 A 
BRANCH  41  42
ATOM     42  C   UNL A   1      37.796  32.529  32.398  1.00  0.00     0.031 A 
ATOM     43  C   UNL A   1      38.484  31.413  31.663  1.00  0.00     0.074 A 
ATOM     44  C   UNL A   1      38.208  32.895  33.628  1.00  0.00     0.049 A 
ATOM     45  N   UNL A   1      39.473  30.652  32.052  1.00  0.00    -0.248 NA
ATOM     46  C   UNL A   1      37.965  31.089  30.325  1.00  0.00     0.031 C 
ATOM     47  C   UNL A   1      37.589  33.936  34.453  1.00  0.00     0.029 A 
ATOM     48  N   UNL A   1      39.238  32.428  34.405  1.00  0.00    -0.354 N 
ATOM     49  C   UNL A   1      39.685  29.749  31.015  1.00  0.00     0.074 A 
ATOM     50  C   UNL A   1      38.676  30.017  30.013  1.00  0.00     0.031 C 
ATOM     51  C   UNL A   1      38.267  34.044  35.608  1.00  0.00     0.029 A 
ATOM     52  C   UNL A   1      39.334  33.048  35.629  1.00  0.00     0.049 A 
ATOM     53  H   UNL A   1      39.850  31.714  34.114  1.00  0.00     0.167 HD
ATOM     54  C   UNL A   1      40.648  28.801  30.901  1.00  0.00     0.034 A 
ATOM     55  C   UNL A   1      40.179  32.831  36.656  1.00  0.00     0.034 A 
ATOM     56  C   UNL A   1      41.655  28.563  31.904  1.00  0.00     0.049 A 
ATOM     57  C   UNL A   1      41.227  31.754  36.517  1.00  0.00     0.074 A 
ATOM     58  C   UNL A   1      42.716  27.676  31.868  1.00  0.00     0.029 A 
ATOM     59  N   UNL A   1      41.725  29.214  33.130  1.00  0.00    -0.354 N 
ATOM     60  N   UNL A   1      41.447  30.942  35.508  1.00  0.00    -0.248 NA
ATOM     61  C   UNL A   1      42.143  31.570  37.649  1.00  0.00     0.031 C 
ATOM     62  C   UNL A   1      43.384  27.739  33.096  1.00  0.00     0.029 A 
ATOM     63  C   UNL A   1      42.789  28.723  33.871  1.00  0.00     0.049 A 
ATOM     64  H   UNL A   1      41.109  29.921  33.430  1.00  0.00     0.167 HD
ATOM     65  C   UNL A   1      42.546  30.172  35.874  1.00  0.00     0.074 A 
ATOM     66  C   UNL A   1      42.951  30.626  37.190  1.00  0.00     0.031 C 
ATOM     67  C   UNL A   1      43.169  29.181  35.187  1.00  0.00     0.034 A 
BRANCH  54  68
ATOM     68  C   UNL A   1      40.634  27.944  29.658  1.00  0.00     0.023 A 
ATOM     69  C   UNL A   1      41.549  28.150  28.609  1.00  0.00     0.031 A 
ATOM     70  C   UNL A   1      39.675  26.928  29.503  1.00  0.00     0.131 A 
ATOM     71  C   UNL A   1      41.433  27.409  27.423  1.00  0.00     0.055 A 
ATOM     72  C   UNL A   1      39.620  26.137  28.353  1.00  0.00     0.041 A 
ATOM     73  F   UNL A   1      38.761  26.698  30.459  1.00  0.00    -0.206 F 
ATOM     74  C   UNL A   1      40.492  26.386  27.298  1.00  0.00     0.022 A 
BRANCH  71  75
ATOM     75  S   UNL A   1      42.432  27.907  25.993  1.00  0.00     0.124 S 
ATOM     76  O   UNL A   1      42.043  26.907  25.000  1.00  0.00    -0.237 OA
ATOM     77  O   UNL A   1      41.971  29.268  25.743  1.00  0.00    -0.237 OA
ATOM     78  O   UNL A   1      43.805  27.792  26.478  1.00  0.00    -0.744 OA
ENDBRANCH  71  75
ENDBRANCH  54  68
BRANCH  55  79
ATOM     79  C   UNL A   1      40.068  33.628  37.911  1.00  0.00     0.023 A 
ATOM     80  C   UNL A   1      39.203  33.233  38.944  1.00  0.00     0.031 A 
ATOM     81  C   UNL A   1      40.794  34.820  38.081  1.00  0.00     0.131 A 
ATOM     82  C   UNL A   1      39.050  34.045  40.079  1.00  0.00     0.055 A 
ATOM     83  C   UNL A   1      40.679  35.598  39.235  1.00  0.00     0.041 A 
ATOM     84  F   UNL A   1      41.638  35.243  37.125  1.00  0.00    -0.206 F 
ATOM     85  C   UNL A   1      39.792  35.217  40.237  1.00  0.00     0.022 A 
BRANCH  82  86
ATOM     86  S   UNL A   1      37.798  33.589  41.309  1.00  0.00     0.124 S 
ATOM     87  O   UNL A   1      38.476  32.527  42.044  1.00  0.00    -0.237 OA
ATOM     88  O   UNL A   1      37.606  34.844  42.027  1.00  0.00    -0.237 OA
ATOM     89  O   UNL A   1      36.662  33.159  40.495  1.00  0.00    -0.744 OA
ENDBRANCH  82  86
ENDBRANCH  55  79
BRANCH  67  90
ATOM     90  C   UNL A   1      44.379  28.554  35.834  1.00  0.00     0.023 A 
ATOM     91  C   UNL A   1      44.259  27.535  36.794  1.00  0.00     0.031 A 
ATOM     92  C   UNL A   1      45.670  28.985  35.481  1.00  0.00     0.131 A 
ATOM     93  C   UNL A   1      45.409  27.014  37.405  1.00  0.00     0.055 A 
ATOM     94  C   UNL A   1      46.813  28.422  36.051  1.00  0.00     0.041 A 
ATOM     95  F   UNL A   1      45.842  29.957  34.572  1.00  0.00    -0.206 F 
ATOM     96  C   UNL A   1      46.685  27.438  37.027  1.00  0.00     0.022 A 
BRANCH  93  97
ATOM     97  S   UNL A   1      45.212  25.826  38.761  1.00  0.00     0.124 S 
ATOM     98  O   UNL A   1      44.565  24.703  38.090  1.00  0.00    -0.237 OA
ATOM     99  O   UNL A   1      46.590  25.605  39.187  1.00  0.00    -0.237 OA
ATOM    100  O   UNL A   1      44.374  26.540  39.725  1.00  0.00    -0.744 OA
ENDBRANCH  93  97
ENDBRANCH  67  90
ENDBRANCH  41  42
ENDBRANCH  33  36
ENDBRANCH  31  32
ENDBRANCH  30  31
ENDBRANCH  29  30
ENDBRANCH  28  29
ENDBRANCH   1  28
TORSDOF 22
ENDMDL
