MODEL 1
REMARK VINA RESULT:     -11.4      0.000      0.000
REMARK SMILES CC[NH+]1CCC2(CC1)OC[C@@H](C(=O)NCCCCCCNC(=O)c1ccc(-c3c4nc(c(-c5cc(S(=O)(=O)[O-])ccc5F)c5ccc([nH]5)c(-c5cc(S(=O)(=O)[O-])ccc5F)c5nc(c(-c6cc(S(=O)(=O)[O-])ccc6F)c6ccc3[nH]6)C=C5)C=C4)cc1)N2C(=O)c1ccc(Cl)c([N+](=O)[O-])c1
REMARK SMILES IDX 17 1 16 2 15 3 14 4 12 5 13 6 11 8 3 9 4 10 8 11 5 13 7 14
REMARK SMILES IDX 6 15 9 16 87 17 10 18 2 19 1 20 88 21 89 22 90 23 91 24
REMARK SMILES IDX 99 25 92 26 95 27 93 28 94 29 96 30 97 31 98 32 18 33 19 34
REMARK SMILES IDX 20 35 21 36 22 37 23 39 24 40 25 41 86 42 26 43 85 44 27 45
REMARK SMILES IDX 28 46 29 47 79 48 30 49 84 50 78 51 80 52 31 53 83 54 77 55
REMARK SMILES IDX 76 56 32 58 64 59 44 60 63 61 45 62 48 63 62 64 81 65 46 66
REMARK SMILES IDX 47 67 61 69 82 70 49 71 33 72 34 73 42 74 35 75 41 76 43 77
REMARK SMILES IDX 40 78 36 79 37 80 38 81 39 82 65 83 66 84 74 85 67 86 73 87
REMARK SMILES IDX 75 88 72 89 68 90 69 91 70 92 71 93 50 94 51 95 59 96 52 97
REMARK SMILES IDX 58 98 60 99 57 100 53 101 54 102 55 103 56 104
REMARK H PARENT 14 7 3 12 21 38 80 57 48 68
REMARK Flexibility Score: inf
ROOT
ATOM      1  C   UNL A   1      33.178  30.762  27.147  1.00  0.00     0.002 C 
ENDROOT
BRANCH   1   2
ATOM      2  C   UNL A   1      31.837  30.836  26.410  1.00  0.00     0.021 C 
BRANCH   2   3
ATOM      3  C   UNL A   1      31.622  29.739  25.375  1.00  0.00     0.116 C 
BRANCH   3   4
ATOM      4  N   UNL A   1      32.799  29.576  24.555  1.00  0.00    -0.354 N 
ATOM      5  C   UNL A   1      33.524  28.459  24.281  1.00  0.00     0.245 C 
ATOM      6  O   UNL A   1      34.441  28.579  23.458  1.00  0.00    -0.273 OA
ATOM      7  H   UNL A   1      33.128  30.399  24.130  1.00  0.00     0.163 HD
BRANCH   5   8
ATOM      8  C   UNL A   1      33.080  27.056  24.735  1.00  0.00     0.203 C 
ATOM      9  N   UNL A   1      32.287  22.095  23.647  1.00  0.00    -0.335 N 
ATOM     10  C   UNL A   1      31.626  22.976  24.604  1.00  0.00     0.267 C 
ATOM     11  C   UNL A   1      33.425  22.631  22.905  1.00  0.00     0.267 C 
ATOM     12  H   UNL A   1      31.583  22.029  22.911  1.00  0.00     0.348 HD
ATOM     13  C   UNL A   1      32.517  23.960  25.329  1.00  0.00     0.120 C 
ATOM     14  C   UNL A   1      34.250  23.733  23.544  1.00  0.00     0.120 C 
ATOM     15  C   UNL A   1      33.476  24.722  24.406  1.00  0.00     0.155 C 
ATOM     16  O   UNL A   1      34.497  25.250  25.303  1.00  0.00    -0.352 OA
ATOM     17  N   UNL A   1      32.912  25.945  23.796  1.00  0.00    -0.295 N 
ATOM     18  C   UNL A   1      34.133  26.568  25.714  1.00  0.00     0.198 C 
BRANCH   9  19
ATOM     19  C   UNL A   1      32.506  20.740  24.156  1.00  0.00     0.258 C 
ATOM     20  C   UNL A   1      33.567  20.752  25.251  1.00  0.00     0.071 C 
ENDBRANCH   9  19
BRANCH  17  21
ATOM     21  C   UNL A   1      32.011  26.174  22.759  1.00  0.00     0.257 C 
ATOM     22  O   UNL A   1      32.258  25.866  21.593  1.00  0.00    -0.269 OA
BRANCH  21  23
ATOM     23  C   UNL A   1      30.676  26.752  22.966  1.00  0.00     0.047 A 
ATOM     24  C   UNL A   1      29.675  26.042  23.631  1.00  0.00     0.016 A 
ATOM     25  C   UNL A   1      30.363  27.973  22.368  1.00  0.00     0.101 A 
ATOM     26  C   UNL A   1      28.408  26.615  23.803  1.00  0.00     0.028 A 
ATOM     27  C   UNL A   1      29.131  28.603  22.642  1.00  0.00     0.288 A 
ATOM     28  C   UNL A   1      28.137  27.914  23.347  1.00  0.00     0.118 A 
ATOM     29  Cl  UNL A   1      26.552  28.510  23.686  1.00  0.00    -0.077 Cl
BRANCH  27  30
ATOM     30  N   UNL A   1      29.002  30.008  22.235  1.00  0.00     0.064 N 
ATOM     31  O   UNL A   1      28.794  30.276  21.046  1.00  0.00    -0.258 OA
ATOM     32  O   UNL A   1      29.061  30.863  23.132  1.00  0.00    -0.258 OA
ENDBRANCH  27  30
ENDBRANCH  21  23
ENDBRANCH  17  21
ENDBRANCH   5   8
ENDBRANCH   3   4
ENDBRANCH   2   3
ENDBRANCH   1   2
BRANCH   1  33
ATOM     33  C   UNL A   1      33.484  31.952  28.058  1.00  0.00     0.002 C 
BRANCH  33  34
ATOM     34  C   UNL A   1      34.825  32.639  27.795  1.00  0.00     0.021 C 
BRANCH  34  35
ATOM     35  C   UNL A   1      34.767  34.164  27.784  1.00  0.00     0.116 C 
BRANCH  35  36
ATOM     36  N   UNL A   1      33.795  34.682  28.731  1.00  0.00    -0.352 N 
ATOM     37  C   UNL A   1      33.770  34.571  30.103  1.00  0.00     0.251 C 
ATOM     38  H   UNL A   1      33.046  35.184  28.336  1.00  0.00     0.163 HD
ATOM     39  O   UNL A   1      32.770  34.885  30.727  1.00  0.00    -0.269 OA
BRANCH  37  40
ATOM     40  C   UNL A   1      34.961  34.039  30.801  1.00  0.00     0.039 A 
ATOM     41  C   UNL A   1      34.837  32.870  31.555  1.00  0.00     0.014 A 
ATOM     42  C   UNL A   1      36.199  34.677  30.682  1.00  0.00     0.014 A 
ATOM     43  C   UNL A   1      35.977  32.293  32.121  1.00  0.00     0.010 A 
ATOM     44  C   UNL A   1      37.341  34.063  31.188  1.00  0.00     0.010 A 
ATOM     45  C   UNL A   1      37.243  32.858  31.901  1.00  0.00    -0.014 A 
BRANCH  45  46
ATOM     46  C   UNL A   1      38.482  32.191  32.376  1.00  0.00     0.031 A 
ATOM     47  C   UNL A   1      39.120  31.107  31.550  1.00  0.00     0.074 A 
ATOM     48  C   UNL A   1      38.984  32.505  33.587  1.00  0.00     0.049 A 
ATOM     49  N   UNL A   1      40.130  30.330  31.844  1.00  0.00    -0.248 NA
ATOM     50  C   UNL A   1      38.523  30.848  30.232  1.00  0.00     0.031 C 
ATOM     51  C   UNL A   1      38.436  33.521  34.489  1.00  0.00     0.029 A 
ATOM     52  N   UNL A   1      40.055  31.994  34.277  1.00  0.00    -0.354 N 
ATOM     53  C   UNL A   1      40.286  29.484  30.753  1.00  0.00     0.074 A 
ATOM     54  C   UNL A   1      39.229  29.806  29.818  1.00  0.00     0.031 C 
ATOM     55  C   UNL A   1      39.185  33.570  35.602  1.00  0.00     0.029 A 
ATOM     56  C   UNL A   1      40.228  32.553  35.523  1.00  0.00     0.049 A 
ATOM     57  H   UNL A   1      40.645  31.294  33.914  1.00  0.00     0.167 HD
ATOM     58  C   UNL A   1      41.237  28.538  30.543  1.00  0.00     0.034 A 
ATOM     59  C   UNL A   1      41.109  32.263  36.502  1.00  0.00     0.034 A 
ATOM     60  C   UNL A   1      42.286  28.233  31.486  1.00  0.00     0.049 A 
ATOM     61  C   UNL A   1      42.116  31.164  36.270  1.00  0.00     0.074 A 
ATOM     62  C   UNL A   1      43.331  27.337  31.350  1.00  0.00     0.029 A 
ATOM     63  N   UNL A   1      42.415  28.804  32.746  1.00  0.00    -0.354 N 
ATOM     64  N   UNL A   1      42.282  30.406  35.211  1.00  0.00    -0.248 NA
ATOM     65  C   UNL A   1      43.055  30.883  37.364  1.00  0.00     0.031 C 
ATOM     66  C   UNL A   1      44.043  27.306  32.554  1.00  0.00     0.029 A 
ATOM     67  C   UNL A   1      43.495  28.243  33.414  1.00  0.00     0.049 A 
ATOM     68  H   UNL A   1      41.827  29.503  33.113  1.00  0.00     0.167 HD
ATOM     69  C   UNL A   1      43.361  29.575  35.504  1.00  0.00     0.074 A 
ATOM     70  C   UNL A   1      43.816  29.939  36.830  1.00  0.00     0.031 C 
ATOM     71  C   UNL A   1      43.926  28.602  34.745  1.00  0.00     0.034 A 
BRANCH  58  72
ATOM     72  C   UNL A   1      41.162  27.748  29.259  1.00  0.00     0.023 A 
ATOM     73  C   UNL A   1      42.104  27.921  28.229  1.00  0.00     0.031 A 
ATOM     74  C   UNL A   1      40.126  26.820  29.052  1.00  0.00     0.131 A 
ATOM     75  C   UNL A   1      41.949  27.236  27.014  1.00  0.00     0.055 A 
ATOM     76  C   UNL A   1      40.026  26.078  27.873  1.00  0.00     0.041 A 
ATOM     77  F   UNL A   1      39.185  26.627  29.990  1.00  0.00    -0.206 F 
ATOM     78  C   UNL A   1      40.931  26.295  26.839  1.00  0.00     0.022 A 
BRANCH  75  79
ATOM     79  S   UNL A   1      43.006  27.702  25.617  1.00  0.00     0.124 S 
ATOM     80  O   UNL A   1      43.508  26.401  25.180  1.00  0.00    -0.237 OA
ATOM     81  O   UNL A   1      42.067  28.361  24.717  1.00  0.00    -0.237 OA
ATOM     82  O   UNL A   1      44.009  28.576  26.223  1.00  0.00    -0.744 OA
ENDBRANCH  75  79
ENDBRANCH  58  72
BRANCH  59  83
ATOM     83  C   UNL A   1      41.065  32.993  37.802  1.00  0.00     0.023 A 
ATOM     84  C   UNL A   1      40.212  32.577  38.835  1.00  0.00     0.031 A 
ATOM     85  C   UNL A   1      41.841  34.147  38.013  1.00  0.00     0.131 A 
ATOM     86  C   UNL A   1      40.118  33.335  40.013  1.00  0.00     0.055 A 
ATOM     87  C   UNL A   1      41.789  34.864  39.210  1.00  0.00     0.041 A 
ATOM     88  F   UNL A   1      42.676  34.590  37.059  1.00  0.00    -0.206 F 
ATOM     89  C   UNL A   1      40.912  34.466  40.213  1.00  0.00     0.022 A 
BRANCH  86  90
ATOM     90  S   UNL A   1      38.871  32.872  41.245  1.00  0.00     0.124 S 
ATOM     91  O   UNL A   1      37.644  33.355  40.620  1.00  0.00    -0.237 OA
ATOM     92  O   UNL A   1      39.033  31.424  41.310  1.00  0.00    -0.237 OA
ATOM     93  O   UNL A   1      39.291  33.598  42.442  1.00  0.00    -0.744 OA
ENDBRANCH  86  90
ENDBRANCH  59  83
BRANCH  71  94
ATOM     94  C   UNL A   1      45.120  27.884  35.326  1.00  0.00     0.023 A 
ATOM     95  C   UNL A   1      44.981  26.685  36.048  1.00  0.00     0.031 A 
ATOM     96  C   UNL A   1      46.414  28.404  35.152  1.00  0.00     0.131 A 
ATOM     97  C   UNL A   1      46.111  26.073  36.611  1.00  0.00     0.055 A 
ATOM     98  C   UNL A   1      47.542  27.758  35.660  1.00  0.00     0.041 A 
ATOM     99  F   UNL A   1      46.606  29.547  34.474  1.00  0.00    -0.206 F 
ATOM    100  C   UNL A   1      47.392  26.592  36.405  1.00  0.00     0.022 A 
BRANCH  97 101
ATOM    101  S   UNL A   1      45.875  24.633  37.688  1.00  0.00     0.124 S 
ATOM    102  O   UNL A   1      46.116  23.526  36.769  1.00  0.00    -0.237 OA
ATOM    103  O   UNL A   1      46.890  24.840  38.716  1.00  0.00    -0.237 OA
ATOM    104  O   UNL A   1      44.493  24.770  38.145  1.00  0.00    -0.744 OA
ENDBRANCH  97 101
ENDBRANCH  71  94
ENDBRANCH  45  46
ENDBRANCH  37  40
ENDBRANCH  35  36
ENDBRANCH  34  35
ENDBRANCH  33  34
ENDBRANCH   1  33
TORSDOF 20
ENDMDL
MODEL 2
REMARK VINA RESULT:     -11.3      1.464      7.519
REMARK SMILES CC[NH+]1CCC2(CC1)OC[C@@H](C(=O)NCCCCCCNC(=O)c1ccc(-c3c4nc(c(-c5cc(S(=O)(=O)[O-])ccc5F)c5ccc([nH]5)c(-c5cc(S(=O)(=O)[O-])ccc5F)c5nc(c(-c6cc(S(=O)(=O)[O-])ccc6F)c6ccc3[nH]6)C=C5)C=C4)cc1)N2C(=O)c1ccc(Cl)c([N+](=O)[O-])c1
REMARK SMILES IDX 17 1 16 2 15 3 14 4 12 5 13 6 11 8 3 9 4 10 8 11 5 13 7 14
REMARK SMILES IDX 6 15 9 16 87 17 10 18 2 19 1 20 88 21 89 22 90 23 91 24
REMARK SMILES IDX 99 25 92 26 95 27 93 28 94 29 96 30 97 31 98 32 18 33 19 34
REMARK SMILES IDX 20 35 21 36 22 37 23 39 24 40 25 41 86 42 26 43 85 44 27 45
REMARK SMILES IDX 28 46 29 47 79 48 30 49 84 50 78 51 80 52 31 53 83 54 77 55
REMARK SMILES IDX 76 56 32 58 64 59 44 60 63 61 45 62 48 63 62 64 81 65 46 66
REMARK SMILES IDX 47 67 61 69 82 70 49 71 33 72 34 73 42 74 35 75 41 76 43 77
REMARK SMILES IDX 40 78 36 79 37 80 38 81 39 82 65 83 66 84 74 85 67 86 73 87
REMARK SMILES IDX 75 88 72 89 68 90 69 91 70 92 71 93 50 94 51 95 59 96 52 97
REMARK SMILES IDX 58 98 60 99 57 100 53 101 54 102 55 103 56 104
REMARK H PARENT 14 7 3 12 21 38 80 57 48 68
REMARK Flexibility Score: inf
ROOT
ATOM      1  C   UNL A   1      33.118  31.051  27.110  1.00  0.00     0.002 C 
ENDROOT
BRANCH   1   2
ATOM      2  C   UNL A   1      31.794  31.056  26.341  1.00  0.00     0.021 C 
BRANCH   2   3
ATOM      3  C   UNL A   1      31.588  29.854  25.427  1.00  0.00     0.116 C 
BRANCH   3   4
ATOM      4  N   UNL A   1      32.778  29.596  24.652  1.00  0.00    -0.354 N 
ATOM      5  C   UNL A   1      33.470  28.439  24.473  1.00  0.00     0.245 C 
ATOM      6  O   UNL A   1      34.411  28.473  23.669  1.00  0.00    -0.273 OA
ATOM      7  H   UNL A   1      33.146  30.377  24.180  1.00  0.00     0.163 HD
BRANCH   5   8
ATOM      8  C   UNL A   1      32.968  27.086  25.011  1.00  0.00     0.203 C 
ATOM      9  N   UNL A   1      32.082  22.080  24.260  1.00  0.00    -0.335 N 
ATOM     10  C   UNL A   1      31.405  23.047  25.118  1.00  0.00     0.267 C 
ATOM     11  C   UNL A   1      33.265  22.529  23.533  1.00  0.00     0.267 C 
ATOM     12  H   UNL A   1      31.409  21.975  23.500  1.00  0.00     0.348 HD
ATOM     13  C   UNL A   1      32.291  24.060  25.807  1.00  0.00     0.120 C 
ATOM     14  C   UNL A   1      34.093  23.655  24.126  1.00  0.00     0.120 C 
ATOM     15  C   UNL A   1      33.311  24.726  24.875  1.00  0.00     0.155 C 
ATOM     16  O   UNL A   1      34.306  25.294  25.775  1.00  0.00    -0.352 OA
ATOM     17  N   UNL A   1      32.809  25.913  24.150  1.00  0.00    -0.295 N 
ATOM     18  C   UNL A   1      33.962  26.648  26.070  1.00  0.00     0.198 C 
BRANCH   9  19
ATOM     19  C   UNL A   1      32.239  20.762  24.879  1.00  0.00     0.258 C 
ATOM     20  C   UNL A   1      32.659  19.734  23.834  1.00  0.00     0.071 C 
ENDBRANCH   9  19
BRANCH  17  21
ATOM     21  C   UNL A   1      31.961  26.084  23.059  1.00  0.00     0.257 C 
ATOM     22  O   UNL A   1      32.258  25.699  21.928  1.00  0.00    -0.269 OA
BRANCH  21  23
ATOM     23  C   UNL A   1      30.627  26.691  23.164  1.00  0.00     0.047 A 
ATOM     24  C   UNL A   1      29.568  26.010  23.766  1.00  0.00     0.016 A 
ATOM     25  C   UNL A   1      30.380  27.909  22.531  1.00  0.00     0.101 A 
ATOM     26  C   UNL A   1      28.304  26.609  23.842  1.00  0.00     0.028 A 
ATOM     27  C   UNL A   1      29.146  28.567  22.709  1.00  0.00     0.288 A 
ATOM     28  C   UNL A   1      28.091  27.907  23.352  1.00  0.00     0.118 A 
ATOM     29  Cl  UNL A   1      26.499  28.537  23.571  1.00  0.00    -0.077 Cl
BRANCH  27  30
ATOM     30  N   UNL A   1      29.073  29.967  22.276  1.00  0.00     0.064 N 
ATOM     31  O   UNL A   1      29.027  30.862  23.127  1.00  0.00    -0.258 OA
ATOM     32  O   UNL A   1      29.111  30.182  21.054  1.00  0.00    -0.258 OA
ENDBRANCH  27  30
ENDBRANCH  21  23
ENDBRANCH  17  21
ENDBRANCH   5   8
ENDBRANCH   3   4
ENDBRANCH   2   3
ENDBRANCH   1   2
BRANCH   1  33
ATOM     33  C   UNL A   1      33.357  32.275  27.997  1.00  0.00     0.002 C 
BRANCH  33  34
ATOM     34  C   UNL A   1      34.777  32.840  27.949  1.00  0.00     0.021 C 
BRANCH  34  35
ATOM     35  C   UNL A   1      34.864  34.355  28.101  1.00  0.00     0.116 C 
BRANCH  35  36
ATOM     36  N   UNL A   1      33.926  34.862  29.088  1.00  0.00    -0.352 N 
ATOM     37  C   UNL A   1      33.877  34.629  30.443  1.00  0.00     0.251 C 
ATOM     38  H   UNL A   1      33.223  35.456  28.737  1.00  0.00     0.163 HD
ATOM     39  O   UNL A   1      32.898  34.965  31.090  1.00  0.00    -0.269 OA
BRANCH  37  40
ATOM     40  C   UNL A   1      35.014  33.943  31.095  1.00  0.00     0.039 A 
ATOM     41  C   UNL A   1      34.798  32.706  31.705  1.00  0.00     0.014 A 
ATOM     42  C   UNL A   1      36.293  34.507  31.072  1.00  0.00     0.014 A 
ATOM     43  C   UNL A   1      35.885  31.994  32.219  1.00  0.00     0.010 A 
ATOM     44  C   UNL A   1      37.382  33.766  31.522  1.00  0.00     0.010 A 
ATOM     45  C   UNL A   1      37.190  32.496  32.088  1.00  0.00    -0.014 A 
BRANCH  45  46
ATOM     46  C   UNL A   1      38.372  31.698  32.502  1.00  0.00     0.031 A 
ATOM     47  C   UNL A   1      39.073  32.004  33.797  1.00  0.00     0.074 A 
ATOM     48  C   UNL A   1      38.859  30.753  31.674  1.00  0.00     0.049 A 
ATOM     49  N   UNL A   1      40.182  31.502  34.275  1.00  0.00    -0.248 NA
ATOM     50  C   UNL A   1      38.459  33.031  34.650  1.00  0.00     0.031 C 
ATOM     51  C   UNL A   1      38.279  30.385  30.379  1.00  0.00     0.029 A 
ATOM     52  N   UNL A   1      39.960  29.940  31.785  1.00  0.00    -0.354 N 
ATOM     53  C   UNL A   1      40.404  32.156  35.482  1.00  0.00     0.074 A 
ATOM     54  C   UNL A   1      39.345  33.131  35.630  1.00  0.00     0.031 C 
ATOM     55  C   UNL A   1      39.017  29.409  29.828  1.00  0.00     0.029 A 
ATOM     56  C   UNL A   1      40.155  29.121  30.695  1.00  0.00     0.049 A 
ATOM     57  H   UNL A   1      40.554  29.942  32.570  1.00  0.00     0.167 HD
ATOM     58  C   UNL A   1      41.391  31.946  36.389  1.00  0.00     0.034 A 
ATOM     59  C   UNL A   1      41.151  28.256  30.413  1.00  0.00     0.034 A 
ATOM     60  C   UNL A   1      42.436  30.966  36.226  1.00  0.00     0.049 A 
ATOM     61  C   UNL A   1      42.270  28.088  31.410  1.00  0.00     0.074 A 
ATOM     62  C   UNL A   1      43.450  30.633  37.107  1.00  0.00     0.029 A 
ATOM     63  N   UNL A   1      42.615  30.172  35.099  1.00  0.00    -0.354 N 
ATOM     64  N   UNL A   1      42.438  28.678  32.570  1.00  0.00    -0.248 NA
ATOM     65  C   UNL A   1      43.332  27.135  31.059  1.00  0.00     0.031 C 
ATOM     66  C   UNL A   1      44.285  29.699  36.484  1.00  0.00     0.029 A 
ATOM     67  C   UNL A   1      43.748  29.385  35.246  1.00  0.00     0.049 A 
ATOM     68  H   UNL A   1      42.024  30.168  34.312  1.00  0.00     0.167 HD
ATOM     69  C   UNL A   1      43.613  28.149  33.098  1.00  0.00     0.074 A 
ATOM     70  C   UNL A   1      44.100  27.179  32.138  1.00  0.00     0.031 C 
ATOM     71  C   UNL A   1      44.233  28.435  34.272  1.00  0.00     0.034 A 
BRANCH  58  72
ATOM     72  C   UNL A   1      41.398  32.817  37.623  1.00  0.00     0.023 A 
ATOM     73  C   UNL A   1      40.676  32.469  38.777  1.00  0.00     0.031 A 
ATOM     74  C   UNL A   1      42.124  34.021  37.641  1.00  0.00     0.131 A 
ATOM     75  C   UNL A   1      40.633  33.348  39.871  1.00  0.00     0.055 A 
ATOM     76  C   UNL A   1      42.146  34.851  38.764  1.00  0.00     0.041 A 
ATOM     77  F   UNL A   1      42.816  34.418  36.561  1.00  0.00    -0.206 F 
ATOM     78  C   UNL A   1      41.385  34.525  39.882  1.00  0.00     0.022 A 
BRANCH  75  79
ATOM     79  S   UNL A   1      39.464  33.003  41.213  1.00  0.00     0.124 S 
ATOM     80  O   UNL A   1      39.794  31.619  41.543  1.00  0.00    -0.237 OA
ATOM     81  O   UNL A   1      39.827  34.002  42.211  1.00  0.00    -0.237 OA
ATOM     82  O   UNL A   1      38.157  33.191  40.587  1.00  0.00    -0.744 OA
ENDBRANCH  75  79
ENDBRANCH  58  72
BRANCH  59  83
ATOM     83  C   UNL A   1      41.160  27.506  29.124  1.00  0.00     0.023 A 
ATOM     84  C   UNL A   1      42.130  27.766  28.144  1.00  0.00     0.031 A 
ATOM     85  C   UNL A   1      40.169  26.550  28.832  1.00  0.00     0.131 A 
ATOM     86  C   UNL A   1      42.062  27.116  26.901  1.00  0.00     0.055 A 
ATOM     87  C   UNL A   1      40.141  25.863  27.618  1.00  0.00     0.041 A 
ATOM     88  F   UNL A   1      39.217  26.261  29.734  1.00  0.00    -0.206 F 
ATOM     89  C   UNL A   1      41.083  26.155  26.638  1.00  0.00     0.022 A 
BRANCH  86  90
ATOM     90  S   UNL A   1      43.219  27.615  25.597  1.00  0.00     0.124 S 
ATOM     91  O   UNL A   1      43.898  28.745  26.221  1.00  0.00    -0.237 OA
ATOM     92  O   UNL A   1      44.014  26.405  25.419  1.00  0.00    -0.237 OA
ATOM     93  O   UNL A   1      42.342  27.954  24.478  1.00  0.00    -0.744 OA
ENDBRANCH  86  90
ENDBRANCH  59  83
BRANCH  71  94
ATOM     94  C   UNL A   1      45.492  27.665  34.590  1.00  0.00     0.023 A 
ATOM     95  C   UNL A   1      46.762  28.142  34.222  1.00  0.00     0.031 A 
ATOM     96  C   UNL A   1      45.419  26.440  35.275  1.00  0.00     0.131 A 
ATOM     97  C   UNL A   1      47.904  27.374  34.496  1.00  0.00     0.055 A 
ATOM     98  C   UNL A   1      46.562  25.710  35.601  1.00  0.00     0.041 A 
ATOM     99  F   UNL A   1      44.231  25.935  35.648  1.00  0.00    -0.206 F 
ATOM    100  C   UNL A   1      47.813  26.171  35.201  1.00  0.00     0.022 A 
BRANCH  97 101
ATOM    101  S   UNL A   1      49.503  27.929  33.847  1.00  0.00     0.124 S 
ATOM    102  O   UNL A   1      49.375  29.380  33.925  1.00  0.00    -0.237 OA
ATOM    103  O   UNL A   1      50.448  27.321  34.778  1.00  0.00    -0.237 OA
ATOM    104  O   UNL A   1      49.531  27.382  32.491  1.00  0.00    -0.744 OA
ENDBRANCH  97 101
ENDBRANCH  71  94
ENDBRANCH  45  46
ENDBRANCH  37  40
ENDBRANCH  35  36
ENDBRANCH  34  35
ENDBRANCH  33  34
ENDBRANCH   1  33
TORSDOF 20
ENDMDL
MODEL 3
REMARK VINA RESULT:     -10.7      1.836      7.493
REMARK SMILES CC[NH+]1CCC2(CC1)OC[C@@H](C(=O)NCCCCCCNC(=O)c1ccc(-c3c4nc(c(-c5cc(S(=O)(=O)[O-])ccc5F)c5ccc([nH]5)c(-c5cc(S(=O)(=O)[O-])ccc5F)c5nc(c(-c6cc(S(=O)(=O)[O-])ccc6F)c6ccc3[nH]6)C=C5)C=C4)cc1)N2C(=O)c1ccc(Cl)c([N+](=O)[O-])c1
REMARK SMILES IDX 17 1 16 2 15 3 14 4 12 5 13 6 11 8 3 9 4 10 8 11 5 13 7 14
REMARK SMILES IDX 6 15 9 16 87 17 10 18 2 19 1 20 88 21 89 22 90 23 91 24
REMARK SMILES IDX 99 25 92 26 95 27 93 28 94 29 96 30 97 31 98 32 18 33 19 34
REMARK SMILES IDX 20 35 21 36 22 37 23 39 24 40 25 41 86 42 26 43 85 44 27 45
REMARK SMILES IDX 28 46 29 47 79 48 30 49 84 50 78 51 80 52 31 53 83 54 77 55
REMARK SMILES IDX 76 56 32 58 64 59 44 60 63 61 45 62 48 63 62 64 81 65 46 66
REMARK SMILES IDX 47 67 61 69 82 70 49 71 33 72 34 73 42 74 35 75 41 76 43 77
REMARK SMILES IDX 40 78 36 79 37 80 38 81 39 82 65 83 66 84 74 85 67 86 73 87
REMARK SMILES IDX 75 88 72 89 68 90 69 91 70 92 71 93 50 94 51 95 59 96 52 97
REMARK SMILES IDX 58 98 60 99 57 100 53 101 54 102 55 103 56 104
REMARK H PARENT 14 7 3 12 21 38 80 57 48 68
REMARK Flexibility Score: inf
ROOT
ATOM      1  C   UNL A   1      33.295  30.913  27.004  1.00  0.00     0.002 C 
ENDROOT
BRANCH   1   2
ATOM      2  C   UNL A   1      31.859  30.804  26.486  1.00  0.00     0.021 C 
BRANCH   2   3
ATOM      3  C   UNL A   1      31.648  29.733  25.423  1.00  0.00     0.116 C 
BRANCH   3   4
ATOM      4  N   UNL A   1      32.839  29.570  24.623  1.00  0.00    -0.354 N 
ATOM      5  C   UNL A   1      33.562  28.452  24.349  1.00  0.00     0.245 C 
ATOM      6  O   UNL A   1      34.494  28.575  23.544  1.00  0.00    -0.273 OA
ATOM      7  H   UNL A   1      33.181  30.397  24.212  1.00  0.00     0.163 HD
BRANCH   5   8
ATOM      8  C   UNL A   1      33.102  27.047  24.781  1.00  0.00     0.203 C 
ATOM      9  N   UNL A   1      32.281  22.107  23.621  1.00  0.00    -0.335 N 
ATOM     10  C   UNL A   1      31.616  22.982  24.582  1.00  0.00     0.267 C 
ATOM     11  C   UNL A   1      33.432  22.643  22.900  1.00  0.00     0.267 C 
ATOM     12  H   UNL A   1      31.586  22.056  22.877  1.00  0.00     0.348 HD
ATOM     13  C   UNL A   1      32.507  23.949  25.330  1.00  0.00     0.120 C 
ATOM     14  C   UNL A   1      34.259  23.730  23.562  1.00  0.00     0.120 C 
ATOM     15  C   UNL A   1      33.483  24.715  24.427  1.00  0.00     0.155 C 
ATOM     16  O   UNL A   1      34.497  25.222  25.342  1.00  0.00    -0.352 OA
ATOM     17  N   UNL A   1      32.936  25.950  23.826  1.00  0.00    -0.295 N 
ATOM     18  C   UNL A   1      34.139  26.539  25.766  1.00  0.00     0.198 C 
BRANCH   9  19
ATOM     19  C   UNL A   1      32.483  20.744  24.117  1.00  0.00     0.258 C 
ATOM     20  C   UNL A   1      33.018  20.774  25.544  1.00  0.00     0.071 C 
ENDBRANCH   9  19
BRANCH  17  21
ATOM     21  C   UNL A   1      32.049  26.198  22.782  1.00  0.00     0.257 C 
ATOM     22  O   UNL A   1      32.312  25.914  21.613  1.00  0.00    -0.269 OA
BRANCH  21  23
ATOM     23  C   UNL A   1      30.711  26.772  22.982  1.00  0.00     0.047 A 
ATOM     24  C   UNL A   1      29.710  26.061  23.645  1.00  0.00     0.016 A 
ATOM     25  C   UNL A   1      30.395  27.990  22.379  1.00  0.00     0.101 A 
ATOM     26  C   UNL A   1      28.440  26.629  23.810  1.00  0.00     0.028 A 
ATOM     27  C   UNL A   1      29.160  28.617  22.646  1.00  0.00     0.288 A 
ATOM     28  C   UNL A   1      28.165  27.926  23.349  1.00  0.00     0.118 A 
ATOM     29  Cl  UNL A   1      26.578  28.516  23.681  1.00  0.00    -0.077 Cl
BRANCH  27  30
ATOM     30  N   UNL A   1      29.027  30.019  22.234  1.00  0.00     0.064 N 
ATOM     31  O   UNL A   1      28.860  30.890  23.096  1.00  0.00    -0.258 OA
ATOM     32  O   UNL A   1      29.140  30.264  21.023  1.00  0.00    -0.258 OA
ENDBRANCH  27  30
ENDBRANCH  21  23
ENDBRANCH  17  21
ENDBRANCH   5   8
ENDBRANCH   3   4
ENDBRANCH   2   3
ENDBRANCH   1   2
BRANCH   1  33
ATOM     33  C   UNL A   1      33.538  32.040  28.011  1.00  0.00     0.002 C 
BRANCH  33  34
ATOM     34  C   UNL A   1      34.978  32.549  28.076  1.00  0.00     0.021 C 
BRANCH  34  35
ATOM     35  C   UNL A   1      35.112  34.053  28.291  1.00  0.00     0.116 C 
BRANCH  35  36
ATOM     36  N   UNL A   1      33.993  34.602  29.039  1.00  0.00    -0.352 N 
ATOM     37  C   UNL A   1      33.757  34.580  30.394  1.00  0.00     0.251 C 
ATOM     38  H   UNL A   1      33.304  35.052  28.498  1.00  0.00     0.163 HD
ATOM     39  O   UNL A   1      32.665  34.903  30.834  1.00  0.00    -0.269 OA
BRANCH  37  40
ATOM     40  C   UNL A   1      34.835  34.135  31.304  1.00  0.00     0.039 A 
ATOM     41  C   UNL A   1      34.863  32.802  31.718  1.00  0.00     0.014 A 
ATOM     42  C   UNL A   1      35.830  35.025  31.716  1.00  0.00     0.014 A 
ATOM     43  C   UNL A   1      35.940  32.341  32.480  1.00  0.00     0.010 A 
ATOM     44  C   UNL A   1      36.936  34.548  32.415  1.00  0.00     0.010 A 
ATOM     45  C   UNL A   1      37.008  33.198  32.792  1.00  0.00    -0.014 A 
BRANCH  45  46
ATOM     46  C   UNL A   1      38.225  32.699  33.481  1.00  0.00     0.031 A 
ATOM     47  C   UNL A   1      38.451  33.010  34.935  1.00  0.00     0.074 A 
ATOM     48  C   UNL A   1      39.163  32.036  32.776  1.00  0.00     0.049 A 
ATOM     49  N   UNL A   1      39.498  32.766  35.680  1.00  0.00    -0.248 NA
ATOM     50  C   UNL A   1      37.365  33.714  35.633  1.00  0.00     0.031 C 
ATOM     51  C   UNL A   1      39.067  31.698  31.353  1.00  0.00     0.029 A 
ATOM     52  N   UNL A   1      40.387  31.540  33.150  1.00  0.00    -0.354 N 
ATOM     53  C   UNL A   1      39.202  33.292  36.932  1.00  0.00     0.074 A 
ATOM     54  C   UNL A   1      37.902  33.920  36.826  1.00  0.00     0.031 C 
ATOM     55  C   UNL A   1      40.175  31.037  30.982  1.00  0.00     0.029 A 
ATOM     56  C   UNL A   1      41.086  30.953  32.119  1.00  0.00     0.049 A 
ATOM     57  H   UNL A   1      40.733  31.599  34.070  1.00  0.00     0.167 HD
ATOM     58  C   UNL A   1      39.941  33.238  38.069  1.00  0.00     0.034 A 
ATOM     59  C   UNL A   1      42.329  30.431  32.085  1.00  0.00     0.034 A 
ATOM     60  C   UNL A   1      41.234  32.604  38.156  1.00  0.00     0.049 A 
ATOM     61  C   UNL A   1      43.155  30.440  33.347  1.00  0.00     0.074 A 
ATOM     62  C   UNL A   1      42.040  32.442  39.269  1.00  0.00     0.029 A 
ATOM     63  N   UNL A   1      41.919  32.041  37.087  1.00  0.00    -0.354 N 
ATOM     64  N   UNL A   1      42.841  30.897  34.537  1.00  0.00    -0.248 NA
ATOM     65  C   UNL A   1      44.503  29.862  33.261  1.00  0.00     0.031 C 
ATOM     66  C   UNL A   1      43.242  31.856  38.860  1.00  0.00     0.029 A 
ATOM     67  C   UNL A   1      43.156  31.574  37.506  1.00  0.00     0.049 A 
ATOM     68  H   UNL A   1      41.577  31.981  36.165  1.00  0.00     0.167 HD
ATOM     69  C   UNL A   1      43.943  30.638  35.346  1.00  0.00     0.074 A 
ATOM     70  C   UNL A   1      44.921  29.969  34.514  1.00  0.00     0.031 C 
ATOM     71  C   UNL A   1      44.130  30.925  36.660  1.00  0.00     0.034 A 
BRANCH  58  72
ATOM     72  C   UNL A   1      39.377  33.910  39.299  1.00  0.00     0.023 A 
ATOM     73  C   UNL A   1      38.565  33.217  40.212  1.00  0.00     0.031 A 
ATOM     74  C   UNL A   1      39.641  35.268  39.553  1.00  0.00     0.131 A 
ATOM     75  C   UNL A   1      37.984  33.899  41.293  1.00  0.00     0.055 A 
ATOM     76  C   UNL A   1      39.129  35.920  40.677  1.00  0.00     0.041 A 
ATOM     77  F   UNL A   1      40.392  35.988  38.705  1.00  0.00    -0.206 F 
ATOM     78  C   UNL A   1      38.283  35.240  41.547  1.00  0.00     0.022 A 
BRANCH  75  79
ATOM     79  S   UNL A   1      36.719  33.048  42.274  1.00  0.00     0.124 S 
ATOM     80  O   UNL A   1      36.474  31.855  41.468  1.00  0.00    -0.237 OA
ATOM     81  O   UNL A   1      37.399  32.831  43.546  1.00  0.00    -0.237 OA
ATOM     82  O   UNL A   1      35.614  34.003  42.311  1.00  0.00    -0.744 OA
ENDBRANCH  75  79
ENDBRANCH  58  72
BRANCH  59  83
ATOM     83  C   UNL A   1      42.887  29.886  30.814  1.00  0.00     0.023 A 
ATOM     84  C   UNL A   1      43.670  30.685  29.968  1.00  0.00     0.031 A 
ATOM     85  C   UNL A   1      42.605  28.570  30.402  1.00  0.00     0.131 A 
ATOM     86  C   UNL A   1      44.104  30.180  28.731  1.00  0.00     0.055 A 
ATOM     87  C   UNL A   1      43.089  28.053  29.200  1.00  0.00     0.041 A 
ATOM     88  F   UNL A   1      41.862  27.761  31.173  1.00  0.00    -0.206 F 
ATOM     89  C   UNL A   1      43.832  28.865  28.349  1.00  0.00     0.022 A 
BRANCH  86  90
ATOM     90  S   UNL A   1      44.952  31.301  27.586  1.00  0.00     0.124 S 
ATOM     91  O   UNL A   1      46.064  31.774  28.404  1.00  0.00    -0.237 OA
ATOM     92  O   UNL A   1      45.297  30.407  26.487  1.00  0.00    -0.237 OA
ATOM     93  O   UNL A   1      43.935  32.304  27.277  1.00  0.00    -0.744 OA
ENDBRANCH  86  90
ENDBRANCH  59  83
BRANCH  71  94
ATOM     94  C   UNL A   1      45.435  30.486  37.280  1.00  0.00     0.023 A 
ATOM     95  C   UNL A   1      45.576  29.225  37.886  1.00  0.00     0.031 A 
ATOM     96  C   UNL A   1      46.552  31.339  37.261  1.00  0.00     0.131 A 
ATOM     97  C   UNL A   1      46.792  28.873  38.492  1.00  0.00     0.055 A 
ATOM     98  C   UNL A   1      47.778  30.959  37.809  1.00  0.00     0.041 A 
ATOM     99  F   UNL A   1      46.472  32.556  36.698  1.00  0.00    -0.206 F 
ATOM    100  C   UNL A   1      47.899  29.724  38.440  1.00  0.00     0.022 A 
BRANCH  97 101
ATOM    101  S   UNL A   1      46.884  27.319  39.422  1.00  0.00     0.124 S 
ATOM    102  O   UNL A   1      48.254  26.892  39.164  1.00  0.00    -0.237 OA
ATOM    103  O   UNL A   1      46.597  27.752  40.786  1.00  0.00    -0.237 OA
ATOM    104  O   UNL A   1      45.850  26.489  38.805  1.00  0.00    -0.744 OA
ENDBRANCH  97 101
ENDBRANCH  71  94
ENDBRANCH  45  46
ENDBRANCH  37  40
ENDBRANCH  35  36
ENDBRANCH  34  35
ENDBRANCH  33  34
ENDBRANCH   1  33
TORSDOF 20
ENDMDL
