MODEL 1
REMARK VINA RESULT:     -10.6      0.000      0.000
REMARK SMILES Cc1cc(Br)cc([N+](=O)[O-])c1OCCC[C@@](C)([NH3+])C(=O)NCCCCCCNC(=O)c1ccc(-c2c3nc(c(-c4cc(S(=O)(=O)[O-])ccc4F)c4ccc([nH]4)c(-c4cc(S(=O)(=O)[O-])ccc4F)c4nc(c(-c5cc(S(=O)(=O)[O-])ccc5F)c5ccc2[nH]5)C=C4)C=C3)cc1
REMARK SMILES IDX 23 1 22 2 21 3 19 4 20 5 16 7 17 8 15 9 14 10 13 11 12 12
REMARK SMILES IDX 11 13 1 14 2 15 3 16 4 17 7 18 5 19 6 20 8 21 9 22 10 23
REMARK SMILES IDX 18 24 24 28 25 29 26 30 27 31 28 32 29 33 30 35 31 36 32 37
REMARK SMILES IDX 93 38 33 39 92 40 34 41 35 42 36 43 86 44 37 45 91 46 85 47
REMARK SMILES IDX 87 48 38 49 90 50 84 51 83 52 39 54 71 55 51 56 70 57 52 58
REMARK SMILES IDX 55 59 69 60 88 61 53 62 54 63 68 65 89 66 56 67 40 68 41 69
REMARK SMILES IDX 49 70 42 71 48 72 50 73 47 74 43 75 44 76 45 77 46 78 72 79
REMARK SMILES IDX 73 80 81 81 74 82 80 83 82 84 79 85 75 86 76 87 77 88 78 89
REMARK SMILES IDX 57 90 58 91 66 92 59 93 65 94 67 95 64 96 60 97 61 98 62 99
REMARK SMILES IDX 63 100
REMARK H PARENT 21 6 18 25 18 26 18 27 28 34 87 53 55 64
REMARK Flexibility Score: inf
ROOT
ATOM      1  C   UNL A   1      33.626  28.265  26.734  1.00  0.00     0.021 C 
ENDROOT
BRANCH   1   2
ATOM      2  C   UNL A   1      32.812  27.520  25.674  1.00  0.00     0.116 C 
BRANCH   2   3
ATOM      3  N   UNL A   1      33.425  27.609  24.362  1.00  0.00    -0.351 N 
ATOM      4  C   UNL A   1      32.958  27.413  23.103  1.00  0.00     0.280 C 
ATOM      5  O   UNL A   1      33.634  27.958  22.220  1.00  0.00    -0.268 OA
ATOM      6  H   UNL A   1      34.375  27.862  24.391  1.00  0.00     0.163 HD
BRANCH   4   7
ATOM      7  C   UNL A   1      31.670  26.611  22.733  1.00  0.00     0.171 C 
ATOM      8  C   UNL A   1      31.933  26.019  21.340  1.00  0.00     0.090 C 
BRANCH   7   9
ATOM      9  C   UNL A   1      31.294  25.485  23.763  1.00  0.00     0.082 C 
BRANCH   9  10
ATOM     10  C   UNL A   1      31.060  24.033  23.295  1.00  0.00     0.049 C 
BRANCH  10  11
ATOM     11  C   UNL A   1      31.471  22.891  24.263  1.00  0.00     0.230 C 
BRANCH  11  12
ATOM     12  O   UNL A   1      32.422  22.015  23.632  1.00  0.00    -0.487 OA
BRANCH  12  13
ATOM     13  C   UNL A   1      33.584  21.727  24.317  1.00  0.00     0.200 A 
ATOM     14  C   UNL A   1      32.640  19.528  25.207  1.00  0.00     0.049 C 
ATOM     15  C   UNL A   1      33.763  20.435  24.849  1.00  0.00    -0.001 A 
ATOM     16  C   UNL A   1      35.052  19.910  25.035  1.00  0.00     0.023 A 
ATOM     17  C   UNL A   1      36.172  20.680  24.775  1.00  0.00     0.025 A 
ATOM     18  C   UNL A   1      34.731  22.527  24.166  1.00  0.00     0.312 A 
ATOM     19  Br  UNL A   1      37.887  19.912  24.952  1.00  0.00    -0.051 Br
ATOM     20  C   UNL A   1      36.023  22.006  24.392  1.00  0.00     0.105 A 
BRANCH  18  21
ATOM     21  N   UNL A   1      34.635  23.948  23.836  1.00  0.00     0.066 N 
ATOM     22  O   UNL A   1      34.642  24.254  22.632  1.00  0.00    -0.258 OA
ATOM     23  O   UNL A   1      34.640  24.770  24.761  1.00  0.00    -0.258 OA
ENDBRANCH  18  21
ENDBRANCH  12  13
ENDBRANCH  11  12
ENDBRANCH  10  11
ENDBRANCH   9  10
ENDBRANCH   7   9
BRANCH   7  24
ATOM     24  N   UNL A   1      30.467  27.460  22.558  1.00  0.00    -0.345 N 
ATOM     25  H   UNL A   1      29.654  26.981  22.945  1.00  0.00     0.345 HD
ATOM     26  H   UNL A   1      30.317  27.635  21.564  1.00  0.00     0.345 HD
ATOM     27  H   UNL A   1      30.603  28.346  23.043  1.00  0.00     0.345 HD
ENDBRANCH   7  24
ENDBRANCH   4   7
ENDBRANCH   2   3
ENDBRANCH   1   2
BRANCH   1  28
ATOM     28  C   UNL A   1      33.434  29.788  26.771  1.00  0.00     0.002 C 
BRANCH  28  29
ATOM     29  C   UNL A   1      31.997  30.284  26.591  1.00  0.00     0.002 C 
BRANCH  29  30
ATOM     30  C   UNL A   1      31.777  31.776  26.851  1.00  0.00     0.021 C 
BRANCH  30  31
ATOM     31  C   UNL A   1      33.007  32.527  27.341  1.00  0.00     0.116 C 
BRANCH  31  32
ATOM     32  N   UNL A   1      32.704  33.903  27.687  1.00  0.00    -0.352 N 
ATOM     33  C   UNL A   1      33.218  34.668  28.709  1.00  0.00     0.251 C 
ATOM     34  H   UNL A   1      32.041  34.351  27.113  1.00  0.00     0.163 HD
ATOM     35  O   UNL A   1      32.698  35.742  28.989  1.00  0.00    -0.269 OA
BRANCH  33  36
ATOM     36  C   UNL A   1      34.378  34.169  29.482  1.00  0.00     0.039 A 
ATOM     37  C   UNL A   1      34.150  33.405  30.629  1.00  0.00     0.014 A 
ATOM     38  C   UNL A   1      35.686  34.442  29.069  1.00  0.00     0.014 A 
ATOM     39  C   UNL A   1      35.234  32.860  31.323  1.00  0.00     0.010 A 
ATOM     40  C   UNL A   1      36.759  33.833  29.716  1.00  0.00     0.010 A 
ATOM     41  C   UNL A   1      36.546  33.038  30.852  1.00  0.00    -0.014 A 
BRANCH  41  42
ATOM     42  C   UNL A   1      37.704  32.405  31.537  1.00  0.00     0.031 A 
ATOM     43  C   UNL A   1      38.441  31.268  30.881  1.00  0.00     0.074 A 
ATOM     44  C   UNL A   1      38.057  32.815  32.772  1.00  0.00     0.049 A 
ATOM     45  N   UNL A   1      39.427  30.543  31.343  1.00  0.00    -0.248 NA
ATOM     46  C   UNL A   1      37.987  30.876  29.538  1.00  0.00     0.031 C 
ATOM     47  C   UNL A   1      37.395  33.882  33.528  1.00  0.00     0.029 A 
ATOM     48  N   UNL A   1      39.051  32.383  33.614  1.00  0.00    -0.354 N 
ATOM     49  C   UNL A   1      39.704  29.603  30.355  1.00  0.00     0.074 A 
ATOM     50  C   UNL A   1      38.737  29.812  29.298  1.00  0.00     0.031 C 
ATOM     51  C   UNL A   1      38.018  34.038  34.706  1.00  0.00     0.029 A 
ATOM     52  C   UNL A   1      39.090  33.053  34.816  1.00  0.00     0.049 A 
ATOM     53  H   UNL A   1      39.678  31.661  33.380  1.00  0.00     0.167 HD
ATOM     54  C   UNL A   1      40.689  28.672  30.321  1.00  0.00     0.034 A 
ATOM     55  C   UNL A   1      39.888  32.885  35.889  1.00  0.00     0.034 A 
ATOM     56  C   UNL A   1      41.651  28.484  31.380  1.00  0.00     0.049 A 
ATOM     57  C   UNL A   1      40.955  31.820  35.843  1.00  0.00     0.074 A 
ATOM     58  C   UNL A   1      42.721  27.608  31.427  1.00  0.00     0.029 A 
ATOM     59  N   UNL A   1      41.656  29.177  32.585  1.00  0.00    -0.354 N 
ATOM     60  N   UNL A   1      41.237  30.974  34.878  1.00  0.00    -0.248 NA
ATOM     61  C   UNL A   1      41.818  31.695  37.024  1.00  0.00     0.031 C 
ATOM     62  C   UNL A   1      43.323  27.716  32.685  1.00  0.00     0.029 A 
ATOM     63  C   UNL A   1      42.687  28.722  33.393  1.00  0.00     0.049 A 
ATOM     64  H   UNL A   1      41.020  29.888  32.829  1.00  0.00     0.167 HD
ATOM     65  C   UNL A   1      42.332  30.240  35.326  1.00  0.00     0.074 A 
ATOM     66  C   UNL A   1      42.667  30.754  36.639  1.00  0.00     0.031 C 
ATOM     67  C   UNL A   1      43.003  29.235  34.706  1.00  0.00     0.034 A 
BRANCH  54  68
ATOM     68  C   UNL A   1      40.754  27.769  29.110  1.00  0.00     0.023 A 
ATOM     69  C   UNL A   1      41.705  27.964  28.092  1.00  0.00     0.031 A 
ATOM     70  C   UNL A   1      39.838  26.713  28.958  1.00  0.00     0.131 A 
ATOM     71  C   UNL A   1      41.668  27.170  26.936  1.00  0.00     0.055 A 
ATOM     72  C   UNL A   1      39.863  25.869  27.845  1.00  0.00     0.041 A 
ATOM     73  F   UNL A   1      38.893  26.489  29.884  1.00  0.00    -0.206 F 
ATOM     74  C   UNL A   1      40.772  26.106  26.817  1.00  0.00     0.022 A 
BRANCH  71  75
ATOM     75  S   UNL A   1      42.707  27.644  25.526  1.00  0.00     0.124 S 
ATOM     76  O   UNL A   1      41.994  28.814  25.017  1.00  0.00    -0.237 OA
ATOM     77  O   UNL A   1      43.995  27.905  26.158  1.00  0.00    -0.237 OA
ATOM     78  O   UNL A   1      42.662  26.471  24.657  1.00  0.00    -0.744 OA
ENDBRANCH  71  75
ENDBRANCH  54  68
BRANCH  55  79
ATOM     79  C   UNL A   1      39.708  33.731  37.106  1.00  0.00     0.023 A 
ATOM     80  C   UNL A   1      40.524  34.849  37.337  1.00  0.00     0.031 A 
ATOM     81  C   UNL A   1      38.745  33.406  38.078  1.00  0.00     0.131 A 
ATOM     82  C   UNL A   1      40.397  35.574  38.533  1.00  0.00     0.055 A 
ATOM     83  C   UNL A   1      38.583  34.164  39.239  1.00  0.00     0.041 A 
ATOM     84  F   UNL A   1      37.937  32.349  37.907  1.00  0.00    -0.206 F 
ATOM     85  C   UNL A   1      39.422  35.248  39.479  1.00  0.00     0.022 A 
BRANCH  82  86
ATOM     86  S   UNL A   1      41.591  36.896  38.878  1.00  0.00     0.124 S 
ATOM     87  O   UNL A   1      42.247  37.048  37.585  1.00  0.00    -0.237 OA
ATOM     88  O   UNL A   1      40.719  37.991  39.290  1.00  0.00    -0.237 OA
ATOM     89  O   UNL A   1      42.423  36.332  39.940  1.00  0.00    -0.744 OA
ENDBRANCH  82  86
ENDBRANCH  55  79
BRANCH  67  90
ATOM     90  C   UNL A   1      44.200  28.661  35.428  1.00  0.00     0.023 A 
ATOM     91  C   UNL A   1      44.071  27.648  36.392  1.00  0.00     0.031 A 
ATOM     92  C   UNL A   1      45.491  29.147  35.148  1.00  0.00     0.131 A 
ATOM     93  C   UNL A   1      45.203  27.193  37.085  1.00  0.00     0.055 A 
ATOM     94  C   UNL A   1      46.622  28.644  35.793  1.00  0.00     0.041 A 
ATOM     95  F   UNL A   1      45.674  30.117  34.239  1.00  0.00    -0.206 F 
ATOM     96  C   UNL A   1      46.480  27.672  36.778  1.00  0.00     0.022 A 
BRANCH  93  97
ATOM     97  S   UNL A   1      44.975  26.037  38.463  1.00  0.00     0.124 S 
ATOM     98  O   UNL A   1      46.117  26.352  39.316  1.00  0.00    -0.237 OA
ATOM     99  O   UNL A   1      43.667  26.421  38.981  1.00  0.00    -0.237 OA
ATOM    100  O   UNL A   1      45.025  24.723  37.822  1.00  0.00    -0.744 OA
ENDBRANCH  93  97
ENDBRANCH  67  90
ENDBRANCH  41  42
ENDBRANCH  33  36
ENDBRANCH  31  32
ENDBRANCH  30  31
ENDBRANCH  29  30
ENDBRANCH  28  29
ENDBRANCH   1  28
TORSDOF 23
ENDMDL
MODEL 2
REMARK VINA RESULT:     -10.5      1.704      2.056
REMARK SMILES Cc1cc(Br)cc([N+](=O)[O-])c1OCCC[C@@](C)([NH3+])C(=O)NCCCCCCNC(=O)c1ccc(-c2c3nc(c(-c4cc(S(=O)(=O)[O-])ccc4F)c4ccc([nH]4)c(-c4cc(S(=O)(=O)[O-])ccc4F)c4nc(c(-c5cc(S(=O)(=O)[O-])ccc5F)c5ccc2[nH]5)C=C4)C=C3)cc1
REMARK SMILES IDX 23 1 22 2 21 3 19 4 20 5 16 7 17 8 15 9 14 10 13 11 12 12
REMARK SMILES IDX 11 13 1 14 2 15 3 16 4 17 7 18 5 19 6 20 8 21 9 22 10 23
REMARK SMILES IDX 18 24 24 28 25 29 26 30 27 31 28 32 29 33 30 35 31 36 32 37
REMARK SMILES IDX 93 38 33 39 92 40 34 41 35 42 36 43 86 44 37 45 91 46 85 47
REMARK SMILES IDX 87 48 38 49 90 50 84 51 83 52 39 54 71 55 51 56 70 57 52 58
REMARK SMILES IDX 55 59 69 60 88 61 53 62 54 63 68 65 89 66 56 67 40 68 41 69
REMARK SMILES IDX 49 70 42 71 48 72 50 73 47 74 43 75 44 76 45 77 46 78 72 79
REMARK SMILES IDX 73 80 81 81 74 82 80 83 82 84 79 85 75 86 76 87 77 88 78 89
REMARK SMILES IDX 57 90 58 91 66 92 59 93 65 94 67 95 64 96 60 97 61 98 62 99
REMARK SMILES IDX 63 100
REMARK H PARENT 21 6 18 25 18 26 18 27 28 34 87 53 55 64
REMARK Flexibility Score: inf
ROOT
ATOM      1  C   UNL A   1      33.259  29.179  24.696  1.00  0.00     0.021 C 
ENDROOT
BRANCH   1   2
ATOM      2  C   UNL A   1      33.333  28.819  23.210  1.00  0.00     0.116 C 
BRANCH   2   3
ATOM      3  N   UNL A   1      32.026  28.507  22.664  1.00  0.00    -0.351 N 
ATOM      4  C   UNL A   1      31.364  27.343  22.446  1.00  0.00     0.280 C 
ATOM      5  O   UNL A   1      30.136  27.468  22.345  1.00  0.00    -0.268 OA
ATOM      6  H   UNL A   1      31.514  29.303  22.395  1.00  0.00     0.163 HD
BRANCH   4   7
ATOM      7  C   UNL A   1      32.027  25.932  22.352  1.00  0.00     0.171 C 
ATOM      8  C   UNL A   1      32.443  25.764  20.883  1.00  0.00     0.090 C 
BRANCH   7   9
ATOM      9  C   UNL A   1      33.254  25.731  23.313  1.00  0.00     0.082 C 
BRANCH   9  10
ATOM     10  C   UNL A   1      33.050  25.603  24.838  1.00  0.00     0.049 C 
BRANCH  10  11
ATOM     11  C   UNL A   1      33.708  24.391  25.552  1.00  0.00     0.230 C 
BRANCH  11  12
ATOM     12  O   UNL A   1      34.063  23.377  24.595  1.00  0.00    -0.487 OA
BRANCH  12  13
ATOM     13  C   UNL A   1      33.980  22.059  24.995  1.00  0.00     0.200 A 
ATOM     14  C   UNL A   1      31.457  22.217  25.354  1.00  0.00     0.049 C 
ATOM     15  C   UNL A   1      32.711  21.457  25.108  1.00  0.00    -0.001 A 
ATOM     16  C   UNL A   1      32.562  20.070  24.949  1.00  0.00     0.023 A 
ATOM     17  C   UNL A   1      33.666  19.258  24.758  1.00  0.00     0.025 A 
ATOM     18  C   UNL A   1      35.095  21.206  24.912  1.00  0.00     0.312 A 
ATOM     19  Br  UNL A   1      33.418  17.411  24.459  1.00  0.00    -0.051 Br
ATOM     20  C   UNL A   1      34.940  19.808  24.791  1.00  0.00     0.105 A 
BRANCH  18  21
ATOM     21  N   UNL A   1      36.461  21.718  25.014  1.00  0.00     0.066 N 
ATOM     22  O   UNL A   1      36.839  22.111  26.129  1.00  0.00    -0.258 OA
ATOM     23  O   UNL A   1      37.132  21.814  23.979  1.00  0.00    -0.258 OA
ENDBRANCH  18  21
ENDBRANCH  12  13
ENDBRANCH  11  12
ENDBRANCH  10  11
ENDBRANCH   9  10
ENDBRANCH   7   9
BRANCH   7  24
ATOM     24  N   UNL A   1      31.088  24.812  22.606  1.00  0.00    -0.345 N 
ATOM     25  H   UNL A   1      30.705  24.896  23.546  1.00  0.00     0.345 HD
ATOM     26  H   UNL A   1      31.586  23.926  22.519  1.00  0.00     0.345 HD
ATOM     27  H   UNL A   1      30.330  24.844  21.924  1.00  0.00     0.345 HD
ENDBRANCH   7  24
ENDBRANCH   4   7
ENDBRANCH   2   3
ENDBRANCH   1   2
BRANCH   1  28
ATOM     28  C   UNL A   1      31.885  29.646  25.199  1.00  0.00     0.002 C 
BRANCH  28  29
ATOM     29  C   UNL A   1      31.853  30.215  26.621  1.00  0.00     0.002 C 
BRANCH  29  30
ATOM     30  C   UNL A   1      31.695  31.733  26.719  1.00  0.00     0.021 C 
BRANCH  30  31
ATOM     31  C   UNL A   1      32.904  32.467  27.282  1.00  0.00     0.116 C 
BRANCH  31  32
ATOM     32  N   UNL A   1      32.608  33.854  27.586  1.00  0.00    -0.352 N 
ATOM     33  C   UNL A   1      33.126  34.647  28.584  1.00  0.00     0.251 C 
ATOM     34  H   UNL A   1      31.946  34.287  27.000  1.00  0.00     0.163 HD
ATOM     35  O   UNL A   1      32.613  35.732  28.831  1.00  0.00    -0.269 OA
BRANCH  33  36
ATOM     36  C   UNL A   1      34.286  34.167  29.370  1.00  0.00     0.039 A 
ATOM     37  C   UNL A   1      34.057  33.421  30.528  1.00  0.00     0.014 A 
ATOM     38  C   UNL A   1      35.594  34.439  28.958  1.00  0.00     0.014 A 
ATOM     39  C   UNL A   1      35.140  32.893  31.236  1.00  0.00     0.010 A 
ATOM     40  C   UNL A   1      36.667  33.846  29.619  1.00  0.00     0.010 A 
ATOM     41  C   UNL A   1      36.453  33.069  30.768  1.00  0.00    -0.014 A 
BRANCH  41  42
ATOM     42  C   UNL A   1      37.611  32.453  31.468  1.00  0.00     0.031 A 
ATOM     43  C   UNL A   1      38.355  31.308  30.835  1.00  0.00     0.074 A 
ATOM     44  C   UNL A   1      37.957  32.886  32.697  1.00  0.00     0.049 A 
ATOM     45  N   UNL A   1      39.342  30.595  31.313  1.00  0.00    -0.248 NA
ATOM     46  C   UNL A   1      37.908  30.891  29.497  1.00  0.00     0.031 C 
ATOM     47  C   UNL A   1      37.289  33.963  33.431  1.00  0.00     0.029 A 
ATOM     48  N   UNL A   1      38.950  32.473  33.550  1.00  0.00    -0.354 N 
ATOM     49  C   UNL A   1      39.627  29.640  30.342  1.00  0.00     0.074 A 
ATOM     50  C   UNL A   1      38.663  29.826  29.279  1.00  0.00     0.031 C 
ATOM     51  C   UNL A   1      37.906  34.142  34.610  1.00  0.00     0.029 A 
ATOM     52  C   UNL A   1      38.982  33.164  34.740  1.00  0.00     0.049 A 
ATOM     53  H   UNL A   1      39.581  31.749  33.332  1.00  0.00     0.167 HD
ATOM     54  C   UNL A   1      40.616  28.712  30.329  1.00  0.00     0.034 A 
ATOM     55  C   UNL A   1      39.776  33.019  35.820  1.00  0.00     0.034 A 
ATOM     56  C   UNL A   1      41.575  28.546  31.395  1.00  0.00     0.049 A 
ATOM     57  C   UNL A   1      40.848  31.957  35.796  1.00  0.00     0.074 A 
ATOM     58  C   UNL A   1      42.649  27.676  31.461  1.00  0.00     0.029 A 
ATOM     59  N   UNL A   1      41.572  29.261  32.587  1.00  0.00    -0.354 N 
ATOM     60  N   UNL A   1      41.137  31.095  34.847  1.00  0.00    -0.248 NA
ATOM     61  C   UNL A   1      41.707  31.857  36.982  1.00  0.00     0.031 C 
ATOM     62  C   UNL A   1      43.245  27.809  32.720  1.00  0.00     0.029 A 
ATOM     63  C   UNL A   1      42.602  28.824  33.408  1.00  0.00     0.049 A 
ATOM     64  H   UNL A   1      40.932  29.974  32.816  1.00  0.00     0.167 HD
ATOM     65  C   UNL A   1      42.233  30.374  35.312  1.00  0.00     0.074 A 
ATOM     66  C   UNL A   1      42.561  30.913  36.617  1.00  0.00     0.031 C 
ATOM     67  C   UNL A   1      42.911  29.362  34.712  1.00  0.00     0.034 A 
BRANCH  54  68
ATOM     68  C   UNL A   1      40.690  27.788  29.134  1.00  0.00     0.023 A 
ATOM     69  C   UNL A   1      41.630  27.982  28.106  1.00  0.00     0.031 A 
ATOM     70  C   UNL A   1      39.792  26.713  29.008  1.00  0.00     0.131 A 
ATOM     71  C   UNL A   1      41.600  27.166  26.965  1.00  0.00     0.055 A 
ATOM     72  C   UNL A   1      39.825  25.850  27.911  1.00  0.00     0.041 A 
ATOM     73  F   UNL A   1      38.857  26.489  29.945  1.00  0.00    -0.206 F 
ATOM     74  C   UNL A   1      40.723  26.084  26.872  1.00  0.00     0.022 A 
BRANCH  71  75
ATOM     75  S   UNL A   1      42.621  27.633  25.540  1.00  0.00     0.124 S 
ATOM     76  O   UNL A   1      41.896  28.794  25.028  1.00  0.00    -0.237 OA
ATOM     77  O   UNL A   1      43.915  27.906  26.155  1.00  0.00    -0.237 OA
ATOM     78  O   UNL A   1      42.573  26.452  24.682  1.00  0.00    -0.744 OA
ENDBRANCH  71  75
ENDBRANCH  54  68
BRANCH  55  79
ATOM     79  C   UNL A   1      39.588  33.885  37.020  1.00  0.00     0.023 A 
ATOM     80  C   UNL A   1      39.039  33.370  38.205  1.00  0.00     0.031 A 
ATOM     81  C   UNL A   1      39.915  35.252  36.987  1.00  0.00     0.131 A 
ATOM     82  C   UNL A   1      38.786  34.225  39.290  1.00  0.00     0.055 A 
ATOM     83  C   UNL A   1      39.716  36.086  38.088  1.00  0.00     0.041 A 
ATOM     84  F   UNL A   1      40.445  35.797  35.881  1.00  0.00    -0.206 F 
ATOM     85  C   UNL A   1      39.135  35.576  39.245  1.00  0.00     0.022 A 
BRANCH  82  86
ATOM     86  S   UNL A   1      37.907  33.562  40.731  1.00  0.00     0.124 S 
ATOM     87  O   UNL A   1      37.021  34.668  41.073  1.00  0.00    -0.237 OA
ATOM     88  O   UNL A   1      37.267  32.374  40.175  1.00  0.00    -0.237 OA
ATOM     89  O   UNL A   1      38.978  33.298  41.690  1.00  0.00    -0.744 OA
ENDBRANCH  82  86
ENDBRANCH  55  79
BRANCH  67  90
ATOM     90  C   UNL A   1      44.108  28.806  35.448  1.00  0.00     0.023 A 
ATOM     91  C   UNL A   1      43.990  27.749  36.367  1.00  0.00     0.031 A 
ATOM     92  C   UNL A   1      45.386  29.352  35.230  1.00  0.00     0.131 A 
ATOM     93  C   UNL A   1      45.118  27.310  37.077  1.00  0.00     0.055 A 
ATOM     94  C   UNL A   1      46.516  28.867  35.890  1.00  0.00     0.041 A 
ATOM     95  F   UNL A   1      45.557  30.366  34.366  1.00  0.00    -0.206 F 
ATOM     96  C   UNL A   1      46.383  27.851  36.830  1.00  0.00     0.022 A 
BRANCH  93  97
ATOM     97  S   UNL A   1      44.895  26.090  38.400  1.00  0.00     0.124 S 
ATOM     98  O   UNL A   1      44.343  24.952  37.672  1.00  0.00    -0.237 OA
ATOM     99  O   UNL A   1      46.253  25.925  38.906  1.00  0.00    -0.237 OA
ATOM    100  O   UNL A   1      43.967  26.747  39.320  1.00  0.00    -0.744 OA
ENDBRANCH  93  97
ENDBRANCH  67  90
ENDBRANCH  41  42
ENDBRANCH  33  36
ENDBRANCH  31  32
ENDBRANCH  30  31
ENDBRANCH  29  30
ENDBRANCH  28  29
ENDBRANCH   1  28
TORSDOF 23
ENDMDL
MODEL 3
REMARK VINA RESULT:     -10.4      3.135      8.417
REMARK SMILES Cc1cc(Br)cc([N+](=O)[O-])c1OCCC[C@@](C)([NH3+])C(=O)NCCCCCCNC(=O)c1ccc(-c2c3nc(c(-c4cc(S(=O)(=O)[O-])ccc4F)c4ccc([nH]4)c(-c4cc(S(=O)(=O)[O-])ccc4F)c4nc(c(-c5cc(S(=O)(=O)[O-])ccc5F)c5ccc2[nH]5)C=C4)C=C3)cc1
REMARK SMILES IDX 23 1 22 2 21 3 19 4 20 5 16 7 17 8 15 9 14 10 13 11 12 12
REMARK SMILES IDX 11 13 1 14 2 15 3 16 4 17 7 18 5 19 6 20 8 21 9 22 10 23
REMARK SMILES IDX 18 24 24 28 25 29 26 30 27 31 28 32 29 33 30 35 31 36 32 37
REMARK SMILES IDX 93 38 33 39 92 40 34 41 35 42 36 43 86 44 37 45 91 46 85 47
REMARK SMILES IDX 87 48 38 49 90 50 84 51 83 52 39 54 71 55 51 56 70 57 52 58
REMARK SMILES IDX 55 59 69 60 88 61 53 62 54 63 68 65 89 66 56 67 40 68 41 69
REMARK SMILES IDX 49 70 42 71 48 72 50 73 47 74 43 75 44 76 45 77 46 78 72 79
REMARK SMILES IDX 73 80 81 81 74 82 80 83 82 84 79 85 75 86 76 87 77 88 78 89
REMARK SMILES IDX 57 90 58 91 66 92 59 93 65 94 67 95 64 96 60 97 61 98 62 99
REMARK SMILES IDX 63 100
REMARK H PARENT 21 6 18 25 18 26 18 27 28 34 87 53 55 64
REMARK Flexibility Score: inf
ROOT
ATOM      1  C   UNL A   1      31.979  28.667  23.511  1.00  0.00     0.021 C 
ENDROOT
BRANCH   1   2
ATOM      2  C   UNL A   1      31.309  27.566  22.685  1.00  0.00     0.116 C 
BRANCH   2   3
ATOM      3  N   UNL A   1      32.196  27.041  21.665  1.00  0.00    -0.351 N 
ATOM      4  C   UNL A   1      32.865  25.868  21.528  1.00  0.00     0.280 C 
ATOM      5  O   UNL A   1      33.197  25.606  20.365  1.00  0.00    -0.268 OA
ATOM      6  H   UNL A   1      32.344  27.664  20.918  1.00  0.00     0.163 HD
BRANCH   4   7
ATOM      7  C   UNL A   1      33.189  24.875  22.688  1.00  0.00     0.171 C 
ATOM      8  C   UNL A   1      33.704  25.742  23.847  1.00  0.00     0.090 C 
BRANCH   7   9
ATOM      9  C   UNL A   1      31.970  23.992  23.142  1.00  0.00     0.082 C 
BRANCH   9  10
ATOM     10  C   UNL A   1      32.150  22.487  23.431  1.00  0.00     0.049 C 
BRANCH  10  11
ATOM     11  C   UNL A   1      31.195  21.835  24.466  1.00  0.00     0.230 C 
BRANCH  11  12
ATOM     12  O   UNL A   1      31.927  20.965  25.348  1.00  0.00    -0.487 OA
BRANCH  12  13
ATOM     13  C   UNL A   1      33.202  21.345  25.712  1.00  0.00     0.200 A 
ATOM     14  C   UNL A   1      34.241  19.277  24.634  1.00  0.00     0.049 C 
ATOM     15  C   UNL A   1      34.304  20.668  25.153  1.00  0.00    -0.001 A 
ATOM     16  C   UNL A   1      35.545  21.313  25.017  1.00  0.00     0.023 A 
ATOM     17  C   UNL A   1      35.731  22.595  25.503  1.00  0.00     0.025 A 
ATOM     18  C   UNL A   1      33.445  22.601  26.297  1.00  0.00     0.312 A 
ATOM     19  Br  UNL A   1      37.384  23.461  25.224  1.00  0.00    -0.051 Br
ATOM     20  C   UNL A   1      34.705  23.227  26.192  1.00  0.00     0.105 A 
BRANCH  18  21
ATOM     21  N   UNL A   1      32.427  23.283  27.096  1.00  0.00     0.066 N 
ATOM     22  O   UNL A   1      32.171  24.463  26.804  1.00  0.00    -0.258 OA
ATOM     23  O   UNL A   1      31.941  22.686  28.064  1.00  0.00    -0.258 OA
ENDBRANCH  18  21
ENDBRANCH  12  13
ENDBRANCH  11  12
ENDBRANCH  10  11
ENDBRANCH   9  10
ENDBRANCH   7   9
BRANCH   7  24
ATOM     24  N   UNL A   1      34.308  23.949  22.388  1.00  0.00    -0.345 N 
ATOM     25  H   UNL A   1      34.170  23.537  21.466  1.00  0.00     0.345 HD
ATOM     26  H   UNL A   1      34.336  23.211  23.091  1.00  0.00     0.345 HD
ATOM     27  H   UNL A   1      35.188  24.465  22.402  1.00  0.00     0.345 HD
ENDBRANCH   7  24
ENDBRANCH   4   7
ENDBRANCH   2   3
ENDBRANCH   1   2
BRANCH   1  28
ATOM     28  C   UNL A   1      31.376  28.916  24.902  1.00  0.00     0.002 C 
BRANCH  28  29
ATOM     29  C   UNL A   1      31.747  27.896  25.982  1.00  0.00     0.002 C 
BRANCH  29  30
ATOM     30  C   UNL A   1      32.549  28.448  27.162  1.00  0.00     0.021 C 
BRANCH  30  31
ATOM     31  C   UNL A   1      33.825  29.184  26.778  1.00  0.00     0.116 C 
BRANCH  31  32
ATOM     32  N   UNL A   1      33.699  30.619  26.949  1.00  0.00    -0.352 N 
ATOM     33  C   UNL A   1      34.450  31.463  27.736  1.00  0.00     0.251 C 
ATOM     34  H   UNL A   1      32.979  31.049  26.433  1.00  0.00     0.163 HD
ATOM     35  O   UNL A   1      34.077  32.614  27.926  1.00  0.00    -0.269 OA
BRANCH  33  36
ATOM     36  C   UNL A   1      35.690  30.959  28.369  1.00  0.00     0.039 A 
ATOM     37  C   UNL A   1      35.610  29.877  29.249  1.00  0.00     0.014 A 
ATOM     38  C   UNL A   1      36.929  31.542  28.086  1.00  0.00     0.014 A 
ATOM     39  C   UNL A   1      36.780  29.339  29.792  1.00  0.00     0.010 A 
ATOM     40  C   UNL A   1      38.098  30.955  28.565  1.00  0.00     0.010 A 
ATOM     41  C   UNL A   1      38.037  29.850  29.426  1.00  0.00    -0.014 A 
BRANCH  41  42
ATOM     42  C   UNL A   1      39.295  29.243  29.938  1.00  0.00     0.031 A 
ATOM     43  C   UNL A   1      39.985  29.832  31.138  1.00  0.00     0.074 A 
ATOM     44  C   UNL A   1      39.845  28.196  29.288  1.00  0.00     0.049 A 
ATOM     45  N   UNL A   1      41.120  29.492  31.692  1.00  0.00    -0.248 NA
ATOM     46  C   UNL A   1      39.324  30.978  31.781  1.00  0.00     0.031 C 
ATOM     47  C   UNL A   1      39.290  27.560  28.091  1.00  0.00     0.029 A 
ATOM     48  N   UNL A   1      40.993  27.486  29.536  1.00  0.00    -0.354 N 
ATOM     49  C   UNL A   1      41.316  30.386  32.740  1.00  0.00     0.074 A 
ATOM     50  C   UNL A   1      40.212  31.322  32.701  1.00  0.00     0.031 C 
ATOM     51  C   UNL A   1      40.083  26.540  27.727  1.00  0.00     0.029 A 
ATOM     52  C   UNL A   1      41.228  26.478  28.630  1.00  0.00     0.049 A 
ATOM     53  H   UNL A   1      41.594  27.681  30.292  1.00  0.00     0.167 HD
ATOM     54  C   UNL A   1      42.308  30.407  33.665  1.00  0.00     0.034 A 
ATOM     55  C   UNL A   1      42.254  25.610  28.528  1.00  0.00     0.034 A 
ATOM     56  C   UNL A   1      43.396  29.458  33.695  1.00  0.00     0.049 A 
ATOM     57  C   UNL A   1      43.365  25.673  29.547  1.00  0.00     0.074 A 
ATOM     58  C   UNL A   1      44.424  29.355  34.615  1.00  0.00     0.029 A 
ATOM     59  N   UNL A   1      43.603  28.454  32.757  1.00  0.00    -0.354 N 
ATOM     60  N   UNL A   1      43.507  26.493  30.564  1.00  0.00    -0.248 NA
ATOM     61  C   UNL A   1      44.445  24.689  29.412  1.00  0.00     0.031 C 
ATOM     62  C   UNL A   1      45.292  28.342  34.193  1.00  0.00     0.029 A 
ATOM     63  C   UNL A   1      44.761  27.752  33.057  1.00  0.00     0.049 A 
ATOM     64  H   UNL A   1      43.014  28.268  31.990  1.00  0.00     0.167 HD
ATOM     65  C   UNL A   1      44.676  26.098  31.208  1.00  0.00     0.074 A 
ATOM     66  C   UNL A   1      45.190  24.960  30.473  1.00  0.00     0.031 C 
ATOM     67  C   UNL A   1      45.269  26.626  32.310  1.00  0.00     0.034 A 
BRANCH  54  68
ATOM     68  C   UNL A   1      42.273  31.508  34.700  1.00  0.00     0.023 A 
ATOM     69  C   UNL A   1      41.316  31.523  35.731  1.00  0.00     0.031 A 
ATOM     70  C   UNL A   1      43.193  32.570  34.643  1.00  0.00     0.131 A 
ATOM     71  C   UNL A   1      41.251  32.614  36.612  1.00  0.00     0.055 A 
ATOM     72  C   UNL A   1      43.179  33.608  35.576  1.00  0.00     0.041 A 
ATOM     73  F   UNL A   1      44.116  32.623  33.670  1.00  0.00    -0.206 F 
ATOM     74  C   UNL A   1      42.193  33.643  36.559  1.00  0.00     0.022 A 
BRANCH  71  75
ATOM     75  S   UNL A   1      39.826  32.742  37.727  1.00  0.00     0.124 S 
ATOM     76  O   UNL A   1      39.355  34.096  37.447  1.00  0.00    -0.237 OA
ATOM     77  O   UNL A   1      38.967  31.657  37.267  1.00  0.00    -0.237 OA
ATOM     78  O   UNL A   1      40.412  32.557  39.053  1.00  0.00    -0.744 OA
ENDBRANCH  71  75
ENDBRANCH  54  68
BRANCH  55  79
ATOM     79  C   UNL A   1      42.296  24.613  27.417  1.00  0.00     0.023 A 
ATOM     80  C   UNL A   1      41.599  23.399  27.508  1.00  0.00     0.031 A 
ATOM     81  C   UNL A   1      43.070  24.843  26.266  1.00  0.00     0.131 A 
ATOM     82  C   UNL A   1      41.728  22.438  26.492  1.00  0.00     0.055 A 
ATOM     83  C   UNL A   1      43.149  23.910  25.231  1.00  0.00     0.041 A 
ATOM     84  F   UNL A   1      43.755  25.988  26.125  1.00  0.00    -0.206 F 
ATOM     85  C   UNL A   1      42.486  22.692  25.347  1.00  0.00     0.022 A 
BRANCH  82  86
ATOM     86  S   UNL A   1      40.963  20.811  26.732  1.00  0.00     0.124 S 
ATOM     87  O   UNL A   1      41.966  19.923  26.156  1.00  0.00    -0.237 OA
ATOM     88  O   UNL A   1      40.816  20.758  28.183  1.00  0.00    -0.237 OA
ATOM     89  O   UNL A   1      39.711  20.911  25.984  1.00  0.00    -0.744 OA
ENDBRANCH  82  86
ENDBRANCH  55  79
BRANCH  67  90
ATOM     90  C   UNL A   1      46.518  25.940  32.812  1.00  0.00     0.023 A 
ATOM     91  C   UNL A   1      46.463  24.841  33.686  1.00  0.00     0.031 A 
ATOM     92  C   UNL A   1      47.786  26.403  32.413  1.00  0.00     0.131 A 
ATOM     93  C   UNL A   1      47.650  24.279  34.180  1.00  0.00     0.055 A 
ATOM     94  C   UNL A   1      48.963  25.797  32.855  1.00  0.00     0.041 A 
ATOM     95  F   UNL A   1      47.900  27.451  31.582  1.00  0.00    -0.206 F 
ATOM     96  C   UNL A   1      48.899  24.739  33.755  1.00  0.00     0.022 A 
BRANCH  93  97
ATOM     97  S   UNL A   1      47.541  23.002  35.463  1.00  0.00     0.124 S 
ATOM     98  O   UNL A   1      48.275  23.615  36.565  1.00  0.00    -0.237 OA
ATOM     99  O   UNL A   1      46.101  22.870  35.652  1.00  0.00    -0.237 OA
ATOM    100  O   UNL A   1      48.193  21.845  34.851  1.00  0.00    -0.744 OA
ENDBRANCH  93  97
ENDBRANCH  67  90
ENDBRANCH  41  42
ENDBRANCH  33  36
ENDBRANCH  31  32
ENDBRANCH  30  31
ENDBRANCH  29  30
ENDBRANCH  28  29
ENDBRANCH   1  28
TORSDOF 23
ENDMDL
