MODEL 1
REMARK VINA RESULT:     -13.1      0.000      0.000
REMARK SMILES Cc1c(CC(=O)NCCCCCCNC(=O)c2ccc(-c3c4nc(c(-c5cc(S(=O)(=O)[O-])ccc5F)c5ccc([nH]5)c(-c5cc(S(=O)(=O)[O-])ccc5F)c5nc(c(-c6cc(S(=O)(=O)[O-])ccc6F)c6ccc3[nH]6)C=C5)C=C4)cc2)cccc1-c1ccn(C(F)F)c(=O)c1
REMARK SMILES IDX 10 1 9 2 8 3 7 4 5 5 6 6 4 8 3 9 1 10 2 11 83 12 80 13 82 14
REMARK SMILES IDX 81 15 84 16 85 17 93 18 86 19 91 20 87 21 92 22 88 23 89 24
REMARK SMILES IDX 90 25 11 26 12 27 13 28 14 29 15 30 16 32 17 33 18 34 79 35
REMARK SMILES IDX 19 36 78 37 20 38 21 39 22 40 72 41 23 42 77 43 71 44 73 45
REMARK SMILES IDX 24 46 76 47 70 48 69 49 25 51 57 52 37 53 56 54 38 55 41 56
REMARK SMILES IDX 55 57 74 58 39 59 40 60 54 62 75 63 42 64 26 65 27 66 35 67
REMARK SMILES IDX 28 68 34 69 36 70 33 71 29 72 30 73 31 74 32 75 58 76 59 77
REMARK SMILES IDX 67 78 60 79 66 80 68 81 65 82 61 83 62 84 63 85 64 86 43 87
REMARK SMILES IDX 44 88 52 89 45 90 51 91 53 92 50 93 46 94 47 95 48 96 49 97
REMARK H PARENT 7 7 14 31 73 50 41 61
REMARK Flexibility Score: inf
ROOT
ATOM      1  C   UNL A   1      31.595  29.484  25.009  1.00  0.00     0.002 C 
ENDROOT
BRANCH   1   2
ATOM      2  C   UNL A   1      31.544  28.768  23.653  1.00  0.00     0.021 C 
BRANCH   2   3
ATOM      3  C   UNL A   1      32.854  28.799  22.869  1.00  0.00     0.116 C 
BRANCH   3   4
ATOM      4  N   UNL A   1      32.955  27.725  21.899  1.00  0.00    -0.356 N 
ATOM      5  C   UNL A   1      33.397  26.444  22.070  1.00  0.00     0.224 C 
ATOM      6  O   UNL A   1      33.356  25.666  21.114  1.00  0.00    -0.275 OA
ATOM      7  H   UNL A   1      32.663  27.952  20.987  1.00  0.00     0.163 HD
BRANCH   5   8
ATOM      8  C   UNL A   1      33.872  25.964  23.438  1.00  0.00     0.135 C 
BRANCH   8   9
ATOM      9  C   UNL A   1      33.031  24.855  24.046  1.00  0.00    -0.035 A 
ATOM     10  C   UNL A   1      34.761  23.079  23.464  1.00  0.00     0.045 C 
ATOM     11  C   UNL A   1      33.407  23.486  24.005  1.00  0.00    -0.040 A 
ATOM     12  C   UNL A   1      32.504  22.512  24.507  1.00  0.00    -0.015 A 
ATOM     13  C   UNL A   1      31.814  25.221  24.651  1.00  0.00     0.004 A 
ATOM     14  C   UNL A   1      31.292  22.915  25.090  1.00  0.00     0.009 A 
ATOM     15  C   UNL A   1      30.954  24.261  25.172  1.00  0.00     0.001 A 
BRANCH  12  16
ATOM     16  C   UNL A   1      32.759  21.061  24.375  1.00  0.00    -0.011 A 
ATOM     17  C   UNL A   1      33.579  20.308  25.304  1.00  0.00     0.027 A 
ATOM     18  C   UNL A   1      32.258  20.442  23.291  1.00  0.00     0.080 A 
ATOM     19  C   UNL A   1      33.902  19.036  25.042  1.00  0.00     0.095 A 
ATOM     20  C   UNL A   1      32.577  19.016  23.007  1.00  0.00     0.255 A 
ATOM     21  N   UNL A   1      33.431  18.400  23.909  1.00  0.00    -0.258 N 
ATOM     22  O   UNL A   1      32.109  18.495  21.999  1.00  0.00    -0.269 OA
BRANCH  21  23
ATOM     23  C   UNL A   1      33.813  17.044  23.615  1.00  0.00     0.451 C 
ATOM     24  F   UNL A   1      34.373  16.940  22.387  1.00  0.00    -0.185 F 
ATOM     25  F   UNL A   1      34.701  16.576  24.526  1.00  0.00    -0.185 F 
ENDBRANCH  21  23
ENDBRANCH  12  16
ENDBRANCH   8   9
ENDBRANCH   5   8
ENDBRANCH   3   4
ENDBRANCH   2   3
ENDBRANCH   1   2
BRANCH   1  26
ATOM     26  C   UNL A   1      32.994  29.684  25.615  1.00  0.00     0.002 C 
BRANCH  26  27
ATOM     27  C   UNL A   1      33.049  30.428  26.950  1.00  0.00     0.021 C 
BRANCH  27  28
ATOM     28  C   UNL A   1      34.124  29.914  27.903  1.00  0.00     0.116 C 
BRANCH  28  29
ATOM     29  N   UNL A   1      34.840  30.970  28.605  1.00  0.00    -0.352 N 
ATOM     30  C   UNL A   1      36.112  30.941  29.167  1.00  0.00     0.251 C 
ATOM     31  H   UNL A   1      34.357  31.824  28.695  1.00  0.00     0.163 HD
ATOM     32  O   UNL A   1      36.555  31.877  29.789  1.00  0.00    -0.269 OA
BRANCH  30  33
ATOM     33  C   UNL A   1      36.983  29.777  28.851  1.00  0.00     0.039 A 
ATOM     34  C   UNL A   1      37.317  28.936  29.919  1.00  0.00     0.014 A 
ATOM     35  C   UNL A   1      37.630  29.653  27.627  1.00  0.00     0.014 A 
ATOM     36  C   UNL A   1      38.456  28.140  29.830  1.00  0.00     0.010 A 
ATOM     37  C   UNL A   1      38.806  28.923  27.561  1.00  0.00     0.010 A 
ATOM     38  C   UNL A   1      39.256  28.228  28.687  1.00  0.00    -0.014 A 
BRANCH  38  39
ATOM     39  C   UNL A   1      40.631  27.739  28.667  1.00  0.00     0.031 A 
ATOM     40  C   UNL A   1      40.931  26.351  28.244  1.00  0.00     0.074 A 
ATOM     41  C   UNL A   1      41.645  28.540  29.076  1.00  0.00     0.049 A 
ATOM     42  N   UNL A   1      41.869  25.620  28.752  1.00  0.00    -0.248 NA
ATOM     43  C   UNL A   1      40.161  25.666  27.211  1.00  0.00     0.031 C 
ATOM     44  C   UNL A   1      43.074  28.231  29.018  1.00  0.00     0.029 A 
ATOM     45  N   UNL A   1      41.608  29.721  29.817  1.00  0.00    -0.354 N 
ATOM     46  C   UNL A   1      42.013  24.512  27.946  1.00  0.00     0.074 A 
ATOM     47  C   UNL A   1      40.880  24.551  27.047  1.00  0.00     0.031 C 
ATOM     48  C   UNL A   1      43.705  28.965  29.950  1.00  0.00     0.029 A 
ATOM     49  C   UNL A   1      42.676  29.646  30.719  1.00  0.00     0.049 A 
ATOM     50  H   UNL A   1      40.962  30.458  29.723  1.00  0.00     0.167 HD
ATOM     51  C   UNL A   1      43.148  23.757  28.007  1.00  0.00     0.034 A 
ATOM     52  C   UNL A   1      42.556  29.603  32.079  1.00  0.00     0.034 A 
ATOM     53  C   UNL A   1      44.105  24.281  28.978  1.00  0.00     0.049 A 
ATOM     54  C   UNL A   1      43.269  28.419  32.706  1.00  0.00     0.074 A 
ATOM     55  C   UNL A   1      45.230  25.078  28.830  1.00  0.00     0.029 A 
ATOM     56  N   UNL A   1      43.824  24.244  30.338  1.00  0.00    -0.354 N 
ATOM     57  N   UNL A   1      43.620  27.349  32.046  1.00  0.00    -0.248 NA
ATOM     58  C   UNL A   1      43.602  28.328  34.127  1.00  0.00     0.031 C 
ATOM     59  C   UNL A   1      45.585  25.576  30.107  1.00  0.00     0.029 A 
ATOM     60  C   UNL A   1      44.700  25.057  31.036  1.00  0.00     0.049 A 
ATOM     61  H   UNL A   1      43.104  23.714  30.748  1.00  0.00     0.167 HD
ATOM     62  C   UNL A   1      44.188  26.442  32.905  1.00  0.00     0.074 A 
ATOM     63  C   UNL A   1      44.178  27.115  34.193  1.00  0.00     0.031 C 
ATOM     64  C   UNL A   1      44.604  25.209  32.482  1.00  0.00     0.034 A 
BRANCH  51  65
ATOM     65  C   UNL A   1      43.521  22.753  26.937  1.00  0.00     0.023 A 
ATOM     66  C   UNL A   1      42.936  21.469  26.942  1.00  0.00     0.031 A 
ATOM     67  C   UNL A   1      44.468  22.983  25.921  1.00  0.00     0.131 A 
ATOM     68  C   UNL A   1      43.377  20.457  26.070  1.00  0.00     0.055 A 
ATOM     69  C   UNL A   1      44.955  21.961  25.094  1.00  0.00     0.041 A 
ATOM     70  F   UNL A   1      44.932  24.216  25.667  1.00  0.00    -0.206 F 
ATOM     71  C   UNL A   1      44.423  20.682  25.179  1.00  0.00     0.022 A 
BRANCH  68  72
ATOM     72  S   UNL A   1      42.559  18.837  26.111  1.00  0.00     0.124 S 
ATOM     73  O   UNL A   1      43.332  18.070  25.141  1.00  0.00    -0.237 OA
ATOM     74  O   UNL A   1      42.711  18.452  27.510  1.00  0.00    -0.237 OA
ATOM     75  O   UNL A   1      41.187  19.140  25.703  1.00  0.00    -0.744 OA
ENDBRANCH  68  72
ENDBRANCH  51  65
BRANCH  52  76
ATOM     76  C   UNL A   1      41.315  30.214  32.630  1.00  0.00     0.023 A 
ATOM     77  C   UNL A   1      41.205  31.618  32.604  1.00  0.00     0.031 A 
ATOM     78  C   UNL A   1      40.151  29.467  32.851  1.00  0.00     0.131 A 
ATOM     79  C   UNL A   1      39.944  32.228  32.634  1.00  0.00     0.055 A 
ATOM     80  C   UNL A   1      38.896  30.083  32.933  1.00  0.00     0.041 A 
ATOM     81  F   UNL A   1      40.190  28.127  32.870  1.00  0.00    -0.206 F 
ATOM     82  C   UNL A   1      38.783  31.465  32.778  1.00  0.00     0.022 A 
BRANCH  79  83
ATOM     83  S   UNL A   1      39.809  33.992  32.220  1.00  0.00     0.124 S 
ATOM     84  O   UNL A   1      40.028  34.628  33.513  1.00  0.00    -0.237 OA
ATOM     85  O   UNL A   1      40.871  34.179  31.235  1.00  0.00    -0.237 OA
ATOM     86  O   UNL A   1      38.456  34.105  31.679  1.00  0.00    -0.744 OA
ENDBRANCH  79  83
ENDBRANCH  52  76
BRANCH  64  87
ATOM     87  C   UNL A   1      45.067  24.082  33.381  1.00  0.00     0.023 A 
ATOM     88  C   UNL A   1      46.330  24.054  33.991  1.00  0.00     0.031 A 
ATOM     89  C   UNL A   1      44.204  23.010  33.714  1.00  0.00     0.131 A 
ATOM     90  C   UNL A   1      46.733  22.965  34.785  1.00  0.00     0.055 A 
ATOM     91  C   UNL A   1      44.575  21.970  34.572  1.00  0.00     0.041 A 
ATOM     92  F   UNL A   1      42.958  22.930  33.223  1.00  0.00    -0.206 F 
ATOM     93  C   UNL A   1      45.857  21.929  35.097  1.00  0.00     0.022 A 
BRANCH  90  94
ATOM     94  S   UNL A   1      48.459  22.898  35.335  1.00  0.00     0.124 S 
ATOM     95  O   UNL A   1      49.180  23.124  34.084  1.00  0.00    -0.237 OA
ATOM     96  O   UNL A   1      48.522  23.983  36.308  1.00  0.00    -0.237 OA
ATOM     97  O   UNL A   1      48.593  21.554  35.892  1.00  0.00    -0.744 OA
ENDBRANCH  90  94
ENDBRANCH  64  87
ENDBRANCH  38  39
ENDBRANCH  30  33
ENDBRANCH  28  29
ENDBRANCH  27  28
ENDBRANCH  26  27
ENDBRANCH   1  26
TORSDOF 19
ENDMDL
MODEL 2
REMARK VINA RESULT:     -12.8      4.479     10.762
REMARK SMILES Cc1c(CC(=O)NCCCCCCNC(=O)c2ccc(-c3c4nc(c(-c5cc(S(=O)(=O)[O-])ccc5F)c5ccc([nH]5)c(-c5cc(S(=O)(=O)[O-])ccc5F)c5nc(c(-c6cc(S(=O)(=O)[O-])ccc6F)c6ccc3[nH]6)C=C5)C=C4)cc2)cccc1-c1ccn(C(F)F)c(=O)c1
REMARK SMILES IDX 10 1 9 2 8 3 7 4 5 5 6 6 4 8 3 9 1 10 2 11 83 12 80 13 82 14
REMARK SMILES IDX 81 15 84 16 85 17 93 18 86 19 91 20 87 21 92 22 88 23 89 24
REMARK SMILES IDX 90 25 11 26 12 27 13 28 14 29 15 30 16 32 17 33 18 34 79 35
REMARK SMILES IDX 19 36 78 37 20 38 21 39 22 40 72 41 23 42 77 43 71 44 73 45
REMARK SMILES IDX 24 46 76 47 70 48 69 49 25 51 57 52 37 53 56 54 38 55 41 56
REMARK SMILES IDX 55 57 74 58 39 59 40 60 54 62 75 63 42 64 26 65 27 66 35 67
REMARK SMILES IDX 28 68 34 69 36 70 33 71 29 72 30 73 31 74 32 75 58 76 59 77
REMARK SMILES IDX 67 78 60 79 66 80 68 81 65 82 61 83 62 84 63 85 64 86 43 87
REMARK SMILES IDX 44 88 52 89 45 90 51 91 53 92 50 93 46 94 47 95 48 96 49 97
REMARK H PARENT 7 7 14 31 73 50 41 61
REMARK Flexibility Score: inf
ROOT
ATOM      1  C   UNL A   1      36.122  21.427  25.058  1.00  0.00     0.002 C 
ENDROOT
BRANCH   1   2
ATOM      2  C   UNL A   1      35.447  22.017  26.303  1.00  0.00     0.021 C 
BRANCH   2   3
ATOM      3  C   UNL A   1      34.299  21.178  26.860  1.00  0.00     0.116 C 
BRANCH   3   4
ATOM      4  N   UNL A   1      33.905  20.102  25.971  1.00  0.00    -0.356 N 
ATOM      5  C   UNL A   1      32.829  20.022  25.134  1.00  0.00     0.224 C 
ATOM      6  O   UNL A   1      32.703  19.025  24.419  1.00  0.00    -0.275 OA
ATOM      7  H   UNL A   1      34.499  19.317  25.971  1.00  0.00     0.163 HD
BRANCH   5   8
ATOM      8  C   UNL A   1      31.835  21.175  25.037  1.00  0.00     0.135 C 
BRANCH   8   9
ATOM      9  C   UNL A   1      32.409  22.457  24.460  1.00  0.00    -0.035 A 
ATOM     10  C   UNL A   1      31.742  23.807  26.514  1.00  0.00     0.045 C 
ATOM     11  C   UNL A   1      32.313  23.714  25.116  1.00  0.00    -0.040 A 
ATOM     12  C   UNL A   1      32.786  24.874  24.448  1.00  0.00    -0.015 A 
ATOM     13  C   UNL A   1      33.041  22.379  23.205  1.00  0.00     0.004 A 
ATOM     14  C   UNL A   1      33.398  24.757  23.189  1.00  0.00     0.009 A 
ATOM     15  C   UNL A   1      33.534  23.516  22.577  1.00  0.00     0.001 A 
BRANCH  12  16
ATOM     16  C   UNL A   1      32.597  26.232  25.001  1.00  0.00    -0.011 A 
ATOM     17  C   UNL A   1      31.361  26.980  24.873  1.00  0.00     0.027 A 
ATOM     18  C   UNL A   1      33.660  26.817  25.582  1.00  0.00     0.080 A 
ATOM     19  C   UNL A   1      31.304  28.262  25.253  1.00  0.00     0.095 A 
ATOM     20  C   UNL A   1      33.600  28.230  26.045  1.00  0.00     0.255 A 
ATOM     21  N   UNL A   1      32.403  28.889  25.810  1.00  0.00    -0.258 N 
ATOM     22  O   UNL A   1      34.597  28.727  26.557  1.00  0.00    -0.269 OA
BRANCH  21  23
ATOM     23  C   UNL A   1      32.345  30.278  26.181  1.00  0.00     0.451 C 
ATOM     24  F   UNL A   1      31.448  30.957  25.427  1.00  0.00    -0.185 F 
ATOM     25  F   UNL A   1      32.001  30.425  27.484  1.00  0.00    -0.185 F 
ENDBRANCH  21  23
ENDBRANCH  12  16
ENDBRANCH   8   9
ENDBRANCH   5   8
ENDBRANCH   3   4
ENDBRANCH   2   3
ENDBRANCH   1   2
BRANCH   1  26
ATOM     26  C   UNL A   1      37.660  21.441  25.053  1.00  0.00     0.002 C 
BRANCH  26  27
ATOM     27  C   UNL A   1      38.323  22.740  25.514  1.00  0.00     0.021 C 
BRANCH  27  28
ATOM     28  C   UNL A   1      39.285  22.564  26.685  1.00  0.00     0.116 C 
BRANCH  28  29
ATOM     29  N   UNL A   1      40.660  22.932  26.376  1.00  0.00    -0.352 N 
ATOM     30  C   UNL A   1      41.241  24.195  26.343  1.00  0.00     0.251 C 
ATOM     31  H   UNL A   1      41.261  22.183  26.159  1.00  0.00     0.163 HD
ATOM     32  O   UNL A   1      42.387  24.361  25.996  1.00  0.00    -0.269 OA
BRANCH  30  33
ATOM     33  C   UNL A   1      40.460  25.333  26.898  1.00  0.00     0.039 A 
ATOM     34  C   UNL A   1      40.645  26.578  26.287  1.00  0.00     0.014 A 
ATOM     35  C   UNL A   1      39.768  25.234  28.101  1.00  0.00     0.014 A 
ATOM     36  C   UNL A   1      40.347  27.738  26.997  1.00  0.00     0.010 A 
ATOM     37  C   UNL A   1      39.543  26.383  28.841  1.00  0.00     0.010 A 
ATOM     38  C   UNL A   1      39.903  27.628  28.317  1.00  0.00    -0.014 A 
BRANCH  38  39
ATOM     39  C   UNL A   1      39.934  28.759  29.240  1.00  0.00     0.031 A 
ATOM     40  C   UNL A   1      38.861  29.781  29.217  1.00  0.00     0.074 A 
ATOM     41  C   UNL A   1      40.970  28.907  30.100  1.00  0.00     0.049 A 
ATOM     42  N   UNL A   1      39.048  31.040  29.441  1.00  0.00    -0.248 NA
ATOM     43  C   UNL A   1      37.474  29.449  28.908  1.00  0.00     0.031 C 
ATOM     44  C   UNL A   1      41.092  29.921  31.147  1.00  0.00     0.029 A 
ATOM     45  N   UNL A   1      42.229  28.307  30.096  1.00  0.00    -0.354 N 
ATOM     46  C   UNL A   1      37.809  31.624  29.589  1.00  0.00     0.074 A 
ATOM     47  C   UNL A   1      36.864  30.609  29.175  1.00  0.00     0.031 C 
ATOM     48  C   UNL A   1      42.397  30.100  31.415  1.00  0.00     0.029 A 
ATOM     49  C   UNL A   1      43.139  29.312  30.445  1.00  0.00     0.049 A 
ATOM     50  H   UNL A   1      42.435  27.366  29.889  1.00  0.00     0.167 HD
ATOM     51  C   UNL A   1      37.686  32.842  30.190  1.00  0.00     0.034 A 
ATOM     52  C   UNL A   1      44.128  29.792  29.635  1.00  0.00     0.034 A 
ATOM     53  C   UNL A   1      38.976  33.374  30.622  1.00  0.00     0.049 A 
ATOM     54  C   UNL A   1      44.084  31.301  29.467  1.00  0.00     0.074 A 
ATOM     55  C   UNL A   1      39.610  33.375  31.856  1.00  0.00     0.029 A 
ATOM     56  N   UNL A   1      39.931  33.759  29.688  1.00  0.00    -0.354 N 
ATOM     57  N   UNL A   1      43.030  32.029  29.714  1.00  0.00    -0.248 NA
ATOM     58  C   UNL A   1      45.203  32.097  28.966  1.00  0.00     0.031 C 
ATOM     59  C   UNL A   1      40.972  33.700  31.648  1.00  0.00     0.029 A 
ATOM     60  C   UNL A   1      41.162  33.929  30.296  1.00  0.00     0.049 A 
ATOM     61  H   UNL A   1      39.756  33.892  28.729  1.00  0.00     0.167 HD
ATOM     62  C   UNL A   1      43.292  33.341  29.408  1.00  0.00     0.074 A 
ATOM     63  C   UNL A   1      44.676  33.334  28.967  1.00  0.00     0.031 C 
ATOM     64  C   UNL A   1      42.339  34.315  29.529  1.00  0.00     0.034 A 
BRANCH  51  65
ATOM     65  C   UNL A   1      36.362  33.379  30.689  1.00  0.00     0.023 A 
ATOM     66  C   UNL A   1      35.508  34.077  29.809  1.00  0.00     0.031 A 
ATOM     67  C   UNL A   1      35.906  33.274  32.017  1.00  0.00     0.131 A 
ATOM     68  C   UNL A   1      34.352  34.732  30.271  1.00  0.00     0.055 A 
ATOM     69  C   UNL A   1      34.792  33.979  32.494  1.00  0.00     0.041 A 
ATOM     70  F   UNL A   1      36.505  32.457  32.897  1.00  0.00    -0.206 F 
ATOM     71  C   UNL A   1      34.017  34.730  31.622  1.00  0.00     0.022 A 
BRANCH  68  72
ATOM     72  S   UNL A   1      33.283  35.585  29.077  1.00  0.00     0.124 S 
ATOM     73  O   UNL A   1      32.489  36.458  29.934  1.00  0.00    -0.237 OA
ATOM     74  O   UNL A   1      34.256  36.241  28.209  1.00  0.00    -0.237 OA
ATOM     75  O   UNL A   1      32.538  34.494  28.449  1.00  0.00    -0.744 OA
ENDBRANCH  68  72
ENDBRANCH  51  65
BRANCH  52  76
ATOM     76  C   UNL A   1      44.610  28.852  28.587  1.00  0.00     0.023 A 
ATOM     77  C   UNL A   1      45.486  27.822  28.979  1.00  0.00     0.031 A 
ATOM     78  C   UNL A   1      43.982  28.743  27.339  1.00  0.00     0.131 A 
ATOM     79  C   UNL A   1      45.592  26.654  28.212  1.00  0.00     0.055 A 
ATOM     80  C   UNL A   1      44.130  27.596  26.549  1.00  0.00     0.041 A 
ATOM     81  F   UNL A   1      43.126  29.683  26.918  1.00  0.00    -0.206 F 
ATOM     82  C   UNL A   1      44.901  26.526  27.005  1.00  0.00     0.022 A 
BRANCH  79  83
ATOM     83  S   UNL A   1      46.423  25.204  28.924  1.00  0.00     0.124 S 
ATOM     84  O   UNL A   1      47.581  25.804  29.576  1.00  0.00    -0.237 OA
ATOM     85  O   UNL A   1      45.409  24.652  29.819  1.00  0.00    -0.237 OA
ATOM     86  O   UNL A   1      46.712  24.377  27.754  1.00  0.00    -0.744 OA
ENDBRANCH  79  83
ENDBRANCH  52  76
BRANCH  64  87
ATOM     87  C   UNL A   1      42.476  35.742  29.042  1.00  0.00     0.023 A 
ATOM     88  C   UNL A   1      43.285  36.697  29.677  1.00  0.00     0.031 A 
ATOM     89  C   UNL A   1      41.834  36.176  27.858  1.00  0.00     0.131 A 
ATOM     90  C   UNL A   1      43.349  38.023  29.214  1.00  0.00     0.055 A 
ATOM     91  C   UNL A   1      41.965  37.473  27.351  1.00  0.00     0.041 A 
ATOM     92  F   UNL A   1      41.054  35.357  27.137  1.00  0.00    -0.206 F 
ATOM     93  C   UNL A   1      42.709  38.416  28.041  1.00  0.00     0.022 A 
BRANCH  90  94
ATOM     94  S   UNL A   1      44.226  39.244  30.228  1.00  0.00     0.124 S 
ATOM     95  O   UNL A   1      43.154  40.178  30.564  1.00  0.00    -0.237 OA
ATOM     96  O   UNL A   1      44.729  38.433  31.331  1.00  0.00    -0.237 OA
ATOM     97  O   UNL A   1      45.248  39.772  29.327  1.00  0.00    -0.744 OA
ENDBRANCH  90  94
ENDBRANCH  64  87
ENDBRANCH  38  39
ENDBRANCH  30  33
ENDBRANCH  28  29
ENDBRANCH  27  28
ENDBRANCH  26  27
ENDBRANCH   1  26
TORSDOF 19
ENDMDL
MODEL 3
REMARK VINA RESULT:     -12.5      4.640     10.860
REMARK SMILES Cc1c(CC(=O)NCCCCCCNC(=O)c2ccc(-c3c4nc(c(-c5cc(S(=O)(=O)[O-])ccc5F)c5ccc([nH]5)c(-c5cc(S(=O)(=O)[O-])ccc5F)c5nc(c(-c6cc(S(=O)(=O)[O-])ccc6F)c6ccc3[nH]6)C=C5)C=C4)cc2)cccc1-c1ccn(C(F)F)c(=O)c1
REMARK SMILES IDX 10 1 9 2 8 3 7 4 5 5 6 6 4 8 3 9 1 10 2 11 83 12 80 13 82 14
REMARK SMILES IDX 81 15 84 16 85 17 93 18 86 19 91 20 87 21 92 22 88 23 89 24
REMARK SMILES IDX 90 25 11 26 12 27 13 28 14 29 15 30 16 32 17 33 18 34 79 35
REMARK SMILES IDX 19 36 78 37 20 38 21 39 22 40 72 41 23 42 77 43 71 44 73 45
REMARK SMILES IDX 24 46 76 47 70 48 69 49 25 51 57 52 37 53 56 54 38 55 41 56
REMARK SMILES IDX 55 57 74 58 39 59 40 60 54 62 75 63 42 64 26 65 27 66 35 67
REMARK SMILES IDX 28 68 34 69 36 70 33 71 29 72 30 73 31 74 32 75 58 76 59 77
REMARK SMILES IDX 67 78 60 79 66 80 68 81 65 82 61 83 62 84 63 85 64 86 43 87
REMARK SMILES IDX 44 88 52 89 45 90 51 91 53 92 50 93 46 94 47 95 48 96 49 97
REMARK H PARENT 7 7 14 31 73 50 41 61
REMARK Flexibility Score: inf
ROOT
ATOM      1  C   UNL A   1      35.929  20.733  24.986  1.00  0.00     0.002 C 
ENDROOT
BRANCH   1   2
ATOM      2  C   UNL A   1      35.139  21.860  25.664  1.00  0.00     0.021 C 
BRANCH   2   3
ATOM      3  C   UNL A   1      33.679  21.963  25.227  1.00  0.00     0.116 C 
BRANCH   3   4
ATOM      4  N   UNL A   1      33.531  22.134  23.795  1.00  0.00    -0.356 N 
ATOM      5  C   UNL A   1      33.695  23.258  23.037  1.00  0.00     0.224 C 
ATOM      6  O   UNL A   1      33.566  23.177  21.813  1.00  0.00    -0.275 OA
ATOM      7  H   UNL A   1      33.277  21.324  23.297  1.00  0.00     0.163 HD
BRANCH   5   8
ATOM      8  C   UNL A   1      34.094  24.580  23.687  1.00  0.00     0.135 C 
BRANCH   8   9
ATOM      9  C   UNL A   1      32.953  25.325  24.355  1.00  0.00    -0.035 A 
ATOM     10  C   UNL A   1      32.136  26.280  22.140  1.00  0.00     0.045 C 
ATOM     11  C   UNL A   1      32.065  26.181  23.649  1.00  0.00    -0.040 A 
ATOM     12  C   UNL A   1      31.096  26.917  24.379  1.00  0.00    -0.015 A 
ATOM     13  C   UNL A   1      32.800  25.167  25.746  1.00  0.00     0.004 A 
ATOM     14  C   UNL A   1      30.983  26.743  25.768  1.00  0.00     0.009 A 
ATOM     15  C   UNL A   1      31.822  25.865  26.445  1.00  0.00     0.001 A 
BRANCH  12  16
ATOM     16  C   UNL A   1      30.230  27.930  23.737  1.00  0.00    -0.011 A 
ATOM     17  C   UNL A   1      30.704  29.235  23.320  1.00  0.00     0.027 A 
ATOM     18  C   UNL A   1      28.923  27.636  23.611  1.00  0.00     0.080 A 
ATOM     19  C   UNL A   1      29.840  30.164  22.893  1.00  0.00     0.095 A 
ATOM     20  C   UNL A   1      27.956  28.646  23.102  1.00  0.00     0.255 A 
ATOM     21  N   UNL A   1      28.488  29.890  22.802  1.00  0.00    -0.258 N 
ATOM     22  O   UNL A   1      26.771  28.339  23.016  1.00  0.00    -0.269 OA
BRANCH  21  23
ATOM     23  C   UNL A   1      27.561  30.906  22.378  1.00  0.00     0.451 C 
ATOM     24  F   UNL A   1      27.340  31.816  23.356  1.00  0.00    -0.185 F 
ATOM     25  F   UNL A   1      28.016  31.561  21.283  1.00  0.00    -0.185 F 
ENDBRANCH  21  23
ENDBRANCH  12  16
ENDBRANCH   8   9
ENDBRANCH   5   8
ENDBRANCH   3   4
ENDBRANCH   2   3
ENDBRANCH   1   2
BRANCH   1  26
ATOM     26  C   UNL A   1      37.458  20.792  25.143  1.00  0.00     0.002 C 
BRANCH  26  27
ATOM     27  C   UNL A   1      38.093  22.179  25.046  1.00  0.00     0.021 C 
BRANCH  27  28
ATOM     28  C   UNL A   1      38.621  22.715  26.374  1.00  0.00     0.116 C 
BRANCH  28  29
ATOM     29  N   UNL A   1      40.068  22.872  26.409  1.00  0.00    -0.352 N 
ATOM     30  C   UNL A   1      40.818  24.021  26.636  1.00  0.00     0.251 C 
ATOM     31  H   UNL A   1      40.588  22.052  26.251  1.00  0.00     0.163 HD
ATOM     32  O   UNL A   1      42.024  24.020  26.564  1.00  0.00    -0.269 OA
BRANCH  30  33
ATOM     33  C   UNL A   1      40.103  25.231  27.126  1.00  0.00     0.039 A 
ATOM     34  C   UNL A   1      40.430  26.445  26.511  1.00  0.00     0.014 A 
ATOM     35  C   UNL A   1      39.332  25.212  28.283  1.00  0.00     0.014 A 
ATOM     36  C   UNL A   1      40.188  27.638  27.186  1.00  0.00     0.010 A 
ATOM     37  C   UNL A   1      39.159  26.390  28.992  1.00  0.00     0.010 A 
ATOM     38  C   UNL A   1      39.655  27.590  28.476  1.00  0.00    -0.014 A 
BRANCH  38  39
ATOM     39  C   UNL A   1      39.724  28.732  29.384  1.00  0.00     0.031 A 
ATOM     40  C   UNL A   1      38.673  29.776  29.365  1.00  0.00     0.074 A 
ATOM     41  C   UNL A   1      40.777  28.867  30.227  1.00  0.00     0.049 A 
ATOM     42  N   UNL A   1      38.890  31.033  29.571  1.00  0.00    -0.248 NA
ATOM     43  C   UNL A   1      37.275  29.470  29.082  1.00  0.00     0.031 C 
ATOM     44  C   UNL A   1      40.937  29.892  31.259  1.00  0.00     0.029 A 
ATOM     45  N   UNL A   1      42.022  28.240  30.211  1.00  0.00    -0.354 N 
ATOM     46  C   UNL A   1      37.666  31.645  29.730  1.00  0.00     0.074 A 
ATOM     47  C   UNL A   1      36.694  30.645  29.344  1.00  0.00     0.031 C 
ATOM     48  C   UNL A   1      42.249  30.045  31.505  1.00  0.00     0.029 A 
ATOM     49  C   UNL A   1      42.959  29.229  30.534  1.00  0.00     0.049 A 
ATOM     50  H   UNL A   1      42.205  27.293  30.013  1.00  0.00     0.167 HD
ATOM     51  C   UNL A   1      37.579  32.873  30.318  1.00  0.00     0.034 A 
ATOM     52  C   UNL A   1      43.945  29.679  29.703  1.00  0.00     0.034 A 
ATOM     53  C   UNL A   1      38.887  33.382  30.724  1.00  0.00     0.049 A 
ATOM     54  C   UNL A   1      43.931  31.186  29.516  1.00  0.00     0.074 A 
ATOM     55  C   UNL A   1      39.539  33.384  31.947  1.00  0.00     0.029 A 
ATOM     56  N   UNL A   1      39.834  33.735  29.771  1.00  0.00    -0.354 N 
ATOM     57  N   UNL A   1      42.896  31.940  29.771  1.00  0.00    -0.248 NA
ATOM     58  C   UNL A   1      45.058  31.952  28.989  1.00  0.00     0.031 C 
ATOM     59  C   UNL A   1      40.905  33.678  31.715  1.00  0.00     0.029 A 
ATOM     60  C   UNL A   1      41.078  33.886  30.358  1.00  0.00     0.049 A 
ATOM     61  H   UNL A   1      39.647  33.861  28.813  1.00  0.00     0.167 HD
ATOM     62  C   UNL A   1      43.181  33.242  29.444  1.00  0.00     0.074 A 
ATOM     63  C   UNL A   1      44.558  33.200  28.983  1.00  0.00     0.031 C 
ATOM     64  C   UNL A   1      42.251  34.238  29.568  1.00  0.00     0.034 A 
BRANCH  51  65
ATOM     65  C   UNL A   1      36.274  33.444  30.831  1.00  0.00     0.023 A 
ATOM     66  C   UNL A   1      35.444  34.188  29.966  1.00  0.00     0.031 A 
ATOM     67  C   UNL A   1      35.817  33.327  32.157  1.00  0.00     0.131 A 
ATOM     68  C   UNL A   1      34.311  34.872  30.444  1.00  0.00     0.055 A 
ATOM     69  C   UNL A   1      34.728  34.059  32.650  1.00  0.00     0.041 A 
ATOM     70  F   UNL A   1      36.389  32.473  33.019  1.00  0.00    -0.206 F 
ATOM     71  C   UNL A   1      33.978  34.855  31.795  1.00  0.00     0.022 A 
BRANCH  68  72
ATOM     72  S   UNL A   1      33.271  35.786  29.270  1.00  0.00     0.124 S 
ATOM     73  O   UNL A   1      32.504  34.721  28.634  1.00  0.00    -0.237 OA
ATOM     74  O   UNL A   1      32.528  36.681  30.150  1.00  0.00    -0.237 OA
ATOM     75  O   UNL A   1      34.243  36.448  28.400  1.00  0.00    -0.744 OA
ENDBRANCH  68  72
ENDBRANCH  51  65
BRANCH  52  76
ATOM     76  C   UNL A   1      44.390  28.716  28.659  1.00  0.00     0.023 A 
ATOM     77  C   UNL A   1      45.220  27.650  29.057  1.00  0.00     0.031 A 
ATOM     78  C   UNL A   1      43.764  28.630  27.408  1.00  0.00     0.131 A 
ATOM     79  C   UNL A   1      45.278  26.476  28.294  1.00  0.00     0.055 A 
ATOM     80  C   UNL A   1      43.866  27.476  26.622  1.00  0.00     0.041 A 
ATOM     81  F   UNL A   1      42.951  29.606  26.982  1.00  0.00    -0.206 F 
ATOM     82  C   UNL A   1      44.588  26.376  27.084  1.00  0.00     0.022 A 
BRANCH  79  83
ATOM     83  S   UNL A   1      46.043  24.995  29.014  1.00  0.00     0.124 S 
ATOM     84  O   UNL A   1      46.158  24.115  27.856  1.00  0.00    -0.237 OA
ATOM     85  O   UNL A   1      47.304  25.504  29.548  1.00  0.00    -0.237 OA
ATOM     86  O   UNL A   1      45.078  24.582  30.030  1.00  0.00    -0.744 OA
ENDBRANCH  79  83
ENDBRANCH  52  76
BRANCH  64  87
ATOM     87  C   UNL A   1      42.411  35.655  29.062  1.00  0.00     0.023 A 
ATOM     88  C   UNL A   1      43.270  36.592  29.656  1.00  0.00     0.031 A 
ATOM     89  C   UNL A   1      41.738  36.097  27.897  1.00  0.00     0.131 A 
ATOM     90  C   UNL A   1      43.355  37.911  29.177  1.00  0.00     0.055 A 
ATOM     91  C   UNL A   1      41.887  37.385  27.372  1.00  0.00     0.041 A 
ATOM     92  F   UNL A   1      40.909  35.293  27.214  1.00  0.00    -0.206 F 
ATOM     93  C   UNL A   1      42.683  38.312  28.025  1.00  0.00     0.022 A 
BRANCH  90  94
ATOM     94  S   UNL A   1      44.304  39.116  30.145  1.00  0.00     0.124 S 
ATOM     95  O   UNL A   1      43.970  40.369  29.473  1.00  0.00    -0.237 OA
ATOM     96  O   UNL A   1      43.751  38.947  31.484  1.00  0.00    -0.237 OA
ATOM     97  O   UNL A   1      45.688  38.676  29.983  1.00  0.00    -0.744 OA
ENDBRANCH  90  94
ENDBRANCH  64  87
ENDBRANCH  38  39
ENDBRANCH  30  33
ENDBRANCH  28  29
ENDBRANCH  27  28
ENDBRANCH  26  27
ENDBRANCH   1  26
TORSDOF 19
ENDMDL
