MODEL 1
REMARK VINA RESULT:     -11.2      0.000      0.000
REMARK SMILES O=C(Cc1cc(C2CC[NH+](Cc3cccs3)CC2)n[nH]1)NCCCCCCNC(=O)c1ccc(-c2c3nc(c(-c4cc(S(=O)(=O)[O-])ccc4F)c4ccc([nH]4)c(-c4cc(S(=O)(=O)[O-])ccc4F)c4nc(c(-c5cc(S(=O)(=O)[O-])ccc5F)c5ccc2[nH]5)C=C4)C=C3)cc1
REMARK SMILES IDX 24 1 23 2 22 3 21 4 1 5 2 6 3 8 4 9 5 10 20 11 6 12 19 13
REMARK SMILES IDX 7 15 8 16 18 17 9 18 17 19 10 20 11 22 12 23 13 24 16 25
REMARK SMILES IDX 14 26 15 27 25 28 26 29 27 30 28 31 29 32 30 34 31 35 32 36
REMARK SMILES IDX 93 37 33 38 92 39 34 40 35 41 36 42 86 43 37 44 91 45 85 46
REMARK SMILES IDX 87 47 38 48 90 49 84 50 83 51 39 53 71 54 51 55 70 56 52 57
REMARK SMILES IDX 55 58 69 59 88 60 53 61 54 62 68 64 89 65 56 66 40 67 41 68
REMARK SMILES IDX 49 69 42 70 48 71 50 72 47 73 43 74 44 75 45 76 46 77 72 78
REMARK SMILES IDX 73 79 81 80 74 81 80 82 82 83 79 84 75 85 76 86 77 87 78 88
REMARK SMILES IDX 57 89 58 90 66 91 59 92 65 93 67 94 64 95 60 96 61 97 62 98
REMARK SMILES IDX 63 99
REMARK H PARENT 21 7 20 14 10 21 28 33 87 52 55 63
REMARK Flexibility Score: inf
ROOT
ATOM      1  C   UNL A   1      30.518  26.163  25.903  1.00  0.00     0.002 C 
ENDROOT
BRANCH   1   2
ATOM      2  C   UNL A   1      29.505  25.160  26.471  1.00  0.00     0.021 C 
BRANCH   2   3
ATOM      3  C   UNL A   1      30.062  23.757  26.707  1.00  0.00     0.116 C 
BRANCH   3   4
ATOM      4  N   UNL A   1      31.348  23.588  26.062  1.00  0.00    -0.356 N 
ATOM      5  O   UNL A   1      32.453  22.728  27.886  1.00  0.00    -0.275 OA
ATOM      6  C   UNL A   1      32.458  23.111  26.720  1.00  0.00     0.225 C 
ATOM      7  H   UNL A   1      31.431  23.826  25.110  1.00  0.00     0.163 HD
BRANCH   6   8
ATOM      8  C   UNL A   1      33.732  23.142  25.898  1.00  0.00     0.155 C 
BRANCH   8   9
ATOM      9  C   UNL A   1      33.836  24.355  25.041  1.00  0.00     0.045 A 
ATOM     10  C   UNL A   1      33.463  24.548  23.733  1.00  0.00     0.049 A 
ATOM     11  N   UNL A   1      34.313  25.564  25.462  1.00  0.00    -0.282 N 
ATOM     12  C   UNL A   1      33.715  25.910  23.448  1.00  0.00     0.066 A 
ATOM     13  N   UNL A   1      34.250  26.520  24.516  1.00  0.00    -0.180 NA
ATOM     14  H   UNL A   1      34.668  25.722  26.367  1.00  0.00     0.190 HD
BRANCH  12  15
ATOM     15  C   UNL A   1      33.438  26.695  22.184  1.00  0.00     0.051 C 
ATOM     16  C   UNL A   1      33.540  28.212  22.379  1.00  0.00     0.071 C 
ATOM     17  C   UNL A   1      32.089  26.379  21.533  1.00  0.00     0.071 C 
ATOM     18  C   UNL A   1      32.360  28.778  23.167  1.00  0.00     0.263 C 
ATOM     19  C   UNL A   1      30.902  26.966  22.299  1.00  0.00     0.263 C 
ATOM     20  N   UNL A   1      31.051  28.383  22.644  1.00  0.00    -0.330 N 
ATOM     21  H   UNL A   1      31.004  28.860  21.743  1.00  0.00     0.348 HD
BRANCH  20  22
ATOM     22  C   UNL A   1      29.927  28.882  23.471  1.00  0.00     0.310 C 
BRANCH  22  23
ATOM     23  C   UNL A   1      29.362  30.228  23.065  1.00  0.00     0.059 A 
ATOM     24  C   UNL A   1      29.178  31.360  23.840  1.00  0.00     0.021 A 
ATOM     25  S   UNL A   1      28.882  30.518  21.440  1.00  0.00    -0.143 S 
ATOM     26  C   UNL A   1      28.529  32.413  23.133  1.00  0.00     0.012 A 
ATOM     27  C   UNL A   1      28.307  32.084  21.815  1.00  0.00     0.065 A 
ENDBRANCH  22  23
ENDBRANCH  20  22
ENDBRANCH  12  15
ENDBRANCH   8   9
ENDBRANCH   6   8
ENDBRANCH   3   4
ENDBRANCH   2   3
ENDBRANCH   1   2
BRANCH   1  28
ATOM     28  C   UNL A   1      31.436  26.820  26.937  1.00  0.00     0.002 C 
BRANCH  28  29
ATOM     29  C   UNL A   1      31.742  28.298  26.690  1.00  0.00     0.021 C 
BRANCH  29  30
ATOM     30  C   UNL A   1      33.144  28.741  27.098  1.00  0.00     0.116 C 
BRANCH  30  31
ATOM     31  N   UNL A   1      33.272  30.189  27.152  1.00  0.00    -0.352 N 
ATOM     32  C   UNL A   1      34.273  30.955  27.696  1.00  0.00     0.251 C 
ATOM     33  H   UNL A   1      32.534  30.692  26.737  1.00  0.00     0.163 HD
ATOM     34  O   UNL A   1      34.111  32.169  27.815  1.00  0.00    -0.269 OA
BRANCH  32  35
ATOM     35  C   UNL A   1      35.525  30.320  28.163  1.00  0.00     0.039 A 
ATOM     36  C   UNL A   1      36.633  30.300  27.313  1.00  0.00     0.014 A 
ATOM     37  C   UNL A   1      35.609  29.743  29.434  1.00  0.00     0.014 A 
ATOM     38  C   UNL A   1      37.842  29.762  27.761  1.00  0.00     0.010 A 
ATOM     39  C   UNL A   1      36.836  29.280  29.907  1.00  0.00     0.010 A 
ATOM     40  C   UNL A   1      37.965  29.282  29.075  1.00  0.00    -0.014 A 
BRANCH  40  41
ATOM     41  C   UNL A   1      39.267  28.781  29.593  1.00  0.00     0.031 A 
ATOM     42  C   UNL A   1      39.899  29.414  30.804  1.00  0.00     0.074 A 
ATOM     43  C   UNL A   1      39.906  27.789  28.941  1.00  0.00     0.049 A 
ATOM     44  N   UNL A   1      41.044  29.147  31.378  1.00  0.00    -0.248 NA
ATOM     45  C   UNL A   1      39.154  30.513  31.434  1.00  0.00     0.031 C 
ATOM     46  C   UNL A   1      39.414  27.114  27.738  1.00  0.00     0.029 A 
ATOM     47  N   UNL A   1      41.106  27.173  29.197  1.00  0.00    -0.354 N 
ATOM     48  C   UNL A   1      41.165  30.053  32.426  1.00  0.00     0.074 A 
ATOM     49  C   UNL A   1      40.007  30.918  32.362  1.00  0.00     0.031 C 
ATOM     50  C   UNL A   1      40.281  26.152  27.387  1.00  0.00     0.029 A 
ATOM     51  C   UNL A   1      41.418  26.174  28.303  1.00  0.00     0.049 A 
ATOM     52  H   UNL A   1      41.690  27.422  29.950  1.00  0.00     0.167 HD
ATOM     53  C   UNL A   1      42.139  30.141  33.368  1.00  0.00     0.034 A 
ATOM     54  C   UNL A   1      42.496  25.371  28.225  1.00  0.00     0.034 A 
ATOM     55  C   UNL A   1      43.287  29.266  33.416  1.00  0.00     0.049 A 
ATOM     56  C   UNL A   1      43.593  25.522  29.251  1.00  0.00     0.074 A 
ATOM     57  C   UNL A   1      44.300  29.225  34.358  1.00  0.00     0.029 A 
ATOM     58  N   UNL A   1      43.586  28.288  32.474  1.00  0.00    -0.354 N 
ATOM     59  N   UNL A   1      43.664  26.343  30.273  1.00  0.00    -0.248 NA
ATOM     60  C   UNL A   1      44.750  24.629  29.114  1.00  0.00     0.031 C 
ATOM     61  C   UNL A   1      45.253  28.289  33.939  1.00  0.00     0.029 A 
ATOM     62  C   UNL A   1      44.789  27.674  32.787  1.00  0.00     0.049 A 
ATOM     63  H   UNL A   1      43.024  28.064  31.697  1.00  0.00     0.167 HD
ATOM     64  C   UNL A   1      44.857  26.037  30.922  1.00  0.00     0.074 A 
ATOM     65  C   UNL A   1      45.464  24.949  30.183  1.00  0.00     0.031 C 
ATOM     66  C   UNL A   1      45.397  26.599  32.035  1.00  0.00     0.034 A 
BRANCH  53  67
ATOM     67  C   UNL A   1      42.017  31.247  34.392  1.00  0.00     0.023 A 
ATOM     68  C   UNL A   1      41.031  31.224  35.396  1.00  0.00     0.031 A 
ATOM     69  C   UNL A   1      42.869  32.364  34.339  1.00  0.00     0.131 A 
ATOM     70  C   UNL A   1      40.860  32.334  36.237  1.00  0.00     0.055 A 
ATOM     71  C   UNL A   1      42.756  33.423  35.244  1.00  0.00     0.041 A 
ATOM     72  F   UNL A   1      43.818  32.459  33.394  1.00  0.00    -0.206 F 
ATOM     73  C   UNL A   1      41.733  33.422  36.187  1.00  0.00     0.022 A 
BRANCH  70  74
ATOM     74  S   UNL A   1      39.368  32.414  37.267  1.00  0.00     0.124 S 
ATOM     75  O   UNL A   1      38.758  33.660  36.806  1.00  0.00    -0.237 OA
ATOM     76  O   UNL A   1      38.668  31.187  36.904  1.00  0.00    -0.237 OA
ATOM     77  O   UNL A   1      39.894  32.455  38.630  1.00  0.00    -0.744 OA
ENDBRANCH  70  74
ENDBRANCH  53  67
BRANCH  54  78
ATOM     78  C   UNL A   1      42.603  24.345  27.147  1.00  0.00     0.023 A 
ATOM     79  C   UNL A   1      41.960  23.104  27.270  1.00  0.00     0.031 A 
ATOM     80  C   UNL A   1      43.382  24.571  25.998  1.00  0.00     0.131 A 
ATOM     81  C   UNL A   1      42.144  22.118  26.289  1.00  0.00     0.055 A 
ATOM     82  C   UNL A   1      43.515  23.609  24.995  1.00  0.00     0.041 A 
ATOM     83  F   UNL A   1      44.019  25.742  25.828  1.00  0.00    -0.206 F 
ATOM     84  C   UNL A   1      42.904  22.367  25.145  1.00  0.00     0.022 A 
BRANCH  81  85
ATOM     85  S   UNL A   1      41.446  20.468  26.575  1.00  0.00     0.124 S 
ATOM     86  O   UNL A   1      41.958  19.728  25.428  1.00  0.00    -0.237 OA
ATOM     87  O   UNL A   1      42.014  20.119  27.872  1.00  0.00    -0.237 OA
ATOM     88  O   UNL A   1      40.003  20.706  26.573  1.00  0.00    -0.744 OA
ENDBRANCH  81  85
ENDBRANCH  54  78
BRANCH  66  89
ATOM     89  C   UNL A   1      46.691  26.007  32.544  1.00  0.00     0.023 A 
ATOM     90  C   UNL A   1      46.715  24.965  33.488  1.00  0.00     0.031 A 
ATOM     91  C   UNL A   1      47.924  26.512  32.090  1.00  0.00     0.131 A 
ATOM     92  C   UNL A   1      47.941  24.505  33.993  1.00  0.00     0.055 A 
ATOM     93  C   UNL A   1      49.142  26.001  32.543  1.00  0.00     0.041 A 
ATOM     94  F   UNL A   1      47.966  27.512  31.195  1.00  0.00    -0.206 F 
ATOM     95  C   UNL A   1      49.155  25.003  33.512  1.00  0.00     0.022 A 
BRANCH  92  96
ATOM     96  S   UNL A   1      47.928  23.326  35.372  1.00  0.00     0.124 S 
ATOM     97  O   UNL A   1      48.370  22.096  34.724  1.00  0.00    -0.237 OA
ATOM     98  O   UNL A   1      48.874  23.929  36.306  1.00  0.00    -0.237 OA
ATOM     99  O   UNL A   1      46.535  23.329  35.813  1.00  0.00    -0.744 OA
ENDBRANCH  92  96
ENDBRANCH  66  89
ENDBRANCH  40  41
ENDBRANCH  32  35
ENDBRANCH  30  31
ENDBRANCH  29  30
ENDBRANCH  28  29
ENDBRANCH   1  28
TORSDOF 20
ENDMDL
MODEL 2
REMARK VINA RESULT:     -11.1      1.778      2.003
REMARK SMILES O=C(Cc1cc(C2CC[NH+](Cc3cccs3)CC2)n[nH]1)NCCCCCCNC(=O)c1ccc(-c2c3nc(c(-c4cc(S(=O)(=O)[O-])ccc4F)c4ccc([nH]4)c(-c4cc(S(=O)(=O)[O-])ccc4F)c4nc(c(-c5cc(S(=O)(=O)[O-])ccc5F)c5ccc2[nH]5)C=C4)C=C3)cc1
REMARK SMILES IDX 24 1 23 2 22 3 21 4 1 5 2 6 3 8 4 9 5 10 20 11 6 12 19 13
REMARK SMILES IDX 7 15 8 16 18 17 9 18 17 19 10 20 11 22 12 23 13 24 16 25
REMARK SMILES IDX 14 26 15 27 25 28 26 29 27 30 28 31 29 32 30 34 31 35 32 36
REMARK SMILES IDX 93 37 33 38 92 39 34 40 35 41 36 42 86 43 37 44 91 45 85 46
REMARK SMILES IDX 87 47 38 48 90 49 84 50 83 51 39 53 71 54 51 55 70 56 52 57
REMARK SMILES IDX 55 58 69 59 88 60 53 61 54 62 68 64 89 65 56 66 40 67 41 68
REMARK SMILES IDX 49 69 42 70 48 71 50 72 47 73 43 74 44 75 45 76 46 77 72 78
REMARK SMILES IDX 73 79 81 80 74 81 80 82 82 83 79 84 75 85 76 86 77 87 78 88
REMARK SMILES IDX 57 89 58 90 66 91 59 92 65 93 67 94 64 95 60 96 61 97 62 98
REMARK SMILES IDX 63 99
REMARK H PARENT 21 7 20 14 10 21 28 33 87 52 55 63
REMARK Flexibility Score: inf
ROOT
ATOM      1  C   UNL A   1      30.593  26.348  25.892  1.00  0.00     0.002 C 
ENDROOT
BRANCH   1   2
ATOM      2  C   UNL A   1      29.585  25.327  26.436  1.00  0.00     0.021 C 
BRANCH   2   3
ATOM      3  C   UNL A   1      30.137  23.911  26.597  1.00  0.00     0.116 C 
BRANCH   3   4
ATOM      4  N   UNL A   1      31.481  23.809  26.068  1.00  0.00    -0.356 N 
ATOM      5  O   UNL A   1      32.384  22.662  27.845  1.00  0.00    -0.275 OA
ATOM      6  C   UNL A   1      32.513  23.214  26.755  1.00  0.00     0.225 C 
ATOM      7  H   UNL A   1      31.665  24.184  25.176  1.00  0.00     0.163 HD
BRANCH   6   8
ATOM      8  C   UNL A   1      33.866  23.335  26.081  1.00  0.00     0.155 C 
BRANCH   8   9
ATOM      9  C   UNL A   1      33.948  24.505  25.162  1.00  0.00     0.045 A 
ATOM     10  C   UNL A   1      33.627  24.606  23.831  1.00  0.00     0.049 A 
ATOM     11  N   UNL A   1      34.344  25.758  25.535  1.00  0.00    -0.282 N 
ATOM     12  C   UNL A   1      33.824  25.962  23.481  1.00  0.00     0.066 A 
ATOM     13  N   UNL A   1      34.277  26.657  24.535  1.00  0.00    -0.180 NA
ATOM     14  H   UNL A   1      34.648  25.983  26.444  1.00  0.00     0.190 HD
BRANCH  12  15
ATOM     15  C   UNL A   1      33.567  26.663  22.164  1.00  0.00     0.051 C 
ATOM     16  C   UNL A   1      33.448  28.184  22.300  1.00  0.00     0.071 C 
ATOM     17  C   UNL A   1      32.339  26.145  21.408  1.00  0.00     0.071 C 
ATOM     18  C   UNL A   1      32.133  28.609  22.953  1.00  0.00     0.263 C 
ATOM     19  C   UNL A   1      31.018  26.589  22.037  1.00  0.00     0.263 C 
ATOM     20  N   UNL A   1      30.944  28.024  22.332  1.00  0.00    -0.330 N 
ATOM     21  H   UNL A   1      30.921  28.461  21.411  1.00  0.00     0.348 HD
BRANCH  20  22
ATOM     22  C   UNL A   1      29.691  28.391  23.031  1.00  0.00     0.310 C 
BRANCH  22  23
ATOM     23  C   UNL A   1      29.274  29.842  22.911  1.00  0.00     0.059 A 
ATOM     24  C   UNL A   1      29.387  30.857  23.846  1.00  0.00     0.021 A 
ATOM     25  S   UNL A   1      28.587  30.433  21.450  1.00  0.00    -0.143 S 
ATOM     26  C   UNL A   1      28.796  32.078  23.408  1.00  0.00     0.012 A 
ATOM     27  C   UNL A   1      28.318  31.983  22.121  1.00  0.00     0.065 A 
ENDBRANCH  22  23
ENDBRANCH  20  22
ENDBRANCH  12  15
ENDBRANCH   8   9
ENDBRANCH   6   8
ENDBRANCH   3   4
ENDBRANCH   2   3
ENDBRANCH   1   2
BRANCH   1  28
ATOM     28  C   UNL A   1      31.438  27.060  26.952  1.00  0.00     0.002 C 
BRANCH  28  29
ATOM     29  C   UNL A   1      31.789  28.515  26.635  1.00  0.00     0.021 C 
BRANCH  29  30
ATOM     30  C   UNL A   1      33.213  28.925  26.996  1.00  0.00     0.116 C 
BRANCH  30  31
ATOM     31  N   UNL A   1      33.356  30.367  27.127  1.00  0.00    -0.352 N 
ATOM     32  C   UNL A   1      34.345  31.092  27.746  1.00  0.00     0.251 C 
ATOM     33  H   UNL A   1      32.639  30.900  26.712  1.00  0.00     0.163 HD
ATOM     34  O   UNL A   1      34.192  32.300  27.920  1.00  0.00    -0.269 OA
BRANCH  32  35
ATOM     35  C   UNL A   1      35.571  30.417  28.226  1.00  0.00     0.039 A 
ATOM     36  C   UNL A   1      36.697  30.390  27.399  1.00  0.00     0.014 A 
ATOM     37  C   UNL A   1      35.614  29.811  29.484  1.00  0.00     0.014 A 
ATOM     38  C   UNL A   1      37.883  29.813  27.861  1.00  0.00     0.010 A 
ATOM     39  C   UNL A   1      36.819  29.309  29.974  1.00  0.00     0.010 A 
ATOM     40  C   UNL A   1      37.966  29.302  29.167  1.00  0.00    -0.014 A 
BRANCH  40  41
ATOM     41  C   UNL A   1      39.244  28.759  29.702  1.00  0.00     0.031 A 
ATOM     42  C   UNL A   1      39.890  29.385  30.909  1.00  0.00     0.074 A 
ATOM     43  C   UNL A   1      39.850  27.735  29.068  1.00  0.00     0.049 A 
ATOM     44  N   UNL A   1      41.020  29.082  31.495  1.00  0.00    -0.248 NA
ATOM     45  C   UNL A   1      39.183  30.519  31.519  1.00  0.00     0.031 C 
ATOM     46  C   UNL A   1      39.341  27.064  27.869  1.00  0.00     0.029 A 
ATOM     47  N   UNL A   1      41.024  27.078  29.341  1.00  0.00    -0.354 N 
ATOM     48  C   UNL A   1      41.167  29.997  32.533  1.00  0.00     0.074 A 
ATOM     49  C   UNL A   1      40.043  30.904  32.448  1.00  0.00     0.031 C 
ATOM     50  C   UNL A   1      40.174  26.065  27.538  1.00  0.00     0.029 A 
ATOM     51  C   UNL A   1      41.304  26.056  28.462  1.00  0.00     0.049 A 
ATOM     52  H   UNL A   1      41.612  27.315  30.095  1.00  0.00     0.167 HD
ATOM     53  C   UNL A   1      42.137  30.060  33.481  1.00  0.00     0.034 A 
ATOM     54  C   UNL A   1      42.352  25.212  28.403  1.00  0.00     0.034 A 
ATOM     55  C   UNL A   1      43.251  29.143  33.550  1.00  0.00     0.049 A 
ATOM     56  C   UNL A   1      43.446  25.335  29.435  1.00  0.00     0.074 A 
ATOM     57  C   UNL A   1      44.255  29.076  34.500  1.00  0.00     0.029 A 
ATOM     58  N   UNL A   1      43.520  28.143  32.622  1.00  0.00    -0.354 N 
ATOM     59  N   UNL A   1      43.540  26.166  30.448  1.00  0.00    -0.248 NA
ATOM     60  C   UNL A   1      44.570  24.398  29.320  1.00  0.00     0.031 C 
ATOM     61  C   UNL A   1      45.175  28.100  34.101  1.00  0.00     0.029 A 
ATOM     62  C   UNL A   1      44.697  27.487  32.953  1.00  0.00     0.049 A 
ATOM     63  H   UNL A   1      42.956  27.930  31.844  1.00  0.00     0.167 HD
ATOM     64  C   UNL A   1      44.716  25.825  31.110  1.00  0.00     0.074 A 
ATOM     65  C   UNL A   1      45.287  24.705  30.389  1.00  0.00     0.031 C 
ATOM     66  C   UNL A   1      45.269  26.380  32.220  1.00  0.00     0.034 A 
BRANCH  53  67
ATOM     67  C   UNL A   1      42.049  31.183  34.490  1.00  0.00     0.023 A 
ATOM     68  C   UNL A   1      42.490  32.485  34.191  1.00  0.00     0.031 A 
ATOM     69  C   UNL A   1      41.560  30.941  35.786  1.00  0.00     0.131 A 
ATOM     70  C   UNL A   1      42.524  33.463  35.197  1.00  0.00     0.055 A 
ATOM     71  C   UNL A   1      41.504  31.946  36.755  1.00  0.00     0.041 A 
ATOM     72  F   UNL A   1      41.142  29.716  36.143  1.00  0.00    -0.206 F 
ATOM     73  C   UNL A   1      42.009  33.211  36.470  1.00  0.00     0.022 A 
BRANCH  70  74
ATOM     74  S   UNL A   1      43.422  35.006  34.871  1.00  0.00     0.124 S 
ATOM     75  O   UNL A   1      43.462  35.021  33.410  1.00  0.00    -0.237 OA
ATOM     76  O   UNL A   1      42.566  36.006  35.499  1.00  0.00    -0.237 OA
ATOM     77  O   UNL A   1      44.715  34.794  35.519  1.00  0.00    -0.744 OA
ENDBRANCH  70  74
ENDBRANCH  53  67
BRANCH  54  78
ATOM     78  C   UNL A   1      42.428  24.169  27.339  1.00  0.00     0.023 A 
ATOM     79  C   UNL A   1      41.756  22.946  27.484  1.00  0.00     0.031 A 
ATOM     80  C   UNL A   1      43.206  24.360  26.183  1.00  0.00     0.131 A 
ATOM     81  C   UNL A   1      41.910  21.942  26.516  1.00  0.00     0.055 A 
ATOM     82  C   UNL A   1      43.310  23.380  25.194  1.00  0.00     0.041 A 
ATOM     83  F   UNL A   1      43.870  25.512  25.993  1.00  0.00    -0.206 F 
ATOM     84  C   UNL A   1      42.670  22.156  25.364  1.00  0.00     0.022 A 
BRANCH  81  85
ATOM     85  S   UNL A   1      41.174  20.314  26.829  1.00  0.00     0.124 S 
ATOM     86  O   UNL A   1      42.272  19.421  26.477  1.00  0.00    -0.237 OA
ATOM     87  O   UNL A   1      40.843  20.398  28.248  1.00  0.00    -0.237 OA
ATOM     88  O   UNL A   1      40.027  20.282  25.925  1.00  0.00    -0.744 OA
ENDBRANCH  81  85
ENDBRANCH  54  78
BRANCH  66  89
ATOM     89  C   UNL A   1      46.536  25.748  32.747  1.00  0.00     0.023 A 
ATOM     90  C   UNL A   1      47.799  26.043  32.203  1.00  0.00     0.031 A 
ATOM     91  C   UNL A   1      46.475  24.817  33.801  1.00  0.00     0.131 A 
ATOM     92  C   UNL A   1      48.938  25.367  32.669  1.00  0.00     0.055 A 
ATOM     93  C   UNL A   1      47.620  24.202  34.309  1.00  0.00     0.041 A 
ATOM     94  F   UNL A   1      45.297  24.489  34.357  1.00  0.00    -0.206 F 
ATOM     95  C   UNL A   1      48.859  24.464  33.732  1.00  0.00     0.022 A 
BRANCH  92  96
ATOM     96  S   UNL A   1      50.509  25.600  31.793  1.00  0.00     0.124 S 
ATOM     97  O   UNL A   1      50.635  24.345  31.059  1.00  0.00    -0.237 OA
ATOM     98  O   UNL A   1      50.243  26.786  30.985  1.00  0.00    -0.237 OA
ATOM     99  O   UNL A   1      51.479  25.788  32.870  1.00  0.00    -0.744 OA
ENDBRANCH  92  96
ENDBRANCH  66  89
ENDBRANCH  40  41
ENDBRANCH  32  35
ENDBRANCH  30  31
ENDBRANCH  29  30
ENDBRANCH  28  29
ENDBRANCH   1  28
TORSDOF 20
ENDMDL
MODEL 3
REMARK VINA RESULT:     -11.0      1.943      7.764
REMARK SMILES O=C(Cc1cc(C2CC[NH+](Cc3cccs3)CC2)n[nH]1)NCCCCCCNC(=O)c1ccc(-c2c3nc(c(-c4cc(S(=O)(=O)[O-])ccc4F)c4ccc([nH]4)c(-c4cc(S(=O)(=O)[O-])ccc4F)c4nc(c(-c5cc(S(=O)(=O)[O-])ccc5F)c5ccc2[nH]5)C=C4)C=C3)cc1
REMARK SMILES IDX 24 1 23 2 22 3 21 4 1 5 2 6 3 8 4 9 5 10 20 11 6 12 19 13
REMARK SMILES IDX 7 15 8 16 18 17 9 18 17 19 10 20 11 22 12 23 13 24 16 25
REMARK SMILES IDX 14 26 15 27 25 28 26 29 27 30 28 31 29 32 30 34 31 35 32 36
REMARK SMILES IDX 93 37 33 38 92 39 34 40 35 41 36 42 86 43 37 44 91 45 85 46
REMARK SMILES IDX 87 47 38 48 90 49 84 50 83 51 39 53 71 54 51 55 70 56 52 57
REMARK SMILES IDX 55 58 69 59 88 60 53 61 54 62 68 64 89 65 56 66 40 67 41 68
REMARK SMILES IDX 49 69 42 70 48 71 50 72 47 73 43 74 44 75 45 76 46 77 72 78
REMARK SMILES IDX 73 79 81 80 74 81 80 82 82 83 79 84 75 85 76 86 77 87 78 88
REMARK SMILES IDX 57 89 58 90 66 91 59 92 65 93 67 94 64 95 60 96 61 97 62 98
REMARK SMILES IDX 63 99
REMARK H PARENT 21 7 20 14 10 21 28 33 87 52 55 63
REMARK Flexibility Score: inf
ROOT
ATOM      1  C   UNL A   1      30.594  26.192  25.942  1.00  0.00     0.002 C 
ENDROOT
BRANCH   1   2
ATOM      2  C   UNL A   1      29.586  25.248  26.611  1.00  0.00     0.021 C 
BRANCH   2   3
ATOM      3  C   UNL A   1      30.045  23.793  26.709  1.00  0.00     0.116 C 
BRANCH   3   4
ATOM      4  N   UNL A   1      31.332  23.605  26.072  1.00  0.00    -0.356 N 
ATOM      5  O   UNL A   1      32.441  22.828  27.930  1.00  0.00    -0.275 OA
ATOM      6  C   UNL A   1      32.444  23.162  26.749  1.00  0.00     0.225 C 
ATOM      7  H   UNL A   1      31.414  23.804  25.111  1.00  0.00     0.163 HD
BRANCH   6   8
ATOM      8  C   UNL A   1      33.718  23.166  25.927  1.00  0.00     0.155 C 
BRANCH   8   9
ATOM      9  C   UNL A   1      33.824  24.354  25.034  1.00  0.00     0.045 A 
ATOM     10  C   UNL A   1      33.390  24.530  23.744  1.00  0.00     0.049 A 
ATOM     11  N   UNL A   1      34.372  25.552  25.398  1.00  0.00    -0.282 N 
ATOM     12  C   UNL A   1      33.681  25.873  23.410  1.00  0.00     0.066 A 
ATOM     13  N   UNL A   1      34.296  26.487  24.433  1.00  0.00    -0.180 NA
ATOM     14  H   UNL A   1      34.780  25.716  26.279  1.00  0.00     0.190 HD
BRANCH  12  15
ATOM     15  C   UNL A   1      33.368  26.639  22.143  1.00  0.00     0.051 C 
ATOM     16  C   UNL A   1      33.506  28.157  22.302  1.00  0.00     0.071 C 
ATOM     17  C   UNL A   1      31.988  26.337  21.553  1.00  0.00     0.071 C 
ATOM     18  C   UNL A   1      32.369  28.762  23.125  1.00  0.00     0.263 C 
ATOM     19  C   UNL A   1      30.844  26.962  22.353  1.00  0.00     0.263 C 
ATOM     20  N   UNL A   1      31.033  28.382  22.663  1.00  0.00    -0.330 N 
ATOM     21  H   UNL A   1      30.960  28.842  21.756  1.00  0.00     0.348 HD
BRANCH  20  22
ATOM     22  C   UNL A   1      29.953  28.919  23.524  1.00  0.00     0.310 C 
BRANCH  22  23
ATOM     23  C   UNL A   1      29.380  30.256  23.099  1.00  0.00     0.059 A 
ATOM     24  C   UNL A   1      29.236  31.414  23.844  1.00  0.00     0.021 A 
ATOM     25  S   UNL A   1      28.833  30.496  21.487  1.00  0.00    -0.143 S 
ATOM     26  C   UNL A   1      28.564  32.448  23.130  1.00  0.00     0.012 A 
ATOM     27  C   UNL A   1      28.284  32.078  21.835  1.00  0.00     0.065 A 
ENDBRANCH  22  23
ENDBRANCH  20  22
ENDBRANCH  12  15
ENDBRANCH   8   9
ENDBRANCH   6   8
ENDBRANCH   3   4
ENDBRANCH   2   3
ENDBRANCH   1   2
BRANCH   1  28
ATOM     28  C   UNL A   1      31.545  26.915  26.898  1.00  0.00     0.002 C 
BRANCH  28  29
ATOM     29  C   UNL A   1      31.370  28.434  26.966  1.00  0.00     0.021 C 
BRANCH  29  30
ATOM     30  C   UNL A   1      32.507  29.240  26.346  1.00  0.00     0.116 C 
BRANCH  30  31
ATOM     31  N   UNL A   1      32.280  30.674  26.436  1.00  0.00    -0.352 N 
ATOM     32  C   UNL A   1      32.988  31.626  27.127  1.00  0.00     0.251 C 
ATOM     33  H   UNL A   1      31.506  31.010  25.927  1.00  0.00     0.163 HD
ATOM     34  O   UNL A   1      32.529  32.762  27.236  1.00  0.00    -0.269 OA
BRANCH  32  35
ATOM     35  C   UNL A   1      34.280  31.279  27.759  1.00  0.00     0.039 A 
ATOM     36  C   UNL A   1      35.117  32.307  28.198  1.00  0.00     0.014 A 
ATOM     37  C   UNL A   1      34.669  29.946  27.917  1.00  0.00     0.014 A 
ATOM     38  C   UNL A   1      36.311  31.997  28.855  1.00  0.00     0.010 A 
ATOM     39  C   UNL A   1      35.818  29.639  28.643  1.00  0.00     0.010 A 
ATOM     40  C   UNL A   1      36.654  30.661  29.117  1.00  0.00    -0.014 A 
BRANCH  40  41
ATOM     41  C   UNL A   1      37.881  30.317  29.886  1.00  0.00     0.031 A 
ATOM     42  C   UNL A   1      38.902  29.375  29.307  1.00  0.00     0.074 A 
ATOM     43  C   UNL A   1      38.049  30.812  31.129  1.00  0.00     0.049 A 
ATOM     44  N   UNL A   1      40.009  28.922  29.839  1.00  0.00    -0.248 NA
ATOM     45  C   UNL A   1      38.626  28.852  27.962  1.00  0.00     0.031 C 
ATOM     46  C   UNL A   1      37.115  31.709  31.814  1.00  0.00     0.029 A 
ATOM     47  N   UNL A   1      39.062  30.633  32.038  1.00  0.00    -0.354 N 
ATOM     48  C   UNL A   1      40.553  28.051  28.902  1.00  0.00     0.074 A 
ATOM     49  C   UNL A   1      39.617  27.990  27.800  1.00  0.00     0.031 C 
ATOM     50  C   UNL A   1      37.620  32.035  33.014  1.00  0.00     0.029 A 
ATOM     51  C   UNL A   1      38.883  31.331  33.211  1.00  0.00     0.049 A 
ATOM     52  H   UNL A   1      39.844  30.059  31.867  1.00  0.00     0.167 HD
ATOM     53  C   UNL A   1      41.734  27.382  28.946  1.00  0.00     0.034 A 
ATOM     54  C   UNL A   1      39.645  31.392  34.320  1.00  0.00     0.034 A 
ATOM     55  C   UNL A   1      42.656  27.457  30.055  1.00  0.00     0.049 A 
ATOM     56  C   UNL A   1      40.927  30.598  34.369  1.00  0.00     0.074 A 
ATOM     57  C   UNL A   1      43.904  26.872  30.179  1.00  0.00     0.029 A 
ATOM     58  N   UNL A   1      42.425  28.146  31.240  1.00  0.00    -0.354 N 
ATOM     59  N   UNL A   1      41.459  29.826  33.449  1.00  0.00    -0.248 NA
ATOM     60  C   UNL A   1      41.714  30.692  35.604  1.00  0.00     0.031 C 
ATOM     61  C   UNL A   1      44.386  27.133  31.467  1.00  0.00     0.029 A 
ATOM     62  C   UNL A   1      43.485  27.962  32.115  1.00  0.00     0.049 A 
ATOM     63  H   UNL A   1      41.625  28.688  31.429  1.00  0.00     0.167 HD
ATOM     64  C   UNL A   1      42.662  29.374  33.983  1.00  0.00     0.074 A 
ATOM     65  C   UNL A   1      42.781  29.971  35.298  1.00  0.00     0.031 C 
ATOM     66  C   UNL A   1      43.590  28.548  33.433  1.00  0.00     0.034 A 
BRANCH  53  67
ATOM     67  C   UNL A   1      42.066  26.483  27.776  1.00  0.00     0.023 A 
ATOM     68  C   UNL A   1      41.639  25.143  27.725  1.00  0.00     0.031 A 
ATOM     69  C   UNL A   1      42.860  26.956  26.716  1.00  0.00     0.131 A 
ATOM     70  C   UNL A   1      42.087  24.303  26.694  1.00  0.00     0.055 A 
ATOM     71  C   UNL A   1      43.221  26.140  25.641  1.00  0.00     0.041 A 
ATOM     72  F   UNL A   1      43.318  28.219  26.713  1.00  0.00    -0.206 F 
ATOM     73  C   UNL A   1      42.852  24.798  25.636  1.00  0.00     0.022 A 
BRANCH  70  74
ATOM     74  S   UNL A   1      41.811  22.517  26.855  1.00  0.00     0.124 S 
ATOM     75  O   UNL A   1      42.835  22.147  27.829  1.00  0.00    -0.237 OA
ATOM     76  O   UNL A   1      40.431  22.452  27.322  1.00  0.00    -0.237 OA
ATOM     77  O   UNL A   1      42.038  22.011  25.502  1.00  0.00    -0.744 OA
ENDBRANCH  70  74
ENDBRANCH  53  67
BRANCH  54  78
ATOM     78  C   UNL A   1      39.232  32.236  35.479  1.00  0.00     0.023 A 
ATOM     79  C   UNL A   1      39.657  33.570  35.584  1.00  0.00     0.031 A 
ATOM     80  C   UNL A   1      38.442  31.714  36.519  1.00  0.00     0.131 A 
ATOM     81  C   UNL A   1      39.334  34.321  36.723  1.00  0.00     0.055 A 
ATOM     82  C   UNL A   1      38.073  32.483  37.624  1.00  0.00     0.041 A 
ATOM     83  F   UNL A   1      38.007  30.444  36.469  1.00  0.00    -0.206 F 
ATOM     84  C   UNL A   1      38.532  33.793  37.737  1.00  0.00     0.022 A 
BRANCH  81  85
ATOM     85  S   UNL A   1      40.055  35.976  36.905  1.00  0.00     0.124 S 
ATOM     86  O   UNL A   1      39.350  36.478  38.078  1.00  0.00    -0.237 OA
ATOM     87  O   UNL A   1      41.470  35.673  37.085  1.00  0.00    -0.237 OA
ATOM     88  O   UNL A   1      39.716  36.633  35.643  1.00  0.00    -0.744 OA
ENDBRANCH  81  85
ENDBRANCH  54  78
BRANCH  66  89
ATOM     89  C   UNL A   1      44.839  28.283  34.240  1.00  0.00     0.023 A 
ATOM     90  C   UNL A   1      44.937  27.197  35.128  1.00  0.00     0.031 A 
ATOM     91  C   UNL A   1      45.946  29.147  34.132  1.00  0.00     0.131 A 
ATOM     92  C   UNL A   1      46.087  27.039  35.918  1.00  0.00     0.055 A 
ATOM     93  C   UNL A   1      47.114  28.943  34.868  1.00  0.00     0.041 A 
ATOM     94  F   UNL A   1      45.910  30.205  33.307  1.00  0.00    -0.206 F 
ATOM     95  C   UNL A   1      47.183  27.894  35.780  1.00  0.00     0.022 A 
BRANCH  92  96
ATOM     96  S   UNL A   1      46.086  25.769  37.213  1.00  0.00     0.124 S 
ATOM     97  O   UNL A   1      47.385  25.979  37.845  1.00  0.00    -0.237 OA
ATOM     98  O   UNL A   1      44.922  26.138  38.012  1.00  0.00    -0.237 OA
ATOM     99  O   UNL A   1      45.955  24.518  36.468  1.00  0.00    -0.744 OA
ENDBRANCH  92  96
ENDBRANCH  66  89
ENDBRANCH  40  41
ENDBRANCH  32  35
ENDBRANCH  30  31
ENDBRANCH  29  30
ENDBRANCH  28  29
ENDBRANCH   1  28
TORSDOF 20
ENDMDL
