MODEL 1
REMARK VINA RESULT:     -10.3      0.000      0.000
REMARK SMILES COc1cc(OC(F)(F)F)cc2c1O[C@@H](C(F)(F)F)C(C(=O)NCCCCCCNC(=O)c1ccc(-c3c4nc(c(-c5cc(S(=O)(=O)[O-])ccc5F)c5ccc([nH]5)c(-c5cc(S(=O)(=O)[O-])ccc5F)c5nc(c(-c6cc(S(=O)(=O)[O-])ccc6F)c6ccc3[nH]6)C=C5)C=C4)cc1)=C2
REMARK SMILES IDX 27 1 26 2 25 3 24 4 23 5 21 6 22 7 20 9 3 10 4 11 13 12 5 13
REMARK SMILES IDX 12 14 14 15 11 16 96 17 15 18 2 19 1 20 6 21 7 22 8 23 9 24
REMARK SMILES IDX 10 25 16 26 17 27 18 28 19 29 28 30 29 31 30 32 31 33 32 35
REMARK SMILES IDX 33 36 34 37 95 38 35 39 94 40 36 41 37 42 38 43 88 44 39 45
REMARK SMILES IDX 93 46 87 47 89 48 40 49 92 50 86 51 85 52 41 54 73 55 53 56
REMARK SMILES IDX 72 57 54 58 57 59 71 60 90 61 55 62 56 63 70 65 91 66 58 67
REMARK SMILES IDX 42 68 43 69 51 70 44 71 50 72 52 73 49 74 45 75 46 76 47 77
REMARK SMILES IDX 48 78 74 79 75 80 83 81 76 82 82 83 84 84 81 85 77 86 78 87
REMARK SMILES IDX 79 88 80 89 59 90 60 91 68 92 61 93 67 94 69 95 66 96 62 97
REMARK SMILES IDX 63 98 64 99 65 100
REMARK H PARENT 23 8 30 34 89 53 57 64
REMARK Flexibility Score: inf
ROOT
ATOM      1  C   UNL A   1      39.193  20.851  25.933  1.00  0.00     0.002 C 
ENDROOT
BRANCH   1   2
ATOM      2  C   UNL A   1      39.873  22.220  25.811  1.00  0.00     0.002 C 
BRANCH   2   3
ATOM      3  C   UNL A   1      39.454  23.236  26.883  1.00  0.00     0.021 C 
BRANCH   3   4
ATOM      4  C   UNL A   1      38.232  24.065  26.473  1.00  0.00     0.116 C 
BRANCH   4   5
ATOM      5  N   UNL A   1      37.877  23.742  25.101  1.00  0.00    -0.352 N 
ATOM      6  C   UNL A   1      36.689  23.527  24.483  1.00  0.00     0.251 C 
ATOM      7  O   UNL A   1      36.707  23.012  23.368  1.00  0.00    -0.270 OA
ATOM      8  H   UNL A   1      38.653  23.665  24.500  1.00  0.00     0.163 HD
BRANCH   6   9
ATOM      9  C   UNL A   1      35.388  23.971  25.052  1.00  0.00     0.067 C 
ATOM     10  C   UNL A   1      31.534  24.773  26.530  1.00  0.00     0.165 A 
ATOM     11  C   UNL A   1      30.841  25.901  26.077  1.00  0.00     0.097 A 
ATOM     12  C   UNL A   1      32.830  24.505  26.073  1.00  0.00     0.170 A 
ATOM     13  C   UNL A   1      31.454  26.797  25.204  1.00  0.00     0.134 A 
ATOM     14  C   UNL A   1      33.460  25.412  25.223  1.00  0.00     0.025 A 
ATOM     15  O   UNL A   1      33.395  23.306  26.394  1.00  0.00    -0.471 OA
ATOM     16  C   UNL A   1      32.769  26.552  24.794  1.00  0.00     0.059 A 
ATOM     17  C   UNL A   1      34.785  25.116  24.698  1.00  0.00     0.026 C 
ATOM     18  C   UNL A   1      34.825  23.131  26.192  1.00  0.00     0.314 C 
BRANCH  10  19
ATOM     19  O   UNL A   1      30.831  23.947  27.372  1.00  0.00    -0.493 OA
ATOM     20  C   UNL A   1      29.785  23.239  26.707  1.00  0.00     0.278 C 
ENDBRANCH  10  19
BRANCH  13  21
ATOM     21  O   UNL A   1      30.898  27.920  24.663  1.00  0.00    -0.406 OA
BRANCH  21  22
ATOM     22  C   UNL A   1      30.257  27.806  23.404  1.00  0.00     0.573 C 
ATOM     23  F   UNL A   1      30.261  26.528  22.968  1.00  0.00    -0.132 F 
ATOM     24  F   UNL A   1      28.984  28.254  23.470  1.00  0.00    -0.132 F 
ATOM     25  F   UNL A   1      30.922  28.562  22.506  1.00  0.00    -0.132 F 
ENDBRANCH  21  22
ENDBRANCH  13  21
BRANCH  18  26
ATOM     26  C   UNL A   1      35.085  21.605  26.159  1.00  0.00     0.429 C 
ATOM     27  F   UNL A   1      36.370  21.285  26.434  1.00  0.00    -0.167 F 
ATOM     28  F   UNL A   1      34.353  20.973  27.119  1.00  0.00    -0.167 F 
ATOM     29  F   UNL A   1      34.747  21.041  24.978  1.00  0.00    -0.167 F 
ENDBRANCH  18  26
ENDBRANCH   6   9
ENDBRANCH   4   5
ENDBRANCH   3   4
ENDBRANCH   2   3
ENDBRANCH   1   2
BRANCH   1  30
ATOM     30  C   UNL A   1      40.154  19.674  26.116  1.00  0.00     0.021 C 
BRANCH  30  31
ATOM     31  C   UNL A   1      41.445  20.035  26.843  1.00  0.00     0.116 C 
BRANCH  31  32
ATOM     32  N   UNL A   1      42.607  19.806  25.999  1.00  0.00    -0.352 N 
ATOM     33  C   UNL A   1      43.477  20.723  25.462  1.00  0.00     0.251 C 
ATOM     34  H   UNL A   1      42.796  18.865  25.782  1.00  0.00     0.163 HD
ATOM     35  O   UNL A   1      44.232  20.389  24.555  1.00  0.00    -0.269 OA
BRANCH  33  36
ATOM     36  C   UNL A   1      43.485  22.109  25.975  1.00  0.00     0.039 A 
ATOM     37  C   UNL A   1      43.676  22.328  27.341  1.00  0.00     0.014 A 
ATOM     38  C   UNL A   1      43.295  23.189  25.107  1.00  0.00     0.014 A 
ATOM     39  C   UNL A   1      43.727  23.636  27.828  1.00  0.00     0.010 A 
ATOM     40  C   UNL A   1      43.422  24.491  25.583  1.00  0.00     0.010 A 
ATOM     41  C   UNL A   1      43.632  24.728  26.950  1.00  0.00    -0.014 A 
BRANCH  41  42
ATOM     42  C   UNL A   1      43.738  26.125  27.444  1.00  0.00     0.031 A 
ATOM     43  C   UNL A   1      45.079  26.808  27.491  1.00  0.00     0.074 A 
ATOM     44  C   UNL A   1      42.638  26.756  27.900  1.00  0.00     0.049 A 
ATOM     45  N   UNL A   1      45.389  27.992  27.953  1.00  0.00    -0.248 NA
ATOM     46  C   UNL A   1      46.226  26.044  26.978  1.00  0.00     0.031 C 
ATOM     47  C   UNL A   1      41.290  26.183  27.936  1.00  0.00     0.029 A 
ATOM     48  N   UNL A   1      42.476  28.013  28.425  1.00  0.00    -0.354 N 
ATOM     49  C   UNL A   1      46.766  28.111  27.796  1.00  0.00     0.074 A 
ATOM     50  C   UNL A   1      47.237  26.853  27.257  1.00  0.00     0.031 C 
ATOM     51  C   UNL A   1      40.437  27.094  28.430  1.00  0.00     0.029 A 
ATOM     52  C   UNL A   1      41.180  28.297  28.794  1.00  0.00     0.049 A 
ATOM     53  H   UNL A   1      43.217  28.652  28.530  1.00  0.00     0.167 HD
ATOM     54  C   UNL A   1      47.560  29.181  28.054  1.00  0.00     0.034 A 
ATOM     55  C   UNL A   1      40.653  29.395  29.372  1.00  0.00     0.034 A 
ATOM     56  C   UNL A   1      47.070  30.430  28.582  1.00  0.00     0.049 A 
ATOM     57  C   UNL A   1      41.562  30.558  29.681  1.00  0.00     0.074 A 
ATOM     58  C   UNL A   1      47.775  31.595  28.835  1.00  0.00     0.029 A 
ATOM     59  N   UNL A   1      45.753  30.679  28.951  1.00  0.00    -0.354 N 
ATOM     60  N   UNL A   1      42.855  30.673  29.481  1.00  0.00    -0.248 NA
ATOM     61  C   UNL A   1      40.939  31.743  30.286  1.00  0.00     0.031 C 
ATOM     62  C   UNL A   1      46.904  32.518  29.423  1.00  0.00     0.029 A 
ATOM     63  C   UNL A   1      45.634  31.964  29.459  1.00  0.00     0.049 A 
ATOM     64  H   UNL A   1      45.012  30.036  28.862  1.00  0.00     0.167 HD
ATOM     65  C   UNL A   1      43.191  31.957  29.903  1.00  0.00     0.074 A 
ATOM     66  C   UNL A   1      41.963  32.579  30.354  1.00  0.00     0.031 C 
ATOM     67  C   UNL A   1      44.403  32.568  29.915  1.00  0.00     0.034 A 
BRANCH  54  68
ATOM     68  C   UNL A   1      49.041  29.029  27.792  1.00  0.00     0.023 A 
ATOM     69  C   UNL A   1      49.589  29.217  26.512  1.00  0.00     0.031 A 
ATOM     70  C   UNL A   1      49.915  28.674  28.835  1.00  0.00     0.131 A 
ATOM     71  C   UNL A   1      50.953  28.974  26.290  1.00  0.00     0.055 A 
ATOM     72  C   UNL A   1      51.287  28.518  28.624  1.00  0.00     0.041 A 
ATOM     73  F   UNL A   1      49.450  28.458  30.075  1.00  0.00    -0.206 F 
ATOM     74  C   UNL A   1      51.811  28.652  27.343  1.00  0.00     0.022 A 
BRANCH  71  75
ATOM     75  S   UNL A   1      51.559  28.940  24.580  1.00  0.00     0.124 S 
ATOM     76  O   UNL A   1      51.864  30.351  24.348  1.00  0.00    -0.237 OA
ATOM     77  O   UNL A   1      52.706  28.046  24.670  1.00  0.00    -0.237 OA
ATOM     78  O   UNL A   1      50.421  28.424  23.823  1.00  0.00    -0.744 OA
ENDBRANCH  71  75
ENDBRANCH  54  68
BRANCH  55  79
ATOM     79  C   UNL A   1      39.201  29.451  29.709  1.00  0.00     0.023 A 
ATOM     80  C   UNL A   1      38.277  30.038  28.831  1.00  0.00     0.031 A 
ATOM     81  C   UNL A   1      38.722  28.961  30.938  1.00  0.00     0.131 A 
ATOM     82  C   UNL A   1      36.932  30.168  29.214  1.00  0.00     0.055 A 
ATOM     83  C   UNL A   1      37.374  29.039  31.289  1.00  0.00     0.041 A 
ATOM     84  F   UNL A   1      39.562  28.386  31.814  1.00  0.00    -0.206 F 
ATOM     85  C   UNL A   1      36.472  29.659  30.430  1.00  0.00     0.022 A 
BRANCH  82  86
ATOM     86  S   UNL A   1      35.810  31.102  28.137  1.00  0.00     0.124 S 
ATOM     87  O   UNL A   1      35.674  30.200  26.999  1.00  0.00    -0.237 OA
ATOM     88  O   UNL A   1      34.631  31.249  28.985  1.00  0.00    -0.237 OA
ATOM     89  O   UNL A   1      36.544  32.338  27.873  1.00  0.00    -0.744 OA
ENDBRANCH  82  86
ENDBRANCH  55  79
BRANCH  67  90
ATOM     90  C   UNL A   1      44.445  34.001  30.388  1.00  0.00     0.023 A 
ATOM     91  C   UNL A   1      44.159  35.075  29.527  1.00  0.00     0.031 A 
ATOM     92  C   UNL A   1      44.787  34.295  31.721  1.00  0.00     0.131 A 
ATOM     93  C   UNL A   1      44.278  36.394  29.992  1.00  0.00     0.055 A 
ATOM     94  C   UNL A   1      44.838  35.606  32.195  1.00  0.00     0.041 A 
ATOM     95  F   UNL A   1      45.073  33.310  32.587  1.00  0.00    -0.206 F 
ATOM     96  C   UNL A   1      44.596  36.665  31.326  1.00  0.00     0.022 A 
BRANCH  93  97
ATOM     97  S   UNL A   1      44.107  37.754  28.805  1.00  0.00     0.124 S 
ATOM     98  O   UNL A   1      44.935  37.293  27.695  1.00  0.00    -0.237 OA
ATOM     99  O   UNL A   1      42.669  37.778  28.561  1.00  0.00    -0.237 OA
ATOM    100  O   UNL A   1      44.631  38.910  29.530  1.00  0.00    -0.744 OA
ENDBRANCH  93  97
ENDBRANCH  67  90
ENDBRANCH  41  42
ENDBRANCH  33  36
ENDBRANCH  31  32
ENDBRANCH  30  31
ENDBRANCH   1  30
TORSDOF 20
ENDMDL
MODEL 2
REMARK VINA RESULT:     -10.3      2.383      2.916
REMARK SMILES COc1cc(OC(F)(F)F)cc2c1O[C@@H](C(F)(F)F)C(C(=O)NCCCCCCNC(=O)c1ccc(-c3c4nc(c(-c5cc(S(=O)(=O)[O-])ccc5F)c5ccc([nH]5)c(-c5cc(S(=O)(=O)[O-])ccc5F)c5nc(c(-c6cc(S(=O)(=O)[O-])ccc6F)c6ccc3[nH]6)C=C5)C=C4)cc1)=C2
REMARK SMILES IDX 27 1 26 2 25 3 24 4 23 5 21 6 22 7 20 9 3 10 4 11 13 12 5 13
REMARK SMILES IDX 12 14 14 15 11 16 96 17 15 18 2 19 1 20 6 21 7 22 8 23 9 24
REMARK SMILES IDX 10 25 16 26 17 27 18 28 19 29 28 30 29 31 30 32 31 33 32 35
REMARK SMILES IDX 33 36 34 37 95 38 35 39 94 40 36 41 37 42 38 43 88 44 39 45
REMARK SMILES IDX 93 46 87 47 89 48 40 49 92 50 86 51 85 52 41 54 73 55 53 56
REMARK SMILES IDX 72 57 54 58 57 59 71 60 90 61 55 62 56 63 70 65 91 66 58 67
REMARK SMILES IDX 42 68 43 69 51 70 44 71 50 72 52 73 49 74 45 75 46 76 47 77
REMARK SMILES IDX 48 78 74 79 75 80 83 81 76 82 82 83 84 84 81 85 77 86 78 87
REMARK SMILES IDX 79 88 80 89 59 90 60 91 68 92 61 93 67 94 69 95 66 96 62 97
REMARK SMILES IDX 63 98 64 99 65 100
REMARK H PARENT 23 8 30 34 89 53 57 64
REMARK Flexibility Score: inf
ROOT
ATOM      1  C   UNL A   1      38.620  20.946  25.375  1.00  0.00     0.002 C 
ENDROOT
BRANCH   1   2
ATOM      2  C   UNL A   1      39.490  22.151  25.751  1.00  0.00     0.002 C 
BRANCH   2   3
ATOM      3  C   UNL A   1      38.893  23.049  26.843  1.00  0.00     0.021 C 
BRANCH   3   4
ATOM      4  C   UNL A   1      37.900  24.078  26.291  1.00  0.00     0.116 C 
BRANCH   4   5
ATOM      5  N   UNL A   1      37.530  23.703  24.937  1.00  0.00    -0.352 N 
ATOM      6  C   UNL A   1      36.334  23.475  24.338  1.00  0.00     0.251 C 
ATOM      7  O   UNL A   1      36.338  22.914  23.245  1.00  0.00    -0.270 OA
ATOM      8  H   UNL A   1      38.300  23.592  24.334  1.00  0.00     0.163 HD
BRANCH   6   9
ATOM      9  C   UNL A   1      35.044  23.957  24.898  1.00  0.00     0.067 C 
ATOM     10  C   UNL A   1      31.210  24.861  26.371  1.00  0.00     0.165 A 
ATOM     11  C   UNL A   1      30.527  25.979  25.880  1.00  0.00     0.097 A 
ATOM     12  C   UNL A   1      32.500  24.561  25.916  1.00  0.00     0.170 A 
ATOM     13  C   UNL A   1      31.143  26.832  24.967  1.00  0.00     0.134 A 
ATOM     14  C   UNL A   1      33.133  25.425  25.026  1.00  0.00     0.025 A 
ATOM     15  O   UNL A   1      33.054  23.369  26.280  1.00  0.00    -0.471 OA
ATOM     16  C   UNL A   1      32.452  26.556  24.558  1.00  0.00     0.059 A 
ATOM     17  C   UNL A   1      34.451  25.094  24.504  1.00  0.00     0.026 C 
ATOM     18  C   UNL A   1      34.480  23.169  26.075  1.00  0.00     0.314 C 
BRANCH  10  19
ATOM     19  O   UNL A   1      30.505  24.077  27.251  1.00  0.00    -0.493 OA
ATOM     20  C   UNL A   1      29.967  22.905  26.638  1.00  0.00     0.278 C 
ENDBRANCH  10  19
BRANCH  13  21
ATOM     21  O   UNL A   1      30.595  27.940  24.386  1.00  0.00    -0.406 OA
BRANCH  21  22
ATOM     22  C   UNL A   1      29.754  27.754  23.260  1.00  0.00     0.573 C 
ATOM     23  F   UNL A   1      29.002  28.849  23.026  1.00  0.00    -0.132 F 
ATOM     24  F   UNL A   1      30.483  27.465  22.160  1.00  0.00    -0.132 F 
ATOM     25  F   UNL A   1      28.928  26.715  23.501  1.00  0.00    -0.132 F 
ENDBRANCH  21  22
ENDBRANCH  13  21
BRANCH  18  26
ATOM     26  C   UNL A   1      34.722  21.640  26.101  1.00  0.00     0.429 C 
ATOM     27  F   UNL A   1      33.839  20.981  26.884  1.00  0.00    -0.167 F 
ATOM     28  F   UNL A   1      34.556  21.106  24.859  1.00  0.00    -0.167 F 
ATOM     29  F   UNL A   1      35.973  21.315  26.499  1.00  0.00    -0.167 F 
ENDBRANCH  18  26
ENDBRANCH   6   9
ENDBRANCH   4   5
ENDBRANCH   3   4
ENDBRANCH   2   3
ENDBRANCH   1   2
BRANCH   1  30
ATOM     30  C   UNL A   1      39.261  19.583  25.651  1.00  0.00     0.021 C 
BRANCH  30  31
ATOM     31  C   UNL A   1      40.411  19.631  26.651  1.00  0.00     0.116 C 
BRANCH  31  32
ATOM     32  N   UNL A   1      41.559  18.878  26.171  1.00  0.00    -0.352 N 
ATOM     33  C   UNL A   1      42.773  19.343  25.728  1.00  0.00     0.251 C 
ATOM     34  H   UNL A   1      41.451  17.899  26.161  1.00  0.00     0.163 HD
ATOM     35  O   UNL A   1      43.520  18.599  25.103  1.00  0.00    -0.269 OA
BRANCH  33  36
ATOM     36  C   UNL A   1      43.160  20.743  25.999  1.00  0.00     0.039 A 
ATOM     37  C   UNL A   1      43.386  21.607  24.925  1.00  0.00     0.014 A 
ATOM     38  C   UNL A   1      43.310  21.198  27.313  1.00  0.00     0.014 A 
ATOM     39  C   UNL A   1      43.711  22.943  25.172  1.00  0.00     0.010 A 
ATOM     40  C   UNL A   1      43.560  22.545  27.556  1.00  0.00     0.010 A 
ATOM     41  C   UNL A   1      43.771  23.431  26.488  1.00  0.00    -0.014 A 
BRANCH  41  42
ATOM     42  C   UNL A   1      44.063  24.860  26.767  1.00  0.00     0.031 A 
ATOM     43  C   UNL A   1      45.451  25.402  26.552  1.00  0.00     0.074 A 
ATOM     44  C   UNL A   1      43.093  25.654  27.263  1.00  0.00     0.049 A 
ATOM     45  N   UNL A   1      45.921  26.596  26.804  1.00  0.00    -0.248 NA
ATOM     46  C   UNL A   1      46.448  24.465  26.012  1.00  0.00     0.031 C 
ATOM     47  C   UNL A   1      41.719  25.231  27.545  1.00  0.00     0.029 A 
ATOM     48  N   UNL A   1      43.112  26.976  27.625  1.00  0.00    -0.354 N 
ATOM     49  C   UNL A   1      47.269  26.552  26.462  1.00  0.00     0.074 A 
ATOM     50  C   UNL A   1      47.553  25.195  26.049  1.00  0.00     0.031 C 
ATOM     51  C   UNL A   1      41.022  26.280  28.009  1.00  0.00     0.029 A 
ATOM     52  C   UNL A   1      41.908  27.437  28.109  1.00  0.00     0.049 A 
ATOM     53  H   UNL A   1      43.912  27.544  27.547  1.00  0.00     0.167 HD
ATOM     54  C   UNL A   1      48.179  27.558  26.469  1.00  0.00     0.034 A 
ATOM     55  C   UNL A   1      41.561  28.647  28.589  1.00  0.00     0.034 A 
ATOM     56  C   UNL A   1      47.874  28.908  26.876  1.00  0.00     0.049 A 
ATOM     57  C   UNL A   1      42.600  29.740  28.619  1.00  0.00     0.074 A 
ATOM     58  C   UNL A   1      48.705  30.016  26.876  1.00  0.00     0.029 A 
ATOM     59  N   UNL A   1      46.646  29.335  27.366  1.00  0.00    -0.354 N 
ATOM     60  N   UNL A   1      43.858  29.696  28.247  1.00  0.00    -0.248 NA
ATOM     61  C   UNL A   1      42.168  31.049  29.127  1.00  0.00     0.031 C 
ATOM     62  C   UNL A   1      48.004  31.091  27.433  1.00  0.00     0.029 A 
ATOM     63  C   UNL A   1      46.709  30.679  27.702  1.00  0.00     0.049 A 
ATOM     64  H   UNL A   1      45.848  28.767  27.460  1.00  0.00     0.167 HD
ATOM     65  C   UNL A   1      44.357  30.981  28.442  1.00  0.00     0.074 A 
ATOM     66  C   UNL A   1      43.260  31.778  28.951  1.00  0.00     0.031 C 
ATOM     67  C   UNL A   1      45.607  31.460  28.220  1.00  0.00     0.034 A 
BRANCH  54  68
ATOM     68  C   UNL A   1      49.592  27.223  26.050  1.00  0.00     0.023 A 
ATOM     69  C   UNL A   1      50.594  26.933  26.991  1.00  0.00     0.031 A 
ATOM     70  C   UNL A   1      49.947  27.213  24.689  1.00  0.00     0.131 A 
ATOM     71  C   UNL A   1      51.915  26.721  26.568  1.00  0.00     0.055 A 
ATOM     72  C   UNL A   1      51.245  26.916  24.269  1.00  0.00     0.041 A 
ATOM     73  F   UNL A   1      49.041  27.505  23.743  1.00  0.00    -0.206 F 
ATOM     74  C   UNL A   1      52.242  26.683  25.211  1.00  0.00     0.022 A 
BRANCH  71  75
ATOM     75  S   UNL A   1      53.224  26.643  27.821  1.00  0.00     0.124 S 
ATOM     76  O   UNL A   1      52.459  26.331  29.026  1.00  0.00    -0.237 OA
ATOM     77  O   UNL A   1      54.082  25.578  27.315  1.00  0.00    -0.237 OA
ATOM     78  O   UNL A   1      53.807  27.982  27.792  1.00  0.00    -0.744 OA
ENDBRANCH  71  75
ENDBRANCH  54  68
BRANCH  55  79
ATOM     79  C   UNL A   1      40.178  28.895  29.092  1.00  0.00     0.023 A 
ATOM     80  C   UNL A   1      39.873  28.780  30.456  1.00  0.00     0.031 A 
ATOM     81  C   UNL A   1      39.129  29.202  28.206  1.00  0.00     0.131 A 
ATOM     82  C   UNL A   1      38.545  28.920  30.892  1.00  0.00     0.055 A 
ATOM     83  C   UNL A   1      37.821  29.399  28.651  1.00  0.00     0.041 A 
ATOM     84  F   UNL A   1      39.365  29.327  26.890  1.00  0.00    -0.206 F 
ATOM     85  C   UNL A   1      37.520  29.244  30.001  1.00  0.00     0.022 A 
BRANCH  82  86
ATOM     86  S   UNL A   1      38.161  28.576  32.631  1.00  0.00     0.124 S 
ATOM     87  O   UNL A   1      36.865  29.227  32.782  1.00  0.00    -0.237 OA
ATOM     88  O   UNL A   1      38.153  27.116  32.655  1.00  0.00    -0.237 OA
ATOM     89  O   UNL A   1      39.265  29.204  33.353  1.00  0.00    -0.744 OA
ENDBRANCH  82  86
ENDBRANCH  55  79
BRANCH  67  90
ATOM     90  C   UNL A   1      45.836  32.929  28.480  1.00  0.00     0.023 A 
ATOM     91  C   UNL A   1      46.259  33.404  29.734  1.00  0.00     0.031 A 
ATOM     92  C   UNL A   1      45.618  33.870  27.457  1.00  0.00     0.131 A 
ATOM     93  C   UNL A   1      46.393  34.784  29.951  1.00  0.00     0.055 A 
ATOM     94  C   UNL A   1      45.817  35.237  27.659  1.00  0.00     0.041 A 
ATOM     95  F   UNL A   1      45.210  33.475  26.240  1.00  0.00    -0.206 F 
ATOM     96  C   UNL A   1      46.193  35.701  28.916  1.00  0.00     0.022 A 
BRANCH  93  97
ATOM     97  S   UNL A   1      46.735  35.372  31.631  1.00  0.00     0.124 S 
ATOM     98  O   UNL A   1      47.385  36.654  31.378  1.00  0.00    -0.237 OA
ATOM     99  O   UNL A   1      45.401  35.439  32.218  1.00  0.00    -0.237 OA
ATOM    100  O   UNL A   1      47.604  34.336  32.188  1.00  0.00    -0.744 OA
ENDBRANCH  93  97
ENDBRANCH  67  90
ENDBRANCH  41  42
ENDBRANCH  33  36
ENDBRANCH  31  32
ENDBRANCH  30  31
ENDBRANCH   1  30
TORSDOF 20
ENDMDL
MODEL 3
REMARK VINA RESULT:     -10.0      2.584      7.956
REMARK SMILES COc1cc(OC(F)(F)F)cc2c1O[C@@H](C(F)(F)F)C(C(=O)NCCCCCCNC(=O)c1ccc(-c3c4nc(c(-c5cc(S(=O)(=O)[O-])ccc5F)c5ccc([nH]5)c(-c5cc(S(=O)(=O)[O-])ccc5F)c5nc(c(-c6cc(S(=O)(=O)[O-])ccc6F)c6ccc3[nH]6)C=C5)C=C4)cc1)=C2
REMARK SMILES IDX 27 1 26 2 25 3 24 4 23 5 21 6 22 7 20 9 3 10 4 11 13 12 5 13
REMARK SMILES IDX 12 14 14 15 11 16 96 17 15 18 2 19 1 20 6 21 7 22 8 23 9 24
REMARK SMILES IDX 10 25 16 26 17 27 18 28 19 29 28 30 29 31 30 32 31 33 32 35
REMARK SMILES IDX 33 36 34 37 95 38 35 39 94 40 36 41 37 42 38 43 88 44 39 45
REMARK SMILES IDX 93 46 87 47 89 48 40 49 92 50 86 51 85 52 41 54 73 55 53 56
REMARK SMILES IDX 72 57 54 58 57 59 71 60 90 61 55 62 56 63 70 65 91 66 58 67
REMARK SMILES IDX 42 68 43 69 51 70 44 71 50 72 52 73 49 74 45 75 46 76 47 77
REMARK SMILES IDX 48 78 74 79 75 80 83 81 76 82 82 83 84 84 81 85 77 86 78 87
REMARK SMILES IDX 79 88 80 89 59 90 60 91 68 92 61 93 67 94 69 95 66 96 62 97
REMARK SMILES IDX 63 98 64 99 65 100
REMARK H PARENT 23 8 30 34 89 53 57 64
REMARK Flexibility Score: inf
ROOT
ATOM      1  C   UNL A   1      38.088  21.924  25.695  1.00  0.00     0.002 C 
ENDROOT
BRANCH   1   2
ATOM      2  C   UNL A   1      37.307  21.555  24.428  1.00  0.00     0.002 C 
BRANCH   2   3
ATOM      3  C   UNL A   1      36.338  22.642  23.941  1.00  0.00     0.021 C 
BRANCH   3   4
ATOM      4  C   UNL A   1      35.860  23.563  25.069  1.00  0.00     0.116 C 
BRANCH   4   5
ATOM      5  N   UNL A   1      34.829  22.884  25.834  1.00  0.00    -0.352 N 
ATOM      6  C   UNL A   1      33.619  23.279  26.304  1.00  0.00     0.251 C 
ATOM      7  O   UNL A   1      33.073  22.573  27.147  1.00  0.00    -0.270 OA
ATOM      8  H   UNL A   1      35.051  21.951  26.054  1.00  0.00     0.163 HD
BRANCH   6   9
ATOM      9  C   UNL A   1      32.894  24.466  25.776  1.00  0.00     0.067 C 
ATOM     10  C   UNL A   1      30.969  27.654  23.824  1.00  0.00     0.165 A 
ATOM     11  C   UNL A   1      31.303  28.971  24.157  1.00  0.00     0.097 A 
ATOM     12  C   UNL A   1      31.576  26.579  24.484  1.00  0.00     0.170 A 
ATOM     13  C   UNL A   1      32.208  29.227  25.184  1.00  0.00     0.134 A 
ATOM     14  C   UNL A   1      32.460  26.827  25.531  1.00  0.00     0.025 A 
ATOM     15  O   UNL A   1      31.361  25.320  24.006  1.00  0.00    -0.471 OA
ATOM     16  C   UNL A   1      32.771  28.149  25.877  1.00  0.00     0.059 A 
ATOM     17  C   UNL A   1      33.140  25.719  26.187  1.00  0.00     0.026 C 
ATOM     18  C   UNL A   1      31.727  24.184  24.837  1.00  0.00     0.314 C 
BRANCH  10  19
ATOM     19  O   UNL A   1      30.081  27.514  22.785  1.00  0.00    -0.493 OA
ATOM     20  C   UNL A   1      29.157  28.599  22.698  1.00  0.00     0.278 C 
ENDBRANCH  10  19
BRANCH  13  21
ATOM     21  O   UNL A   1      32.646  30.451  25.602  1.00  0.00    -0.406 OA
BRANCH  21  22
ATOM     22  C   UNL A   1      32.126  30.966  26.816  1.00  0.00     0.573 C 
ATOM     23  F   UNL A   1      31.396  30.037  27.467  1.00  0.00    -0.132 F 
ATOM     24  F   UNL A   1      33.122  31.399  27.618  1.00  0.00    -0.132 F 
ATOM     25  F   UNL A   1      31.325  32.015  26.536  1.00  0.00    -0.132 F 
ENDBRANCH  21  22
ENDBRANCH  13  21
BRANCH  18  26
ATOM     26  C   UNL A   1      31.840  22.961  23.894  1.00  0.00     0.429 C 
ATOM     27  F   UNL A   1      31.745  21.782  24.549  1.00  0.00    -0.167 F 
ATOM     28  F   UNL A   1      30.813  22.949  22.999  1.00  0.00    -0.167 F 
ATOM     29  F   UNL A   1      32.984  22.960  23.173  1.00  0.00    -0.167 F 
ENDBRANCH  18  26
ENDBRANCH   6   9
ENDBRANCH   4   5
ENDBRANCH   3   4
ENDBRANCH   2   3
ENDBRANCH   1   2
BRANCH   1  30
ATOM     30  C   UNL A   1      39.533  21.419  25.725  1.00  0.00     0.021 C 
BRANCH  30  31
ATOM     31  C   UNL A   1      39.788  20.330  26.762  1.00  0.00     0.116 C 
BRANCH  31  32
ATOM     32  N   UNL A   1      40.861  19.442  26.343  1.00  0.00    -0.352 N 
ATOM     33  C   UNL A   1      42.145  19.756  25.973  1.00  0.00     0.251 C 
ATOM     34  H   UNL A   1      40.635  18.485  26.320  1.00  0.00     0.163 HD
ATOM     35  O   UNL A   1      42.831  18.926  25.386  1.00  0.00    -0.269 OA
BRANCH  33  36
ATOM     36  C   UNL A   1      42.685  21.098  26.276  1.00  0.00     0.039 A 
ATOM     37  C   UNL A   1      42.972  21.970  25.223  1.00  0.00     0.014 A 
ATOM     38  C   UNL A   1      42.916  21.490  27.598  1.00  0.00     0.014 A 
ATOM     39  C   UNL A   1      43.442  23.255  25.502  1.00  0.00     0.010 A 
ATOM     40  C   UNL A   1      43.313  22.795  27.875  1.00  0.00     0.010 A 
ATOM     41  C   UNL A   1      43.587  23.689  26.829  1.00  0.00    -0.014 A 
BRANCH  41  42
ATOM     42  C   UNL A   1      44.035  25.070  27.143  1.00  0.00     0.031 A 
ATOM     43  C   UNL A   1      43.060  26.069  27.709  1.00  0.00     0.074 A 
ATOM     44  C   UNL A   1      45.302  25.439  26.869  1.00  0.00     0.049 A 
ATOM     45  N   UNL A   1      43.237  27.336  27.981  1.00  0.00    -0.248 NA
ATOM     46  C   UNL A   1      41.697  25.582  27.973  1.00  0.00     0.031 C 
ATOM     47  C   UNL A   1      46.327  24.568  26.288  1.00  0.00     0.029 A 
ATOM     48  N   UNL A   1      45.944  26.639  27.034  1.00  0.00    -0.354 N 
ATOM     49  C   UNL A   1      42.009  27.800  28.439  1.00  0.00     0.074 A 
ATOM     50  C   UNL A   1      41.080  26.694  28.344  1.00  0.00     0.031 C 
ATOM     51  C   UNL A   1      47.474  25.255  26.172  1.00  0.00     0.029 A 
ATOM     52  C   UNL A   1      47.257  26.628  26.619  1.00  0.00     0.049 A 
ATOM     53  H   UNL A   1      45.508  27.436  27.414  1.00  0.00     0.167 HD
ATOM     54  C   UNL A   1      41.691  29.029  28.918  1.00  0.00     0.034 A 
ATOM     55  C   UNL A   1      48.176  27.613  26.590  1.00  0.00     0.034 A 
ATOM     56  C   UNL A   1      42.634  30.117  29.014  1.00  0.00     0.049 A 
ATOM     57  C   UNL A   1      47.790  28.981  27.095  1.00  0.00     0.074 A 
ATOM     58  C   UNL A   1      42.435  31.387  29.528  1.00  0.00     0.029 A 
ATOM     59  N   UNL A   1      43.952  30.070  28.577  1.00  0.00    -0.354 N 
ATOM     60  N   UNL A   1      46.637  29.390  27.571  1.00  0.00    -0.248 NA
ATOM     61  C   UNL A   1      48.832  30.015  27.069  1.00  0.00     0.031 C 
ATOM     62  C   UNL A   1      43.605  32.128  29.335  1.00  0.00     0.029 A 
ATOM     63  C   UNL A   1      44.565  31.298  28.779  1.00  0.00     0.049 A 
ATOM     64  H   UNL A   1      44.388  29.280  28.183  1.00  0.00     0.167 HD
ATOM     65  C   UNL A   1      46.827  30.721  27.932  1.00  0.00     0.074 A 
ATOM     66  C   UNL A   1      48.209  31.038  27.633  1.00  0.00     0.031 C 
ATOM     67  C   UNL A   1      45.943  31.603  28.466  1.00  0.00     0.034 A 
BRANCH  54  68
ATOM     68  C   UNL A   1      40.261  29.263  29.346  1.00  0.00     0.023 A 
ATOM     69  C   UNL A   1      39.893  29.314  30.701  1.00  0.00     0.031 A 
ATOM     70  C   UNL A   1      39.246  29.419  28.384  1.00  0.00     0.131 A 
ATOM     71  C   UNL A   1      38.541  29.437  31.058  1.00  0.00     0.055 A 
ATOM     72  C   UNL A   1      37.914  29.628  28.747  1.00  0.00     0.041 A 
ATOM     73  F   UNL A   1      39.530  29.358  27.074  1.00  0.00    -0.206 F 
ATOM     74  C   UNL A   1      37.552  29.622  30.090  1.00  0.00     0.022 A 
BRANCH  71  75
ATOM     75  S   UNL A   1      38.079  29.202  32.796  1.00  0.00     0.124 S 
ATOM     76  O   UNL A   1      37.032  30.209  32.960  1.00  0.00    -0.237 OA
ATOM     77  O   UNL A   1      37.639  27.813  32.821  1.00  0.00    -0.237 OA
ATOM     78  O   UNL A   1      39.318  29.479  33.520  1.00  0.00    -0.744 OA
ENDBRANCH  71  75
ENDBRANCH  54  68
BRANCH  55  79
ATOM     79  C   UNL A   1      49.545  27.356  26.056  1.00  0.00     0.023 A 
ATOM     80  C   UNL A   1      50.616  27.070  26.916  1.00  0.00     0.031 A 
ATOM     81  C   UNL A   1      49.814  27.441  24.677  1.00  0.00     0.131 A 
ATOM     82  C   UNL A   1      51.914  26.931  26.399  1.00  0.00     0.055 A 
ATOM     83  C   UNL A   1      51.095  27.243  24.161  1.00  0.00     0.041 A 
ATOM     84  F   UNL A   1      48.826  27.708  23.808  1.00  0.00    -0.206 F 
ATOM     85  C   UNL A   1      52.158  27.000  25.026  1.00  0.00     0.022 A 
BRANCH  82  86
ATOM     86  S   UNL A   1      53.297  26.754  27.559  1.00  0.00     0.124 S 
ATOM     87  O   UNL A   1      52.630  26.200  28.732  1.00  0.00    -0.237 OA
ATOM     88  O   UNL A   1      54.184  25.848  26.836  1.00  0.00    -0.237 OA
ATOM     89  O   UNL A   1      53.792  28.121  27.708  1.00  0.00    -0.744 OA
ENDBRANCH  82  86
ENDBRANCH  55  79
BRANCH  67  90
ATOM     90  C   UNL A   1      46.463  32.979  28.804  1.00  0.00     0.023 A 
ATOM     91  C   UNL A   1      46.430  34.034  27.875  1.00  0.00     0.031 A 
ATOM     92  C   UNL A   1      47.009  33.234  30.076  1.00  0.00     0.131 A 
ATOM     93  C   UNL A   1      46.988  35.277  28.210  1.00  0.00     0.055 A 
ATOM     94  C   UNL A   1      47.501  34.492  30.426  1.00  0.00     0.041 A 
ATOM     95  F   UNL A   1      47.069  32.264  31.001  1.00  0.00    -0.206 F 
ATOM     96  C   UNL A   1      47.505  35.518  29.486  1.00  0.00     0.022 A 
BRANCH  93  97
ATOM     97  S   UNL A   1      47.118  36.547  26.923  1.00  0.00     0.124 S 
ATOM     98  O   UNL A   1      47.097  35.747  25.703  1.00  0.00    -0.237 OA
ATOM     99  O   UNL A   1      45.935  37.366  27.169  1.00  0.00    -0.237 OA
ATOM    100  O   UNL A   1      48.393  37.201  27.213  1.00  0.00    -0.744 OA
ENDBRANCH  93  97
ENDBRANCH  67  90
ENDBRANCH  41  42
ENDBRANCH  33  36
ENDBRANCH  31  32
ENDBRANCH  30  31
ENDBRANCH   1  30
TORSDOF 20
ENDMDL
