MODEL 1
REMARK VINA RESULT:     -12.4      0.000      0.000
REMARK SMILES COc1ccc2c(CC(=O)NCCCCCCNC(=O)c3ccc(-c4c5nc(c(-c6cc(S(=O)(=O)[O-])ccc6F)c6ccc([nH]6)c(-c6cc(S(=O)(=O)[O-])ccc6F)c6nc(c(-c7cc(S(=O)(=O)[O-])ccc7F)c7ccc4[nH]7)C=C6)C=C5)cc3)c(C(=O)c3cc(C)ccn3)[nH]c2c1
REMARK SMILES IDX 14 1 13 2 12 3 11 4 9 5 10 6 8 8 7 9 3 10 4 11 96 12 5 13
REMARK SMILES IDX 95 14 6 15 94 16 84 17 2 19 1 20 85 21 86 22 87 23 88 24
REMARK SMILES IDX 93 25 89 26 92 27 90 28 91 29 15 30 16 31 17 32 18 33 19 34
REMARK SMILES IDX 20 36 21 37 22 38 83 39 23 40 82 41 24 42 25 43 26 44 76 45
REMARK SMILES IDX 27 46 81 47 75 48 77 49 28 50 80 51 74 52 73 53 29 55 61 56
REMARK SMILES IDX 41 57 60 58 42 59 45 60 59 61 78 62 43 63 44 64 58 66 79 67
REMARK SMILES IDX 46 68 30 69 31 70 39 71 32 72 38 73 40 74 37 75 33 76 34 77
REMARK SMILES IDX 35 78 36 79 62 80 63 81 71 82 64 83 70 84 72 85 69 86 65 87
REMARK SMILES IDX 66 88 67 89 68 90 47 91 48 92 56 93 49 94 55 95 57 96 54 97
REMARK SMILES IDX 50 98 51 99 52 100 53 101
REMARK H PARENT 11 7 94 18 18 35 77 54 45 65
REMARK Flexibility Score: inf
ROOT
ATOM      1  C   UNL A   1      31.773  28.975  26.803  1.00  0.00     0.002 C 
ENDROOT
BRANCH   1   2
ATOM      2  C   UNL A   1      32.970  28.015  26.835  1.00  0.00     0.021 C 
BRANCH   2   3
ATOM      3  C   UNL A   1      32.615  26.559  26.536  1.00  0.00     0.116 C 
BRANCH   3   4
ATOM      4  N   UNL A   1      31.202  26.293  26.713  1.00  0.00    -0.356 N 
ATOM      5  C   UNL A   1      30.264  25.901  25.803  1.00  0.00     0.224 C 
ATOM      6  O   UNL A   1      29.159  25.572  26.249  1.00  0.00    -0.275 OA
ATOM      7  H   UNL A   1      30.868  26.414  27.631  1.00  0.00     0.163 HD
BRANCH   5   8
ATOM      8  C   UNL A   1      30.603  25.728  24.327  1.00  0.00     0.138 C 
BRANCH   8   9
ATOM      9  C   UNL A   1      30.785  27.001  23.542  1.00  0.00    -0.002 A 
ATOM     10  C   UNL A   1      28.166  30.015  22.163  1.00  0.00     0.120 A 
ATOM     11  C   UNL A   1      27.580  29.033  22.957  1.00  0.00     0.047 A 
ATOM     12  C   UNL A   1      29.533  29.959  21.864  1.00  0.00     0.073 A 
ATOM     13  C   UNL A   1      28.352  27.987  23.484  1.00  0.00     0.014 A 
ATOM     14  C   UNL A   1      30.291  28.916  22.410  1.00  0.00     0.050 A 
ATOM     15  C   UNL A   1      29.735  27.925  23.208  1.00  0.00     0.004 A 
ATOM     16  N   UNL A   1      31.629  28.636  22.291  1.00  0.00    -0.351 N 
ATOM     17  C   UNL A   1      31.978  27.540  23.055  1.00  0.00     0.093 A 
ATOM     18  H   UNL A   1      32.258  29.150  21.735  1.00  0.00     0.167 HD
BRANCH  10  19
ATOM     19  O   UNL A   1      27.505  31.073  21.596  1.00  0.00    -0.497 OA
ATOM     20  C   UNL A   1      28.209  32.311  21.556  1.00  0.00     0.278 C 
ENDBRANCH  10  19
BRANCH  17  21
ATOM     21  C   UNL A   1      33.340  27.058  23.260  1.00  0.00     0.227 C 
ATOM     22  O   UNL A   1      34.288  27.799  23.518  1.00  0.00    -0.285 OA
BRANCH  21  23
ATOM     23  C   UNL A   1      33.635  25.612  23.077  1.00  0.00     0.113 A 
ATOM     24  C   UNL A   1      34.325  24.916  24.067  1.00  0.00     0.036 A 
ATOM     25  N   UNL A   1      33.173  25.044  21.935  1.00  0.00    -0.253 NA
ATOM     26  C   UNL A   1      34.561  23.554  23.876  1.00  0.00    -0.047 A 
ATOM     27  C   UNL A   1      33.392  23.723  21.788  1.00  0.00     0.112 A 
ATOM     28  C   UNL A   1      35.297  22.739  24.897  1.00  0.00     0.044 C 
ATOM     29  C   UNL A   1      34.075  22.947  22.714  1.00  0.00     0.023 A 
ENDBRANCH  21  23
ENDBRANCH  17  21
ENDBRANCH   8   9
ENDBRANCH   5   8
ENDBRANCH   3   4
ENDBRANCH   2   3
ENDBRANCH   1   2
BRANCH   1  30
ATOM     30  C   UNL A   1      31.932  30.197  25.889  1.00  0.00     0.002 C 
BRANCH  30  31
ATOM     31  C   UNL A   1      31.661  31.551  26.550  1.00  0.00     0.021 C 
BRANCH  31  32
ATOM     32  C   UNL A   1      32.872  32.195  27.220  1.00  0.00     0.116 C 
BRANCH  32  33
ATOM     33  N   UNL A   1      32.643  33.596  27.536  1.00  0.00    -0.352 N 
ATOM     34  C   UNL A   1      33.215  34.377  28.509  1.00  0.00     0.251 C 
ATOM     35  H   UNL A   1      31.979  34.051  26.969  1.00  0.00     0.163 HD
ATOM     36  O   UNL A   1      32.746  35.488  28.748  1.00  0.00    -0.269 OA
BRANCH  34  37
ATOM     37  C   UNL A   1      34.377  33.881  29.280  1.00  0.00     0.039 A 
ATOM     38  C   UNL A   1      34.160  32.972  30.320  1.00  0.00     0.014 A 
ATOM     39  C   UNL A   1      35.673  34.320  28.996  1.00  0.00     0.014 A 
ATOM     40  C   UNL A   1      35.247  32.459  31.033  1.00  0.00     0.010 A 
ATOM     41  C   UNL A   1      36.759  33.760  29.665  1.00  0.00     0.010 A 
ATOM     42  C   UNL A   1      36.558  32.824  30.691  1.00  0.00    -0.014 A 
BRANCH  42  43
ATOM     43  C   UNL A   1      37.730  32.237  31.393  1.00  0.00     0.031 A 
ATOM     44  C   UNL A   1      38.519  31.128  30.753  1.00  0.00     0.074 A 
ATOM     45  C   UNL A   1      38.043  32.660  32.635  1.00  0.00     0.049 A 
ATOM     46  N   UNL A   1      39.515  30.431  31.238  1.00  0.00    -0.248 NA
ATOM     47  C   UNL A   1      38.112  30.732  29.397  1.00  0.00     0.031 C 
ATOM     48  C   UNL A   1      37.332  33.706  33.375  1.00  0.00     0.029 A 
ATOM     49  N   UNL A   1      39.031  32.258  33.498  1.00  0.00    -0.354 N 
ATOM     50  C   UNL A   1      39.847  29.506  30.254  1.00  0.00     0.074 A 
ATOM     51  C   UNL A   1      38.906  29.696  29.170  1.00  0.00     0.031 C 
ATOM     52  C   UNL A   1      37.917  33.872  34.572  1.00  0.00     0.029 A 
ATOM     53  C   UNL A   1      39.015  32.920  34.705  1.00  0.00     0.049 A 
ATOM     54  H   UNL A   1      39.690  31.561  33.275  1.00  0.00     0.167 HD
ATOM     55  C   UNL A   1      40.855  28.598  30.247  1.00  0.00     0.034 A 
ATOM     56  C   UNL A   1      39.787  32.768  35.798  1.00  0.00     0.034 A 
ATOM     57  C   UNL A   1      41.791  28.429  31.333  1.00  0.00     0.049 A 
ATOM     58  C   UNL A   1      40.887  31.736  35.777  1.00  0.00     0.074 A 
ATOM     59  C   UNL A   1      42.880  27.577  31.409  1.00  0.00     0.029 A 
ATOM     60  N   UNL A   1      41.746  29.120  32.537  1.00  0.00    -0.354 N 
ATOM     61  N   UNL A   1      41.216  30.900  34.820  1.00  0.00    -0.248 NA
ATOM     62  C   UNL A   1      41.725  31.639  36.979  1.00  0.00     0.031 C 
ATOM     63  C   UNL A   1      43.454  27.708  32.679  1.00  0.00     0.029 A 
ATOM     64  C   UNL A   1      42.769  28.693  33.372  1.00  0.00     0.049 A 
ATOM     65  H   UNL A   1      41.085  29.813  32.765  1.00  0.00     0.167 HD
ATOM     66  C   UNL A   1      42.319  30.196  35.296  1.00  0.00     0.074 A 
ATOM     67  C   UNL A   1      42.606  30.717  36.617  1.00  0.00     0.031 C 
ATOM     68  C   UNL A   1      43.034  29.212  34.693  1.00  0.00     0.034 A 
BRANCH  55  69
ATOM     69  C   UNL A   1      40.972  27.702  29.036  1.00  0.00     0.023 A 
ATOM     70  C   UNL A   1      41.955  27.914  28.053  1.00  0.00     0.031 A 
ATOM     71  C   UNL A   1      40.072  26.639  28.845  1.00  0.00     0.131 A 
ATOM     72  C   UNL A   1      41.964  27.130  26.889  1.00  0.00     0.055 A 
ATOM     73  C   UNL A   1      40.139  25.810  27.724  1.00  0.00     0.041 A 
ATOM     74  F   UNL A   1      39.099  26.398  29.739  1.00  0.00    -0.206 F 
ATOM     75  C   UNL A   1      41.079  26.063  26.729  1.00  0.00     0.022 A 
BRANCH  72  76
ATOM     76  S   UNL A   1      43.054  27.620  25.524  1.00  0.00     0.124 S 
ATOM     77  O   UNL A   1      43.539  26.324  25.056  1.00  0.00    -0.237 OA
ATOM     78  O   UNL A   1      42.142  28.323  24.629  1.00  0.00    -0.237 OA
ATOM     79  O   UNL A   1      44.062  28.456  26.173  1.00  0.00    -0.744 OA
ENDBRANCH  72  76
ENDBRANCH  55  69
BRANCH  56  80
ATOM     80  C   UNL A   1      39.548  33.599  37.012  1.00  0.00     0.023 A 
ATOM     81  C   UNL A   1      38.846  33.084  38.113  1.00  0.00     0.031 A 
ATOM     82  C   UNL A   1      39.986  34.933  37.075  1.00  0.00     0.131 A 
ATOM     83  C   UNL A   1      38.562  33.910  39.211  1.00  0.00     0.055 A 
ATOM     84  C   UNL A   1      39.745  35.737  38.190  1.00  0.00     0.041 A 
ATOM     85  F   UNL A   1      40.668  35.473  36.051  1.00  0.00    -0.206 F 
ATOM     86  C   UNL A   1      39.018  35.230  39.262  1.00  0.00     0.022 A 
BRANCH  83  87
ATOM     87  S   UNL A   1      37.516  33.259  40.541  1.00  0.00     0.124 S 
ATOM     88  O   UNL A   1      36.376  32.739  39.794  1.00  0.00    -0.237 OA
ATOM     89  O   UNL A   1      38.390  32.264  41.153  1.00  0.00    -0.237 OA
ATOM     90  O   UNL A   1      37.240  34.434  41.364  1.00  0.00    -0.744 OA
ENDBRANCH  83  87
ENDBRANCH  56  80
BRANCH  68  91
ATOM     91  C   UNL A   1      44.223  28.670  35.449  1.00  0.00     0.023 A 
ATOM     92  C   UNL A   1      44.098  27.609  36.363  1.00  0.00     0.031 A 
ATOM     93  C   UNL A   1      45.496  29.238  35.263  1.00  0.00     0.131 A 
ATOM     94  C   UNL A   1      45.216  27.184  37.096  1.00  0.00     0.055 A 
ATOM     95  C   UNL A   1      46.616  28.773  35.953  1.00  0.00     0.041 A 
ATOM     96  F   UNL A   1      45.671  30.255  34.404  1.00  0.00    -0.206 F 
ATOM     97  C   UNL A   1      46.477  27.749  36.885  1.00  0.00     0.022 A 
BRANCH  94  98
ATOM     98  S   UNL A   1      44.985  25.939  38.395  1.00  0.00     0.124 S 
ATOM     99  O   UNL A   1      44.539  26.754  39.520  1.00  0.00    -0.237 OA
ATOM    100  O   UNL A   1      43.980  25.059  37.809  1.00  0.00    -0.237 OA
ATOM    101  O   UNL A   1      46.314  25.348  38.545  1.00  0.00    -0.744 OA
ENDBRANCH  94  98
ENDBRANCH  68  91
ENDBRANCH  42  43
ENDBRANCH  34  37
ENDBRANCH  32  33
ENDBRANCH  31  32
ENDBRANCH  30  31
ENDBRANCH   1  30
TORSDOF 20
ENDMDL
MODEL 2
REMARK VINA RESULT:     -12.2      2.068      4.084
REMARK SMILES COc1ccc2c(CC(=O)NCCCCCCNC(=O)c3ccc(-c4c5nc(c(-c6cc(S(=O)(=O)[O-])ccc6F)c6ccc([nH]6)c(-c6cc(S(=O)(=O)[O-])ccc6F)c6nc(c(-c7cc(S(=O)(=O)[O-])ccc7F)c7ccc4[nH]7)C=C6)C=C5)cc3)c(C(=O)c3cc(C)ccn3)[nH]c2c1
REMARK SMILES IDX 14 1 13 2 12 3 11 4 9 5 10 6 8 8 7 9 3 10 4 11 96 12 5 13
REMARK SMILES IDX 95 14 6 15 94 16 84 17 2 19 1 20 85 21 86 22 87 23 88 24
REMARK SMILES IDX 93 25 89 26 92 27 90 28 91 29 15 30 16 31 17 32 18 33 19 34
REMARK SMILES IDX 20 36 21 37 22 38 83 39 23 40 82 41 24 42 25 43 26 44 76 45
REMARK SMILES IDX 27 46 81 47 75 48 77 49 28 50 80 51 74 52 73 53 29 55 61 56
REMARK SMILES IDX 41 57 60 58 42 59 45 60 59 61 78 62 43 63 44 64 58 66 79 67
REMARK SMILES IDX 46 68 30 69 31 70 39 71 32 72 38 73 40 74 37 75 33 76 34 77
REMARK SMILES IDX 35 78 36 79 62 80 63 81 71 82 64 83 70 84 72 85 69 86 65 87
REMARK SMILES IDX 66 88 67 89 68 90 47 91 48 92 56 93 49 94 55 95 57 96 54 97
REMARK SMILES IDX 50 98 51 99 52 100 53 101
REMARK H PARENT 11 7 94 18 18 35 77 54 45 65
REMARK Flexibility Score: inf
ROOT
ATOM      1  C   UNL A   1      32.873  29.809  26.179  1.00  0.00     0.002 C 
ENDROOT
BRANCH   1   2
ATOM      2  C   UNL A   1      33.066  28.655  25.186  1.00  0.00     0.021 C 
BRANCH   2   3
ATOM      3  C   UNL A   1      33.822  27.456  25.755  1.00  0.00     0.116 C 
BRANCH   3   4
ATOM      4  N   UNL A   1      32.929  26.444  26.280  1.00  0.00    -0.356 N 
ATOM      5  C   UNL A   1      32.893  25.100  26.047  1.00  0.00     0.224 C 
ATOM      6  O   UNL A   1      32.137  24.431  26.759  1.00  0.00    -0.275 OA
ATOM      7  H   UNL A   1      32.243  26.778  26.902  1.00  0.00     0.163 HD
BRANCH   5   8
ATOM      8  C   UNL A   1      33.847  24.433  25.063  1.00  0.00     0.138 C 
BRANCH   8   9
ATOM      9  C   UNL A   1      33.232  23.407  24.147  1.00  0.00    -0.002 A 
ATOM     10  C   UNL A   1      32.598  19.238  24.392  1.00  0.00     0.120 A 
ATOM     11  C   UNL A   1      33.128  19.828  25.535  1.00  0.00     0.047 A 
ATOM     12  C   UNL A   1      32.318  20.014  23.260  1.00  0.00     0.073 A 
ATOM     13  C   UNL A   1      33.370  21.209  25.578  1.00  0.00     0.014 A 
ATOM     14  C   UNL A   1      32.554  21.393  23.325  1.00  0.00     0.050 A 
ATOM     15  C   UNL A   1      33.078  22.011  24.453  1.00  0.00     0.004 A 
ATOM     16  N   UNL A   1      32.359  22.371  22.383  1.00  0.00    -0.351 N 
ATOM     17  C   UNL A   1      32.662  23.619  22.890  1.00  0.00     0.093 A 
ATOM     18  H   UNL A   1      32.043  22.204  21.465  1.00  0.00     0.167 HD
BRANCH  10  19
ATOM     19  O   UNL A   1      32.328  17.902  24.243  1.00  0.00    -0.497 OA
ATOM     20  C   UNL A   1      32.383  17.110  25.425  1.00  0.00     0.278 C 
ENDBRANCH  10  19
BRANCH  17  21
ATOM     21  C   UNL A   1      32.437  24.884  22.198  1.00  0.00     0.227 C 
ATOM     22  O   UNL A   1      33.117  25.264  21.245  1.00  0.00    -0.285 OA
BRANCH  21  23
ATOM     23  C   UNL A   1      31.389  25.811  22.701  1.00  0.00     0.113 A 
ATOM     24  C   UNL A   1      31.376  27.137  22.277  1.00  0.00     0.036 A 
ATOM     25  N   UNL A   1      30.469  25.278  23.544  1.00  0.00    -0.253 NA
ATOM     26  C   UNL A   1      30.362  27.973  22.747  1.00  0.00    -0.047 A 
ATOM     27  C   UNL A   1      29.488  26.100  23.963  1.00  0.00     0.112 A 
ATOM     28  C   UNL A   1      30.285  29.413  22.334  1.00  0.00     0.044 C 
ATOM     29  C   UNL A   1      29.395  27.436  23.601  1.00  0.00     0.023 A 
ENDBRANCH  21  23
ENDBRANCH  17  21
ENDBRANCH   8   9
ENDBRANCH   5   8
ENDBRANCH   3   4
ENDBRANCH   2   3
ENDBRANCH   1   2
BRANCH   1  30
ATOM     30  C   UNL A   1      31.688  30.738  25.888  1.00  0.00     0.002 C 
BRANCH  30  31
ATOM     31  C   UNL A   1      31.508  31.899  26.870  1.00  0.00     0.021 C 
BRANCH  31  32
ATOM     32  C   UNL A   1      32.805  32.547  27.347  1.00  0.00     0.116 C 
BRANCH  32  33
ATOM     33  N   UNL A   1      32.629  33.955  27.664  1.00  0.00    -0.352 N 
ATOM     34  C   UNL A   1      33.247  34.719  28.624  1.00  0.00     0.251 C 
ATOM     35  H   UNL A   1      31.970  34.432  27.109  1.00  0.00     0.163 HD
ATOM     36  O   UNL A   1      32.820  35.845  28.869  1.00  0.00    -0.269 OA
BRANCH  34  37
ATOM     37  C   UNL A   1      34.406  34.185  29.373  1.00  0.00     0.039 A 
ATOM     38  C   UNL A   1      34.175  33.412  30.516  1.00  0.00     0.014 A 
ATOM     39  C   UNL A   1      35.715  34.457  28.968  1.00  0.00     0.014 A 
ATOM     40  C   UNL A   1      35.254  32.863  31.213  1.00  0.00     0.010 A 
ATOM     41  C   UNL A   1      36.786  33.858  29.627  1.00  0.00     0.010 A 
ATOM     42  C   UNL A   1      36.567  33.055  30.757  1.00  0.00    -0.014 A 
BRANCH  42  43
ATOM     43  C   UNL A   1      37.723  32.424  31.447  1.00  0.00     0.031 A 
ATOM     44  C   UNL A   1      38.462  31.285  30.799  1.00  0.00     0.074 A 
ATOM     45  C   UNL A   1      38.066  32.835  32.685  1.00  0.00     0.049 A 
ATOM     46  N   UNL A   1      39.435  30.550  31.274  1.00  0.00    -0.248 NA
ATOM     47  C   UNL A   1      38.025  30.903  29.448  1.00  0.00     0.031 C 
ATOM     48  C   UNL A   1      37.404  33.907  33.431  1.00  0.00     0.029 A 
ATOM     49  N   UNL A   1      39.047  32.395  33.537  1.00  0.00    -0.354 N 
ATOM     50  C   UNL A   1      39.720  29.612  30.287  1.00  0.00     0.074 A 
ATOM     51  C   UNL A   1      38.776  29.838  29.213  1.00  0.00     0.031 C 
ATOM     52  C   UNL A   1      38.008  34.051  34.622  1.00  0.00     0.029 A 
ATOM     53  C   UNL A   1      39.070  33.058  34.743  1.00  0.00     0.049 A 
ATOM     54  H   UNL A   1      39.676  31.673  33.308  1.00  0.00     0.167 HD
ATOM     55  C   UNL A   1      40.693  28.665  30.270  1.00  0.00     0.034 A 
ATOM     56  C   UNL A   1      39.848  32.877  35.829  1.00  0.00     0.034 A 
ATOM     57  C   UNL A   1      41.633  28.461  31.346  1.00  0.00     0.049 A 
ATOM     58  C   UNL A   1      40.906  31.803  35.797  1.00  0.00     0.074 A 
ATOM     59  C   UNL A   1      42.689  27.568  31.411  1.00  0.00     0.029 A 
ATOM     60  N   UNL A   1      41.628  29.154  32.550  1.00  0.00    -0.354 N 
ATOM     61  N   UNL A   1      41.192  30.954  34.837  1.00  0.00    -0.248 NA
ATOM     62  C   UNL A   1      41.753  31.673  36.989  1.00  0.00     0.031 C 
ATOM     63  C   UNL A   1      43.281  27.676  32.675  1.00  0.00     0.029 A 
ATOM     64  C   UNL A   1      42.642  28.687  33.374  1.00  0.00     0.049 A 
ATOM     65  H   UNL A   1      40.997  29.872  32.785  1.00  0.00     0.167 HD
ATOM     66  C   UNL A   1      42.272  30.208  35.302  1.00  0.00     0.074 A 
ATOM     67  C   UNL A   1      42.594  30.719  36.618  1.00  0.00     0.031 C 
ATOM     68  C   UNL A   1      42.942  29.197  34.691  1.00  0.00     0.034 A 
BRANCH  55  69
ATOM     69  C   UNL A   1      40.762  27.765  29.059  1.00  0.00     0.023 A 
ATOM     70  C   UNL A   1      41.711  27.968  28.041  1.00  0.00     0.031 A 
ATOM     71  C   UNL A   1      39.848  26.708  28.903  1.00  0.00     0.131 A 
ATOM     72  C   UNL A   1      41.674  27.180  26.880  1.00  0.00     0.055 A 
ATOM     73  C   UNL A   1      39.871  25.874  27.783  1.00  0.00     0.041 A 
ATOM     74  F   UNL A   1      38.906  26.475  29.830  1.00  0.00    -0.206 F 
ATOM     75  C   UNL A   1      40.777  26.118  26.755  1.00  0.00     0.022 A 
BRANCH  72  76
ATOM     76  S   UNL A   1      42.719  27.658  25.477  1.00  0.00     0.124 S 
ATOM     77  O   UNL A   1      43.990  27.938  26.138  1.00  0.00    -0.237 OA
ATOM     78  O   UNL A   1      42.683  26.466  24.636  1.00  0.00    -0.237 OA
ATOM     79  O   UNL A   1      42.039  28.830  24.928  1.00  0.00    -0.744 OA
ENDBRANCH  72  76
ENDBRANCH  55  69
BRANCH  56  80
ATOM     80  C   UNL A   1      39.655  33.716  37.045  1.00  0.00     0.023 A 
ATOM     81  C   UNL A   1      40.492  34.812  37.306  1.00  0.00     0.031 A 
ATOM     82  C   UNL A   1      38.653  33.413  37.983  1.00  0.00     0.131 A 
ATOM     83  C   UNL A   1      40.343  35.538  38.498  1.00  0.00     0.055 A 
ATOM     84  C   UNL A   1      38.476  34.168  39.143  1.00  0.00     0.041 A 
ATOM     85  F   UNL A   1      37.820  32.379  37.778  1.00  0.00    -0.206 F 
ATOM     86  C   UNL A   1      39.333  35.231  39.413  1.00  0.00     0.022 A 
BRANCH  83  87
ATOM     87  S   UNL A   1      41.545  36.842  38.876  1.00  0.00     0.124 S 
ATOM     88  O   UNL A   1      40.672  37.966  39.194  1.00  0.00    -0.237 OA
ATOM     89  O   UNL A   1      42.278  36.262  39.996  1.00  0.00    -0.237 OA
ATOM     90  O   UNL A   1      42.306  36.974  37.636  1.00  0.00    -0.744 OA
ENDBRANCH  83  87
ENDBRANCH  56  80
BRANCH  68  91
ATOM     91  C   UNL A   1      44.117  28.610  35.435  1.00  0.00     0.023 A 
ATOM     92  C   UNL A   1      43.951  27.621  36.421  1.00  0.00     0.031 A 
ATOM     93  C   UNL A   1      45.421  29.061  35.163  1.00  0.00     0.131 A 
ATOM     94  C   UNL A   1      45.063  27.154  37.136  1.00  0.00     0.055 A 
ATOM     95  C   UNL A   1      46.531  28.551  35.838  1.00  0.00     0.041 A 
ATOM     96  F   UNL A   1      45.637  30.005  34.233  1.00  0.00    -0.206 F 
ATOM     97  C   UNL A   1      46.354  27.602  36.840  1.00  0.00     0.022 A 
BRANCH  94  98
ATOM     98  S   UNL A   1      44.793  26.015  38.522  1.00  0.00     0.124 S 
ATOM     99  O   UNL A   1      45.874  26.383  39.431  1.00  0.00    -0.237 OA
ATOM    100  O   UNL A   1      43.446  26.367  38.958  1.00  0.00    -0.237 OA
ATOM    101  O   UNL A   1      44.920  24.693  37.910  1.00  0.00    -0.744 OA
ENDBRANCH  94  98
ENDBRANCH  68  91
ENDBRANCH  42  43
ENDBRANCH  34  37
ENDBRANCH  32  33
ENDBRANCH  31  32
ENDBRANCH  30  31
ENDBRANCH   1  30
TORSDOF 20
ENDMDL
MODEL 3
REMARK VINA RESULT:     -12.1      3.890      8.937
REMARK SMILES COc1ccc2c(CC(=O)NCCCCCCNC(=O)c3ccc(-c4c5nc(c(-c6cc(S(=O)(=O)[O-])ccc6F)c6ccc([nH]6)c(-c6cc(S(=O)(=O)[O-])ccc6F)c6nc(c(-c7cc(S(=O)(=O)[O-])ccc7F)c7ccc4[nH]7)C=C6)C=C5)cc3)c(C(=O)c3cc(C)ccn3)[nH]c2c1
REMARK SMILES IDX 14 1 13 2 12 3 11 4 9 5 10 6 8 8 7 9 3 10 4 11 96 12 5 13
REMARK SMILES IDX 95 14 6 15 94 16 84 17 2 19 1 20 85 21 86 22 87 23 88 24
REMARK SMILES IDX 93 25 89 26 92 27 90 28 91 29 15 30 16 31 17 32 18 33 19 34
REMARK SMILES IDX 20 36 21 37 22 38 83 39 23 40 82 41 24 42 25 43 26 44 76 45
REMARK SMILES IDX 27 46 81 47 75 48 77 49 28 50 80 51 74 52 73 53 29 55 61 56
REMARK SMILES IDX 41 57 60 58 42 59 45 60 59 61 78 62 43 63 44 64 58 66 79 67
REMARK SMILES IDX 46 68 30 69 31 70 39 71 32 72 38 73 40 74 37 75 33 76 34 77
REMARK SMILES IDX 35 78 36 79 62 80 63 81 71 82 64 83 70 84 72 85 69 86 65 87
REMARK SMILES IDX 66 88 67 89 68 90 47 91 48 92 56 93 49 94 55 95 57 96 54 97
REMARK SMILES IDX 50 98 51 99 52 100 53 101
REMARK H PARENT 11 7 94 18 18 35 77 54 45 65
REMARK Flexibility Score: inf
ROOT
ATOM      1  C   UNL A   1      31.407  27.067  26.578  1.00  0.00     0.002 C 
ENDROOT
BRANCH   1   2
ATOM      2  C   UNL A   1      32.244  25.804  26.336  1.00  0.00     0.021 C 
BRANCH   2   3
ATOM      3  C   UNL A   1      33.571  26.056  25.622  1.00  0.00     0.116 C 
BRANCH   3   4
ATOM      4  N   UNL A   1      34.604  25.134  26.044  1.00  0.00    -0.356 N 
ATOM      5  C   UNL A   1      35.365  24.273  25.308  1.00  0.00     0.224 C 
ATOM      6  O   UNL A   1      36.303  23.720  25.892  1.00  0.00    -0.275 OA
ATOM      7  H   UNL A   1      34.785  25.127  27.012  1.00  0.00     0.163 HD
BRANCH   5   8
ATOM      8  C   UNL A   1      35.169  24.117  23.804  1.00  0.00     0.138 C 
BRANCH   8   9
ATOM      9  C   UNL A   1      34.008  23.256  23.381  1.00  0.00    -0.002 A 
ATOM     10  C   UNL A   1      32.845  19.273  24.177  1.00  0.00     0.120 A 
ATOM     11  C   UNL A   1      33.970  19.716  24.867  1.00  0.00     0.047 A 
ATOM     12  C   UNL A   1      32.184  20.125  23.284  1.00  0.00     0.073 A 
ATOM     13  C   UNL A   1      34.444  21.025  24.695  1.00  0.00     0.014 A 
ATOM     14  C   UNL A   1      32.663  21.433  23.134  1.00  0.00     0.050 A 
ATOM     15  C   UNL A   1      33.779  21.904  23.813  1.00  0.00     0.004 A 
ATOM     16  N   UNL A   1      32.204  22.461  22.350  1.00  0.00    -0.351 N 
ATOM     17  C   UNL A   1      32.936  23.612  22.559  1.00  0.00     0.093 A 
ATOM     18  H   UNL A   1      31.449  22.387  21.721  1.00  0.00     0.167 HD
BRANCH  10  19
ATOM     19  O   UNL A   1      32.304  18.018  24.268  1.00  0.00    -0.497 OA
ATOM     20  C   UNL A   1      32.496  17.333  25.501  1.00  0.00     0.278 C 
ENDBRANCH  10  19
BRANCH  17  21
ATOM     21  C   UNL A   1      32.628  24.920  21.988  1.00  0.00     0.227 C 
ATOM     22  O   UNL A   1      33.293  25.442  21.095  1.00  0.00    -0.285 OA
BRANCH  21  23
ATOM     23  C   UNL A   1      31.502  25.711  22.553  1.00  0.00     0.113 A 
ATOM     24  C   UNL A   1      31.420  27.077  22.295  1.00  0.00     0.036 A 
ATOM     25  N   UNL A   1      30.587  25.022  23.280  1.00  0.00    -0.253 NA
ATOM     26  C   UNL A   1      30.336  27.786  22.817  1.00  0.00    -0.047 A 
ATOM     27  C   UNL A   1      29.539  25.725  23.750  1.00  0.00     0.112 A 
ATOM     28  C   UNL A   1      30.181  29.258  22.582  1.00  0.00     0.044 C 
ATOM     29  C   UNL A   1      29.373  27.088  23.552  1.00  0.00     0.023 A 
ENDBRANCH  21  23
ENDBRANCH  17  21
ENDBRANCH   8   9
ENDBRANCH   5   8
ENDBRANCH   3   4
ENDBRANCH   2   3
ENDBRANCH   1   2
BRANCH   1  30
ATOM     30  C   UNL A   1      31.999  28.367  26.020  1.00  0.00     0.002 C 
BRANCH  30  31
ATOM     31  C   UNL A   1      32.207  29.487  27.044  1.00  0.00     0.021 C 
BRANCH  31  32
ATOM     32  C   UNL A   1      33.639  30.007  27.148  1.00  0.00     0.116 C 
BRANCH  32  33
ATOM     33  N   UNL A   1      33.691  31.365  27.666  1.00  0.00    -0.352 N 
ATOM     34  C   UNL A   1      34.582  31.932  28.542  1.00  0.00     0.251 C 
ATOM     35  H   UNL A   1      32.982  31.967  27.341  1.00  0.00     0.163 HD
ATOM     36  O   UNL A   1      34.345  33.042  29.015  1.00  0.00    -0.269 OA
BRANCH  34  37
ATOM     37  C   UNL A   1      35.812  31.207  28.934  1.00  0.00     0.039 A 
ATOM     38  C   UNL A   1      37.042  31.642  28.432  1.00  0.00     0.014 A 
ATOM     39  C   UNL A   1      35.756  30.092  29.775  1.00  0.00     0.014 A 
ATOM     40  C   UNL A   1      38.219  30.998  28.823  1.00  0.00     0.010 A 
ATOM     41  C   UNL A   1      36.934  29.491  30.212  1.00  0.00     0.010 A 
ATOM     42  C   UNL A   1      38.178  29.937  29.741  1.00  0.00    -0.014 A 
BRANCH  42  43
ATOM     43  C   UNL A   1      39.425  29.283  30.220  1.00  0.00     0.031 A 
ATOM     44  C   UNL A   1      40.135  29.808  31.438  1.00  0.00     0.074 A 
ATOM     45  C   UNL A   1      39.950  28.257  29.520  1.00  0.00     0.049 A 
ATOM     46  N   UNL A   1      41.274  29.431  31.961  1.00  0.00    -0.248 NA
ATOM     47  C   UNL A   1      39.491  30.925  32.143  1.00  0.00     0.031 C 
ATOM     48  C   UNL A   1      39.372  27.681  28.304  1.00  0.00     0.029 A 
ATOM     49  N   UNL A   1      41.093  27.524  29.723  1.00  0.00    -0.354 N 
ATOM     50  C   UNL A   1      41.491  30.272  33.047  1.00  0.00     0.074 A 
ATOM     51  C   UNL A   1      40.391  31.213  33.070  1.00  0.00     0.031 C 
ATOM     52  C   UNL A   1      40.153  26.676  27.879  1.00  0.00     0.029 A 
ATOM     53  C   UNL A   1      41.308  26.561  28.764  1.00  0.00     0.049 A 
ATOM     54  H   UNL A   1      41.700  27.673  30.483  1.00  0.00     0.167 HD
ATOM     55  C   UNL A   1      42.502  30.246  33.953  1.00  0.00     0.034 A 
ATOM     56  C   UNL A   1      42.327  25.693  28.606  1.00  0.00     0.034 A 
ATOM     57  C   UNL A   1      43.585  29.293  33.921  1.00  0.00     0.049 A 
ATOM     58  C   UNL A   1      43.452  25.698  29.612  1.00  0.00     0.074 A 
ATOM     59  C   UNL A   1      44.630  29.144  34.817  1.00  0.00     0.029 A 
ATOM     60  N   UNL A   1      43.768  28.329  32.937  1.00  0.00    -0.354 N 
ATOM     61  N   UNL A   1      43.618  26.471  30.660  1.00  0.00    -0.248 NA
ATOM     62  C   UNL A   1      44.517  24.707  29.418  1.00  0.00     0.031 C 
ATOM     63  C   UNL A   1      45.477  28.136  34.342  1.00  0.00     0.029 A 
ATOM     64  C   UNL A   1      44.924  27.604  33.188  1.00  0.00     0.049 A 
ATOM     65  H   UNL A   1      43.165  28.182  32.173  1.00  0.00     0.167 HD
ATOM     66  C   UNL A   1      44.794  26.037  31.266  1.00  0.00     0.074 A 
ATOM     67  C   UNL A   1      45.284  24.928  30.475  1.00  0.00     0.031 C 
ATOM     68  C   UNL A   1      45.409  26.509  32.381  1.00  0.00     0.034 A 
BRANCH  55  69
ATOM     69  C   UNL A   1      42.488  31.301  35.034  1.00  0.00     0.023 A 
ATOM     70  C   UNL A   1      42.969  32.602  34.802  1.00  0.00     0.031 A 
ATOM     71  C   UNL A   1      42.016  30.997  36.323  1.00  0.00     0.131 A 
ATOM     72  C   UNL A   1      43.043  33.523  35.859  1.00  0.00     0.055 A 
ATOM     73  C   UNL A   1      42.014  31.943  37.349  1.00  0.00     0.041 A 
ATOM     74  F   UNL A   1      41.562  29.767  36.612  1.00  0.00    -0.206 F 
ATOM     75  C   UNL A   1      42.544  33.210  37.125  1.00  0.00     0.022 A 
BRANCH  72  76
ATOM     76  S   UNL A   1      43.932  35.080  35.591  1.00  0.00     0.124 S 
ATOM     77  O   UNL A   1      45.237  34.777  36.172  1.00  0.00    -0.237 OA
ATOM     78  O   UNL A   1      43.895  35.220  34.140  1.00  0.00    -0.237 OA
ATOM     79  O   UNL A   1      43.140  36.059  36.334  1.00  0.00    -0.744 OA
ENDBRANCH  72  76
ENDBRANCH  55  69
BRANCH  56  80
ATOM     80  C   UNL A   1      42.347  24.754  27.450  1.00  0.00     0.023 A 
ATOM     81  C   UNL A   1      41.595  23.569  27.469  1.00  0.00     0.031 A 
ATOM     82  C   UNL A   1      43.149  25.008  26.324  1.00  0.00     0.131 A 
ATOM     83  C   UNL A   1      41.694  22.660  26.404  1.00  0.00     0.055 A 
ATOM     84  C   UNL A   1      43.206  24.125  25.244  1.00  0.00     0.041 A 
ATOM     85  F   UNL A   1      43.884  26.130  26.252  1.00  0.00    -0.206 F 
ATOM     86  C   UNL A   1      42.485  22.936  25.286  1.00  0.00     0.022 A 
BRANCH  83  87
ATOM     87  S   UNL A   1      40.834  21.069  26.538  1.00  0.00     0.124 S 
ATOM     88  O   UNL A   1      40.794  20.874  27.982  1.00  0.00    -0.237 OA
ATOM     89  O   UNL A   1      39.558  21.360  25.893  1.00  0.00    -0.237 OA
ATOM     90  O   UNL A   1      41.704  20.150  25.807  1.00  0.00    -0.744 OA
ENDBRANCH  83  87
ENDBRANCH  56  80
BRANCH  68  91
ATOM     91  C   UNL A   1      46.660  25.792  32.827  1.00  0.00     0.023 A 
ATOM     92  C   UNL A   1      47.913  26.059  32.248  1.00  0.00     0.031 A 
ATOM     93  C   UNL A   1      46.591  24.813  33.834  1.00  0.00     0.131 A 
ATOM     94  C   UNL A   1      49.037  25.319  32.643  1.00  0.00     0.055 A 
ATOM     95  C   UNL A   1      47.723  24.120  34.264  1.00  0.00     0.041 A 
ATOM     96  F   UNL A   1      45.420  24.517  34.419  1.00  0.00    -0.206 F 
ATOM     97  C   UNL A   1      48.953  24.362  33.659  1.00  0.00     0.022 A 
BRANCH  94  98
ATOM     98  S   UNL A   1      50.598  25.561  31.751  1.00  0.00     0.124 S 
ATOM     99  O   UNL A   1      50.548  24.493  30.757  1.00  0.00    -0.237 OA
ATOM    100  O   UNL A   1      50.456  26.918  31.235  1.00  0.00    -0.237 OA
ATOM    101  O   UNL A   1      51.615  25.396  32.788  1.00  0.00    -0.744 OA
ENDBRANCH  94  98
ENDBRANCH  68  91
ENDBRANCH  42  43
ENDBRANCH  34  37
ENDBRANCH  32  33
ENDBRANCH  31  32
ENDBRANCH  30  31
ENDBRANCH   1  30
TORSDOF 20
ENDMDL
