MODEL 1
REMARK VINA RESULT:     -11.5      0.000      0.000
REMARK SMILES NS(=O)(=O)c1ccc(-n2nc(NC(=O)NCCCC(=O)NCCCCCCNC(=O)c3ccc(-c4c5nc(c(-c6cc(S(=O)(=O)[O-])ccc6F)c6ccc([nH]6)c(-c6cc(S(=O)(=O)[O-])ccc6F)c6nc(c(-c7cc(S(=O)(=O)[O-])ccc7F)c7ccc4[nH]7)C=C6)C=C5)cc3)cc2-c2ccccc2)cc1
REMARK SMILES IDX 22 1 21 2 19 3 20 4 18 6 17 7 16 8 15 9 12 10 13 11 14 13
REMARK SMILES IDX 11 15 9 16 10 17 95 18 94 19 8 20 5 21 6 22 103 23 7 24
REMARK SMILES IDX 102 25 2 26 3 27 4 28 1 29 96 32 97 33 101 34 98 35 100 36
REMARK SMILES IDX 99 37 23 38 24 39 25 40 26 41 27 42 28 43 29 44 30 46 31 47
REMARK SMILES IDX 32 48 93 49 33 50 92 51 34 52 35 53 36 54 86 55 37 56 91 57
REMARK SMILES IDX 85 58 87 59 38 60 90 61 84 62 83 63 39 65 71 66 51 67 70 68
REMARK SMILES IDX 52 69 55 70 69 71 88 72 53 73 54 74 68 76 89 77 56 78 40 79
REMARK SMILES IDX 41 80 49 81 42 82 48 83 50 84 47 85 43 86 44 87 45 88 46 89
REMARK SMILES IDX 72 90 73 91 81 92 74 93 80 94 82 95 79 96 75 97 76 98 77 99
REMARK SMILES IDX 78 100 57 101 58 102 66 103 59 104 65 105 67 106 64 107
REMARK SMILES IDX 60 108 61 109 62 110 63 111
REMARK H PARENT 21 5 12 12 15 14 1 30 1 31 28 45 87 64 55 75
REMARK Flexibility Score: inf
ROOT
ATOM      1  C   UNL A   1      31.698  29.907  26.101  1.00  0.00     0.116 C 
ENDROOT
BRANCH   1   2
ATOM      2  N   UNL A   1      32.258  29.768  24.766  1.00  0.00    -0.356 N 
ATOM      3  C   UNL A   1      32.004  28.842  23.801  1.00  0.00     0.220 C 
ATOM      4  O   UNL A   1      32.732  28.816  22.806  1.00  0.00    -0.275 OA
ATOM      5  H   UNL A   1      32.925  30.449  24.522  1.00  0.00     0.163 HD
BRANCH   3   6
ATOM      6  C   UNL A   1      30.817  27.902  23.917  1.00  0.00     0.102 C 
BRANCH   6   7
ATOM      7  C   UNL A   1      30.993  26.567  23.195  1.00  0.00     0.031 C 
BRANCH   7   8
ATOM      8  C   UNL A   1      30.251  25.403  23.832  1.00  0.00     0.118 C 
BRANCH   8   9
ATOM      9  N   UNL A   1      29.441  25.733  24.993  1.00  0.00    -0.338 N 
ATOM     10  N   UNL A   1      30.105  24.103  26.602  1.00  0.00    -0.291 N 
ATOM     11  C   UNL A   1      29.400  25.194  26.234  1.00  0.00     0.320 C 
ATOM     12  H   UNL A   1      29.804  23.677  27.436  1.00  0.00     0.173 HD
ATOM     13  O   UNL A   1      28.575  25.666  27.024  1.00  0.00    -0.248 OA
ATOM     14  H   UNL A   1      28.813  26.479  24.853  1.00  0.00     0.165 HD
BRANCH  10  15
ATOM     15  C   UNL A   1      31.174  23.496  25.996  1.00  0.00     0.157 A 
ATOM     16  N   UNL A   1      32.400  21.934  25.245  1.00  0.00    -0.231 N 
ATOM     17  N   UNL A   1      31.115  22.353  25.314  1.00  0.00    -0.149 NA
ATOM     18  C   UNL A   1      33.269  22.983  25.526  1.00  0.00     0.076 A 
ATOM     19  C   UNL A   1      32.476  24.018  25.981  1.00  0.00     0.078 A 
BRANCH  16  20
ATOM     20  C   UNL A   1      32.676  20.547  25.034  1.00  0.00     0.065 A 
ATOM     21  C   UNL A   1      33.238  17.838  24.576  1.00  0.00     0.082 A 
ATOM     22  C   UNL A   1      33.273  18.348  25.879  1.00  0.00     0.024 A 
ATOM     23  C   UNL A   1      32.920  18.673  23.503  1.00  0.00     0.024 A 
ATOM     24  C   UNL A   1      32.990  19.700  26.108  1.00  0.00     0.030 A 
ATOM     25  C   UNL A   1      32.630  20.021  23.734  1.00  0.00     0.030 A 
BRANCH  21  26
ATOM     26  S   UNL A   1      33.720  16.160  24.284  1.00  0.00     0.238 S 
ATOM     27  O   UNL A   1      34.213  16.021  22.942  1.00  0.00    -0.207 OA
ATOM     28  O   UNL A   1      32.720  15.267  24.842  1.00  0.00    -0.207 OA
BRANCH  26  29
ATOM     29  N   UNL A   1      35.064  15.984  25.276  1.00  0.00    -0.225 NA
ATOM     30  H   UNL A   1      35.611  15.179  24.968  1.00  0.00     0.137 HD
ATOM     31  H   UNL A   1      34.760  15.840  26.238  1.00  0.00     0.137 HD
ENDBRANCH  26  29
ENDBRANCH  21  26
ENDBRANCH  16  20
BRANCH  18  32
ATOM     32  C   UNL A   1      34.700  22.941  25.286  1.00  0.00     0.000 A 
ATOM     33  C   UNL A   1      35.540  23.599  26.183  1.00  0.00     0.010 A 
ATOM     34  C   UNL A   1      35.247  22.299  24.170  1.00  0.00     0.010 A 
ATOM     35  C   UNL A   1      36.889  23.702  25.906  1.00  0.00     0.001 A 
ATOM     36  C   UNL A   1      36.625  22.344  23.946  1.00  0.00     0.001 A 
ATOM     37  C   UNL A   1      37.446  23.060  24.810  1.00  0.00     0.000 A 
ENDBRANCH  18  32
ENDBRANCH  10  15
ENDBRANCH   8   9
ENDBRANCH   7   8
ENDBRANCH   6   7
ENDBRANCH   3   6
ENDBRANCH   1   2
BRANCH   1  38
ATOM     38  C   UNL A   1      32.788  30.296  27.098  1.00  0.00     0.021 C 
BRANCH  38  39
ATOM     39  C   UNL A   1      33.777  29.185  27.448  1.00  0.00     0.002 C 
BRANCH  39  40
ATOM     40  C   UNL A   1      35.187  29.670  27.801  1.00  0.00     0.002 C 
BRANCH  40  41
ATOM     41  C   UNL A   1      35.411  31.187  27.715  1.00  0.00     0.021 C 
BRANCH  41  42
ATOM     42  C   UNL A   1      36.795  31.624  28.174  1.00  0.00     0.116 C 
BRANCH  42  43
ATOM     43  N   UNL A   1      36.721  32.597  29.264  1.00  0.00    -0.352 N 
ATOM     44  C   UNL A   1      37.140  32.445  30.570  1.00  0.00     0.251 C 
ATOM     45  H   UNL A   1      36.324  33.469  29.038  1.00  0.00     0.163 HD
ATOM     46  O   UNL A   1      36.682  33.155  31.458  1.00  0.00    -0.269 OA
BRANCH  44  47
ATOM     47  C   UNL A   1      38.157  31.421  30.865  1.00  0.00     0.039 A 
ATOM     48  C   UNL A   1      37.809  30.087  31.103  1.00  0.00     0.014 A 
ATOM     49  C   UNL A   1      39.489  31.826  30.884  1.00  0.00     0.014 A 
ATOM     50  C   UNL A   1      38.825  29.150  31.285  1.00  0.00     0.010 A 
ATOM     51  C   UNL A   1      40.486  30.888  30.930  1.00  0.00     0.010 A 
ATOM     52  C   UNL A   1      40.164  29.558  31.181  1.00  0.00    -0.014 A 
BRANCH  52  53
ATOM     53  C   UNL A   1      41.266  28.599  31.194  1.00  0.00     0.031 A 
ATOM     54  C   UNL A   1      41.794  28.292  32.546  1.00  0.00     0.074 A 
ATOM     55  C   UNL A   1      41.598  27.884  30.096  1.00  0.00     0.049 A 
ATOM     56  N   UNL A   1      42.957  28.591  33.021  1.00  0.00    -0.248 NA
ATOM     57  C   UNL A   1      40.872  27.743  33.552  1.00  0.00     0.031 C 
ATOM     58  C   UNL A   1      41.000  27.972  28.766  1.00  0.00     0.029 A 
ATOM     59  N   UNL A   1      42.498  26.871  29.946  1.00  0.00    -0.354 N 
ATOM     60  C   UNL A   1      43.004  28.053  34.303  1.00  0.00     0.074 A 
ATOM     61  C   UNL A   1      41.640  27.746  34.644  1.00  0.00     0.031 C 
ATOM     62  C   UNL A   1      41.442  26.957  27.998  1.00  0.00     0.029 A 
ATOM     63  C   UNL A   1      42.431  26.180  28.725  1.00  0.00     0.049 A 
ATOM     64  H   UNL A   1      43.150  26.639  30.647  1.00  0.00     0.167 HD
ATOM     65  C   UNL A   1      44.189  27.691  34.871  1.00  0.00     0.034 A 
ATOM     66  C   UNL A   1      43.153  25.081  28.344  1.00  0.00     0.034 A 
ATOM     67  C   UNL A   1      45.297  28.266  34.139  1.00  0.00     0.049 A 
ATOM     68  C   UNL A   1      44.357  25.105  29.233  1.00  0.00     0.074 A 
ATOM     69  C   UNL A   1      45.700  29.559  33.861  1.00  0.00     0.029 A 
ATOM     70  N   UNL A   1      45.945  27.469  33.220  1.00  0.00    -0.354 N 
ATOM     71  N   UNL A   1      45.291  26.013  29.119  1.00  0.00    -0.248 NA
ATOM     72  C   UNL A   1      44.295  24.462  30.541  1.00  0.00     0.031 C 
ATOM     73  C   UNL A   1      46.138  29.517  32.505  1.00  0.00     0.029 A 
ATOM     74  C   UNL A   1      46.076  28.193  32.060  1.00  0.00     0.049 A 
ATOM     75  H   UNL A   1      46.256  26.545  33.368  1.00  0.00     0.167 HD
ATOM     76  C   UNL A   1      45.629  26.360  30.418  1.00  0.00     0.074 A 
ATOM     77  C   UNL A   1      45.068  25.295  31.251  1.00  0.00     0.031 C 
ATOM     78  C   UNL A   1      46.077  27.615  30.726  1.00  0.00     0.034 A 
BRANCH  65  79
ATOM     79  C   UNL A   1      44.388  26.544  35.840  1.00  0.00     0.023 A 
ATOM     80  C   UNL A   1      45.266  26.763  36.921  1.00  0.00     0.031 A 
ATOM     81  C   UNL A   1      44.015  25.199  35.622  1.00  0.00     0.131 A 
ATOM     82  C   UNL A   1      45.818  25.689  37.639  1.00  0.00     0.055 A 
ATOM     83  C   UNL A   1      44.517  24.137  36.382  1.00  0.00     0.041 A 
ATOM     84  F   UNL A   1      43.220  24.814  34.618  1.00  0.00    -0.206 F 
ATOM     85  C   UNL A   1      45.452  24.373  37.373  1.00  0.00     0.022 A 
BRANCH  82  86
ATOM     86  S   UNL A   1      47.166  26.031  38.799  1.00  0.00     0.124 S 
ATOM     87  O   UNL A   1      47.153  24.832  39.628  1.00  0.00    -0.237 OA
ATOM     88  O   UNL A   1      48.304  26.181  37.898  1.00  0.00    -0.237 OA
ATOM     89  O   UNL A   1      46.734  27.257  39.466  1.00  0.00    -0.744 OA
ENDBRANCH  82  86
ENDBRANCH  65  79
BRANCH  66  90
ATOM     90  C   UNL A   1      42.941  24.024  27.284  1.00  0.00     0.023 A 
ATOM     91  C   UNL A   1      43.973  23.674  26.370  1.00  0.00     0.031 A 
ATOM     92  C   UNL A   1      41.808  23.179  27.244  1.00  0.00     0.131 A 
ATOM     93  C   UNL A   1      43.870  22.516  25.552  1.00  0.00     0.055 A 
ATOM     94  C   UNL A   1      41.699  22.053  26.409  1.00  0.00     0.041 A 
ATOM     95  F   UNL A   1      40.815  23.279  28.134  1.00  0.00    -0.206 F 
ATOM     96  C   UNL A   1      42.745  21.695  25.586  1.00  0.00     0.022 A 
BRANCH  93  97
ATOM     97  S   UNL A   1      45.220  21.936  24.476  1.00  0.00     0.124 S 
ATOM     98  O   UNL A   1      44.601  20.805  23.792  1.00  0.00    -0.237 OA
ATOM     99  O   UNL A   1      45.529  23.093  23.647  1.00  0.00    -0.237 OA
ATOM    100  O   UNL A   1      46.252  21.581  25.451  1.00  0.00    -0.744 OA
ENDBRANCH  93  97
ENDBRANCH  66  90
BRANCH  78 101
ATOM    101  C   UNL A   1      46.414  28.555  29.581  1.00  0.00     0.023 A 
ATOM    102  C   UNL A   1      45.496  29.434  28.959  1.00  0.00     0.031 A 
ATOM    103  C   UNL A   1      47.765  28.654  29.204  1.00  0.00     0.131 A 
ATOM    104  C   UNL A   1      45.946  30.359  27.995  1.00  0.00     0.055 A 
ATOM    105  C   UNL A   1      48.210  29.588  28.270  1.00  0.00     0.041 A 
ATOM    106  F   UNL A   1      48.691  27.867  29.779  1.00  0.00    -0.206 F 
ATOM    107  C   UNL A   1      47.301  30.441  27.658  1.00  0.00     0.022 A 
BRANCH 104 108
ATOM    108  S   UNL A   1      44.775  31.467  27.141  1.00  0.00     0.124 S 
ATOM    109  O   UNL A   1      43.492  30.791  27.295  1.00  0.00    -0.237 OA
ATOM    110  O   UNL A   1      44.930  32.720  27.875  1.00  0.00    -0.237 OA
ATOM    111  O   UNL A   1      45.281  31.502  25.767  1.00  0.00    -0.744 OA
ENDBRANCH 104 108
ENDBRANCH  78 101
ENDBRANCH  52  53
ENDBRANCH  44  47
ENDBRANCH  42  43
ENDBRANCH  41  42
ENDBRANCH  40  41
ENDBRANCH  39  40
ENDBRANCH  38  39
ENDBRANCH   1  38
TORSDOF 24
ENDMDL
MODEL 2
REMARK VINA RESULT:     -11.4      4.340     10.095
REMARK SMILES NS(=O)(=O)c1ccc(-n2nc(NC(=O)NCCCC(=O)NCCCCCCNC(=O)c3ccc(-c4c5nc(c(-c6cc(S(=O)(=O)[O-])ccc6F)c6ccc([nH]6)c(-c6cc(S(=O)(=O)[O-])ccc6F)c6nc(c(-c7cc(S(=O)(=O)[O-])ccc7F)c7ccc4[nH]7)C=C6)C=C5)cc3)cc2-c2ccccc2)cc1
REMARK SMILES IDX 22 1 21 2 19 3 20 4 18 6 17 7 16 8 15 9 12 10 13 11 14 13
REMARK SMILES IDX 11 15 9 16 10 17 95 18 94 19 8 20 5 21 6 22 103 23 7 24
REMARK SMILES IDX 102 25 2 26 3 27 4 28 1 29 96 32 97 33 101 34 98 35 100 36
REMARK SMILES IDX 99 37 23 38 24 39 25 40 26 41 27 42 28 43 29 44 30 46 31 47
REMARK SMILES IDX 32 48 93 49 33 50 92 51 34 52 35 53 36 54 86 55 37 56 91 57
REMARK SMILES IDX 85 58 87 59 38 60 90 61 84 62 83 63 39 65 71 66 51 67 70 68
REMARK SMILES IDX 52 69 55 70 69 71 88 72 53 73 54 74 68 76 89 77 56 78 40 79
REMARK SMILES IDX 41 80 49 81 42 82 48 83 50 84 47 85 43 86 44 87 45 88 46 89
REMARK SMILES IDX 72 90 73 91 81 92 74 93 80 94 82 95 79 96 75 97 76 98 77 99
REMARK SMILES IDX 78 100 57 101 58 102 66 103 59 104 65 105 67 106 64 107
REMARK SMILES IDX 60 108 61 109 62 110 63 111
REMARK H PARENT 21 5 12 12 15 14 1 30 1 31 28 45 87 64 55 75
REMARK Flexibility Score: inf
ROOT
ATOM      1  C   UNL A   1      37.849  23.065  25.814  1.00  0.00     0.116 C 
ENDROOT
BRANCH   1   2
ATOM      2  N   UNL A   1      37.713  23.074  24.366  1.00  0.00    -0.356 N 
ATOM      3  C   UNL A   1      36.595  23.059  23.590  1.00  0.00     0.220 C 
ATOM      4  O   UNL A   1      36.725  22.889  22.376  1.00  0.00    -0.275 OA
ATOM      5  H   UNL A   1      38.563  23.093  23.869  1.00  0.00     0.163 HD
BRANCH   3   6
ATOM      6  C   UNL A   1      35.224  23.302  24.196  1.00  0.00     0.102 C 
BRANCH   6   7
ATOM      7  C   UNL A   1      34.493  24.523  23.640  1.00  0.00     0.031 C 
BRANCH   7   8
ATOM      8  C   UNL A   1      33.459  24.206  22.571  1.00  0.00     0.118 C 
BRANCH   8   9
ATOM      9  N   UNL A   1      33.062  22.811  22.475  1.00  0.00    -0.338 N 
ATOM     10  N   UNL A   1      31.477  22.574  24.241  1.00  0.00    -0.291 N 
ATOM     11  C   UNL A   1      32.157  22.091  23.178  1.00  0.00     0.320 C 
ATOM     12  H   UNL A   1      31.044  21.890  24.801  1.00  0.00     0.173 HD
ATOM     13  O   UNL A   1      32.048  20.893  22.894  1.00  0.00    -0.248 OA
ATOM     14  H   UNL A   1      33.534  22.300  21.777  1.00  0.00     0.165 HD
BRANCH  10  15
ATOM     15  C   UNL A   1      31.295  23.865  24.662  1.00  0.00     0.157 A 
ATOM     16  N   UNL A   1      30.708  25.904  24.601  1.00  0.00    -0.231 N 
ATOM     17  N   UNL A   1      30.292  24.655  24.285  1.00  0.00    -0.149 NA
ATOM     18  C   UNL A   1      31.763  25.851  25.505  1.00  0.00     0.076 A 
ATOM     19  C   UNL A   1      32.128  24.521  25.581  1.00  0.00     0.078 A 
BRANCH  16  20
ATOM     20  C   UNL A   1      30.140  27.026  23.919  1.00  0.00     0.065 A 
ATOM     21  C   UNL A   1      28.989  29.224  22.614  1.00  0.00     0.082 A 
ATOM     22  C   UNL A   1      30.381  29.132  22.730  1.00  0.00     0.024 A 
ATOM     23  C   UNL A   1      28.171  28.224  23.143  1.00  0.00     0.024 A 
ATOM     24  C   UNL A   1      30.955  28.033  23.379  1.00  0.00     0.030 A 
ATOM     25  C   UNL A   1      28.747  27.123  23.785  1.00  0.00     0.030 A 
BRANCH  21  26
ATOM     26  S   UNL A   1      28.268  30.678  21.905  1.00  0.00     0.238 S 
ATOM     27  O   UNL A   1      27.259  31.200  22.783  1.00  0.00    -0.207 OA
ATOM     28  O   UNL A   1      28.028  30.455  20.490  1.00  0.00    -0.207 OA
BRANCH  26  29
ATOM     29  N   UNL A   1      29.532  31.783  21.965  1.00  0.00    -0.225 NA
ATOM     30  H   UNL A   1      29.161  32.712  22.169  1.00  0.00     0.137 HD
ATOM     31  H   UNL A   1      30.012  31.799  21.066  1.00  0.00     0.137 HD
ENDBRANCH  26  29
ENDBRANCH  21  26
ENDBRANCH  16  20
BRANCH  18  32
ATOM     32  C   UNL A   1      32.264  26.998  26.238  1.00  0.00     0.000 A 
ATOM     33  C   UNL A   1      31.372  27.716  27.033  1.00  0.00     0.010 A 
ATOM     34  C   UNL A   1      33.594  27.420  26.138  1.00  0.00     0.010 A 
ATOM     35  C   UNL A   1      31.780  28.894  27.626  1.00  0.00     0.001 A 
ATOM     36  C   UNL A   1      34.013  28.571  26.811  1.00  0.00     0.001 A 
ATOM     37  C   UNL A   1      33.099  29.317  27.546  1.00  0.00     0.000 A 
ENDBRANCH  18  32
ENDBRANCH  10  15
ENDBRANCH   8   9
ENDBRANCH   7   8
ENDBRANCH   6   7
ENDBRANCH   3   6
ENDBRANCH   1   2
BRANCH   1  38
ATOM     38  C   UNL A   1      39.025  22.185  26.233  1.00  0.00     0.021 C 
BRANCH  38  39
ATOM     39  C   UNL A   1      39.978  22.812  27.250  1.00  0.00     0.002 C 
BRANCH  39  40
ATOM     40  C   UNL A   1      41.198  21.953  27.600  1.00  0.00     0.002 C 
BRANCH  40  41
ATOM     41  C   UNL A   1      42.565  22.569  27.267  1.00  0.00     0.021 C 
BRANCH  41  42
ATOM     42  C   UNL A   1      42.521  23.557  26.110  1.00  0.00     0.116 C 
BRANCH  42  43
ATOM     43  N   UNL A   1      43.862  23.870  25.615  1.00  0.00    -0.352 N 
ATOM     44  C   UNL A   1      44.455  25.110  25.492  1.00  0.00     0.251 C 
ATOM     45  H   UNL A   1      44.409  23.101  25.335  1.00  0.00     0.163 HD
ATOM     46  O   UNL A   1      45.395  25.278  24.724  1.00  0.00    -0.269 OA
BRANCH  44  47
ATOM     47  C   UNL A   1      43.941  26.217  26.317  1.00  0.00     0.039 A 
ATOM     48  C   UNL A   1      44.397  26.436  27.620  1.00  0.00     0.014 A 
ATOM     49  C   UNL A   1      42.987  27.054  25.743  1.00  0.00     0.014 A 
ATOM     50  C   UNL A   1      43.938  27.555  28.314  1.00  0.00     0.010 A 
ATOM     51  C   UNL A   1      42.639  28.221  26.372  1.00  0.00     0.010 A 
ATOM     52  C   UNL A   1      43.069  28.452  27.674  1.00  0.00    -0.014 A 
BRANCH  52  53
ATOM     53  C   UNL A   1      42.688  29.724  28.283  1.00  0.00     0.031 A 
ATOM     54  C   UNL A   1      43.589  30.856  27.951  1.00  0.00     0.074 A 
ATOM     55  C   UNL A   1      41.491  29.892  28.888  1.00  0.00     0.049 A 
ATOM     56  N   UNL A   1      44.375  31.495  28.751  1.00  0.00    -0.248 NA
ATOM     57  C   UNL A   1      43.775  31.213  26.535  1.00  0.00     0.031 C 
ATOM     58  C   UNL A   1      40.450  28.887  29.087  1.00  0.00     0.029 A 
ATOM     59  N   UNL A   1      40.914  31.018  29.395  1.00  0.00    -0.354 N 
ATOM     60  C   UNL A   1      44.974  32.495  27.992  1.00  0.00     0.074 A 
ATOM     61  C   UNL A   1      44.737  32.134  26.620  1.00  0.00     0.031 C 
ATOM     62  C   UNL A   1      39.322  29.478  29.528  1.00  0.00     0.029 A 
ATOM     63  C   UNL A   1      39.558  30.896  29.743  1.00  0.00     0.049 A 
ATOM     64  H   UNL A   1      41.413  31.859  29.511  1.00  0.00     0.167 HD
ATOM     65  C   UNL A   1      45.403  33.653  28.569  1.00  0.00     0.034 A 
ATOM     66  C   UNL A   1      38.718  31.878  30.196  1.00  0.00     0.034 A 
ATOM     67  C   UNL A   1      45.474  33.506  30.008  1.00  0.00     0.049 A 
ATOM     68  C   UNL A   1      39.637  32.925  30.743  1.00  0.00     0.074 A 
ATOM     69  C   UNL A   1      46.194  32.687  30.858  1.00  0.00     0.029 A 
ATOM     70  N   UNL A   1      44.420  33.985  30.757  1.00  0.00    -0.354 N 
ATOM     71  N   UNL A   1      40.338  32.739  31.830  1.00  0.00    -0.248 NA
ATOM     72  C   UNL A   1      40.164  33.953  29.851  1.00  0.00     0.031 C 
ATOM     73  C   UNL A   1      45.266  32.320  31.876  1.00  0.00     0.029 A 
ATOM     74  C   UNL A   1      44.069  33.007  31.655  1.00  0.00     0.049 A 
ATOM     75  H   UNL A   1      43.995  34.869  30.663  1.00  0.00     0.167 HD
ATOM     76  C   UNL A   1      41.586  33.284  31.563  1.00  0.00     0.074 A 
ATOM     77  C   UNL A   1      41.386  34.117  30.376  1.00  0.00     0.031 C 
ATOM     78  C   UNL A   1      42.719  32.789  32.147  1.00  0.00     0.034 A 
BRANCH  65  79
ATOM     79  C   UNL A   1      45.409  35.017  27.911  1.00  0.00     0.023 A 
ATOM     80  C   UNL A   1      46.628  35.724  27.914  1.00  0.00     0.031 A 
ATOM     81  C   UNL A   1      44.270  35.770  27.549  1.00  0.00     0.131 A 
ATOM     82  C   UNL A   1      46.665  37.111  27.692  1.00  0.00     0.055 A 
ATOM     83  C   UNL A   1      44.320  37.139  27.265  1.00  0.00     0.041 A 
ATOM     84  F   UNL A   1      43.033  35.261  27.531  1.00  0.00    -0.206 F 
ATOM     85  C   UNL A   1      45.516  37.826  27.371  1.00  0.00     0.022 A 
BRANCH  82  86
ATOM     86  S   UNL A   1      48.212  37.995  28.017  1.00  0.00     0.124 S 
ATOM     87  O   UNL A   1      47.725  39.234  28.612  1.00  0.00    -0.237 OA
ATOM     88  O   UNL A   1      48.899  37.073  28.917  1.00  0.00    -0.237 OA
ATOM     89  O   UNL A   1      48.808  38.131  26.691  1.00  0.00    -0.744 OA
ENDBRANCH  82  86
ENDBRANCH  65  79
BRANCH  66  90
ATOM     90  C   UNL A   1      37.213  32.009  30.236  1.00  0.00     0.023 A 
ATOM     91  C   UNL A   1      36.558  32.711  31.286  1.00  0.00     0.031 A 
ATOM     92  C   UNL A   1      36.370  31.637  29.164  1.00  0.00     0.131 A 
ATOM     93  C   UNL A   1      35.183  33.058  31.195  1.00  0.00     0.055 A 
ATOM     94  C   UNL A   1      35.003  31.954  29.094  1.00  0.00     0.041 A 
ATOM     95  F   UNL A   1      36.850  31.102  28.036  1.00  0.00    -0.206 F 
ATOM     96  C   UNL A   1      34.411  32.699  30.092  1.00  0.00     0.022 A 
BRANCH  93  97
ATOM     97  S   UNL A   1      34.332  34.084  32.436  1.00  0.00     0.124 S 
ATOM     98  O   UNL A   1      33.656  33.080  33.252  1.00  0.00    -0.237 OA
ATOM     99  O   UNL A   1      35.412  34.814  33.086  1.00  0.00    -0.237 OA
ATOM    100  O   UNL A   1      33.450  34.899  31.600  1.00  0.00    -0.744 OA
ENDBRANCH  93  97
ENDBRANCH  66  90
BRANCH  78 101
ATOM    101  C   UNL A   1      42.561  31.778  33.270  1.00  0.00     0.023 A 
ATOM    102  C   UNL A   1      42.514  30.375  33.093  1.00  0.00     0.031 A 
ATOM    103  C   UNL A   1      42.602  32.266  34.588  1.00  0.00     0.131 A 
ATOM    104  C   UNL A   1      42.501  29.521  34.216  1.00  0.00     0.055 A 
ATOM    105  C   UNL A   1      42.615  31.419  35.694  1.00  0.00     0.041 A 
ATOM    106  F   UNL A   1      42.676  33.587  34.822  1.00  0.00    -0.206 F 
ATOM    107  C   UNL A   1      42.559  30.042  35.513  1.00  0.00     0.022 A 
BRANCH 104 108
ATOM    108  S   UNL A   1      42.388  27.712  34.016  1.00  0.00     0.124 S 
ATOM    109  O   UNL A   1      42.343  27.531  32.570  1.00  0.00    -0.237 OA
ATOM    110  O   UNL A   1      43.599  27.243  34.683  1.00  0.00    -0.237 OA
ATOM    111  O   UNL A   1      41.143  27.371  34.709  1.00  0.00    -0.744 OA
ENDBRANCH 104 108
ENDBRANCH  78 101
ENDBRANCH  52  53
ENDBRANCH  44  47
ENDBRANCH  42  43
ENDBRANCH  41  42
ENDBRANCH  40  41
ENDBRANCH  39  40
ENDBRANCH  38  39
ENDBRANCH   1  38
TORSDOF 24
ENDMDL
MODEL 3
REMARK VINA RESULT:     -11.3      2.415      3.547
REMARK SMILES NS(=O)(=O)c1ccc(-n2nc(NC(=O)NCCCC(=O)NCCCCCCNC(=O)c3ccc(-c4c5nc(c(-c6cc(S(=O)(=O)[O-])ccc6F)c6ccc([nH]6)c(-c6cc(S(=O)(=O)[O-])ccc6F)c6nc(c(-c7cc(S(=O)(=O)[O-])ccc7F)c7ccc4[nH]7)C=C6)C=C5)cc3)cc2-c2ccccc2)cc1
REMARK SMILES IDX 22 1 21 2 19 3 20 4 18 6 17 7 16 8 15 9 12 10 13 11 14 13
REMARK SMILES IDX 11 15 9 16 10 17 95 18 94 19 8 20 5 21 6 22 103 23 7 24
REMARK SMILES IDX 102 25 2 26 3 27 4 28 1 29 96 32 97 33 101 34 98 35 100 36
REMARK SMILES IDX 99 37 23 38 24 39 25 40 26 41 27 42 28 43 29 44 30 46 31 47
REMARK SMILES IDX 32 48 93 49 33 50 92 51 34 52 35 53 36 54 86 55 37 56 91 57
REMARK SMILES IDX 85 58 87 59 38 60 90 61 84 62 83 63 39 65 71 66 51 67 70 68
REMARK SMILES IDX 52 69 55 70 69 71 88 72 53 73 54 74 68 76 89 77 56 78 40 79
REMARK SMILES IDX 41 80 49 81 42 82 48 83 50 84 47 85 43 86 44 87 45 88 46 89
REMARK SMILES IDX 72 90 73 91 81 92 74 93 80 94 82 95 79 96 75 97 76 98 77 99
REMARK SMILES IDX 78 100 57 101 58 102 66 103 59 104 65 105 67 106 64 107
REMARK SMILES IDX 60 108 61 109 62 110 63 111
REMARK H PARENT 21 5 12 12 15 14 1 30 1 31 28 45 87 64 55 75
REMARK Flexibility Score: inf
ROOT
ATOM      1  C   UNL A   1      34.443  29.341  26.023  1.00  0.00     0.116 C 
ENDROOT
BRANCH   1   2
ATOM      2  N   UNL A   1      33.274  28.582  26.438  1.00  0.00    -0.356 N 
ATOM      3  C   UNL A   1      32.090  29.009  26.954  1.00  0.00     0.220 C 
ATOM      4  O   UNL A   1      31.307  28.167  27.402  1.00  0.00    -0.275 OA
ATOM      5  H   UNL A   1      33.352  27.607  26.328  1.00  0.00     0.163 HD
BRANCH   3   6
ATOM      6  C   UNL A   1      31.714  30.480  26.929  1.00  0.00     0.102 C 
BRANCH   6   7
ATOM      7  C   UNL A   1      31.145  30.965  25.596  1.00  0.00     0.031 C 
BRANCH   7   8
ATOM      8  C   UNL A   1      30.600  29.862  24.704  1.00  0.00     0.118 C 
BRANCH   8   9
ATOM      9  N   UNL A   1      30.317  30.246  23.331  1.00  0.00    -0.338 N 
ATOM     10  N   UNL A   1      31.041  28.352  22.076  1.00  0.00    -0.291 N 
ATOM     11  C   UNL A   1      30.468  29.571  22.167  1.00  0.00     0.320 C 
ATOM     12  H   UNL A   1      31.307  28.087  21.166  1.00  0.00     0.173 HD
ATOM     13  O   UNL A   1      30.168  30.169  21.128  1.00  0.00    -0.248 OA
ATOM     14  H   UNL A   1      29.953  31.156  23.229  1.00  0.00     0.165 HD
BRANCH  10  15
ATOM     15  C   UNL A   1      31.312  27.428  23.050  1.00  0.00     0.157 A 
ATOM     16  N   UNL A   1      32.390  25.965  24.148  1.00  0.00    -0.231 N 
ATOM     17  N   UNL A   1      32.524  27.165  23.536  1.00  0.00    -0.149 NA
ATOM     18  C   UNL A   1      31.047  25.683  24.377  1.00  0.00     0.076 A 
ATOM     19  C   UNL A   1      30.337  26.652  23.697  1.00  0.00     0.078 A 
BRANCH  16  20
ATOM     20  C   UNL A   1      33.545  25.147  24.349  1.00  0.00     0.065 A 
ATOM     21  C   UNL A   1      35.800  23.540  24.791  1.00  0.00     0.082 A 
ATOM     22  C   UNL A   1      35.098  23.439  23.584  1.00  0.00     0.024 A 
ATOM     23  C   UNL A   1      35.385  24.440  25.774  1.00  0.00     0.024 A 
ATOM     24  C   UNL A   1      33.974  24.244  23.363  1.00  0.00     0.030 A 
ATOM     25  C   UNL A   1      34.266  25.248  25.548  1.00  0.00     0.030 A 
BRANCH  21  26
ATOM     26  S   UNL A   1      37.142  22.430  25.112  1.00  0.00     0.238 S 
ATOM     27  O   UNL A   1      38.144  23.092  25.900  1.00  0.00    -0.207 OA
ATOM     28  O   UNL A   1      37.465  21.700  23.898  1.00  0.00    -0.207 OA
BRANCH  26  29
ATOM     29  N   UNL A   1      36.446  21.294  26.133  1.00  0.00    -0.225 NA
ATOM     30  H   UNL A   1      36.665  20.355  25.798  1.00  0.00     0.137 HD
ATOM     31  H   UNL A   1      35.434  21.422  26.144  1.00  0.00     0.137 HD
ENDBRANCH  26  29
ENDBRANCH  21  26
ENDBRANCH  16  20
BRANCH  18  32
ATOM     32  C   UNL A   1      30.576  24.613  25.237  1.00  0.00     0.000 A 
ATOM     33  C   UNL A   1      29.660  24.926  26.238  1.00  0.00     0.010 A 
ATOM     34  C   UNL A   1      31.043  23.301  25.112  1.00  0.00     0.010 A 
ATOM     35  C   UNL A   1      29.303  23.965  27.163  1.00  0.00     0.001 A 
ATOM     36  C   UNL A   1      30.610  22.319  26.007  1.00  0.00     0.001 A 
ATOM     37  C   UNL A   1      29.748  22.656  27.044  1.00  0.00     0.000 A 
ENDBRANCH  18  32
ENDBRANCH  10  15
ENDBRANCH   8   9
ENDBRANCH   7   8
ENDBRANCH   6   7
ENDBRANCH   3   6
ENDBRANCH   1   2
BRANCH   1  38
ATOM     38  C   UNL A   1      35.466  29.406  27.155  1.00  0.00     0.021 C 
BRANCH  38  39
ATOM     39  C   UNL A   1      34.943  29.973  28.475  1.00  0.00     0.002 C 
BRANCH  39  40
ATOM     40  C   UNL A   1      34.515  31.443  28.416  1.00  0.00     0.002 C 
BRANCH  40  41
ATOM     41  C   UNL A   1      35.526  32.406  27.775  1.00  0.00     0.021 C 
BRANCH  41  42
ATOM     42  C   UNL A   1      36.671  32.790  28.702  1.00  0.00     0.116 C 
BRANCH  42  43
ATOM     43  N   UNL A   1      36.260  32.769  30.106  1.00  0.00    -0.352 N 
ATOM     44  C   UNL A   1      36.606  31.856  31.081  1.00  0.00     0.251 C 
ATOM     45  H   UNL A   1      35.662  33.498  30.391  1.00  0.00     0.163 HD
ATOM     46  O   UNL A   1      35.911  31.718  32.081  1.00  0.00    -0.269 OA
BRANCH  44  47
ATOM     47  C   UNL A   1      37.835  31.065  30.895  1.00  0.00     0.039 A 
ATOM     48  C   UNL A   1      39.104  31.636  31.031  1.00  0.00     0.014 A 
ATOM     49  C   UNL A   1      37.688  29.714  30.590  1.00  0.00     0.014 A 
ATOM     50  C   UNL A   1      40.225  30.813  30.933  1.00  0.00     0.010 A 
ATOM     51  C   UNL A   1      38.778  28.885  30.626  1.00  0.00     0.010 A 
ATOM     52  C   UNL A   1      40.051  29.434  30.745  1.00  0.00    -0.014 A 
BRANCH  52  53
ATOM     53  C   UNL A   1      41.173  28.499  30.802  1.00  0.00     0.031 A 
ATOM     54  C   UNL A   1      41.781  28.356  32.149  1.00  0.00     0.074 A 
ATOM     55  C   UNL A   1      41.461  27.670  29.775  1.00  0.00     0.049 A 
ATOM     56  N   UNL A   1      42.961  28.724  32.521  1.00  0.00    -0.248 NA
ATOM     57  C   UNL A   1      40.927  27.910  33.261  1.00  0.00     0.031 C 
ATOM     58  C   UNL A   1      40.789  27.598  28.480  1.00  0.00     0.029 A 
ATOM     59  N   UNL A   1      42.372  26.660  29.690  1.00  0.00    -0.354 N 
ATOM     60  C   UNL A   1      43.089  28.336  33.851  1.00  0.00     0.074 A 
ATOM     61  C   UNL A   1      41.753  28.048  34.300  1.00  0.00     0.031 C 
ATOM     62  C   UNL A   1      41.210  26.509  27.806  1.00  0.00     0.029 A 
ATOM     63  C   UNL A   1      42.254  25.835  28.559  1.00  0.00     0.049 A 
ATOM     64  H   UNL A   1      43.067  26.519  30.374  1.00  0.00     0.167 HD
ATOM     65  C   UNL A   1      44.310  28.059  34.388  1.00  0.00     0.034 A 
ATOM     66  C   UNL A   1      42.979  24.710  28.264  1.00  0.00     0.034 A 
ATOM     67  C   UNL A   1      45.365  28.564  33.535  1.00  0.00     0.049 A 
ATOM     68  C   UNL A   1      44.228  24.854  29.075  1.00  0.00     0.074 A 
ATOM     69  C   UNL A   1      45.724  29.823  33.091  1.00  0.00     0.029 A 
ATOM     70  N   UNL A   1      45.979  27.677  32.675  1.00  0.00    -0.354 N 
ATOM     71  N   UNL A   1      45.134  25.757  28.807  1.00  0.00    -0.248 NA
ATOM     72  C   UNL A   1      44.251  24.362  30.449  1.00  0.00     0.031 C 
ATOM     73  C   UNL A   1      46.088  29.635  31.725  1.00  0.00     0.029 A 
ATOM     74  C   UNL A   1      46.031  28.268  31.436  1.00  0.00     0.049 A 
ATOM     75  H   UNL A   1      46.317  26.782  32.908  1.00  0.00     0.167 HD
ATOM     76  C   UNL A   1      45.535  26.255  30.038  1.00  0.00     0.074 A 
ATOM     77  C   UNL A   1      45.043  25.282  31.015  1.00  0.00     0.031 C 
ATOM     78  C   UNL A   1      45.971  27.543  30.177  1.00  0.00     0.034 A 
BRANCH  65  79
ATOM     79  C   UNL A   1      44.587  27.031  35.466  1.00  0.00     0.023 A 
ATOM     80  C   UNL A   1      44.853  25.714  35.042  1.00  0.00     0.031 A 
ATOM     81  C   UNL A   1      44.332  27.186  36.846  1.00  0.00     0.131 A 
ATOM     82  C   UNL A   1      44.740  24.628  35.927  1.00  0.00     0.055 A 
ATOM     83  C   UNL A   1      44.284  26.109  37.737  1.00  0.00     0.041 A 
ATOM     84  F   UNL A   1      44.026  28.362  37.406  1.00  0.00    -0.206 F 
ATOM     85  C   UNL A   1      44.453  24.817  37.275  1.00  0.00     0.022 A 
BRANCH  82  86
ATOM     86  S   UNL A   1      44.790  22.952  35.243  1.00  0.00     0.124 S 
ATOM     87  O   UNL A   1      43.404  22.761  34.831  1.00  0.00    -0.237 OA
ATOM     88  O   UNL A   1      45.769  23.095  34.171  1.00  0.00    -0.237 OA
ATOM     89  O   UNL A   1      45.221  22.138  36.377  1.00  0.00    -0.744 OA
ENDBRANCH  82  86
ENDBRANCH  65  79
BRANCH  66  90
ATOM     90  C   UNL A   1      42.731  23.537  27.343  1.00  0.00     0.023 A 
ATOM     91  C   UNL A   1      43.761  23.021  26.508  1.00  0.00     0.031 A 
ATOM     92  C   UNL A   1      41.557  22.752  27.382  1.00  0.00     0.131 A 
ATOM     93  C   UNL A   1      43.614  21.774  25.843  1.00  0.00     0.055 A 
ATOM     94  C   UNL A   1      41.404  21.534  26.695  1.00  0.00     0.041 A 
ATOM     95  F   UNL A   1      40.553  23.015  28.225  1.00  0.00    -0.206 F 
ATOM     96  C   UNL A   1      42.446  21.021  25.952  1.00  0.00     0.022 A 
BRANCH  93  97
ATOM     97  S   UNL A   1      44.953  20.993  24.887  1.00  0.00     0.124 S 
ATOM     98  O   UNL A   1      44.587  19.581  24.945  1.00  0.00    -0.237 OA
ATOM     99  O   UNL A   1      44.860  21.623  23.577  1.00  0.00    -0.237 OA
ATOM    100  O   UNL A   1      46.135  21.359  25.667  1.00  0.00    -0.744 OA
ENDBRANCH  93  97
ENDBRANCH  66  90
BRANCH  78 101
ATOM    101  C   UNL A   1      46.225  28.352  28.917  1.00  0.00     0.023 A 
ATOM    102  C   UNL A   1      45.351  29.337  28.398  1.00  0.00     0.031 A 
ATOM    103  C   UNL A   1      47.480  28.206  28.299  1.00  0.00     0.131 A 
ATOM    104  C   UNL A   1      45.747  30.123  27.296  1.00  0.00     0.055 A 
ATOM    105  C   UNL A   1      47.877  29.003  27.226  1.00  0.00     0.041 A 
ATOM    106  F   UNL A   1      48.366  27.309  28.762  1.00  0.00    -0.206 F 
ATOM    107  C   UNL A   1      47.010  29.961  26.717  1.00  0.00     0.022 A 
BRANCH 104 108
ATOM    108  S   UNL A   1      44.619  31.362  26.576  1.00  0.00     0.124 S 
ATOM    109  O   UNL A   1      44.334  32.254  27.694  1.00  0.00    -0.237 OA
ATOM    110  O   UNL A   1      45.419  31.928  25.493  1.00  0.00    -0.237 OA
ATOM    111  O   UNL A   1      43.476  30.562  26.131  1.00  0.00    -0.744 OA
ENDBRANCH 104 108
ENDBRANCH  78 101
ENDBRANCH  52  53
ENDBRANCH  44  47
ENDBRANCH  42  43
ENDBRANCH  41  42
ENDBRANCH  40  41
ENDBRANCH  39  40
ENDBRANCH  38  39
ENDBRANCH   1  38
TORSDOF 24
ENDMDL
