MODEL 1
REMARK VINA RESULT:     -10.9      0.000      0.000
REMARK SMILES Cn1cc(/C=C/C(=O)N(CC(=O)NCCCCCCNC(=O)c2ccc(-c3c4nc(c(-c5cc(S(=O)(=O)[O-])ccc5F)c5ccc([nH]5)c(-c5cc(S(=O)(=O)[O-])ccc5F)c5nc(c(-c6cc(S(=O)(=O)[O-])ccc6F)c6ccc3[nH]6)C=C5)C=C4)cc2)C(C)(C)C)cn1
REMARK SMILES IDX 16 1 15 2 14 3 13 4 11 5 12 6 10 8 9 9 7 10 8 11 6 12 5 13
REMARK SMILES IDX 4 14 1 15 2 16 3 17 91 18 90 19 86 20 87 21 88 22 89 23
REMARK SMILES IDX 17 24 18 25 19 26 20 27 21 28 22 30 23 31 24 32 85 33 25 34
REMARK SMILES IDX 84 35 26 36 27 37 28 38 78 39 29 40 83 41 77 42 79 43 30 44
REMARK SMILES IDX 82 45 76 46 75 47 31 49 63 50 43 51 62 52 44 53 47 54 61 55
REMARK SMILES IDX 80 56 45 57 46 58 60 60 81 61 48 62 32 63 33 64 41 65 34 66
REMARK SMILES IDX 40 67 42 68 39 69 35 70 36 71 37 72 38 73 64 74 65 75 73 76
REMARK SMILES IDX 66 77 72 78 74 79 71 80 67 81 68 82 69 83 70 84 49 85 50 86
REMARK SMILES IDX 58 87 51 88 57 89 59 90 56 91 52 92 53 93 54 94 55 95
REMARK H PARENT 13 7 20 29 79 48 47 59
REMARK Flexibility Score: inf
ROOT
ATOM      1  C   UNL A   1      35.706  21.185  25.390  1.00  0.00     0.002 C 
ENDROOT
BRANCH   1   2
ATOM      2  C   UNL A   1      34.507  20.328  24.999  1.00  0.00     0.021 C 
BRANCH   2   3
ATOM      3  C   UNL A   1      33.370  21.093  24.340  1.00  0.00     0.116 C 
BRANCH   3   4
ATOM      4  N   UNL A   1      32.299  21.455  25.247  1.00  0.00    -0.355 N 
ATOM      5  C   UNL A   1      31.398  22.474  25.244  1.00  0.00     0.239 C 
ATOM      6  O   UNL A   1      30.454  22.367  26.038  1.00  0.00    -0.273 OA
ATOM      7  H   UNL A   1      32.207  20.846  26.015  1.00  0.00     0.163 HD
BRANCH   5   8
ATOM      8  C   UNL A   1      31.394  23.637  24.229  1.00  0.00     0.220 C 
BRANCH   8   9
ATOM      9  N   UNL A   1      31.781  24.976  24.688  1.00  0.00    -0.325 N 
BRANCH   9  10
ATOM     10  C   UNL A   1      30.893  25.895  25.260  1.00  0.00     0.247 C 
ATOM     11  O   UNL A   1      30.818  26.046  26.484  1.00  0.00    -0.270 OA
BRANCH  10  12
ATOM     12  C   UNL A   1      29.929  26.763  24.484  1.00  0.00     0.072 C 
ATOM     13  C   UNL A   1      30.125  27.741  23.585  1.00  0.00     0.017 C 
BRANCH  13  14
ATOM     14  C   UNL A   1      29.144  28.581  22.988  1.00  0.00     0.013 A 
ATOM     15  C   UNL A   1      28.106  31.393  20.998  1.00  0.00     0.173 C 
ATOM     16  N   UNL A   1      28.279  30.223  21.826  1.00  0.00    -0.275 N 
ATOM     17  C   UNL A   1      29.454  29.588  22.100  1.00  0.00     0.116 A 
ATOM     18  N   UNL A   1      27.220  29.676  22.446  1.00  0.00    -0.181 NA
ATOM     19  C   UNL A   1      27.750  28.681  23.168  1.00  0.00     0.143 A 
ENDBRANCH  13  14
ENDBRANCH  10  12
ENDBRANCH   9  10
BRANCH   9  20
ATOM     20  C   UNL A   1      33.261  25.340  24.592  1.00  0.00     0.035 C 
ATOM     21  C   UNL A   1      34.048  24.906  25.845  1.00  0.00     0.034 C 
ATOM     22  C   UNL A   1      33.899  24.698  23.339  1.00  0.00     0.034 C 
ATOM     23  C   UNL A   1      33.536  26.868  24.455  1.00  0.00     0.034 C 
ENDBRANCH   9  20
ENDBRANCH   8   9
ENDBRANCH   5   8
ENDBRANCH   3   4
ENDBRANCH   2   3
ENDBRANCH   1   2
BRANCH   1  24
ATOM     24  C   UNL A   1      36.936  20.991  24.501  1.00  0.00     0.002 C 
BRANCH  24  25
ATOM     25  C   UNL A   1      37.872  19.862  24.936  1.00  0.00     0.021 C 
BRANCH  25  26
ATOM     26  C   UNL A   1      38.966  20.284  25.914  1.00  0.00     0.116 C 
BRANCH  26  27
ATOM     27  N   UNL A   1      40.016  19.284  26.009  1.00  0.00    -0.352 N 
ATOM     28  C   UNL A   1      41.374  19.465  26.102  1.00  0.00     0.251 C 
ATOM     29  H   UNL A   1      39.712  18.347  26.008  1.00  0.00     0.163 HD
ATOM     30  O   UNL A   1      42.130  18.517  25.928  1.00  0.00    -0.269 OA
BRANCH  28  31
ATOM     31  C   UNL A   1      41.908  20.813  26.392  1.00  0.00     0.039 A 
ATOM     32  C   UNL A   1      42.149  21.691  25.333  1.00  0.00     0.014 A 
ATOM     33  C   UNL A   1      42.164  21.210  27.708  1.00  0.00     0.014 A 
ATOM     34  C   UNL A   1      42.598  22.985  25.600  1.00  0.00     0.010 A 
ATOM     35  C   UNL A   1      42.534  22.523  27.976  1.00  0.00     0.010 A 
ATOM     36  C   UNL A   1      42.764  23.424  26.925  1.00  0.00    -0.014 A 
BRANCH  36  37
ATOM     37  C   UNL A   1      43.195  24.814  27.225  1.00  0.00     0.031 A 
ATOM     38  C   UNL A   1      42.244  25.771  27.892  1.00  0.00     0.074 A 
ATOM     39  C   UNL A   1      44.425  25.227  26.857  1.00  0.00     0.049 A 
ATOM     40  N   UNL A   1      42.411  27.035  28.186  1.00  0.00    -0.248 NA
ATOM     41  C   UNL A   1      40.919  25.241  28.249  1.00  0.00     0.031 C 
ATOM     42  C   UNL A   1      45.423  24.401  26.172  1.00  0.00     0.029 A 
ATOM     43  N   UNL A   1      45.045  26.443  27.000  1.00  0.00    -0.354 N 
ATOM     44  C   UNL A   1      41.211  27.454  28.753  1.00  0.00     0.074 A 
ATOM     45  C   UNL A   1      40.306  26.326  28.698  1.00  0.00     0.031 C 
ATOM     46  C   UNL A   1      46.538  25.124  25.985  1.00  0.00     0.029 A 
ATOM     47  C   UNL A   1      46.321  26.478  26.484  1.00  0.00     0.049 A 
ATOM     48  H   UNL A   1      44.618  27.217  27.432  1.00  0.00     0.167 HD
ATOM     49  C   UNL A   1      40.904  28.658  29.293  1.00  0.00     0.034 A 
ATOM     50  C   UNL A   1      47.209  27.490  26.409  1.00  0.00     0.034 A 
ATOM     51  C   UNL A   1      41.822  29.770  29.345  1.00  0.00     0.049 A 
ATOM     52  C   UNL A   1      46.827  28.835  26.977  1.00  0.00     0.074 A 
ATOM     53  C   UNL A   1      41.633  31.017  29.914  1.00  0.00     0.029 A 
ATOM     54  N   UNL A   1      43.099  29.774  28.798  1.00  0.00    -0.354 N 
ATOM     55  N   UNL A   1      45.708  29.199  27.560  1.00  0.00    -0.248 NA
ATOM     56  C   UNL A   1      47.832  29.902  26.885  1.00  0.00     0.031 C 
ATOM     57  C   UNL A   1      42.760  31.799  29.642  1.00  0.00     0.029 A 
ATOM     58  C   UNL A   1      43.693  31.014  28.982  1.00  0.00     0.049 A 
ATOM     59  H   UNL A   1      43.521  29.008  28.345  1.00  0.00     0.167 HD
ATOM     60  C   UNL A   1      45.889  30.528  27.933  1.00  0.00     0.074 A 
ATOM     61  C   UNL A   1      47.230  30.894  27.524  1.00  0.00     0.031 C 
ATOM     62  C   UNL A   1      45.028  31.370  28.560  1.00  0.00     0.034 A 
BRANCH  49  63
ATOM     63  C   UNL A   1      39.508  28.839  29.844  1.00  0.00     0.023 A 
ATOM     64  C   UNL A   1      38.487  29.447  29.090  1.00  0.00     0.031 A 
ATOM     65  C   UNL A   1      39.197  28.420  31.150  1.00  0.00     0.131 A 
ATOM     66  C   UNL A   1      37.234  29.689  29.673  1.00  0.00     0.055 A 
ATOM     67  C   UNL A   1      37.921  28.584  31.693  1.00  0.00     0.041 A 
ATOM     68  F   UNL A   1      40.134  27.854  31.929  1.00  0.00    -0.206 F 
ATOM     69  C   UNL A   1      36.935  29.236  30.959  1.00  0.00     0.022 A 
BRANCH  66  70
ATOM     70  S   UNL A   1      36.053  30.738  28.781  1.00  0.00     0.124 S 
ATOM     71  O   UNL A   1      35.291  29.746  28.025  1.00  0.00    -0.237 OA
ATOM     72  O   UNL A   1      35.339  31.402  29.865  1.00  0.00    -0.237 OA
ATOM     73  O   UNL A   1      36.908  31.604  27.972  1.00  0.00    -0.744 OA
ENDBRANCH  66  70
ENDBRANCH  49  63
BRANCH  50  74
ATOM     74  C   UNL A   1      48.538  27.286  25.761  1.00  0.00     0.023 A 
ATOM     75  C   UNL A   1      48.716  27.506  24.385  1.00  0.00     0.031 A 
ATOM     76  C   UNL A   1      49.640  26.816  26.499  1.00  0.00     0.131 A 
ATOM     77  C   UNL A   1      49.947  27.208  23.782  1.00  0.00     0.055 A 
ATOM     78  C   UNL A   1      50.880  26.580  25.905  1.00  0.00     0.041 A 
ATOM     79  F   UNL A   1      49.526  26.589  27.818  1.00  0.00    -0.206 F 
ATOM     80  C   UNL A   1      51.035  26.761  24.534  1.00  0.00     0.022 A 
BRANCH  77  81
ATOM     81  S   UNL A   1      50.078  27.316  21.975  1.00  0.00     0.124 S 
ATOM     82  O   UNL A   1      49.855  28.739  21.747  1.00  0.00    -0.237 OA
ATOM     83  O   UNL A   1      51.433  26.831  21.740  1.00  0.00    -0.237 OA
ATOM     84  O   UNL A   1      49.012  26.433  21.504  1.00  0.00    -0.744 OA
ENDBRANCH  77  81
ENDBRANCH  50  74
BRANCH  62  85
ATOM     85  C   UNL A   1      45.531  32.756  28.885  1.00  0.00     0.023 A 
ATOM     86  C   UNL A   1      45.275  33.855  28.048  1.00  0.00     0.031 A 
ATOM     87  C   UNL A   1      46.283  32.978  30.054  1.00  0.00     0.131 A 
ATOM     88  C   UNL A   1      45.812  35.113  28.362  1.00  0.00     0.055 A 
ATOM     89  C   UNL A   1      46.757  34.245  30.395  1.00  0.00     0.041 A 
ATOM     90  F   UNL A   1      46.564  31.964  30.888  1.00  0.00    -0.206 F 
ATOM     91  C   UNL A   1      46.535  35.319  29.540  1.00  0.00     0.022 A 
BRANCH  88  92
ATOM     92  S   UNL A   1      45.640  36.460  27.158  1.00  0.00     0.124 S 
ATOM     93  O   UNL A   1      44.203  36.457  26.905  1.00  0.00    -0.237 OA
ATOM     94  O   UNL A   1      46.154  37.608  27.898  1.00  0.00    -0.237 OA
ATOM     95  O   UNL A   1      46.468  36.025  26.036  1.00  0.00    -0.744 OA
ENDBRANCH  88  92
ENDBRANCH  62  85
ENDBRANCH  36  37
ENDBRANCH  28  31
ENDBRANCH  26  27
ENDBRANCH  25  26
ENDBRANCH  24  25
ENDBRANCH   1  24
TORSDOF 21
ENDMDL
MODEL 2
REMARK VINA RESULT:     -10.5      3.157      8.925
REMARK SMILES Cn1cc(/C=C/C(=O)N(CC(=O)NCCCCCCNC(=O)c2ccc(-c3c4nc(c(-c5cc(S(=O)(=O)[O-])ccc5F)c5ccc([nH]5)c(-c5cc(S(=O)(=O)[O-])ccc5F)c5nc(c(-c6cc(S(=O)(=O)[O-])ccc6F)c6ccc3[nH]6)C=C5)C=C4)cc2)C(C)(C)C)cn1
REMARK SMILES IDX 16 1 15 2 14 3 13 4 11 5 12 6 10 8 9 9 7 10 8 11 6 12 5 13
REMARK SMILES IDX 4 14 1 15 2 16 3 17 91 18 90 19 86 20 87 21 88 22 89 23
REMARK SMILES IDX 17 24 18 25 19 26 20 27 21 28 22 30 23 31 24 32 85 33 25 34
REMARK SMILES IDX 84 35 26 36 27 37 28 38 78 39 29 40 83 41 77 42 79 43 30 44
REMARK SMILES IDX 82 45 76 46 75 47 31 49 63 50 43 51 62 52 44 53 47 54 61 55
REMARK SMILES IDX 80 56 45 57 46 58 60 60 81 61 48 62 32 63 33 64 41 65 34 66
REMARK SMILES IDX 40 67 42 68 39 69 35 70 36 71 37 72 38 73 64 74 65 75 73 76
REMARK SMILES IDX 66 77 72 78 74 79 71 80 67 81 68 82 69 83 70 84 49 85 50 86
REMARK SMILES IDX 58 87 51 88 57 89 59 90 56 91 52 92 53 93 54 94 55 95
REMARK H PARENT 13 7 20 29 79 48 47 59
REMARK Flexibility Score: inf
ROOT
ATOM      1  C   UNL A   1      40.583  22.610  26.907  1.00  0.00     0.002 C 
ENDROOT
BRANCH   1   2
ATOM      2  C   UNL A   1      39.466  23.509  27.429  1.00  0.00     0.021 C 
BRANCH   2   3
ATOM      3  C   UNL A   1      38.606  24.144  26.348  1.00  0.00     0.116 C 
BRANCH   3   4
ATOM      4  N   UNL A   1      38.111  23.205  25.362  1.00  0.00    -0.355 N 
ATOM      5  C   UNL A   1      36.872  22.983  24.846  1.00  0.00     0.239 C 
ATOM      6  O   UNL A   1      36.823  22.264  23.839  1.00  0.00    -0.273 OA
ATOM      7  H   UNL A   1      38.805  22.611  24.995  1.00  0.00     0.163 HD
BRANCH   5   8
ATOM      8  C   UNL A   1      35.583  23.683  25.329  1.00  0.00     0.220 C 
BRANCH   8   9
ATOM      9  N   UNL A   1      34.291  23.033  25.080  1.00  0.00    -0.325 N 
BRANCH   9  10
ATOM     10  C   UNL A   1      33.795  21.963  25.834  1.00  0.00     0.247 C 
ATOM     11  O   UNL A   1      33.280  22.137  26.943  1.00  0.00    -0.270 OA
BRANCH  10  12
ATOM     12  C   UNL A   1      33.853  20.511  25.415  1.00  0.00     0.072 C 
ATOM     13  C   UNL A   1      32.951  19.709  24.827  1.00  0.00     0.017 C 
BRANCH  13  14
ATOM     14  C   UNL A   1      33.064  18.314  24.572  1.00  0.00     0.013 A 
ATOM     15  C   UNL A   1      32.730  14.848  25.474  1.00  0.00     0.173 C 
ATOM     16  N   UNL A   1      32.952  16.151  24.897  1.00  0.00    -0.275 N 
ATOM     17  C   UNL A   1      32.574  17.349  25.425  1.00  0.00     0.116 A 
ATOM     18  N   UNL A   1      33.625  16.268  23.739  1.00  0.00    -0.181 NA
ATOM     19  C   UNL A   1      33.707  17.591  23.547  1.00  0.00     0.143 A 
ENDBRANCH  13  14
ENDBRANCH  10  12
ENDBRANCH   9  10
BRANCH   9  20
ATOM     20  C   UNL A   1      33.421  23.622  23.971  1.00  0.00     0.035 C 
ATOM     21  C   UNL A   1      33.388  22.724  22.720  1.00  0.00     0.034 C 
ATOM     22  C   UNL A   1      31.978  23.850  24.477  1.00  0.00     0.034 C 
ATOM     23  C   UNL A   1      33.898  25.013  23.456  1.00  0.00     0.034 C 
ENDBRANCH   9  20
ENDBRANCH   8   9
ENDBRANCH   5   8
ENDBRANCH   3   4
ENDBRANCH   2   3
ENDBRANCH   1   2
BRANCH   1  24
ATOM     24  C   UNL A   1      41.192  21.684  27.961  1.00  0.00     0.002 C 
BRANCH  24  25
ATOM     25  C   UNL A   1      41.529  20.277  27.464  1.00  0.00     0.021 C 
BRANCH  25  26
ATOM     26  C   UNL A   1      41.451  20.103  25.949  1.00  0.00     0.116 C 
BRANCH  26  27
ATOM     27  N   UNL A   1      42.642  19.460  25.421  1.00  0.00    -0.352 N 
ATOM     28  C   UNL A   1      43.838  20.027  25.054  1.00  0.00     0.251 C 
ATOM     29  H   UNL A   1      42.584  18.483  25.311  1.00  0.00     0.163 HD
ATOM     30  O   UNL A   1      44.647  19.379  24.401  1.00  0.00    -0.269 OA
BRANCH  28  31
ATOM     31  C   UNL A   1      44.126  21.426  25.438  1.00  0.00     0.039 A 
ATOM     32  C   UNL A   1      43.790  22.455  24.555  1.00  0.00     0.014 A 
ATOM     33  C   UNL A   1      44.720  21.719  26.670  1.00  0.00     0.014 A 
ATOM     34  C   UNL A   1      44.004  23.782  24.933  1.00  0.00     0.010 A 
ATOM     35  C   UNL A   1      44.858  23.042  27.074  1.00  0.00     0.010 A 
ATOM     36  C   UNL A   1      44.510  24.089  26.207  1.00  0.00    -0.014 A 
BRANCH  36  37
ATOM     37  C   UNL A   1      44.698  25.499  26.640  1.00  0.00     0.031 A 
ATOM     38  C   UNL A   1      46.062  26.131  26.573  1.00  0.00     0.074 A 
ATOM     39  C   UNL A   1      43.653  26.192  27.133  1.00  0.00     0.049 A 
ATOM     40  N   UNL A   1      46.441  27.324  26.954  1.00  0.00    -0.248 NA
ATOM     41  C   UNL A   1      47.149  25.300  26.033  1.00  0.00     0.031 C 
ATOM     42  C   UNL A   1      42.290  25.674  27.279  1.00  0.00     0.029 A 
ATOM     43  N   UNL A   1      43.569  27.477  27.607  1.00  0.00    -0.354 N 
ATOM     44  C   UNL A   1      47.810  27.384  26.709  1.00  0.00     0.074 A 
ATOM     45  C   UNL A   1      48.202  26.083  26.211  1.00  0.00     0.031 C 
ATOM     46  C   UNL A   1      41.503  26.642  27.776  1.00  0.00     0.029 A 
ATOM     47  C   UNL A   1      42.310  27.829  28.036  1.00  0.00     0.049 A 
ATOM     48  H   UNL A   1      44.339  28.090  27.638  1.00  0.00     0.167 HD
ATOM     49  C   UNL A   1      48.654  28.433  26.861  1.00  0.00     0.034 A 
ATOM     50  C   UNL A   1      41.859  28.974  28.589  1.00  0.00     0.034 A 
ATOM     51  C   UNL A   1      48.243  29.725  27.353  1.00  0.00     0.049 A 
ATOM     52  C   UNL A   1      42.828  30.114  28.789  1.00  0.00     0.074 A 
ATOM     53  C   UNL A   1      49.002  30.873  27.498  1.00  0.00     0.029 A 
ATOM     54  N   UNL A   1      46.962  30.040  27.793  1.00  0.00    -0.354 N 
ATOM     55  N   UNL A   1      44.107  30.172  28.500  1.00  0.00    -0.248 NA
ATOM     56  C   UNL A   1      42.289  31.345  29.381  1.00  0.00     0.031 C 
ATOM     57  C   UNL A   1      48.206  31.854  28.098  1.00  0.00     0.029 A 
ATOM     58  C   UNL A   1      46.923  31.351  28.245  1.00  0.00     0.049 A 
ATOM     59  H   UNL A   1      46.196  29.423  27.785  1.00  0.00     0.167 HD
ATOM     60  C   UNL A   1      44.517  31.457  28.846  1.00  0.00     0.074 A 
ATOM     61  C   UNL A   1      43.344  32.144  29.347  1.00  0.00     0.031 C 
ATOM     62  C   UNL A   1      45.748  32.021  28.753  1.00  0.00     0.034 A 
BRANCH  49  63
ATOM     63  C   UNL A   1      50.108  28.214  26.514  1.00  0.00     0.023 A 
ATOM     64  C   UNL A   1      50.585  28.352  25.198  1.00  0.00     0.031 A 
ATOM     65  C   UNL A   1      51.029  27.837  27.509  1.00  0.00     0.131 A 
ATOM     66  C   UNL A   1      51.920  28.041  24.900  1.00  0.00     0.055 A 
ATOM     67  C   UNL A   1      52.377  27.615  27.219  1.00  0.00     0.041 A 
ATOM     68  F   UNL A   1      50.632  27.667  28.781  1.00  0.00    -0.206 F 
ATOM     69  C   UNL A   1      52.826  27.701  25.906  1.00  0.00     0.022 A 
BRANCH  66  70
ATOM     70  S   UNL A   1      52.416  27.938  23.157  1.00  0.00     0.124 S 
ATOM     71  O   UNL A   1      52.864  29.305  22.898  1.00  0.00    -0.237 OA
ATOM     72  O   UNL A   1      53.458  26.919  23.185  1.00  0.00    -0.237 OA
ATOM     73  O   UNL A   1      51.183  27.555  22.472  1.00  0.00    -0.744 OA
ENDBRANCH  66  70
ENDBRANCH  49  63
BRANCH  50  74
ATOM     74  C   UNL A   1      40.433  29.103  29.009  1.00  0.00     0.023 A 
ATOM     75  C   UNL A   1      40.064  29.014  30.361  1.00  0.00     0.031 A 
ATOM     76  C   UNL A   1      39.409  29.265  28.058  1.00  0.00     0.131 A 
ATOM     77  C   UNL A   1      38.707  29.035  30.719  1.00  0.00     0.055 A 
ATOM     78  C   UNL A   1      38.065  29.348  28.426  1.00  0.00     0.041 A 
ATOM     79  F   UNL A   1      39.705  29.357  26.751  1.00  0.00    -0.206 F 
ATOM     80  C   UNL A   1      37.706  29.217  29.763  1.00  0.00     0.022 A 
BRANCH  77  81
ATOM     81  S   UNL A   1      38.261  28.719  32.450  1.00  0.00     0.124 S 
ATOM     82  O   UNL A   1      38.495  27.284  32.558  1.00  0.00    -0.237 OA
ATOM     83  O   UNL A   1      39.197  29.579  33.165  1.00  0.00    -0.237 OA
ATOM     84  O   UNL A   1      36.860  29.131  32.520  1.00  0.00    -0.744 OA
ENDBRANCH  77  81
ENDBRANCH  50  74
BRANCH  62  85
ATOM     85  C   UNL A   1      45.876  33.470  29.160  1.00  0.00     0.023 A 
ATOM     86  C   UNL A   1      46.230  33.847  30.467  1.00  0.00     0.031 A 
ATOM     87  C   UNL A   1      45.637  34.491  28.222  1.00  0.00     0.131 A 
ATOM     88  C   UNL A   1      46.280  35.206  30.814  1.00  0.00     0.055 A 
ATOM     89  C   UNL A   1      45.755  35.840  28.555  1.00  0.00     0.041 A 
ATOM     90  F   UNL A   1      45.291  34.190  26.959  1.00  0.00    -0.206 F 
ATOM     91  C   UNL A   1      46.064  36.205  29.861  1.00  0.00     0.022 A 
BRANCH  88  92
ATOM     92  S   UNL A   1      46.533  35.653  32.553  1.00  0.00     0.124 S 
ATOM     93  O   UNL A   1      46.295  37.092  32.534  1.00  0.00    -0.237 OA
ATOM     94  O   UNL A   1      45.523  34.849  33.233  1.00  0.00    -0.237 OA
ATOM     95  O   UNL A   1      47.916  35.256  32.812  1.00  0.00    -0.744 OA
ENDBRANCH  88  92
ENDBRANCH  62  85
ENDBRANCH  36  37
ENDBRANCH  28  31
ENDBRANCH  26  27
ENDBRANCH  25  26
ENDBRANCH  24  25
ENDBRANCH   1  24
TORSDOF 21
ENDMDL
MODEL 3
REMARK VINA RESULT:     -10.5      1.836      2.370
REMARK SMILES Cn1cc(/C=C/C(=O)N(CC(=O)NCCCCCCNC(=O)c2ccc(-c3c4nc(c(-c5cc(S(=O)(=O)[O-])ccc5F)c5ccc([nH]5)c(-c5cc(S(=O)(=O)[O-])ccc5F)c5nc(c(-c6cc(S(=O)(=O)[O-])ccc6F)c6ccc3[nH]6)C=C5)C=C4)cc2)C(C)(C)C)cn1
REMARK SMILES IDX 16 1 15 2 14 3 13 4 11 5 12 6 10 8 9 9 7 10 8 11 6 12 5 13
REMARK SMILES IDX 4 14 1 15 2 16 3 17 91 18 90 19 86 20 87 21 88 22 89 23
REMARK SMILES IDX 17 24 18 25 19 26 20 27 21 28 22 30 23 31 24 32 85 33 25 34
REMARK SMILES IDX 84 35 26 36 27 37 28 38 78 39 29 40 83 41 77 42 79 43 30 44
REMARK SMILES IDX 82 45 76 46 75 47 31 49 63 50 43 51 62 52 44 53 47 54 61 55
REMARK SMILES IDX 80 56 45 57 46 58 60 60 81 61 48 62 32 63 33 64 41 65 34 66
REMARK SMILES IDX 40 67 42 68 39 69 35 70 36 71 37 72 38 73 64 74 65 75 73 76
REMARK SMILES IDX 66 77 72 78 74 79 71 80 67 81 68 82 69 83 70 84 49 85 50 86
REMARK SMILES IDX 58 87 51 88 57 89 59 90 56 91 52 92 53 93 54 94 55 95
REMARK H PARENT 13 7 20 29 79 48 47 59
REMARK Flexibility Score: inf
ROOT
ATOM      1  C   UNL A   1      36.979  22.865  25.356  1.00  0.00     0.002 C 
ENDROOT
BRANCH   1   2
ATOM      2  C   UNL A   1      35.611  23.064  26.002  1.00  0.00     0.021 C 
BRANCH   2   3
ATOM      3  C   UNL A   1      34.891  24.335  25.581  1.00  0.00     0.116 C 
BRANCH   3   4
ATOM      4  N   UNL A   1      34.596  24.403  24.164  1.00  0.00    -0.355 N 
ATOM      5  C   UNL A   1      33.911  25.306  23.411  1.00  0.00     0.239 C 
ATOM      6  O   UNL A   1      34.044  25.202  22.184  1.00  0.00    -0.273 OA
ATOM      7  H   UNL A   1      34.961  23.650  23.646  1.00  0.00     0.163 HD
BRANCH   5   8
ATOM      8  C   UNL A   1      33.136  26.513  23.980  1.00  0.00     0.220 C 
BRANCH   8   9
ATOM      9  N   UNL A   1      31.690  26.599  23.741  1.00  0.00    -0.325 N 
BRANCH   9  10
ATOM     10  C   UNL A   1      31.118  27.150  22.588  1.00  0.00     0.247 C 
ATOM     11  O   UNL A   1      31.111  26.540  21.514  1.00  0.00    -0.270 OA
BRANCH  10  12
ATOM     12  C   UNL A   1      30.488  28.522  22.508  1.00  0.00     0.072 C 
ATOM     13  C   UNL A   1      29.246  28.958  22.771  1.00  0.00     0.017 C 
BRANCH  13  14
ATOM     14  C   UNL A   1      28.718  30.261  22.556  1.00  0.00     0.013 A 
ATOM     15  C   UNL A   1      27.643  32.986  20.468  1.00  0.00     0.173 C 
ATOM     16  N   UNL A   1      28.011  32.042  21.495  1.00  0.00    -0.275 N 
ATOM     17  C   UNL A   1      28.386  30.744  21.309  1.00  0.00     0.116 A 
ATOM     18  N   UNL A   1      28.042  32.426  22.783  1.00  0.00    -0.181 NA
ATOM     19  C   UNL A   1      28.488  31.342  23.430  1.00  0.00     0.143 A 
ENDBRANCH  13  14
ENDBRANCH  10  12
ENDBRANCH   9  10
BRANCH   9  20
ATOM     20  C   UNL A   1      30.775  25.978  24.795  1.00  0.00     0.035 C 
ATOM     21  C   UNL A   1      29.285  26.158  24.448  1.00  0.00     0.034 C 
ATOM     22  C   UNL A   1      31.085  24.473  24.965  1.00  0.00     0.034 C 
ATOM     23  C   UNL A   1      30.934  26.591  26.219  1.00  0.00     0.034 C 
ENDBRANCH   9  20
ENDBRANCH   8   9
ENDBRANCH   5   8
ENDBRANCH   3   4
ENDBRANCH   2   3
ENDBRANCH   1   2
BRANCH   1  24
ATOM     24  C   UNL A   1      37.066  21.651  24.428  1.00  0.00     0.002 C 
BRANCH  24  25
ATOM     25  C   UNL A   1      37.903  20.489  24.967  1.00  0.00     0.021 C 
BRANCH  25  26
ATOM     26  C   UNL A   1      39.082  20.907  25.842  1.00  0.00     0.116 C 
BRANCH  26  27
ATOM     27  N   UNL A   1      40.035  19.824  26.012  1.00  0.00    -0.352 N 
ATOM     28  C   UNL A   1      41.399  19.889  26.161  1.00  0.00     0.251 C 
ATOM     29  H   UNL A   1      39.650  18.917  26.021  1.00  0.00     0.163 HD
ATOM     30  O   UNL A   1      42.075  18.874  26.047  1.00  0.00    -0.269 OA
BRANCH  28  31
ATOM     31  C   UNL A   1      42.035  21.194  26.441  1.00  0.00     0.039 A 
ATOM     32  C   UNL A   1      42.262  22.078  25.384  1.00  0.00     0.014 A 
ATOM     33  C   UNL A   1      42.401  21.544  27.744  1.00  0.00     0.014 A 
ATOM     34  C   UNL A   1      42.810  23.336  25.645  1.00  0.00     0.010 A 
ATOM     35  C   UNL A   1      42.872  22.825  28.011  1.00  0.00     0.010 A 
ATOM     36  C   UNL A   1      43.090  23.733  26.963  1.00  0.00    -0.014 A 
BRANCH  36  37
ATOM     37  C   UNL A   1      43.628  25.087  27.260  1.00  0.00     0.031 A 
ATOM     38  C   UNL A   1      42.730  26.143  27.846  1.00  0.00     0.074 A 
ATOM     39  C   UNL A   1      44.910  25.377  26.960  1.00  0.00     0.049 A 
ATOM     40  N   UNL A   1      42.994  27.394  28.122  1.00  0.00    -0.248 NA
ATOM     41  C   UNL A   1      41.343  25.745  28.131  1.00  0.00     0.031 C 
ATOM     42  C   UNL A   1      45.867  24.446  26.357  1.00  0.00     0.029 A 
ATOM     43  N   UNL A   1      45.629  26.535  27.116  1.00  0.00    -0.354 N 
ATOM     44  C   UNL A   1      41.806  27.935  28.605  1.00  0.00     0.074 A 
ATOM     45  C   UNL A   1      40.806  26.892  28.517  1.00  0.00     0.031 C 
ATOM     46  C   UNL A   1      47.053  25.060  26.224  1.00  0.00     0.029 A 
ATOM     47  C   UNL A   1      46.932  26.441  26.679  1.00  0.00     0.049 A 
ATOM     48  H   UNL A   1      45.250  27.356  27.504  1.00  0.00     0.167 HD
ATOM     49  C   UNL A   1      41.578  29.176  29.098  1.00  0.00     0.034 A 
ATOM     50  C   UNL A   1      47.912  27.367  26.638  1.00  0.00     0.034 A 
ATOM     51  C   UNL A   1      42.590  30.201  29.184  1.00  0.00     0.049 A 
ATOM     52  C   UNL A   1      47.622  28.755  27.152  1.00  0.00     0.074 A 
ATOM     53  C   UNL A   1      42.483  31.475  29.713  1.00  0.00     0.029 A 
ATOM     54  N   UNL A   1      43.893  30.076  28.717  1.00  0.00    -0.354 N 
ATOM     55  N   UNL A   1      46.507  29.234  27.656  1.00  0.00    -0.248 NA
ATOM     56  C   UNL A   1      48.723  29.725  27.100  1.00  0.00     0.031 C 
ATOM     57  C   UNL A   1      43.690  32.145  29.494  1.00  0.00     0.029 A 
ATOM     58  C   UNL A   1      44.585  31.262  28.911  1.00  0.00     0.049 A 
ATOM     59  H   UNL A   1      44.269  29.263  28.308  1.00  0.00     0.167 HD
ATOM     60  C   UNL A   1      46.787  30.551  28.011  1.00  0.00     0.074 A 
ATOM     61  C   UNL A   1      48.178  30.784  27.679  1.00  0.00     0.031 C 
ATOM     62  C   UNL A   1      45.970  31.484  28.565  1.00  0.00     0.034 A 
BRANCH  49  63
ATOM     63  C   UNL A   1      40.174  29.497  29.557  1.00  0.00     0.023 A 
ATOM     64  C   UNL A   1      39.837  29.559  30.922  1.00  0.00     0.031 A 
ATOM     65  C   UNL A   1      39.151  29.722  28.619  1.00  0.00     0.131 A 
ATOM     66  C   UNL A   1      38.503  29.759  31.306  1.00  0.00     0.055 A 
ATOM     67  C   UNL A   1      37.842  30.008  29.010  1.00  0.00     0.041 A 
ATOM     68  F   UNL A   1      39.404  29.655  27.301  1.00  0.00    -0.206 F 
ATOM     69  C   UNL A   1      37.508  30.012  30.360  1.00  0.00     0.022 A 
BRANCH  66  70
ATOM     70  S   UNL A   1      38.062  29.530  33.051  1.00  0.00     0.124 S 
ATOM     71  O   UNL A   1      37.310  30.752  33.326  1.00  0.00    -0.237 OA
ATOM     72  O   UNL A   1      37.286  28.295  33.021  1.00  0.00    -0.237 OA
ATOM     73  O   UNL A   1      39.357  29.440  33.723  1.00  0.00    -0.744 OA
ENDBRANCH  66  70
ENDBRANCH  49  63
BRANCH  50  74
ATOM     74  C   UNL A   1      49.253  27.026  26.079  1.00  0.00     0.023 A 
ATOM     75  C   UNL A   1      49.618  27.418  24.781  1.00  0.00     0.031 A 
ATOM     76  C   UNL A   1      50.171  26.256  26.816  1.00  0.00     0.131 A 
ATOM     77  C   UNL A   1      50.844  26.997  24.241  1.00  0.00     0.055 A 
ATOM     78  C   UNL A   1      51.415  25.892  26.296  1.00  0.00     0.041 A 
ATOM     79  F   UNL A   1      49.874  25.854  28.062  1.00  0.00    -0.206 F 
ATOM     80  C   UNL A   1      51.751  26.250  24.995  1.00  0.00     0.022 A 
BRANCH  77  81
ATOM     81  S   UNL A   1      51.193  27.356  22.497  1.00  0.00     0.124 S 
ATOM     82  O   UNL A   1      52.234  26.380  22.196  1.00  0.00    -0.237 OA
ATOM     83  O   UNL A   1      49.894  27.124  21.874  1.00  0.00    -0.237 OA
ATOM     84  O   UNL A   1      51.632  28.750  22.518  1.00  0.00    -0.744 OA
ENDBRANCH  77  81
ENDBRANCH  50  74
BRANCH  62  85
ATOM     85  C   UNL A   1      46.578  32.827  28.892  1.00  0.00     0.023 A 
ATOM     86  C   UNL A   1      46.458  33.927  28.025  1.00  0.00     0.031 A 
ATOM     87  C   UNL A   1      47.292  33.007  30.091  1.00  0.00     0.131 A 
ATOM     88  C   UNL A   1      47.089  35.140  28.343  1.00  0.00     0.055 A 
ATOM     89  C   UNL A   1      47.859  34.234  30.434  1.00  0.00     0.041 A 
ATOM     90  F   UNL A   1      47.443  31.989  30.955  1.00  0.00    -0.206 F 
ATOM     91  C   UNL A   1      47.772  35.306  29.552  1.00  0.00     0.022 A 
BRANCH  88  92
ATOM     92  S   UNL A   1      47.092  36.471  27.111  1.00  0.00     0.124 S 
ATOM     93  O   UNL A   1      48.502  36.843  27.070  1.00  0.00    -0.237 OA
ATOM     94  O   UNL A   1      46.575  35.799  25.924  1.00  0.00    -0.237 OA
ATOM     95  O   UNL A   1      46.202  37.476  27.690  1.00  0.00    -0.744 OA
ENDBRANCH  88  92
ENDBRANCH  62  85
ENDBRANCH  36  37
ENDBRANCH  28  31
ENDBRANCH  26  27
ENDBRANCH  25  26
ENDBRANCH  24  25
ENDBRANCH   1  24
TORSDOF 21
ENDMDL
