MODEL 1
REMARK VINA RESULT:     -12.2      0.000      0.000
REMARK SMILES O=C(NCCCCCCNC(=O)[C@]1(C2CCCC2)CCOc2ccccc21)c1ccc(-c2c3nc(c(-c4cc(S(=O)(=O)[O-])ccc4F)c4ccc([nH]4)c(-c4cc(S(=O)(=O)[O-])ccc4F)c4nc(c(-c5cc(S(=O)(=O)[O-])ccc5F)c5ccc2[nH]5)C=C4)C=C3)cc1
REMARK SMILES IDX 5 1 4 2 3 3 1 4 2 5 28 7 29 8 90 9 30 10 89 11 31 12 32 13
REMARK SMILES IDX 33 14 83 15 34 16 88 17 82 18 84 19 35 20 87 21 81 22 80 23
REMARK SMILES IDX 36 25 68 26 48 27 67 28 49 29 52 30 66 31 85 32 50 33 51 34
REMARK SMILES IDX 65 36 86 37 53 38 37 39 38 40 46 41 39 42 45 43 47 44 44 45
REMARK SMILES IDX 40 46 41 47 42 48 43 49 69 50 70 51 78 52 71 53 77 54 79 55
REMARK SMILES IDX 76 56 72 57 73 58 74 59 75 60 54 61 55 62 63 63 56 64 62 65
REMARK SMILES IDX 64 66 61 67 57 68 58 69 59 70 60 71 6 72 7 73 8 74 9 75
REMARK SMILES IDX 10 76 11 77 12 79 13 80 19 81 27 82 20 83 22 84 26 85 21 86
REMARK SMILES IDX 23 87 25 88 24 89 14 90 15 91 18 92 16 93 17 94
REMARK H PARENT 3 6 84 24 52 35 10 78
REMARK Flexibility Score: inf
ROOT
ATOM      1  C   UNL A   1      31.521  31.939  26.760  1.00  0.00     0.021 C 
ENDROOT
BRANCH   1   2
ATOM      2  C   UNL A   1      32.742  32.589  27.396  1.00  0.00     0.116 C 
BRANCH   2   3
ATOM      3  N   UNL A   1      32.509  33.996  27.673  1.00  0.00    -0.352 N 
ATOM      4  O   UNL A   1      32.631  35.880  28.910  1.00  0.00    -0.269 OA
ATOM      5  C   UNL A   1      33.101  34.779  28.630  1.00  0.00     0.251 C 
ATOM      6  H   UNL A   1      31.843  34.444  27.101  1.00  0.00     0.163 HD
BRANCH   5   7
ATOM      7  C   UNL A   1      34.310  34.280  29.314  1.00  0.00     0.039 A 
ATOM      8  C   UNL A   1      34.183  33.504  30.472  1.00  0.00     0.014 A 
ATOM      9  C   UNL A   1      35.570  34.570  28.789  1.00  0.00     0.014 A 
ATOM     10  C   UNL A   1      35.319  33.098  31.158  1.00  0.00     0.010 A 
ATOM     11  C   UNL A   1      36.711  34.084  29.433  1.00  0.00     0.010 A 
ATOM     12  C   UNL A   1      36.591  33.342  30.619  1.00  0.00    -0.014 A 
BRANCH  12  13
ATOM     13  C   UNL A   1      37.768  32.676  31.227  1.00  0.00     0.031 A 
ATOM     14  C   UNL A   1      38.453  31.525  30.551  1.00  0.00     0.074 A 
ATOM     15  C   UNL A   1      38.196  33.131  32.423  1.00  0.00     0.049 A 
ATOM     16  N   UNL A   1      39.464  30.813  30.976  1.00  0.00    -0.248 NA
ATOM     17  C   UNL A   1      37.941  31.116  29.235  1.00  0.00     0.031 C 
ATOM     18  C   UNL A   1      37.587  34.244  33.162  1.00  0.00     0.029 A 
ATOM     19  N   UNL A   1      39.230  32.731  33.227  1.00  0.00    -0.354 N 
ATOM     20  C   UNL A   1      39.699  29.857  29.994  1.00  0.00     0.074 A 
ATOM     21  C   UNL A   1      38.714  30.075  28.953  1.00  0.00     0.031 C 
ATOM     22  C   UNL A   1      38.272  34.449  34.295  1.00  0.00     0.029 A 
ATOM     23  C   UNL A   1      39.310  33.433  34.408  1.00  0.00     0.049 A 
ATOM     24  H   UNL A   1      39.854  32.009  32.985  1.00  0.00     0.167 HD
ATOM     25  C   UNL A   1      40.648  28.889  29.976  1.00  0.00     0.034 A 
ATOM     26  C   UNL A   1      40.096  33.251  35.487  1.00  0.00     0.034 A 
ATOM     27  C   UNL A   1      41.620  28.703  31.028  1.00  0.00     0.049 A 
ATOM     28  C   UNL A   1      41.097  32.128  35.456  1.00  0.00     0.074 A 
ATOM     29  C   UNL A   1      42.674  27.806  31.072  1.00  0.00     0.029 A 
ATOM     30  N   UNL A   1      41.646  29.402  32.227  1.00  0.00    -0.354 N 
ATOM     31  N   UNL A   1      41.349  31.277  34.488  1.00  0.00    -0.248 NA
ATOM     32  C   UNL A   1      41.917  31.938  36.657  1.00  0.00     0.031 C 
ATOM     33  C   UNL A   1      43.279  27.901  32.328  1.00  0.00     0.029 A 
ATOM     34  C   UNL A   1      42.658  28.915  33.040  1.00  0.00     0.049 A 
ATOM     35  H   UNL A   1      41.035  30.137  32.465  1.00  0.00     0.167 HD
ATOM     36  C   UNL A   1      42.367  30.458  34.964  1.00  0.00     0.074 A 
ATOM     37  C   UNL A   1      42.705  30.940  36.287  1.00  0.00     0.031 C 
ATOM     38  C   UNL A   1      42.965  29.396  34.366  1.00  0.00     0.034 A 
BRANCH  25  39
ATOM     39  C   UNL A   1      40.661  27.919  28.822  1.00  0.00     0.023 A 
ATOM     40  C   UNL A   1      41.627  27.978  27.804  1.00  0.00     0.031 A 
ATOM     41  C   UNL A   1      39.714  26.878  28.774  1.00  0.00     0.131 A 
ATOM     42  C   UNL A   1      41.607  27.030  26.768  1.00  0.00     0.055 A 
ATOM     43  C   UNL A   1      39.737  25.905  27.775  1.00  0.00     0.041 A 
ATOM     44  F   UNL A   1      38.755  26.786  29.709  1.00  0.00    -0.206 F 
ATOM     45  C   UNL A   1      40.686  25.980  26.761  1.00  0.00     0.022 A 
BRANCH  42  46
ATOM     46  S   UNL A   1      42.756  27.233  25.378  1.00  0.00     0.124 S 
ATOM     47  O   UNL A   1      44.019  27.480  26.071  1.00  0.00    -0.237 OA
ATOM     48  O   UNL A   1      42.648  25.953  24.688  1.00  0.00    -0.237 OA
ATOM     49  O   UNL A   1      42.218  28.381  24.651  1.00  0.00    -0.744 OA
ENDBRANCH  42  46
ENDBRANCH  25  39
BRANCH  26  50
ATOM     50  C   UNL A   1      39.919  34.091  36.706  1.00  0.00     0.023 A 
ATOM     51  C   UNL A   1      39.370  33.557  37.880  1.00  0.00     0.031 A 
ATOM     52  C   UNL A   1      40.234  35.464  36.692  1.00  0.00     0.131 A 
ATOM     53  C   UNL A   1      39.091  34.401  38.966  1.00  0.00     0.055 A 
ATOM     54  C   UNL A   1      40.025  36.282  37.801  1.00  0.00     0.041 A 
ATOM     55  F   UNL A   1      40.760  36.031  35.594  1.00  0.00    -0.206 F 
ATOM     56  C   UNL A   1      39.430  35.755  38.942  1.00  0.00     0.022 A 
BRANCH  53  57
ATOM     57  S   UNL A   1      38.151  33.725  40.363  1.00  0.00     0.124 S 
ATOM     58  O   UNL A   1      39.065  32.708  40.870  1.00  0.00    -0.237 OA
ATOM     59  O   UNL A   1      37.970  34.903  41.203  1.00  0.00    -0.237 OA
ATOM     60  O   UNL A   1      36.934  33.214  39.735  1.00  0.00    -0.744 OA
ENDBRANCH  53  57
ENDBRANCH  26  50
BRANCH  38  61
ATOM     61  C   UNL A   1      44.056  28.707  35.145  1.00  0.00     0.023 A 
ATOM     62  C   UNL A   1      43.775  27.625  35.997  1.00  0.00     0.031 A 
ATOM     63  C   UNL A   1      45.388  29.145  35.045  1.00  0.00     0.131 A 
ATOM     64  C   UNL A   1      44.803  27.051  36.758  1.00  0.00     0.055 A 
ATOM     65  C   UNL A   1      46.417  28.527  35.756  1.00  0.00     0.041 A 
ATOM     66  F   UNL A   1      45.710  30.178  34.251  1.00  0.00    -0.206 F 
ATOM     67  C   UNL A   1      46.125  27.483  36.629  1.00  0.00     0.022 A 
BRANCH  64  68
ATOM     68  S   UNL A   1      44.374  25.788  37.987  1.00  0.00     0.124 S 
ATOM     69  O   UNL A   1      43.862  24.711  37.146  1.00  0.00    -0.237 OA
ATOM     70  O   UNL A   1      45.655  25.535  38.638  1.00  0.00    -0.237 OA
ATOM     71  O   UNL A   1      43.375  26.450  38.823  1.00  0.00    -0.744 OA
ENDBRANCH  64  68
ENDBRANCH  38  61
ENDBRANCH  12  13
ENDBRANCH   5   7
ENDBRANCH   2   3
ENDBRANCH   1   2
BRANCH   1  72
ATOM     72  C   UNL A   1      31.843  30.677  25.959  1.00  0.00     0.002 C 
BRANCH  72  73
ATOM     73  C   UNL A   1      33.114  29.948  26.408  1.00  0.00     0.002 C 
BRANCH  73  74
ATOM     74  C   UNL A   1      32.870  28.744  27.326  1.00  0.00     0.021 C 
BRANCH  74  75
ATOM     75  C   UNL A   1      31.524  28.059  27.088  1.00  0.00     0.116 C 
BRANCH  75  76
ATOM     76  N   UNL A   1      31.623  26.645  27.387  1.00  0.00    -0.355 N 
ATOM     77  C   UNL A   1      31.695  25.560  26.568  1.00  0.00     0.231 C 
ATOM     78  H   UNL A   1      31.640  26.432  28.348  1.00  0.00     0.163 HD
ATOM     79  O   UNL A   1      31.430  24.485  27.119  1.00  0.00    -0.274 OA
BRANCH  77  80
ATOM     80  C   UNL A   1      32.130  25.648  25.060  1.00  0.00     0.084 C 
ATOM     81  C   UNL A   1      33.520  26.339  25.022  1.00  0.00     0.064 C 
ATOM     82  C   UNL A   1      31.106  26.476  24.264  1.00  0.00     0.010 A 
ATOM     83  C   UNL A   1      33.766  27.113  23.738  1.00  0.00     0.231 C 
ATOM     84  C   UNL A   1      31.489  27.627  23.560  1.00  0.00     0.123 A 
ATOM     85  C   UNL A   1      29.735  26.156  24.305  1.00  0.00     0.009 A 
ATOM     86  O   UNL A   1      32.771  28.097  23.500  1.00  0.00    -0.493 OA
ATOM     87  C   UNL A   1      30.535  28.458  22.967  1.00  0.00     0.047 A 
ATOM     88  C   UNL A   1      28.782  26.988  23.708  1.00  0.00     0.001 A 
ATOM     89  C   UNL A   1      29.182  28.144  23.046  1.00  0.00     0.004 A 
BRANCH  80  90
ATOM     90  C   UNL A   1      32.166  24.178  24.472  1.00  0.00     0.009 C 
ATOM     91  C   UNL A   1      32.139  24.045  22.944  1.00  0.00     0.005 C 
ATOM     92  C   UNL A   1      33.384  23.296  24.823  1.00  0.00     0.005 C 
ATOM     93  C   UNL A   1      32.391  22.563  22.715  1.00  0.00     0.000 C 
ATOM     94  C   UNL A   1      33.403  22.173  23.784  1.00  0.00     0.000 C 
ENDBRANCH  80  90
ENDBRANCH  77  80
ENDBRANCH  75  76
ENDBRANCH  74  75
ENDBRANCH  73  74
ENDBRANCH  72  73
ENDBRANCH   1  72
TORSDOF 17
ENDMDL
MODEL 2
REMARK VINA RESULT:     -12.1      1.467      1.884
REMARK SMILES O=C(NCCCCCCNC(=O)[C@]1(C2CCCC2)CCOc2ccccc21)c1ccc(-c2c3nc(c(-c4cc(S(=O)(=O)[O-])ccc4F)c4ccc([nH]4)c(-c4cc(S(=O)(=O)[O-])ccc4F)c4nc(c(-c5cc(S(=O)(=O)[O-])ccc5F)c5ccc2[nH]5)C=C4)C=C3)cc1
REMARK SMILES IDX 5 1 4 2 3 3 1 4 2 5 28 7 29 8 90 9 30 10 89 11 31 12 32 13
REMARK SMILES IDX 33 14 83 15 34 16 88 17 82 18 84 19 35 20 87 21 81 22 80 23
REMARK SMILES IDX 36 25 68 26 48 27 67 28 49 29 52 30 66 31 85 32 50 33 51 34
REMARK SMILES IDX 65 36 86 37 53 38 37 39 38 40 46 41 39 42 45 43 47 44 44 45
REMARK SMILES IDX 40 46 41 47 42 48 43 49 69 50 70 51 78 52 71 53 77 54 79 55
REMARK SMILES IDX 76 56 72 57 73 58 74 59 75 60 54 61 55 62 63 63 56 64 62 65
REMARK SMILES IDX 64 66 61 67 57 68 58 69 59 70 60 71 6 72 7 73 8 74 9 75
REMARK SMILES IDX 10 76 11 77 12 79 13 80 19 81 27 82 20 83 22 84 26 85 21 86
REMARK SMILES IDX 23 87 25 88 24 89 14 90 15 91 18 92 16 93 17 94
REMARK H PARENT 3 6 84 24 52 35 10 78
REMARK Flexibility Score: inf
ROOT
ATOM      1  C   UNL A   1      31.419  32.227  26.766  1.00  0.00     0.021 C 
ENDROOT
BRANCH   1   2
ATOM      2  C   UNL A   1      32.741  32.962  26.933  1.00  0.00     0.116 C 
BRANCH   2   3
ATOM      3  N   UNL A   1      32.568  34.205  27.665  1.00  0.00    -0.352 N 
ATOM      4  O   UNL A   1      32.763  35.562  29.458  1.00  0.00    -0.269 OA
ATOM      5  C   UNL A   1      33.186  34.598  28.824  1.00  0.00     0.251 C 
ATOM      6  H   UNL A   1      31.927  34.846  27.280  1.00  0.00     0.163 HD
BRANCH   5   7
ATOM      7  C   UNL A   1      34.368  33.847  29.293  1.00  0.00     0.039 A 
ATOM      8  C   UNL A   1      35.652  34.299  28.972  1.00  0.00     0.014 A 
ATOM      9  C   UNL A   1      34.193  32.701  30.070  1.00  0.00     0.014 A 
ATOM     10  C   UNL A   1      36.760  33.554  29.348  1.00  0.00     0.010 A 
ATOM     11  C   UNL A   1      35.314  32.000  30.523  1.00  0.00     0.010 A 
ATOM     12  C   UNL A   1      36.604  32.425  30.167  1.00  0.00    -0.014 A 
BRANCH  12  13
ATOM     13  C   UNL A   1      37.808  31.803  30.769  1.00  0.00     0.031 A 
ATOM     14  C   UNL A   1      38.615  30.780  30.025  1.00  0.00     0.074 A 
ATOM     15  C   UNL A   1      38.148  32.179  32.018  1.00  0.00     0.049 A 
ATOM     16  N   UNL A   1      39.665  30.116  30.432  1.00  0.00    -0.248 NA
ATOM     17  C   UNL A   1      38.192  30.454  28.655  1.00  0.00     0.031 C 
ATOM     18  C   UNL A   1      37.417  33.164  32.825  1.00  0.00     0.029 A 
ATOM     19  N   UNL A   1      39.179  31.791  32.832  1.00  0.00    -0.354 N 
ATOM     20  C   UNL A   1      40.020  29.277  29.381  1.00  0.00     0.074 A 
ATOM     21  C   UNL A   1      39.062  29.510  28.319  1.00  0.00     0.031 C 
ATOM     22  C   UNL A   1      38.036  33.318  34.003  1.00  0.00     0.029 A 
ATOM     23  C   UNL A   1      39.152  32.384  34.073  1.00  0.00     0.049 A 
ATOM     24  H   UNL A   1      39.872  31.148  32.556  1.00  0.00     0.167 HD
ATOM     25  C   UNL A   1      41.048  28.396  29.322  1.00  0.00     0.034 A 
ATOM     26  C   UNL A   1      39.907  32.168  35.167  1.00  0.00     0.034 A 
ATOM     27  C   UNL A   1      41.991  28.192  30.397  1.00  0.00     0.049 A 
ATOM     28  C   UNL A   1      41.001  31.138  35.084  1.00  0.00     0.074 A 
ATOM     29  C   UNL A   1      43.115  27.385  30.411  1.00  0.00     0.029 A 
ATOM     30  N   UNL A   1      41.909  28.777  31.654  1.00  0.00    -0.354 N 
ATOM     31  N   UNL A   1      41.363  30.404  34.057  1.00  0.00    -0.248 NA
ATOM     32  C   UNL A   1      41.785  30.903  36.301  1.00  0.00     0.031 C 
ATOM     33  C   UNL A   1      43.658  27.411  31.698  1.00  0.00     0.029 A 
ATOM     34  C   UNL A   1      42.926  28.301  32.468  1.00  0.00     0.049 A 
ATOM     35  H   UNL A   1      41.228  29.434  31.928  1.00  0.00     0.167 HD
ATOM     36  C   UNL A   1      42.427  29.629  34.506  1.00  0.00     0.074 A 
ATOM     37  C   UNL A   1      42.670  30.012  35.881  1.00  0.00     0.031 C 
ATOM     38  C   UNL A   1      43.137  28.680  33.845  1.00  0.00     0.034 A 
BRANCH  25  39
ATOM     39  C   UNL A   1      41.190  27.542  28.088  1.00  0.00     0.023 A 
ATOM     40  C   UNL A   1      40.777  26.200  28.053  1.00  0.00     0.031 A 
ATOM     41  C   UNL A   1      41.700  28.107  26.903  1.00  0.00     0.131 A 
ATOM     42  C   UNL A   1      40.909  25.460  26.866  1.00  0.00     0.055 A 
ATOM     43  C   UNL A   1      41.771  27.385  25.712  1.00  0.00     0.041 A 
ATOM     44  F   UNL A   1      42.129  29.379  26.885  1.00  0.00    -0.206 F 
ATOM     45  C   UNL A   1      41.378  26.050  25.690  1.00  0.00     0.022 A 
BRANCH  42  46
ATOM     46  S   UNL A   1      40.531  23.686  26.897  1.00  0.00     0.124 S 
ATOM     47  O   UNL A   1      39.178  23.660  26.346  1.00  0.00    -0.237 OA
ATOM     48  O   UNL A   1      41.576  23.125  26.048  1.00  0.00    -0.237 OA
ATOM     49  O   UNL A   1      40.625  23.339  28.314  1.00  0.00    -0.744 OA
ENDBRANCH  42  46
ENDBRANCH  25  39
BRANCH  26  50
ATOM     50  C   UNL A   1      39.611  32.873  36.447  1.00  0.00     0.023 A 
ATOM     51  C   UNL A   1      38.725  32.328  37.387  1.00  0.00     0.031 A 
ATOM     52  C   UNL A   1      40.159  34.143  36.718  1.00  0.00     0.131 A 
ATOM     53  C   UNL A   1      38.362  33.075  38.518  1.00  0.00     0.055 A 
ATOM     54  C   UNL A   1      39.853  34.847  37.882  1.00  0.00     0.041 A 
ATOM     55  F   UNL A   1      41.011  34.715  35.853  1.00  0.00    -0.206 F 
ATOM     56  C   UNL A   1      38.931  34.322  38.782  1.00  0.00     0.022 A 
BRANCH  53  57
ATOM     57  S   UNL A   1      37.026  32.446  39.573  1.00  0.00     0.124 S 
ATOM     58  O   UNL A   1      35.857  32.657  38.725  1.00  0.00    -0.237 OA
ATOM     59  O   UNL A   1      37.429  31.059  39.776  1.00  0.00    -0.237 OA
ATOM     60  O   UNL A   1      37.101  33.298  40.757  1.00  0.00    -0.744 OA
ENDBRANCH  53  57
ENDBRANCH  26  50
BRANCH  38  61
ATOM     61  C   UNL A   1      44.252  28.012  34.609  1.00  0.00     0.023 A 
ATOM     62  C   UNL A   1      44.070  26.761  35.223  1.00  0.00     0.031 A 
ATOM     63  C   UNL A   1      45.502  28.640  34.738  1.00  0.00     0.131 A 
ATOM     64  C   UNL A   1      45.105  26.201  35.983  1.00  0.00     0.055 A 
ATOM     65  C   UNL A   1      46.550  28.046  35.442  1.00  0.00     0.041 A 
ATOM     66  F   UNL A   1      45.728  29.839  34.177  1.00  0.00    -0.206 F 
ATOM     67  C   UNL A   1      46.350  26.826  36.081  1.00  0.00     0.022 A 
BRANCH  64  68
ATOM     68  S   UNL A   1      44.774  24.681  36.917  1.00  0.00     0.124 S 
ATOM     69  O   UNL A   1      44.372  25.208  38.217  1.00  0.00    -0.237 OA
ATOM     70  O   UNL A   1      43.719  24.053  36.130  1.00  0.00    -0.237 OA
ATOM     71  O   UNL A   1      46.058  23.983  36.901  1.00  0.00    -0.744 OA
ENDBRANCH  64  68
ENDBRANCH  38  61
ENDBRANCH  12  13
ENDBRANCH   5   7
ENDBRANCH   2   3
ENDBRANCH   1   2
BRANCH   1  72
ATOM     72  C   UNL A   1      31.576  30.736  26.468  1.00  0.00     0.002 C 
BRANCH  72  73
ATOM     73  C   UNL A   1      32.899  30.129  26.950  1.00  0.00     0.002 C 
BRANCH  73  74
ATOM     74  C   UNL A   1      32.771  28.736  27.578  1.00  0.00     0.021 C 
BRANCH  74  75
ATOM     75  C   UNL A   1      31.500  27.995  27.163  1.00  0.00     0.116 C 
BRANCH  75  76
ATOM     76  N   UNL A   1      31.728  26.564  27.178  1.00  0.00    -0.355 N 
ATOM     77  C   UNL A   1      31.923  25.677  26.164  1.00  0.00     0.231 C 
ATOM     78  H   UNL A   1      31.744  26.163  28.077  1.00  0.00     0.163 HD
ATOM     79  O   UNL A   1      31.751  24.495  26.479  1.00  0.00    -0.274 OA
BRANCH  77  80
ATOM     80  C   UNL A   1      32.381  26.107  24.723  1.00  0.00     0.084 C 
ATOM     81  C   UNL A   1      33.685  26.934  24.882  1.00  0.00     0.064 C 
ATOM     82  C   UNL A   1      31.289  26.963  24.057  1.00  0.00     0.010 A 
ATOM     83  C   UNL A   1      33.873  27.968  23.785  1.00  0.00     0.231 C 
ATOM     84  C   UNL A   1      31.558  28.265  23.607  1.00  0.00     0.123 A 
ATOM     85  C   UNL A   1      29.962  26.499  23.973  1.00  0.00     0.009 A 
ATOM     86  O   UNL A   1      32.780  28.869  23.697  1.00  0.00    -0.493 OA
ATOM     87  C   UNL A   1      30.531  29.091  23.144  1.00  0.00     0.047 A 
ATOM     88  C   UNL A   1      28.937  27.327  23.506  1.00  0.00     0.001 A 
ATOM     89  C   UNL A   1      29.220  28.627  23.099  1.00  0.00     0.004 A 
BRANCH  80  90
ATOM     90  C   UNL A   1      32.595  24.794  23.863  1.00  0.00     0.009 C 
ATOM     91  C   UNL A   1      32.658  24.969  22.341  1.00  0.00     0.005 C 
ATOM     92  C   UNL A   1      33.877  23.973  24.120  1.00  0.00     0.005 C 
ATOM     93  C   UNL A   1      33.070  23.591  21.846  1.00  0.00     0.000 C 
ATOM     94  C   UNL A   1      34.062  23.087  22.885  1.00  0.00     0.000 C 
ENDBRANCH  80  90
ENDBRANCH  77  80
ENDBRANCH  75  76
ENDBRANCH  74  75
ENDBRANCH  73  74
ENDBRANCH  72  73
ENDBRANCH   1  72
TORSDOF 17
ENDMDL
MODEL 3
REMARK VINA RESULT:     -12.1      5.682     11.548
REMARK SMILES O=C(NCCCCCCNC(=O)[C@]1(C2CCCC2)CCOc2ccccc21)c1ccc(-c2c3nc(c(-c4cc(S(=O)(=O)[O-])ccc4F)c4ccc([nH]4)c(-c4cc(S(=O)(=O)[O-])ccc4F)c4nc(c(-c5cc(S(=O)(=O)[O-])ccc5F)c5ccc2[nH]5)C=C4)C=C3)cc1
REMARK SMILES IDX 5 1 4 2 3 3 1 4 2 5 28 7 29 8 90 9 30 10 89 11 31 12 32 13
REMARK SMILES IDX 33 14 83 15 34 16 88 17 82 18 84 19 35 20 87 21 81 22 80 23
REMARK SMILES IDX 36 25 68 26 48 27 67 28 49 29 52 30 66 31 85 32 50 33 51 34
REMARK SMILES IDX 65 36 86 37 53 38 37 39 38 40 46 41 39 42 45 43 47 44 44 45
REMARK SMILES IDX 40 46 41 47 42 48 43 49 69 50 70 51 78 52 71 53 77 54 79 55
REMARK SMILES IDX 76 56 72 57 73 58 74 59 75 60 54 61 55 62 63 63 56 64 62 65
REMARK SMILES IDX 64 66 61 67 57 68 58 69 59 70 60 71 6 72 7 73 8 74 9 75
REMARK SMILES IDX 10 76 11 77 12 79 13 80 19 81 27 82 20 83 22 84 26 85 21 86
REMARK SMILES IDX 23 87 25 88 24 89 14 90 15 91 18 92 16 93 17 94
REMARK H PARENT 3 6 84 24 52 35 10 78
REMARK Flexibility Score: inf
ROOT
ATOM      1  C   UNL A   1      38.065  20.225  24.700  1.00  0.00     0.021 C 
ENDROOT
BRANCH   1   2
ATOM      2  C   UNL A   1      39.052  20.465  25.833  1.00  0.00     0.116 C 
BRANCH   2   3
ATOM      3  N   UNL A   1      40.010  19.377  25.940  1.00  0.00    -0.352 N 
ATOM      4  O   UNL A   1      42.075  18.465  25.909  1.00  0.00    -0.269 OA
ATOM      5  C   UNL A   1      41.372  19.459  26.079  1.00  0.00     0.251 C 
ATOM      6  H   UNL A   1      39.634  18.467  25.909  1.00  0.00     0.163 HD
BRANCH   5   7
ATOM      7  C   UNL A   1      41.976  20.757  26.438  1.00  0.00     0.039 A 
ATOM      8  C   UNL A   1      42.376  21.640  25.429  1.00  0.00     0.014 A 
ATOM      9  C   UNL A   1      42.126  21.100  27.782  1.00  0.00     0.014 A 
ATOM     10  C   UNL A   1      43.012  22.827  25.763  1.00  0.00     0.010 A 
ATOM     11  C   UNL A   1      42.687  22.336  28.117  1.00  0.00     0.010 A 
ATOM     12  C   UNL A   1      43.130  23.207  27.109  1.00  0.00    -0.014 A 
BRANCH  12  13
ATOM     13  C   UNL A   1      43.571  24.587  27.429  1.00  0.00     0.031 A 
ATOM     14  C   UNL A   1      42.607  25.620  27.933  1.00  0.00     0.074 A 
ATOM     15  C   UNL A   1      44.871  24.887  27.237  1.00  0.00     0.049 A 
ATOM     16  N   UNL A   1      42.832  26.877  28.215  1.00  0.00    -0.248 NA
ATOM     17  C   UNL A   1      41.215  25.196  28.144  1.00  0.00     0.031 C 
ATOM     18  C   UNL A   1      45.885  23.947  26.742  1.00  0.00     0.029 A 
ATOM     19  N   UNL A   1      45.571  26.049  27.429  1.00  0.00    -0.354 N 
ATOM     20  C   UNL A   1      41.610  27.405  28.616  1.00  0.00     0.074 A 
ATOM     21  C   UNL A   1      40.642  26.330  28.531  1.00  0.00     0.031 C 
ATOM     22  C   UNL A   1      47.073  24.563  26.693  1.00  0.00     0.029 A 
ATOM     23  C   UNL A   1      46.895  25.959  27.067  1.00  0.00     0.049 A 
ATOM     24  H   UNL A   1      45.164  26.871  27.790  1.00  0.00     0.167 HD
ATOM     25  C   UNL A   1      41.332  28.671  29.012  1.00  0.00     0.034 A 
ATOM     26  C   UNL A   1      47.852  26.904  26.994  1.00  0.00     0.034 A 
ATOM     27  C   UNL A   1      42.323  29.719  29.093  1.00  0.00     0.049 A 
ATOM     28  C   UNL A   1      47.492  28.313  27.384  1.00  0.00     0.074 A 
ATOM     29  C   UNL A   1      42.166  31.013  29.558  1.00  0.00     0.029 A 
ATOM     30  N   UNL A   1      43.644  29.605  28.679  1.00  0.00    -0.354 N 
ATOM     31  N   UNL A   1      46.346  28.776  27.827  1.00  0.00    -0.248 NA
ATOM     32  C   UNL A   1      48.547  29.324  27.263  1.00  0.00     0.031 C 
ATOM     33  C   UNL A   1      43.361  31.705  29.342  1.00  0.00     0.029 A 
ATOM     34  C   UNL A   1      44.293  30.822  28.821  1.00  0.00     0.049 A 
ATOM     35  H   UNL A   1      44.058  28.781  28.334  1.00  0.00     0.167 HD
ATOM     36  C   UNL A   1      46.550  30.134  28.048  1.00  0.00     0.074 A 
ATOM     37  C   UNL A   1      47.936  30.404  27.725  1.00  0.00     0.031 C 
ATOM     38  C   UNL A   1      45.671  31.076  28.473  1.00  0.00     0.034 A 
BRANCH  25  39
ATOM     39  C   UNL A   1      39.904  29.023  29.339  1.00  0.00     0.023 A 
ATOM     40  C   UNL A   1      39.457  29.199  30.659  1.00  0.00     0.031 A 
ATOM     41  C   UNL A   1      38.983  29.243  28.296  1.00  0.00     0.131 A 
ATOM     42  C   UNL A   1      38.120  29.554  30.902  1.00  0.00     0.055 A 
ATOM     43  C   UNL A   1      37.673  29.655  28.543  1.00  0.00     0.041 A 
ATOM     44  F   UNL A   1      39.349  29.069  27.016  1.00  0.00    -0.206 F 
ATOM     45  C   UNL A   1      37.234  29.808  29.853  1.00  0.00     0.022 A 
BRANCH  42  46
ATOM     46  S   UNL A   1      37.529  29.603  32.617  1.00  0.00     0.124 S 
ATOM     47  O   UNL A   1      36.220  30.234  32.461  1.00  0.00    -0.237 OA
ATOM     48  O   UNL A   1      37.516  28.193  32.988  1.00  0.00    -0.237 OA
ATOM     49  O   UNL A   1      38.528  30.420  33.303  1.00  0.00    -0.744 OA
ENDBRANCH  42  46
ENDBRANCH  25  39
BRANCH  26  50
ATOM     50  C   UNL A   1      49.206  26.575  26.463  1.00  0.00     0.023 A 
ATOM     51  C   UNL A   1      49.657  27.108  25.247  1.00  0.00     0.031 A 
ATOM     52  C   UNL A   1      50.045  25.664  27.133  1.00  0.00     0.131 A 
ATOM     53  C   UNL A   1      50.878  26.677  24.706  1.00  0.00     0.055 A 
ATOM     54  C   UNL A   1      51.292  25.297  26.628  1.00  0.00     0.041 A 
ATOM     55  F   UNL A   1      49.665  25.119  28.300  1.00  0.00    -0.206 F 
ATOM     56  C   UNL A   1      51.706  25.789  25.395  1.00  0.00     0.022 A 
BRANCH  53  57
ATOM     57  S   UNL A   1      51.303  27.193  23.020  1.00  0.00     0.124 S 
ATOM     58  O   UNL A   1      51.485  28.630  23.187  1.00  0.00    -0.237 OA
ATOM     59  O   UNL A   1      52.513  26.419  22.764  1.00  0.00    -0.237 OA
ATOM     60  O   UNL A   1      50.132  26.797  22.240  1.00  0.00    -0.744 OA
ENDBRANCH  53  57
ENDBRANCH  26  50
BRANCH  38  61
ATOM     61  C   UNL A   1      46.202  32.479  28.624  1.00  0.00     0.023 A 
ATOM     62  C   UNL A   1      46.306  33.344  27.522  1.00  0.00     0.031 A 
ATOM     63  C   UNL A   1      46.623  32.948  29.880  1.00  0.00     0.131 A 
ATOM     64  C   UNL A   1      46.868  34.618  27.687  1.00  0.00     0.055 A 
ATOM     65  C   UNL A   1      47.120  34.241  30.049  1.00  0.00     0.041 A 
ATOM     66  F   UNL A   1      46.550  32.161  30.965  1.00  0.00    -0.206 F 
ATOM     67  C   UNL A   1      47.259  35.079  28.946  1.00  0.00     0.022 A 
BRANCH  64  68
ATOM     68  S   UNL A   1      47.164  35.635  26.214  1.00  0.00     0.124 S 
ATOM     69  O   UNL A   1      46.095  36.623  26.309  1.00  0.00    -0.237 OA
ATOM     70  O   UNL A   1      48.516  36.134  26.444  1.00  0.00    -0.237 OA
ATOM     71  O   UNL A   1      47.035  34.685  25.111  1.00  0.00    -0.744 OA
ENDBRANCH  64  68
ENDBRANCH  38  61
ENDBRANCH  12  13
ENDBRANCH   5   7
ENDBRANCH   2   3
ENDBRANCH   1   2
BRANCH   1  72
ATOM     72  C   UNL A   1      36.864  19.368  25.101  1.00  0.00     0.002 C 
BRANCH  72  73
ATOM     73  C   UNL A   1      35.510  19.918  24.641  1.00  0.00     0.002 C 
BRANCH  73  74
ATOM     74  C   UNL A   1      34.654  20.526  25.758  1.00  0.00     0.021 C 
BRANCH  74  75
ATOM     75  C   UNL A   1      33.195  20.746  25.358  1.00  0.00     0.116 C 
BRANCH  75  76
ATOM     76  N   UNL A   1      32.503  21.500  26.384  1.00  0.00    -0.355 N 
ATOM     77  C   UNL A   1      32.416  22.840  26.606  1.00  0.00     0.231 C 
ATOM     78  H   UNL A   1      32.011  20.947  27.034  1.00  0.00     0.163 HD
ATOM     79  O   UNL A   1      32.040  23.146  27.743  1.00  0.00    -0.274 OA
BRANCH  77  80
ATOM     80  C   UNL A   1      32.715  23.916  25.500  1.00  0.00     0.084 C 
ATOM     81  C   UNL A   1      31.812  23.587  24.282  1.00  0.00     0.064 C 
ATOM     82  C   UNL A   1      34.198  23.853  25.091  1.00  0.00     0.010 A 
ATOM     83  C   UNL A   1      32.415  24.018  22.957  1.00  0.00     0.231 C 
ATOM     84  C   UNL A   1      34.577  23.616  23.762  1.00  0.00     0.123 A 
ATOM     85  C   UNL A   1      35.215  23.929  26.062  1.00  0.00     0.009 A 
ATOM     86  O   UNL A   1      33.694  23.444  22.732  1.00  0.00    -0.493 OA
ATOM     87  C   UNL A   1      35.917  23.409  23.422  1.00  0.00     0.047 A 
ATOM     88  C   UNL A   1      36.555  23.724  25.719  1.00  0.00     0.001 A 
ATOM     89  C   UNL A   1      36.905  23.455  24.400  1.00  0.00     0.004 A 
BRANCH  80  90
ATOM     90  C   UNL A   1      32.415  25.346  26.111  1.00  0.00     0.009 C 
ATOM     91  C   UNL A   1      33.231  26.520  25.554  1.00  0.00     0.005 C 
ATOM     92  C   UNL A   1      30.978  25.895  25.974  1.00  0.00     0.005 C 
ATOM     93  C   UNL A   1      32.569  27.737  26.181  1.00  0.00     0.000 C 
ATOM     94  C   UNL A   1      31.083  27.406  26.194  1.00  0.00     0.000 C 
ENDBRANCH  80  90
ENDBRANCH  77  80
ENDBRANCH  75  76
ENDBRANCH  74  75
ENDBRANCH  73  74
ENDBRANCH  72  73
ENDBRANCH   1  72
TORSDOF 17
ENDMDL
