MODEL 1
REMARK VINA RESULT:     -12.3      0.000      0.000
REMARK SMILES NS(=O)(=O)c1ccc(N2N=C(C(=O)NCCCCCCNC(=O)c3ccc(-c4c5nc(c(-c6cc(S(=O)(=O)[O-])ccc6F)c6ccc([nH]6)c(-c6cc(S(=O)(=O)[O-])ccc6F)c6nc(c(-c7cc(S(=O)(=O)[O-])ccc7F)c7ccc4[nH]7)C=C6)C=C5)cc3)C[C@H]2c2ccco2)cc1
REMARK SMILES IDX 17 1 16 2 15 3 14 4 12 5 13 6 11 8 9 9 10 10 88 11 87 12
REMARK SMILES IDX 8 13 5 14 6 15 95 16 7 17 94 18 2 19 3 20 4 21 1 22 89 25
REMARK SMILES IDX 90 26 93 27 91 28 92 29 18 30 19 31 20 32 21 33 22 34 23 36
REMARK SMILES IDX 24 37 25 38 86 39 26 40 85 41 27 42 28 43 29 44 79 45 30 46
REMARK SMILES IDX 84 47 78 48 80 49 31 50 83 51 77 52 76 53 32 55 64 56 44 57
REMARK SMILES IDX 63 58 45 59 48 60 62 61 81 62 46 63 47 64 61 66 82 67 49 68
REMARK SMILES IDX 33 69 34 70 42 71 35 72 41 73 43 74 40 75 36 76 37 77 38 78
REMARK SMILES IDX 39 79 65 80 66 81 74 82 67 83 73 84 75 85 72 86 68 87 69 88
REMARK SMILES IDX 70 89 71 90 50 91 51 92 59 93 52 94 58 95 60 96 57 97 53 98
REMARK SMILES IDX 54 99 55 100 56 101
REMARK H PARENT 14 7 1 23 1 24 21 35 80 54 48 65
REMARK Flexibility Score: inf
ROOT
ATOM      1  C   UNL A   1      35.727  20.824  25.022  1.00  0.00     0.002 C 
ENDROOT
BRANCH   1   2
ATOM      2  C   UNL A   1      34.954  21.926  25.752  1.00  0.00     0.021 C 
BRANCH   2   3
ATOM      3  C   UNL A   1      33.708  22.427  25.027  1.00  0.00     0.116 C 
BRANCH   3   4
ATOM      4  N   UNL A   1      32.605  22.618  25.948  1.00  0.00    -0.351 N 
ATOM      5  C   UNL A   1      31.894  23.707  26.380  1.00  0.00     0.267 C 
ATOM      6  O   UNL A   1      31.042  23.517  27.247  1.00  0.00    -0.268 OA
ATOM      7  H   UNL A   1      32.297  21.776  26.354  1.00  0.00     0.163 HD
BRANCH   5   8
ATOM      8  C   UNL A   1      32.061  25.116  25.828  1.00  0.00     0.128 C 
ATOM      9  N   UNL A   1      32.251  27.239  25.870  1.00  0.00    -0.254 N 
ATOM     10  N   UNL A   1      32.333  26.110  26.622  1.00  0.00    -0.171 NA
ATOM     11  C   UNL A   1      32.111  26.987  24.435  1.00  0.00     0.180 C 
ATOM     12  C   UNL A   1      31.914  25.470  24.387  1.00  0.00     0.099 C 
BRANCH   9  13
ATOM     13  C   UNL A   1      32.738  28.445  26.360  1.00  0.00     0.060 A 
ATOM     14  C   UNL A   1      33.762  30.844  27.395  1.00  0.00     0.082 A 
ATOM     15  C   UNL A   1      32.404  30.748  27.080  1.00  0.00     0.024 A 
ATOM     16  C   UNL A   1      34.616  29.761  27.188  1.00  0.00     0.024 A 
ATOM     17  C   UNL A   1      31.904  29.555  26.548  1.00  0.00     0.029 A 
ATOM     18  C   UNL A   1      34.098  28.572  26.675  1.00  0.00     0.029 A 
BRANCH  14  19
ATOM     19  S   UNL A   1      34.382  32.342  28.094  1.00  0.00     0.238 S 
ATOM     20  O   UNL A   1      33.358  33.358  28.009  1.00  0.00    -0.207 OA
ATOM     21  O   UNL A   1      35.732  32.551  27.625  1.00  0.00    -0.207 OA
BRANCH  19  22
ATOM     22  N   UNL A   1      34.515  31.998  29.736  1.00  0.00    -0.225 NA
ATOM     23  H   UNL A   1      35.489  32.084  30.024  1.00  0.00     0.137 HD
ATOM     24  H   UNL A   1      34.191  31.047  29.912  1.00  0.00     0.137 HD
ENDBRANCH  19  22
ENDBRANCH  14  19
ENDBRANCH   9  13
BRANCH  11  25
ATOM     25  C   UNL A   1      31.038  27.740  23.706  1.00  0.00     0.128 A 
ATOM     26  C   UNL A   1      29.682  27.521  23.557  1.00  0.00     0.048 A 
ATOM     27  O   UNL A   1      31.393  28.876  23.033  1.00  0.00    -0.467 OA
ATOM     28  C   UNL A   1      29.188  28.576  22.755  1.00  0.00     0.042 A 
ATOM     29  C   UNL A   1      30.265  29.381  22.474  1.00  0.00     0.195 A 
ENDBRANCH  11  25
ENDBRANCH   5   8
ENDBRANCH   3   4
ENDBRANCH   2   3
ENDBRANCH   1   2
BRANCH   1  30
ATOM     30  C   UNL A   1      37.205  21.120  24.752  1.00  0.00     0.002 C 
BRANCH  30  31
ATOM     31  C   UNL A   1      38.175  19.964  25.011  1.00  0.00     0.021 C 
BRANCH  31  32
ATOM     32  C   UNL A   1      39.293  20.257  26.007  1.00  0.00     0.116 C 
BRANCH  32  33
ATOM     33  N   UNL A   1      40.329  19.242  25.990  1.00  0.00    -0.352 N 
ATOM     34  C   UNL A   1      41.693  19.389  26.068  1.00  0.00     0.251 C 
ATOM     35  H   UNL A   1      40.010  18.314  25.911  1.00  0.00     0.163 HD
ATOM     36  O   UNL A   1      42.419  18.419  25.863  1.00  0.00    -0.269 OA
BRANCH  34  37
ATOM     37  C   UNL A   1      42.284  20.712  26.370  1.00  0.00     0.039 A 
ATOM     38  C   UNL A   1      42.801  21.472  25.317  1.00  0.00     0.014 A 
ATOM     39  C   UNL A   1      42.349  21.196  27.680  1.00  0.00     0.014 A 
ATOM     40  C   UNL A   1      43.332  22.740  25.570  1.00  0.00     0.010 A 
ATOM     41  C   UNL A   1      42.822  22.486  27.922  1.00  0.00     0.010 A 
ATOM     42  C   UNL A   1      43.322  23.269  26.870  1.00  0.00    -0.014 A 
BRANCH  42  43
ATOM     43  C   UNL A   1      43.838  24.636  27.150  1.00  0.00     0.031 A 
ATOM     44  C   UNL A   1      42.916  25.693  27.693  1.00  0.00     0.074 A 
ATOM     45  C   UNL A   1      45.117  24.939  26.857  1.00  0.00     0.049 A 
ATOM     46  N   UNL A   1      43.150  26.959  27.921  1.00  0.00    -0.248 NA
ATOM     47  C   UNL A   1      41.537  25.274  27.987  1.00  0.00     0.031 C 
ATOM     48  C   UNL A   1      46.099  24.010  26.291  1.00  0.00     0.029 A 
ATOM     49  N   UNL A   1      45.811  26.117  26.981  1.00  0.00    -0.354 N 
ATOM     50  C   UNL A   1      41.947  27.494  28.371  1.00  0.00     0.074 A 
ATOM     51  C   UNL A   1      40.974  26.422  28.330  1.00  0.00     0.031 C 
ATOM     52  C   UNL A   1      47.268  24.649  26.131  1.00  0.00     0.029 A 
ATOM     53  C   UNL A   1      47.114  26.041  26.543  1.00  0.00     0.049 A 
ATOM     54  H   UNL A   1      45.415  26.939  27.349  1.00  0.00     0.167 HD
ATOM     55  C   UNL A   1      41.684  28.756  28.797  1.00  0.00     0.034 A 
ATOM     56  C   UNL A   1      48.070  26.988  26.470  1.00  0.00     0.034 A 
ATOM     57  C   UNL A   1      42.670  29.807  28.850  1.00  0.00     0.049 A 
ATOM     58  C   UNL A   1      47.755  28.383  26.945  1.00  0.00     0.074 A 
ATOM     59  C   UNL A   1      42.528  31.102  29.320  1.00  0.00     0.029 A 
ATOM     60  N   UNL A   1      43.984  29.689  28.414  1.00  0.00    -0.354 N 
ATOM     61  N   UNL A   1      46.624  28.859  27.411  1.00  0.00    -0.248 NA
ATOM     62  C   UNL A   1      48.848  29.361  26.896  1.00  0.00     0.031 C 
ATOM     63  C   UNL A   1      43.734  31.781  29.112  1.00  0.00     0.029 A 
ATOM     64  C   UNL A   1      44.652  30.893  28.577  1.00  0.00     0.049 A 
ATOM     65  H   UNL A   1      44.383  28.868  28.042  1.00  0.00     0.167 HD
ATOM     66  C   UNL A   1      46.879  30.189  27.736  1.00  0.00     0.074 A 
ATOM     67  C   UNL A   1      48.273  30.432  27.426  1.00  0.00     0.031 C 
ATOM     68  C   UNL A   1      46.039  31.123  28.250  1.00  0.00     0.034 A 
BRANCH  55  69
ATOM     69  C   UNL A   1      40.266  29.066  29.212  1.00  0.00     0.023 A 
ATOM     70  C   UNL A   1      39.872  29.059  30.562  1.00  0.00     0.031 A 
ATOM     71  C   UNL A   1      39.285  29.343  28.243  1.00  0.00     0.131 A 
ATOM     72  C   UNL A   1      38.523  29.247  30.900  1.00  0.00     0.055 A 
ATOM     73  C   UNL A   1      37.959  29.609  28.592  1.00  0.00     0.041 A 
ATOM     74  F   UNL A   1      39.595  29.344  26.938  1.00  0.00    -0.206 F 
ATOM     75  C   UNL A   1      37.568  29.546  29.926  1.00  0.00     0.022 A 
BRANCH  72  76
ATOM     76  S   UNL A   1      38.012  28.951  32.615  1.00  0.00     0.124 S 
ATOM     77  O   UNL A   1      38.996  29.739  33.354  1.00  0.00    -0.237 OA
ATOM     78  O   UNL A   1      36.645  29.456  32.629  1.00  0.00    -0.237 OA
ATOM     79  O   UNL A   1      38.145  27.503  32.766  1.00  0.00    -0.744 OA
ENDBRANCH  72  76
ENDBRANCH  55  69
BRANCH  56  80
ATOM     80  C   UNL A   1      49.413  26.658  25.916  1.00  0.00     0.023 A 
ATOM     81  C   UNL A   1      49.795  27.091  24.636  1.00  0.00     0.031 A 
ATOM     82  C   UNL A   1      50.323  25.873  26.646  1.00  0.00     0.131 A 
ATOM     83  C   UNL A   1      51.035  26.700  24.107  1.00  0.00     0.055 A 
ATOM     84  C   UNL A   1      51.575  25.527  26.134  1.00  0.00     0.041 A 
ATOM     85  F   UNL A   1      50.010  25.440  27.878  1.00  0.00    -0.206 F 
ATOM     86  C   UNL A   1      51.931  25.932  24.852  1.00  0.00     0.022 A 
BRANCH  83  87
ATOM     87  S   UNL A   1      51.429  27.154  22.396  1.00  0.00     0.124 S 
ATOM     88  O   UNL A   1      50.118  27.079  21.759  1.00  0.00    -0.237 OA
ATOM     89  O   UNL A   1      51.990  28.490  22.558  1.00  0.00    -0.237 OA
ATOM     90  O   UNL A   1      52.383  26.126  21.983  1.00  0.00    -0.744 OA
ENDBRANCH  83  87
ENDBRANCH  56  80
BRANCH  68  91
ATOM     91  C   UNL A   1      46.627  32.480  28.546  1.00  0.00     0.023 A 
ATOM     92  C   UNL A   1      46.620  33.512  27.591  1.00  0.00     0.031 A 
ATOM     93  C   UNL A   1      47.215  32.738  29.796  1.00  0.00     0.131 A 
ATOM     94  C   UNL A   1      47.236  34.739  27.884  1.00  0.00     0.055 A 
ATOM     95  C   UNL A   1      47.778  33.977  30.102  1.00  0.00     0.041 A 
ATOM     96  F   UNL A   1      47.251  31.787  30.743  1.00  0.00    -0.206 F 
ATOM     97  C   UNL A   1      47.802  34.982  29.139  1.00  0.00     0.022 A 
BRANCH  94  98
ATOM     98  S   UNL A   1      47.365  35.984  26.572  1.00  0.00     0.124 S 
ATOM     99  O   UNL A   1      48.641  36.620  26.880  1.00  0.00    -0.237 OA
ATOM    100  O   UNL A   1      47.335  35.168  25.363  1.00  0.00    -0.237 OA
ATOM    101  O   UNL A   1      46.186  36.825  26.780  1.00  0.00    -0.744 OA
ENDBRANCH  94  98
ENDBRANCH  68  91
ENDBRANCH  42  43
ENDBRANCH  34  37
ENDBRANCH  32  33
ENDBRANCH  31  32
ENDBRANCH  30  31
ENDBRANCH   1  30
TORSDOF 20
ENDMDL
MODEL 2
REMARK VINA RESULT:     -12.0      2.167      7.713
REMARK SMILES NS(=O)(=O)c1ccc(N2N=C(C(=O)NCCCCCCNC(=O)c3ccc(-c4c5nc(c(-c6cc(S(=O)(=O)[O-])ccc6F)c6ccc([nH]6)c(-c6cc(S(=O)(=O)[O-])ccc6F)c6nc(c(-c7cc(S(=O)(=O)[O-])ccc7F)c7ccc4[nH]7)C=C6)C=C5)cc3)C[C@H]2c2ccco2)cc1
REMARK SMILES IDX 17 1 16 2 15 3 14 4 12 5 13 6 11 8 9 9 10 10 88 11 87 12
REMARK SMILES IDX 8 13 5 14 6 15 95 16 7 17 94 18 2 19 3 20 4 21 1 22 89 25
REMARK SMILES IDX 90 26 93 27 91 28 92 29 18 30 19 31 20 32 21 33 22 34 23 36
REMARK SMILES IDX 24 37 25 38 86 39 26 40 85 41 27 42 28 43 29 44 79 45 30 46
REMARK SMILES IDX 84 47 78 48 80 49 31 50 83 51 77 52 76 53 32 55 64 56 44 57
REMARK SMILES IDX 63 58 45 59 48 60 62 61 81 62 46 63 47 64 61 66 82 67 49 68
REMARK SMILES IDX 33 69 34 70 42 71 35 72 41 73 43 74 40 75 36 76 37 77 38 78
REMARK SMILES IDX 39 79 65 80 66 81 74 82 67 83 73 84 75 85 72 86 68 87 69 88
REMARK SMILES IDX 70 89 71 90 50 91 51 92 59 93 52 94 58 95 60 96 57 97 53 98
REMARK SMILES IDX 54 99 55 100 56 101
REMARK H PARENT 14 7 1 23 1 24 21 35 80 54 48 65
REMARK Flexibility Score: inf
ROOT
ATOM      1  C   UNL A   1      33.876  20.443  25.417  1.00  0.00     0.002 C 
ENDROOT
BRANCH   1   2
ATOM      2  C   UNL A   1      33.137  21.729  25.796  1.00  0.00     0.021 C 
BRANCH   2   3
ATOM      3  C   UNL A   1      31.764  21.896  25.151  1.00  0.00     0.116 C 
BRANCH   3   4
ATOM      4  N   UNL A   1      30.790  22.390  26.105  1.00  0.00    -0.351 N 
ATOM      5  C   UNL A   1      30.404  23.636  26.523  1.00  0.00     0.267 C 
ATOM      6  O   UNL A   1      29.573  23.695  27.428  1.00  0.00    -0.268 OA
ATOM      7  H   UNL A   1      30.296  21.666  26.553  1.00  0.00     0.163 HD
BRANCH   5   8
ATOM      8  C   UNL A   1      30.903  24.939  25.914  1.00  0.00     0.128 C 
ATOM      9  N   UNL A   1      31.608  26.951  25.869  1.00  0.00    -0.254 N 
ATOM     10  N   UNL A   1      31.421  25.866  26.665  1.00  0.00    -0.171 NA
ATOM     11  C   UNL A   1      31.389  26.687  24.446  1.00  0.00     0.180 C 
ATOM     12  C   UNL A   1      30.825  25.264  24.461  1.00  0.00     0.099 C 
BRANCH   9  13
ATOM     13  C   UNL A   1      32.382  28.018  26.308  1.00  0.00     0.060 A 
ATOM     14  C   UNL A   1      33.983  30.129  27.233  1.00  0.00     0.082 A 
ATOM     15  C   UNL A   1      32.607  30.318  27.080  1.00  0.00     0.024 A 
ATOM     16  C   UNL A   1      34.569  28.904  26.919  1.00  0.00     0.024 A 
ATOM     17  C   UNL A   1      31.817  29.267  26.601  1.00  0.00     0.029 A 
ATOM     18  C   UNL A   1      33.766  27.860  26.462  1.00  0.00     0.029 A 
BRANCH  14  19
ATOM     19  S   UNL A   1      34.969  31.449  27.866  1.00  0.00     0.238 S 
ATOM     20  O   UNL A   1      34.321  32.705  27.566  1.00  0.00    -0.207 OA
ATOM     21  O   UNL A   1      36.354  31.189  27.550  1.00  0.00    -0.207 OA
BRANCH  19  22
ATOM     22  N   UNL A   1      34.841  31.286  29.537  1.00  0.00    -0.225 NA
ATOM     23  H   UNL A   1      34.794  30.297  29.780  1.00  0.00     0.137 HD
ATOM     24  H   UNL A   1      33.995  31.756  29.861  1.00  0.00     0.137 HD
ENDBRANCH  19  22
ENDBRANCH  14  19
ENDBRANCH   9  13
BRANCH  11  25
ATOM     25  C   UNL A   1      30.522  27.652  23.693  1.00  0.00     0.128 A 
ATOM     26  C   UNL A   1      30.815  28.741  22.894  1.00  0.00     0.048 A 
ATOM     27  O   UNL A   1      29.167  27.487  23.760  1.00  0.00    -0.467 OA
ATOM     28  C   UNL A   1      29.577  29.263  22.452  1.00  0.00     0.042 A 
ATOM     29  C   UNL A   1      28.605  28.457  22.995  1.00  0.00     0.195 A 
ENDBRANCH  11  25
ENDBRANCH   5   8
ENDBRANCH   3   4
ENDBRANCH   2   3
ENDBRANCH   1   2
BRANCH   1  30
ATOM     30  C   UNL A   1      35.347  20.616  25.026  1.00  0.00     0.002 C 
BRANCH  30  31
ATOM     31  C   UNL A   1      35.811  22.058  24.800  1.00  0.00     0.021 C 
BRANCH  31  32
ATOM     32  C   UNL A   1      37.323  22.267  24.797  1.00  0.00     0.116 C 
BRANCH  32  33
ATOM     33  N   UNL A   1      38.028  21.211  25.500  1.00  0.00    -0.352 N 
ATOM     34  C   UNL A   1      39.160  21.287  26.274  1.00  0.00     0.251 C 
ATOM     35  H   UNL A   1      37.640  20.311  25.409  1.00  0.00     0.163 HD
ATOM     36  O   UNL A   1      39.708  20.252  26.647  1.00  0.00    -0.269 OA
BRANCH  34  37
ATOM     37  C   UNL A   1      39.731  22.604  26.635  1.00  0.00     0.039 A 
ATOM     38  C   UNL A   1      40.825  22.648  27.504  1.00  0.00     0.014 A 
ATOM     39  C   UNL A   1      39.184  23.792  26.138  1.00  0.00     0.014 A 
ATOM     40  C   UNL A   1      41.405  23.876  27.831  1.00  0.00     0.010 A 
ATOM     41  C   UNL A   1      39.802  25.011  26.416  1.00  0.00     0.010 A 
ATOM     42  C   UNL A   1      40.916  25.066  27.268  1.00  0.00    -0.014 A 
BRANCH  42  43
ATOM     43  C   UNL A   1      41.552  26.377  27.567  1.00  0.00     0.031 A 
ATOM     44  C   UNL A   1      42.915  26.696  27.015  1.00  0.00     0.074 A 
ATOM     45  C   UNL A   1      40.930  27.251  28.382  1.00  0.00     0.049 A 
ATOM     46  N   UNL A   1      43.671  27.742  27.228  1.00  0.00    -0.248 NA
ATOM     47  C   UNL A   1      43.518  25.688  26.131  1.00  0.00     0.031 C 
ATOM     48  C   UNL A   1      39.623  27.039  29.009  1.00  0.00     0.029 A 
ATOM     49  N   UNL A   1      41.318  28.487  28.835  1.00  0.00    -0.354 N 
ATOM     50  C   UNL A   1      44.846  27.513  26.519  1.00  0.00     0.074 A 
ATOM     51  C   UNL A   1      44.719  26.203  25.915  1.00  0.00     0.031 C 
ATOM     52  C   UNL A   1      39.313  28.113  29.752  1.00  0.00     0.029 A 
ATOM     53  C   UNL A   1      40.411  29.072  29.690  1.00  0.00     0.049 A 
ATOM     54  H   UNL A   1      42.164  28.915  28.574  1.00  0.00     0.167 HD
ATOM     55  C   UNL A   1      45.921  28.328  26.370  1.00  0.00     0.034 A 
ATOM     56  C   UNL A   1      40.465  30.242  30.357  1.00  0.00     0.034 A 
ATOM     57  C   UNL A   1      46.023  29.640  26.962  1.00  0.00     0.049 A 
ATOM     58  C   UNL A   1      41.670  31.130  30.179  1.00  0.00     0.074 A 
ATOM     59  C   UNL A   1      47.038  30.571  26.828  1.00  0.00     0.029 A 
ATOM     60  N   UNL A   1      45.078  30.206  27.809  1.00  0.00    -0.354 N 
ATOM     61  N   UNL A   1      42.753  30.917  29.467  1.00  0.00    -0.248 NA
ATOM     62  C   UNL A   1      41.653  32.417  30.883  1.00  0.00     0.031 C 
ATOM     63  C   UNL A   1      46.736  31.672  27.637  1.00  0.00     0.029 A 
ATOM     64  C   UNL A   1      45.499  31.460  28.225  1.00  0.00     0.049 A 
ATOM     65  H   UNL A   1      44.231  29.778  28.075  1.00  0.00     0.167 HD
ATOM     66  C   UNL A   1      43.535  32.059  29.619  1.00  0.00     0.074 A 
ATOM     67  C   UNL A   1      42.792  32.960  30.476  1.00  0.00     0.031 C 
ATOM     68  C   UNL A   1      44.753  32.341  29.091  1.00  0.00     0.034 A 
BRANCH  55  69
ATOM     69  C   UNL A   1      47.079  27.806  25.554  1.00  0.00     0.023 A 
ATOM     70  C   UNL A   1      47.237  28.139  24.196  1.00  0.00     0.031 A 
ATOM     71  C   UNL A   1      48.023  26.937  26.131  1.00  0.00     0.131 A 
ATOM     72  C   UNL A   1      48.265  27.548  23.445  1.00  0.00     0.055 A 
ATOM     73  C   UNL A   1      49.091  26.417  25.397  1.00  0.00     0.041 A 
ATOM     74  F   UNL A   1      47.913  26.567  27.416  1.00  0.00    -0.206 F 
ATOM     75  C   UNL A   1      49.208  26.709  24.042  1.00  0.00     0.022 A 
BRANCH  72  76
ATOM     76  S   UNL A   1      48.263  27.782  21.647  1.00  0.00     0.124 S 
ATOM     77  O   UNL A   1      49.310  28.788  21.480  1.00  0.00    -0.237 OA
ATOM     78  O   UNL A   1      48.575  26.446  21.154  1.00  0.00    -0.237 OA
ATOM     79  O   UNL A   1      46.908  28.252  21.364  1.00  0.00    -0.744 OA
ENDBRANCH  72  76
ENDBRANCH  55  69
BRANCH  56  80
ATOM     80  C   UNL A   1      39.353  30.642  31.264  1.00  0.00     0.023 A 
ATOM     81  C   UNL A   1      38.499  31.707  30.937  1.00  0.00     0.031 A 
ATOM     82  C   UNL A   1      39.150  29.985  32.490  1.00  0.00     0.131 A 
ATOM     83  C   UNL A   1      37.509  32.114  31.845  1.00  0.00     0.055 A 
ATOM     84  C   UNL A   1      38.133  30.363  33.369  1.00  0.00     0.041 A 
ATOM     85  F   UNL A   1      39.934  28.955  32.847  1.00  0.00    -0.206 F 
ATOM     86  C   UNL A   1      37.313  31.441  33.052  1.00  0.00     0.022 A 
BRANCH  83  87
ATOM     87  S   UNL A   1      36.525  33.586  31.453  1.00  0.00     0.124 S 
ATOM     88  O   UNL A   1      37.130  34.588  32.324  1.00  0.00    -0.237 OA
ATOM     89  O   UNL A   1      36.771  33.743  30.025  1.00  0.00    -0.237 OA
ATOM     90  O   UNL A   1      35.164  33.189  31.809  1.00  0.00    -0.744 OA
ENDBRANCH  83  87
ENDBRANCH  56  80
BRANCH  68  91
ATOM     91  C   UNL A   1      45.333  33.699  29.400  1.00  0.00     0.023 A 
ATOM     92  C   UNL A   1      45.043  34.824  28.607  1.00  0.00     0.031 A 
ATOM     93  C   UNL A   1      46.198  33.865  30.495  1.00  0.00     0.131 A 
ATOM     94  C   UNL A   1      45.655  36.054  28.891  1.00  0.00     0.055 A 
ATOM     95  C   UNL A   1      46.761  35.103  30.805  1.00  0.00     0.041 A 
ATOM     96  F   UNL A   1      46.509  32.824  31.283  1.00  0.00    -0.206 F 
ATOM     97  C   UNL A   1      46.500  36.204  29.994  1.00  0.00     0.022 A 
BRANCH  94  98
ATOM     98  S   UNL A   1      45.399  37.438  27.748  1.00  0.00     0.124 S 
ATOM     99  O   UNL A   1      44.360  36.916  26.866  1.00  0.00    -0.237 OA
ATOM    100  O   UNL A   1      44.990  38.513  28.646  1.00  0.00    -0.237 OA
ATOM    101  O   UNL A   1      46.709  37.617  27.125  1.00  0.00    -0.744 OA
ENDBRANCH  94  98
ENDBRANCH  68  91
ENDBRANCH  42  43
ENDBRANCH  34  37
ENDBRANCH  32  33
ENDBRANCH  31  32
ENDBRANCH  30  31
ENDBRANCH   1  30
TORSDOF 20
ENDMDL
MODEL 3
REMARK VINA RESULT:     -11.7      1.646      2.822
REMARK SMILES NS(=O)(=O)c1ccc(N2N=C(C(=O)NCCCCCCNC(=O)c3ccc(-c4c5nc(c(-c6cc(S(=O)(=O)[O-])ccc6F)c6ccc([nH]6)c(-c6cc(S(=O)(=O)[O-])ccc6F)c6nc(c(-c7cc(S(=O)(=O)[O-])ccc7F)c7ccc4[nH]7)C=C6)C=C5)cc3)C[C@H]2c2ccco2)cc1
REMARK SMILES IDX 17 1 16 2 15 3 14 4 12 5 13 6 11 8 9 9 10 10 88 11 87 12
REMARK SMILES IDX 8 13 5 14 6 15 95 16 7 17 94 18 2 19 3 20 4 21 1 22 89 25
REMARK SMILES IDX 90 26 93 27 91 28 92 29 18 30 19 31 20 32 21 33 22 34 23 36
REMARK SMILES IDX 24 37 25 38 86 39 26 40 85 41 27 42 28 43 29 44 79 45 30 46
REMARK SMILES IDX 84 47 78 48 80 49 31 50 83 51 77 52 76 53 32 55 64 56 44 57
REMARK SMILES IDX 63 58 45 59 48 60 62 61 81 62 46 63 47 64 61 66 82 67 49 68
REMARK SMILES IDX 33 69 34 70 42 71 35 72 41 73 43 74 40 75 36 76 37 77 38 78
REMARK SMILES IDX 39 79 65 80 66 81 74 82 67 83 73 84 75 85 72 86 68 87 69 88
REMARK SMILES IDX 70 89 71 90 50 91 51 92 59 93 52 94 58 95 60 96 57 97 53 98
REMARK SMILES IDX 54 99 55 100 56 101
REMARK H PARENT 14 7 1 23 1 24 21 35 80 54 48 65
REMARK Flexibility Score: inf
ROOT
ATOM      1  C   UNL A   1      35.695  20.620  24.985  1.00  0.00     0.002 C 
ENDROOT
BRANCH   1   2
ATOM      2  C   UNL A   1      35.745  21.950  25.742  1.00  0.00     0.021 C 
BRANCH   2   3
ATOM      3  C   UNL A   1      34.902  23.068  25.135  1.00  0.00     0.116 C 
BRANCH   3   4
ATOM      4  N   UNL A   1      33.654  22.556  24.602  1.00  0.00    -0.351 N 
ATOM      5  C   UNL A   1      32.379  23.047  24.505  1.00  0.00     0.267 C 
ATOM      6  O   UNL A   1      31.518  22.298  24.047  1.00  0.00    -0.268 OA
ATOM      7  H   UNL A   1      33.744  21.651  24.225  1.00  0.00     0.163 HD
BRANCH   5   8
ATOM      8  C   UNL A   1      31.974  24.464  24.886  1.00  0.00     0.128 C 
ATOM      9  N   UNL A   1      31.371  26.489  24.591  1.00  0.00    -0.254 N 
ATOM     10  N   UNL A   1      31.467  25.269  23.999  1.00  0.00    -0.171 NA
ATOM     11  C   UNL A   1      31.643  26.472  26.029  1.00  0.00     0.180 C 
ATOM     12  C   UNL A   1      32.135  25.039  26.252  1.00  0.00     0.099 C 
BRANCH   9  13
ATOM     13  C   UNL A   1      30.631  27.502  23.995  1.00  0.00     0.060 A 
ATOM     14  C   UNL A   1      29.102  29.500  22.752  1.00  0.00     0.082 A 
ATOM     15  C   UNL A   1      30.456  29.725  23.012  1.00  0.00     0.024 A 
ATOM     16  C   UNL A   1      28.501  28.296  23.115  1.00  0.00     0.024 A 
ATOM     17  C   UNL A   1      31.209  28.731  23.649  1.00  0.00     0.029 A 
ATOM     18  C   UNL A   1      29.268  27.308  23.730  1.00  0.00     0.029 A 
BRANCH  14  19
ATOM     19  S   UNL A   1      28.166  30.746  21.923  1.00  0.00     0.238 S 
ATOM     20  O   UNL A   1      27.087  31.173  22.783  1.00  0.00    -0.207 OA
ATOM     21  O   UNL A   1      27.958  30.338  20.553  1.00  0.00    -0.207 OA
BRANCH  19  22
ATOM     22  N   UNL A   1      29.212  32.063  21.856  1.00  0.00    -0.225 NA
ATOM     23  H   UNL A   1      28.746  32.844  21.396  1.00  0.00     0.137 HD
ATOM     24  H   UNL A   1      30.047  31.807  21.328  1.00  0.00     0.137 HD
ENDBRANCH  19  22
ENDBRANCH  14  19
ENDBRANCH   9  13
BRANCH  11  25
ATOM     25  C   UNL A   1      32.590  27.506  26.562  1.00  0.00     0.128 A 
ATOM     26  C   UNL A   1      32.457  28.479  27.535  1.00  0.00     0.048 A 
ATOM     27  O   UNL A   1      33.850  27.558  26.034  1.00  0.00    -0.467 OA
ATOM     28  C   UNL A   1      33.698  29.155  27.602  1.00  0.00     0.042 A 
ATOM     29  C   UNL A   1      34.515  28.549  26.679  1.00  0.00     0.195 A 
ENDBRANCH  11  25
ENDBRANCH   5   8
ENDBRANCH   3   4
ENDBRANCH   2   3
ENDBRANCH   1   2
BRANCH   1  30
ATOM     30  C   UNL A   1      36.986  19.796  25.010  1.00  0.00     0.002 C 
BRANCH  30  31
ATOM     31  C   UNL A   1      38.288  20.593  24.893  1.00  0.00     0.021 C 
BRANCH  31  32
ATOM     32  C   UNL A   1      39.180  20.575  26.131  1.00  0.00     0.116 C 
BRANCH  32  33
ATOM     33  N   UNL A   1      40.210  19.556  26.056  1.00  0.00    -0.352 N 
ATOM     34  C   UNL A   1      41.576  19.695  26.088  1.00  0.00     0.251 C 
ATOM     35  H   UNL A   1      39.883  18.631  25.971  1.00  0.00     0.163 HD
ATOM     36  O   UNL A   1      42.289  18.726  25.837  1.00  0.00    -0.269 OA
BRANCH  34  37
ATOM     37  C   UNL A   1      42.185  21.009  26.394  1.00  0.00     0.039 A 
ATOM     38  C   UNL A   1      42.403  21.908  25.346  1.00  0.00     0.014 A 
ATOM     39  C   UNL A   1      42.558  21.350  27.698  1.00  0.00     0.014 A 
ATOM     40  C   UNL A   1      42.943  23.169  25.613  1.00  0.00     0.010 A 
ATOM     41  C   UNL A   1      43.039  22.630  27.971  1.00  0.00     0.010 A 
ATOM     42  C   UNL A   1      43.240  23.551  26.931  1.00  0.00    -0.014 A 
BRANCH  42  43
ATOM     43  C   UNL A   1      43.769  24.907  27.239  1.00  0.00     0.031 A 
ATOM     44  C   UNL A   1      42.861  25.957  27.819  1.00  0.00     0.074 A 
ATOM     45  C   UNL A   1      45.047  25.209  26.940  1.00  0.00     0.049 A 
ATOM     46  N   UNL A   1      43.107  27.215  28.078  1.00  0.00    -0.248 NA
ATOM     47  C   UNL A   1      41.483  25.539  28.119  1.00  0.00     0.031 C 
ATOM     48  C   UNL A   1      46.015  24.287  26.339  1.00  0.00     0.029 A 
ATOM     49  N   UNL A   1      45.751  26.378  27.086  1.00  0.00    -0.354 N 
ATOM     50  C   UNL A   1      41.912  27.746  28.555  1.00  0.00     0.074 A 
ATOM     51  C   UNL A   1      40.931  26.682  28.498  1.00  0.00     0.031 C 
ATOM     52  C   UNL A   1      47.187  24.922  26.182  1.00  0.00     0.029 A 
ATOM     53  C   UNL A   1      47.048  26.304  26.631  1.00  0.00     0.049 A 
ATOM     54  H   UNL A   1      45.365  27.194  27.479  1.00  0.00     0.167 HD
ATOM     55  C   UNL A   1      41.664  28.998  29.016  1.00  0.00     0.034 A 
ATOM     56  C   UNL A   1      48.010  27.246  26.571  1.00  0.00     0.034 A 
ATOM     57  C   UNL A   1      42.658  30.041  29.085  1.00  0.00     0.049 A 
ATOM     58  C   UNL A   1      47.711  28.630  27.085  1.00  0.00     0.074 A 
ATOM     59  C   UNL A   1      42.531  31.324  29.588  1.00  0.00     0.029 A 
ATOM     60  N   UNL A   1      43.966  29.925  28.630  1.00  0.00    -0.354 N 
ATOM     61  N   UNL A   1      46.588  29.103  27.576  1.00  0.00    -0.248 NA
ATOM     62  C   UNL A   1      48.811  29.602  27.049  1.00  0.00     0.031 C 
ATOM     63  C   UNL A   1      43.739  32.000  29.385  1.00  0.00     0.029 A 
ATOM     64  C   UNL A   1      44.645  31.119  28.816  1.00  0.00     0.049 A 
ATOM     65  H   UNL A   1      44.355  29.111  28.233  1.00  0.00     0.167 HD
ATOM     66  C   UNL A   1      46.857  30.422  27.932  1.00  0.00     0.074 A 
ATOM     67  C   UNL A   1      48.249  30.663  27.612  1.00  0.00     0.031 C 
ATOM     68  C   UNL A   1      46.030  31.348  28.479  1.00  0.00     0.034 A 
BRANCH  55  69
ATOM     69  C   UNL A   1      40.253  29.308  29.455  1.00  0.00     0.023 A 
ATOM     70  C   UNL A   1      39.907  29.410  30.814  1.00  0.00     0.031 A 
ATOM     71  C   UNL A   1      39.231  29.473  28.503  1.00  0.00     0.131 A 
ATOM     72  C   UNL A   1      38.565  29.593  31.184  1.00  0.00     0.055 A 
ATOM     73  C   UNL A   1      37.911  29.735  28.877  1.00  0.00     0.041 A 
ATOM     74  F   UNL A   1      39.495  29.366  27.191  1.00  0.00    -0.206 F 
ATOM     75  C   UNL A   1      37.569  29.781  30.225  1.00  0.00     0.022 A 
BRANCH  72  76
ATOM     76  S   UNL A   1      38.124  29.437  32.936  1.00  0.00     0.124 S 
ATOM     77  O   UNL A   1      39.441  29.358  33.565  1.00  0.00    -0.237 OA
ATOM     78  O   UNL A   1      37.369  30.659  33.182  1.00  0.00    -0.237 OA
ATOM     79  O   UNL A   1      37.345  28.200  32.984  1.00  0.00    -0.744 OA
ENDBRANCH  72  76
ENDBRANCH  55  69
BRANCH  56  80
ATOM     80  C   UNL A   1      49.345  26.921  25.993  1.00  0.00     0.023 A 
ATOM     81  C   UNL A   1      49.685  27.316  24.690  1.00  0.00     0.031 A 
ATOM     82  C   UNL A   1      50.287  26.178  26.726  1.00  0.00     0.131 A 
ATOM     83  C   UNL A   1      50.918  26.929  24.142  1.00  0.00     0.055 A 
ATOM     84  C   UNL A   1      51.531  25.836  26.192  1.00  0.00     0.041 A 
ATOM     85  F   UNL A   1      50.014  25.782  27.979  1.00  0.00    -0.206 F 
ATOM     86  C   UNL A   1      51.847  26.203  24.888  1.00  0.00     0.022 A 
BRANCH  83  87
ATOM     87  S   UNL A   1      51.259  27.331  22.406  1.00  0.00     0.124 S 
ATOM     88  O   UNL A   1      51.566  28.755  22.485  1.00  0.00    -0.237 OA
ATOM     89  O   UNL A   1      52.380  26.447  22.106  1.00  0.00    -0.237 OA
ATOM     90  O   UNL A   1      50.008  26.998  21.728  1.00  0.00    -0.744 OA
ENDBRANCH  83  87
ENDBRANCH  56  80
BRANCH  68  91
ATOM     91  C   UNL A   1      46.631  32.694  28.802  1.00  0.00     0.023 A 
ATOM     92  C   UNL A   1      46.642  33.742  27.866  1.00  0.00     0.031 A 
ATOM     93  C   UNL A   1      47.213  32.923  30.061  1.00  0.00     0.131 A 
ATOM     94  C   UNL A   1      47.270  34.956  28.185  1.00  0.00     0.055 A 
ATOM     95  C   UNL A   1      47.788  34.150  30.392  1.00  0.00     0.041 A 
ATOM     96  F   UNL A   1      47.232  31.955  30.992  1.00  0.00    -0.206 F 
ATOM     97  C   UNL A   1      47.830  35.171  29.447  1.00  0.00     0.022 A 
BRANCH  94  98
ATOM     98  S   UNL A   1      47.421  36.223  26.896  1.00  0.00     0.124 S 
ATOM     99  O   UNL A   1      47.064  35.478  25.694  1.00  0.00    -0.237 OA
ATOM    100  O   UNL A   1      46.457  37.228  27.332  1.00  0.00    -0.237 OA
ATOM    101  O   UNL A   1      48.822  36.633  26.979  1.00  0.00    -0.744 OA
ENDBRANCH  94  98
ENDBRANCH  68  91
ENDBRANCH  42  43
ENDBRANCH  34  37
ENDBRANCH  32  33
ENDBRANCH  31  32
ENDBRANCH  30  31
ENDBRANCH   1  30
TORSDOF 20
ENDMDL
