MODEL 1
REMARK VINA RESULT:     -11.7      0.000      0.000
REMARK SMILES O=C(C[C@H]1C[C@H]2CC[C@@H](C1)[N@@H+]2C[C@@H]1CNC(=O)O1)NCCCCCCNC(=O)c1ccc(-c2c3nc(c(-c4cc(S(=O)(=O)[O-])ccc4F)c4ccc([nH]4)c(-c4cc(S(=O)(=O)[O-])ccc4F)c4nc(c(-c5cc(S(=O)(=O)[O-])ccc5F)c5ccc2[nH]5)C=C4)C=C3)cc1
REMARK SMILES IDX 22 1 21 2 20 3 19 4 1 5 2 6 3 8 4 9 5 10 10 11 6 12 9 13
REMARK SMILES IDX 7 14 11 15 8 16 12 18 13 19 14 20 18 21 15 22 16 23 17 25
REMARK SMILES IDX 23 26 24 27 25 28 26 29 27 30 28 32 29 33 30 34 91 35 31 36
REMARK SMILES IDX 90 37 32 38 33 39 34 40 84 41 35 42 89 43 83 44 85 45 36 46
REMARK SMILES IDX 88 47 82 48 81 49 37 51 69 52 49 53 68 54 50 55 53 56 67 57
REMARK SMILES IDX 86 58 51 59 52 60 66 62 87 63 54 64 38 65 39 66 47 67 40 68
REMARK SMILES IDX 46 69 48 70 45 71 41 72 42 73 43 74 44 75 70 76 71 77 79 78
REMARK SMILES IDX 72 79 78 80 80 81 77 82 73 83 74 84 75 85 76 86 55 87 56 88
REMARK SMILES IDX 64 89 57 90 63 91 65 92 62 93 58 94 59 95 60 96 61 97
REMARK H PARENT 19 7 11 17 15 24 26 31 85 50 53 61
REMARK Flexibility Score: inf
ROOT
ATOM      1  C   UNL A   1      31.911  29.059  25.191  1.00  0.00     0.002 C 
ENDROOT
BRANCH   1   2
ATOM      2  C   UNL A   1      33.239  29.264  24.452  1.00  0.00     0.021 C 
BRANCH   2   3
ATOM      3  C   UNL A   1      33.670  28.194  23.441  1.00  0.00     0.116 C 
BRANCH   3   4
ATOM      4  N   UNL A   1      32.922  26.948  23.522  1.00  0.00    -0.356 N 
ATOM      5  O   UNL A   1      33.657  26.192  21.490  1.00  0.00    -0.275 OA
ATOM      6  C   UNL A   1      33.028  25.998  22.527  1.00  0.00     0.220 C 
ATOM      7  H   UNL A   1      32.335  26.781  24.294  1.00  0.00     0.163 HD
BRANCH   6   8
ATOM      8  C   UNL A   1      32.337  24.671  22.802  1.00  0.00     0.104 C 
BRANCH   8   9
ATOM      9  C   UNL A   1      33.219  23.397  22.811  1.00  0.00     0.010 C 
ATOM     10  C   UNL A   1      34.430  23.412  23.789  1.00  0.00     0.069 C 
ATOM     11  C   UNL A   1      32.386  22.078  22.846  1.00  0.00     0.069 C 
ATOM     12  C   UNL A   1      34.309  22.463  24.993  1.00  0.00     0.184 C 
ATOM     13  C   UNL A   1      32.481  21.297  24.161  1.00  0.00     0.184 C 
ATOM     14  C   UNL A   1      33.160  22.799  25.916  1.00  0.00     0.071 C 
ATOM     15  N   UNL A   1      33.905  21.202  24.412  1.00  0.00    -0.327 N 
ATOM     16  C   UNL A   1      31.939  22.113  25.317  1.00  0.00     0.071 C 
ATOM     17  H   UNL A   1      34.398  21.076  23.529  1.00  0.00     0.348 HD
BRANCH  15  18
ATOM     18  C   UNL A   1      34.459  19.965  24.905  1.00  0.00     0.310 C 
BRANCH  18  19
ATOM     19  C   UNL A   1      33.484  18.818  24.550  1.00  0.00     0.252 C 
ATOM     20  C   UNL A   1      32.749  18.230  25.746  1.00  0.00     0.170 C 
ATOM     21  O   UNL A   1      34.198  17.695  23.977  1.00  0.00    -0.438 OA
ATOM     22  N   UNL A   1      33.357  16.956  25.913  1.00  0.00    -0.318 N 
ATOM     23  C   UNL A   1      34.199  16.673  24.883  1.00  0.00     0.407 C 
ATOM     24  H   UNL A   1      33.191  16.356  26.676  1.00  0.00     0.167 HD
ATOM     25  O   UNL A   1      34.835  15.634  24.767  1.00  0.00    -0.225 OA
ENDBRANCH  18  19
ENDBRANCH  15  18
ENDBRANCH   8   9
ENDBRANCH   6   8
ENDBRANCH   3   4
ENDBRANCH   2   3
ENDBRANCH   1   2
BRANCH   1  26
ATOM     26  C   UNL A   1      31.761  29.723  26.565  1.00  0.00     0.002 C 
BRANCH  26  27
ATOM     27  C   UNL A   1      31.393  31.198  26.576  1.00  0.00     0.021 C 
BRANCH  27  28
ATOM     28  C   UNL A   1      32.568  32.151  26.506  1.00  0.00     0.116 C 
BRANCH  28  29
ATOM     29  N   UNL A   1      32.316  33.445  27.130  1.00  0.00    -0.352 N 
ATOM     30  C   UNL A   1      33.061  34.044  28.124  1.00  0.00     0.251 C 
ATOM     31  H   UNL A   1      31.530  33.943  26.807  1.00  0.00     0.163 HD
ATOM     32  O   UNL A   1      32.688  35.080  28.660  1.00  0.00    -0.269 OA
BRANCH  30  33
ATOM     33  C   UNL A   1      34.301  33.363  28.550  1.00  0.00     0.039 A 
ATOM     34  C   UNL A   1      35.474  34.104  28.695  1.00  0.00     0.014 A 
ATOM     35  C   UNL A   1      34.241  32.028  28.958  1.00  0.00     0.014 A 
ATOM     36  C   UNL A   1      36.572  33.518  29.327  1.00  0.00     0.010 A 
ATOM     37  C   UNL A   1      35.291  31.493  29.692  1.00  0.00     0.010 A 
ATOM     38  C   UNL A   1      36.473  32.225  29.872  1.00  0.00    -0.014 A 
BRANCH  38  39
ATOM     39  C   UNL A   1      37.606  31.606  30.605  1.00  0.00     0.031 A 
ATOM     40  C   UNL A   1      38.470  30.590  29.907  1.00  0.00     0.074 A 
ATOM     41  C   UNL A   1      37.824  31.916  31.899  1.00  0.00     0.049 A 
ATOM     42  N   UNL A   1      39.475  29.897  30.376  1.00  0.00    -0.248 NA
ATOM     43  C   UNL A   1      38.136  30.287  28.506  1.00  0.00     0.031 C 
ATOM     44  C   UNL A   1      37.020  32.849  32.695  1.00  0.00     0.029 A 
ATOM     45  N   UNL A   1      38.787  31.485  32.776  1.00  0.00    -0.354 N 
ATOM     46  C   UNL A   1      39.879  29.070  29.334  1.00  0.00     0.074 A 
ATOM     47  C   UNL A   1      38.963  29.290  28.238  1.00  0.00     0.031 C 
ATOM     48  C   UNL A   1      37.549  32.950  33.924  1.00  0.00     0.029 A 
ATOM     49  C   UNL A   1      38.695  32.053  34.027  1.00  0.00     0.049 A 
ATOM     50  H   UNL A   1      39.480  30.828  32.534  1.00  0.00     0.167 HD
ATOM     51  C   UNL A   1      40.938  28.226  29.285  1.00  0.00     0.034 A 
ATOM     52  C   UNL A   1      39.445  31.864  35.132  1.00  0.00     0.034 A 
ATOM     53  C   UNL A   1      41.851  28.034  30.383  1.00  0.00     0.049 A 
ATOM     54  C   UNL A   1      40.604  30.902  35.061  1.00  0.00     0.074 A 
ATOM     55  C   UNL A   1      42.991  27.252  30.427  1.00  0.00     0.029 A 
ATOM     56  N   UNL A   1      41.721  28.620  31.637  1.00  0.00    -0.354 N 
ATOM     57  N   UNL A   1      41.011  30.170  34.049  1.00  0.00    -0.248 NA
ATOM     58  C   UNL A   1      41.411  30.748  36.277  1.00  0.00     0.031 C 
ATOM     59  C   UNL A   1      43.499  27.296  31.729  1.00  0.00     0.029 A 
ATOM     60  C   UNL A   1      42.737  28.184  32.473  1.00  0.00     0.049 A 
ATOM     61  H   UNL A   1      41.011  29.251  31.894  1.00  0.00     0.167 HD
ATOM     62  C   UNL A   1      42.143  29.496  34.497  1.00  0.00     0.074 A 
ATOM     63  C   UNL A   1      42.361  29.921  35.865  1.00  0.00     0.031 C 
ATOM     64  C   UNL A   1      42.934  28.609  33.839  1.00  0.00     0.034 A 
BRANCH  51  65
ATOM     65  C   UNL A   1      41.143  27.435  28.014  1.00  0.00     0.023 A 
ATOM     66  C   UNL A   1      40.833  26.066  27.932  1.00  0.00     0.031 A 
ATOM     67  C   UNL A   1      41.682  28.055  26.874  1.00  0.00     0.131 A 
ATOM     68  C   UNL A   1      41.133  25.347  26.765  1.00  0.00     0.055 A 
ATOM     69  C   UNL A   1      41.894  27.355  25.685  1.00  0.00     0.041 A 
ATOM     70  F   UNL A   1      42.027  29.352  26.898  1.00  0.00    -0.206 F 
ATOM     71  C   UNL A   1      41.633  25.988  25.630  1.00  0.00     0.022 A 
BRANCH  68  72
ATOM     72  S   UNL A   1      41.002  23.539  26.803  1.00  0.00     0.124 S 
ATOM     73  O   UNL A   1      41.439  23.241  28.165  1.00  0.00    -0.237 OA
ATOM     74  O   UNL A   1      39.588  23.318  26.522  1.00  0.00    -0.237 OA
ATOM     75  O   UNL A   1      41.922  23.107  25.753  1.00  0.00    -0.744 OA
ENDBRANCH  68  72
ENDBRANCH  51  65
BRANCH  52  76
ATOM     76  C   UNL A   1      39.124  32.587  36.399  1.00  0.00     0.023 A 
ATOM     77  C   UNL A   1      39.730  33.815  36.710  1.00  0.00     0.031 A 
ATOM     78  C   UNL A   1      38.236  32.037  37.340  1.00  0.00     0.131 A 
ATOM     79  C   UNL A   1      39.479  34.428  37.948  1.00  0.00     0.055 A 
ATOM     80  C   UNL A   1      37.942  32.680  38.544  1.00  0.00     0.041 A 
ATOM     81  F   UNL A   1      37.628  30.865  37.096  1.00  0.00    -0.206 F 
ATOM     82  C   UNL A   1      38.575  33.877  38.860  1.00  0.00     0.022 A 
BRANCH  79  83
ATOM     83  S   UNL A   1      40.423  35.912  38.393  1.00  0.00     0.124 S 
ATOM     84  O   UNL A   1      41.754  35.573  37.902  1.00  0.00    -0.237 OA
ATOM     85  O   UNL A   1      39.713  36.954  37.659  1.00  0.00    -0.237 OA
ATOM     86  O   UNL A   1      40.290  35.975  39.847  1.00  0.00    -0.744 OA
ENDBRANCH  79  83
ENDBRANCH  52  76
BRANCH  64  87
ATOM     87  C   UNL A   1      44.140  28.079  34.578  1.00  0.00     0.023 A 
ATOM     88  C   UNL A   1      44.123  26.837  35.234  1.00  0.00     0.031 A 
ATOM     89  C   UNL A   1      45.325  28.837  34.629  1.00  0.00     0.131 A 
ATOM     90  C   UNL A   1      45.244  26.418  35.966  1.00  0.00     0.055 A 
ATOM     91  C   UNL A   1      46.462  28.381  35.294  1.00  0.00     0.041 A 
ATOM     92  F   UNL A   1      45.397  30.034  34.025  1.00  0.00    -0.206 F 
ATOM     93  C   UNL A   1      46.420  27.171  35.982  1.00  0.00     0.022 A 
BRANCH  90  94
ATOM     94  S   UNL A   1      45.106  24.929  36.991  1.00  0.00     0.124 S 
ATOM     95  O   UNL A   1      46.460  24.387  36.919  1.00  0.00    -0.237 OA
ATOM     96  O   UNL A   1      44.706  25.474  38.284  1.00  0.00    -0.237 OA
ATOM     97  O   UNL A   1      44.084  24.137  36.309  1.00  0.00    -0.744 OA
ENDBRANCH  90  94
ENDBRANCH  64  87
ENDBRANCH  38  39
ENDBRANCH  30  33
ENDBRANCH  28  29
ENDBRANCH  27  28
ENDBRANCH  26  27
ENDBRANCH   1  26
TORSDOF 19
ENDMDL
MODEL 2
REMARK VINA RESULT:     -11.6      1.873      7.739
REMARK SMILES O=C(C[C@H]1C[C@H]2CC[C@@H](C1)[N@@H+]2C[C@@H]1CNC(=O)O1)NCCCCCCNC(=O)c1ccc(-c2c3nc(c(-c4cc(S(=O)(=O)[O-])ccc4F)c4ccc([nH]4)c(-c4cc(S(=O)(=O)[O-])ccc4F)c4nc(c(-c5cc(S(=O)(=O)[O-])ccc5F)c5ccc2[nH]5)C=C4)C=C3)cc1
REMARK SMILES IDX 22 1 21 2 20 3 19 4 1 5 2 6 3 8 4 9 5 10 10 11 6 12 9 13
REMARK SMILES IDX 7 14 11 15 8 16 12 18 13 19 14 20 18 21 15 22 16 23 17 25
REMARK SMILES IDX 23 26 24 27 25 28 26 29 27 30 28 32 29 33 30 34 91 35 31 36
REMARK SMILES IDX 90 37 32 38 33 39 34 40 84 41 35 42 89 43 83 44 85 45 36 46
REMARK SMILES IDX 88 47 82 48 81 49 37 51 69 52 49 53 68 54 50 55 53 56 67 57
REMARK SMILES IDX 86 58 51 59 52 60 66 62 87 63 54 64 38 65 39 66 47 67 40 68
REMARK SMILES IDX 46 69 48 70 45 71 41 72 42 73 43 74 44 75 70 76 71 77 79 78
REMARK SMILES IDX 72 79 78 80 80 81 77 82 73 83 74 84 75 85 76 86 55 87 56 88
REMARK SMILES IDX 64 89 57 90 63 91 65 92 62 93 58 94 59 95 60 96 61 97
REMARK H PARENT 19 7 11 17 15 24 26 31 85 50 53 61
REMARK Flexibility Score: inf
ROOT
ATOM      1  C   UNL A   1      30.957  28.761  23.313  1.00  0.00     0.002 C 
ENDROOT
BRANCH   1   2
ATOM      2  C   UNL A   1      32.202  28.073  22.738  1.00  0.00     0.021 C 
BRANCH   2   3
ATOM      3  C   UNL A   1      32.314  26.551  22.888  1.00  0.00     0.116 C 
BRANCH   3   4
ATOM      4  N   UNL A   1      32.639  26.096  24.231  1.00  0.00    -0.356 N 
ATOM      5  O   UNL A   1      30.478  25.525  24.731  1.00  0.00    -0.275 OA
ATOM      6  C   UNL A   1      31.666  25.553  25.045  1.00  0.00     0.220 C 
ATOM      7  H   UNL A   1      33.562  26.176  24.563  1.00  0.00     0.163 HD
BRANCH   6   8
ATOM      8  C   UNL A   1      32.156  24.959  26.357  1.00  0.00     0.104 C 
BRANCH   8   9
ATOM      9  C   UNL A   1      32.285  23.416  26.436  1.00  0.00     0.010 C 
ATOM     10  C   UNL A   1      31.788  22.625  25.190  1.00  0.00     0.069 C 
ATOM     11  C   UNL A   1      33.669  22.946  26.982  1.00  0.00     0.069 C 
ATOM     12  C   UNL A   1      32.895  21.953  24.361  1.00  0.00     0.184 C 
ATOM     13  C   UNL A   1      34.565  22.260  25.946  1.00  0.00     0.184 C 
ATOM     14  C   UNL A   1      33.867  22.931  23.741  1.00  0.00     0.071 C 
ATOM     15  N   UNL A   1      33.705  21.263  25.341  1.00  0.00    -0.327 N 
ATOM     16  C   UNL A   1      34.911  23.209  24.815  1.00  0.00     0.071 C 
ATOM     17  H   UNL A   1      33.091  20.868  26.052  1.00  0.00     0.348 HD
BRANCH  15  18
ATOM     18  C   UNL A   1      34.230  19.951  25.055  1.00  0.00     0.310 C 
BRANCH  18  19
ATOM     19  C   UNL A   1      33.057  19.044  24.611  1.00  0.00     0.252 C 
ATOM     20  C   UNL A   1      32.691  17.960  25.614  1.00  0.00     0.170 C 
ATOM     21  O   UNL A   1      33.397  18.319  23.404  1.00  0.00    -0.438 OA
ATOM     22  N   UNL A   1      33.157  16.767  24.997  1.00  0.00    -0.318 N 
ATOM     23  C   UNL A   1      33.570  17.002  23.722  1.00  0.00     0.407 C 
ATOM     24  H   UNL A   1      33.179  15.886  25.435  1.00  0.00     0.167 HD
ATOM     25  O   UNL A   1      33.997  16.147  22.959  1.00  0.00    -0.225 OA
ENDBRANCH  18  19
ENDBRANCH  15  18
ENDBRANCH   8   9
ENDBRANCH   6   8
ENDBRANCH   3   4
ENDBRANCH   2   3
ENDBRANCH   1   2
BRANCH   1  26
ATOM     26  C   UNL A   1      31.104  29.463  24.668  1.00  0.00     0.002 C 
BRANCH  26  27
ATOM     27  C   UNL A   1      32.509  29.553  25.244  1.00  0.00     0.021 C 
BRANCH  27  28
ATOM     28  C   UNL A   1      32.580  29.987  26.692  1.00  0.00     0.116 C 
BRANCH  28  29
ATOM     29  N   UNL A   1      32.429  31.425  26.884  1.00  0.00    -0.352 N 
ATOM     30  C   UNL A   1      33.340  32.283  27.466  1.00  0.00     0.251 C 
ATOM     31  H   UNL A   1      31.589  31.826  26.564  1.00  0.00     0.163 HD
ATOM     32  O   UNL A   1      33.059  33.454  27.685  1.00  0.00    -0.269 OA
BRANCH  30  33
ATOM     33  C   UNL A   1      34.650  31.722  27.858  1.00  0.00     0.039 A 
ATOM     34  C   UNL A   1      35.744  32.574  28.006  1.00  0.00     0.014 A 
ATOM     35  C   UNL A   1      34.733  30.378  28.232  1.00  0.00     0.014 A 
ATOM     36  C   UNL A   1      36.905  32.088  28.609  1.00  0.00     0.010 A 
ATOM     37  C   UNL A   1      35.842  29.935  28.938  1.00  0.00     0.010 A 
ATOM     38  C   UNL A   1      36.947  30.780  29.121  1.00  0.00    -0.014 A 
BRANCH  38  39
ATOM     39  C   UNL A   1      38.148  30.262  29.823  1.00  0.00     0.031 A 
ATOM     40  C   UNL A   1      38.419  30.692  31.240  1.00  0.00     0.074 A 
ATOM     41  C   UNL A   1      39.013  29.454  29.176  1.00  0.00     0.049 A 
ATOM     42  N   UNL A   1      39.430  30.398  32.015  1.00  0.00    -0.248 NA
ATOM     43  C   UNL A   1      37.439  31.603  31.854  1.00  0.00     0.031 C 
ATOM     44  C   UNL A   1      38.881  29.012  27.785  1.00  0.00     0.029 A 
ATOM     45  N   UNL A   1      40.174  28.859  29.600  1.00  0.00    -0.354 N 
ATOM     46  C   UNL A   1      39.214  31.099  33.197  1.00  0.00     0.074 A 
ATOM     47  C   UNL A   1      38.021  31.892  33.006  1.00  0.00     0.031 C 
ATOM     48  C   UNL A   1      39.894  28.184  27.488  1.00  0.00     0.029 A 
ATOM     49  C   UNL A   1      40.779  28.075  28.642  1.00  0.00     0.049 A 
ATOM     50  H   UNL A   1      40.542  28.980  30.505  1.00  0.00     0.167 HD
ATOM     51  C   UNL A   1      39.929  31.059  34.347  1.00  0.00     0.034 A 
ATOM     52  C   UNL A   1      41.921  27.359  28.690  1.00  0.00     0.034 A 
ATOM     53  C   UNL A   1      41.107  30.248  34.522  1.00  0.00     0.049 A 
ATOM     54  C   UNL A   1      42.713  27.349  29.974  1.00  0.00     0.074 A 
ATOM     55  C   UNL A   1      41.876  30.082  35.659  1.00  0.00     0.029 A 
ATOM     56  N   UNL A   1      41.694  29.474  33.528  1.00  0.00    -0.354 N 
ATOM     57  N   UNL A   1      42.463  27.970  31.105  1.00  0.00    -0.248 NA
ATOM     58  C   UNL A   1      43.933  26.534  29.992  1.00  0.00     0.031 C 
ATOM     59  C   UNL A   1      42.973  29.281  35.330  1.00  0.00     0.029 A 
ATOM     60  C   UNL A   1      42.838  28.863  34.015  1.00  0.00     0.049 A 
ATOM     61  H   UNL A   1      41.348  29.376  32.611  1.00  0.00     0.167 HD
ATOM     62  C   UNL A   1      43.479  27.592  31.978  1.00  0.00     0.074 A 
ATOM     63  C   UNL A   1      44.332  26.677  31.247  1.00  0.00     0.031 C 
ATOM     64  C   UNL A   1      43.686  27.962  33.269  1.00  0.00     0.034 A 
BRANCH  51  65
ATOM     65  C   UNL A   1      39.467  31.937  35.487  1.00  0.00     0.023 A 
ATOM     66  C   UNL A   1      38.756  31.418  36.584  1.00  0.00     0.031 A 
ATOM     67  C   UNL A   1      39.720  33.319  35.463  1.00  0.00     0.131 A 
ATOM     68  C   UNL A   1      38.259  32.284  37.570  1.00  0.00     0.055 A 
ATOM     69  C   UNL A   1      39.301  34.163  36.494  1.00  0.00     0.041 A 
ATOM     70  F   UNL A   1      40.368  33.879  34.429  1.00  0.00    -0.206 F 
ATOM     71  C   UNL A   1      38.552  33.649  37.549  1.00  0.00     0.022 A 
BRANCH  68  72
ATOM     72  S   UNL A   1      37.098  31.624  38.797  1.00  0.00     0.124 S 
ATOM     73  O   UNL A   1      37.871  31.750  40.031  1.00  0.00    -0.237 OA
ATOM     74  O   UNL A   1      35.955  32.519  38.664  1.00  0.00    -0.237 OA
ATOM     75  O   UNL A   1      36.873  30.251  38.351  1.00  0.00    -0.744 OA
ENDBRANCH  68  72
ENDBRANCH  51  65
BRANCH  52  76
ATOM     76  C   UNL A   1      42.392  26.601  27.492  1.00  0.00     0.023 A 
ATOM     77  C   UNL A   1      42.068  25.246  27.315  1.00  0.00     0.031 A 
ATOM     78  C   UNL A   1      43.211  27.212  26.527  1.00  0.00     0.131 A 
ATOM     79  C   UNL A   1      42.599  24.536  26.226  1.00  0.00     0.055 A 
ATOM     80  C   UNL A   1      43.686  26.518  25.413  1.00  0.00     0.041 A 
ATOM     81  F   UNL A   1      43.552  28.505  26.646  1.00  0.00    -0.206 F 
ATOM     82  C   UNL A   1      43.392  25.167  25.265  1.00  0.00     0.022 A 
BRANCH  79  83
ATOM     83  S   UNL A   1      42.316  22.746  26.133  1.00  0.00     0.124 S 
ATOM     84  O   UNL A   1      40.870  22.665  26.308  1.00  0.00    -0.237 OA
ATOM     85  O   UNL A   1      42.821  22.427  24.802  1.00  0.00    -0.237 OA
ATOM     86  O   UNL A   1      43.110  22.219  27.241  1.00  0.00    -0.744 OA
ENDBRANCH  79  83
ENDBRANCH  52  76
BRANCH  64  87
ATOM     87  C   UNL A   1      44.857  27.334  33.987  1.00  0.00     0.023 A 
ATOM     88  C   UNL A   1      44.716  26.170  34.762  1.00  0.00     0.031 A 
ATOM     89  C   UNL A   1      46.134  27.917  33.896  1.00  0.00     0.131 A 
ATOM     90  C   UNL A   1      45.818  25.663  35.467  1.00  0.00     0.055 A 
ATOM     91  C   UNL A   1      47.242  27.364  34.538  1.00  0.00     0.041 A 
ATOM     92  F   UNL A   1      46.327  29.032  33.174  1.00  0.00    -0.206 F 
ATOM     93  C   UNL A   1      47.084  26.239  35.342  1.00  0.00     0.022 A 
BRANCH  90  94
ATOM     94  S   UNL A   1      45.549  24.307  36.640  1.00  0.00     0.124 S 
ATOM     95  O   UNL A   1      44.480  24.841  37.479  1.00  0.00    -0.237 OA
ATOM     96  O   UNL A   1      45.179  23.202  35.762  1.00  0.00    -0.237 OA
ATOM     97  O   UNL A   1      46.845  24.164  37.302  1.00  0.00    -0.744 OA
ENDBRANCH  90  94
ENDBRANCH  64  87
ENDBRANCH  38  39
ENDBRANCH  30  33
ENDBRANCH  28  29
ENDBRANCH  27  28
ENDBRANCH  26  27
ENDBRANCH   1  26
TORSDOF 19
ENDMDL
MODEL 3
REMARK VINA RESULT:     -11.6      1.801      2.173
REMARK SMILES O=C(C[C@H]1C[C@H]2CC[C@@H](C1)[N@@H+]2C[C@@H]1CNC(=O)O1)NCCCCCCNC(=O)c1ccc(-c2c3nc(c(-c4cc(S(=O)(=O)[O-])ccc4F)c4ccc([nH]4)c(-c4cc(S(=O)(=O)[O-])ccc4F)c4nc(c(-c5cc(S(=O)(=O)[O-])ccc5F)c5ccc2[nH]5)C=C4)C=C3)cc1
REMARK SMILES IDX 22 1 21 2 20 3 19 4 1 5 2 6 3 8 4 9 5 10 10 11 6 12 9 13
REMARK SMILES IDX 7 14 11 15 8 16 12 18 13 19 14 20 18 21 15 22 16 23 17 25
REMARK SMILES IDX 23 26 24 27 25 28 26 29 27 30 28 32 29 33 30 34 91 35 31 36
REMARK SMILES IDX 90 37 32 38 33 39 34 40 84 41 35 42 89 43 83 44 85 45 36 46
REMARK SMILES IDX 88 47 82 48 81 49 37 51 69 52 49 53 68 54 50 55 53 56 67 57
REMARK SMILES IDX 86 58 51 59 52 60 66 62 87 63 54 64 38 65 39 66 47 67 40 68
REMARK SMILES IDX 46 69 48 70 45 71 41 72 42 73 43 74 44 75 70 76 71 77 79 78
REMARK SMILES IDX 72 79 78 80 80 81 77 82 73 83 74 84 75 85 76 86 55 87 56 88
REMARK SMILES IDX 64 89 57 90 63 91 65 92 62 93 58 94 59 95 60 96 61 97
REMARK H PARENT 19 7 11 17 15 24 26 31 85 50 53 61
REMARK Flexibility Score: inf
ROOT
ATOM      1  C   UNL A   1      32.599  28.838  25.809  1.00  0.00     0.002 C 
ENDROOT
BRANCH   1   2
ATOM      2  C   UNL A   1      33.505  28.539  24.608  1.00  0.00     0.021 C 
BRANCH   2   3
ATOM      3  C   UNL A   1      32.837  28.113  23.294  1.00  0.00     0.116 C 
BRANCH   3   4
ATOM      4  N   UNL A   1      32.252  26.781  23.317  1.00  0.00    -0.356 N 
ATOM      5  O   UNL A   1      33.658  25.963  21.705  1.00  0.00    -0.275 OA
ATOM      6  C   UNL A   1      32.768  25.772  22.530  1.00  0.00     0.220 C 
ATOM      7  H   UNL A   1      31.479  26.598  23.899  1.00  0.00     0.163 HD
BRANCH   6   8
ATOM      8  C   UNL A   1      32.184  24.386  22.764  1.00  0.00     0.104 C 
BRANCH   8   9
ATOM      9  C   UNL A   1      33.175  23.195  22.813  1.00  0.00     0.010 C 
ATOM     10  C   UNL A   1      34.267  23.262  23.920  1.00  0.00     0.069 C 
ATOM     11  C   UNL A   1      32.470  21.809  22.693  1.00  0.00     0.069 C 
ATOM     12  C   UNL A   1      34.106  22.240  25.057  1.00  0.00     0.184 C 
ATOM     13  C   UNL A   1      32.495  20.966  23.972  1.00  0.00     0.184 C 
ATOM     14  C   UNL A   1      32.838  22.421  25.860  1.00  0.00     0.071 C 
ATOM     15  N   UNL A   1      33.886  20.982  24.377  1.00  0.00    -0.327 N 
ATOM     16  C   UNL A   1      31.758  21.666  25.097  1.00  0.00     0.071 C 
ATOM     17  H   UNL A   1      34.481  20.950  23.550  1.00  0.00     0.348 HD
BRANCH  15  18
ATOM     18  C   UNL A   1      34.497  19.773  24.872  1.00  0.00     0.310 C 
BRANCH  18  19
ATOM     19  C   UNL A   1      33.575  18.582  24.518  1.00  0.00     0.252 C 
ATOM     20  C   UNL A   1      32.782  18.034  25.695  1.00  0.00     0.170 C 
ATOM     21  O   UNL A   1      34.353  17.453  24.050  1.00  0.00    -0.438 OA
ATOM     22  N   UNL A   1      33.411  16.788  25.966  1.00  0.00    -0.318 N 
ATOM     23  C   UNL A   1      34.323  16.478  25.005  1.00  0.00     0.407 C 
ATOM     24  H   UNL A   1      33.213  16.223  26.748  1.00  0.00     0.167 HD
ATOM     25  O   UNL A   1      34.991  15.453  24.983  1.00  0.00    -0.225 OA
ENDBRANCH  18  19
ENDBRANCH  15  18
ENDBRANCH   8   9
ENDBRANCH   6   8
ENDBRANCH   3   4
ENDBRANCH   2   3
ENDBRANCH   1   2
BRANCH   1  26
ATOM     26  C   UNL A   1      33.176  29.717  26.924  1.00  0.00     0.002 C 
BRANCH  26  27
ATOM     27  C   UNL A   1      32.594  31.115  27.064  1.00  0.00     0.021 C 
BRANCH  27  28
ATOM     28  C   UNL A   1      33.606  32.202  27.361  1.00  0.00     0.116 C 
BRANCH  28  29
ATOM     29  N   UNL A   1      33.010  33.508  27.617  1.00  0.00    -0.352 N 
ATOM     30  C   UNL A   1      33.312  34.367  28.653  1.00  0.00     0.251 C 
ATOM     31  H   UNL A   1      32.319  33.808  26.984  1.00  0.00     0.163 HD
ATOM     32  O   UNL A   1      32.663  35.388  28.842  1.00  0.00    -0.269 OA
BRANCH  30  33
ATOM     33  C   UNL A   1      34.419  33.985  29.555  1.00  0.00     0.039 A 
ATOM     34  C   UNL A   1      34.168  33.121  30.621  1.00  0.00     0.014 A 
ATOM     35  C   UNL A   1      35.725  34.360  29.230  1.00  0.00     0.014 A 
ATOM     36  C   UNL A   1      35.246  32.570  31.315  1.00  0.00     0.010 A 
ATOM     37  C   UNL A   1      36.791  33.718  29.843  1.00  0.00     0.010 A 
ATOM     38  C   UNL A   1      36.565  32.827  30.902  1.00  0.00    -0.014 A 
BRANCH  38  39
ATOM     39  C   UNL A   1      37.725  32.201  31.585  1.00  0.00     0.031 A 
ATOM     40  C   UNL A   1      38.474  31.090  30.900  1.00  0.00     0.074 A 
ATOM     41  C   UNL A   1      38.070  32.595  32.828  1.00  0.00     0.049 A 
ATOM     42  N   UNL A   1      39.480  30.377  31.338  1.00  0.00    -0.248 NA
ATOM     43  C   UNL A   1      38.005  30.702  29.560  1.00  0.00     0.031 C 
ATOM     44  C   UNL A   1      37.385  33.628  33.611  1.00  0.00     0.029 A 
ATOM     45  N   UNL A   1      39.083  32.176  33.654  1.00  0.00    -0.354 N 
ATOM     46  C   UNL A   1      39.751  29.454  30.334  1.00  0.00     0.074 A 
ATOM     47  C   UNL A   1      38.755  29.643  29.304  1.00  0.00     0.031 C 
ATOM     48  C   UNL A   1      38.024  33.790  34.780  1.00  0.00     0.029 A 
ATOM     49  C   UNL A   1      39.128  32.841  34.859  1.00  0.00     0.049 A 
ATOM     50  H   UNL A   1      39.719  31.466  33.408  1.00  0.00     0.167 HD
ATOM     51  C   UNL A   1      40.759  28.551  30.264  1.00  0.00     0.034 A 
ATOM     52  C   UNL A   1      39.961  32.693  35.910  1.00  0.00     0.034 A 
ATOM     53  C   UNL A   1      41.752  28.390  31.296  1.00  0.00     0.049 A 
ATOM     54  C   UNL A   1      41.061  31.664  35.819  1.00  0.00     0.074 A 
ATOM     55  C   UNL A   1      42.852  27.551  31.307  1.00  0.00     0.029 A 
ATOM     56  N   UNL A   1      41.761  29.074  32.505  1.00  0.00    -0.354 N 
ATOM     57  N   UNL A   1      41.341  30.838  34.837  1.00  0.00    -0.248 NA
ATOM     58  C   UNL A   1      41.962  31.556  36.972  1.00  0.00     0.031 C 
ATOM     59  C   UNL A   1      43.473  27.663  32.554  1.00  0.00     0.029 A 
ATOM     60  C   UNL A   1      42.823  28.645  33.286  1.00  0.00     0.049 A 
ATOM     61  H   UNL A   1      41.108  29.762  32.769  1.00  0.00     0.167 HD
ATOM     62  C   UNL A   1      42.473  30.136  35.243  1.00  0.00     0.074 A 
ATOM     63  C   UNL A   1      42.830  30.649  36.550  1.00  0.00     0.031 C 
ATOM     64  C   UNL A   1      43.159  29.160  34.593  1.00  0.00     0.034 A 
BRANCH  51  65
ATOM     65  C   UNL A   1      40.813  27.657  29.048  1.00  0.00     0.023 A 
ATOM     66  C   UNL A   1      41.747  27.862  28.015  1.00  0.00     0.031 A 
ATOM     67  C   UNL A   1      39.900  26.600  28.904  1.00  0.00     0.131 A 
ATOM     68  C   UNL A   1      41.698  27.072  26.858  1.00  0.00     0.055 A 
ATOM     69  C   UNL A   1      39.914  25.759  27.790  1.00  0.00     0.041 A 
ATOM     70  F   UNL A   1      38.965  26.371  29.841  1.00  0.00    -0.206 F 
ATOM     71  C   UNL A   1      40.807  26.002  26.750  1.00  0.00     0.022 A 
BRANCH  68  72
ATOM     72  S   UNL A   1      42.709  27.558  25.433  1.00  0.00     0.124 S 
ATOM     73  O   UNL A   1      42.676  26.343  24.621  1.00  0.00    -0.237 OA
ATOM     74  O   UNL A   1      41.979  28.702  24.901  1.00  0.00    -0.237 OA
ATOM     75  O   UNL A   1      44.009  27.866  26.025  1.00  0.00    -0.744 OA
ENDBRANCH  68  72
ENDBRANCH  51  65
BRANCH  52  76
ATOM     76  C   UNL A   1      39.788  33.525  37.138  1.00  0.00     0.023 A 
ATOM     77  C   UNL A   1      39.250  32.980  38.316  1.00  0.00     0.031 A 
ATOM     78  C   UNL A   1      40.119  34.891  37.138  1.00  0.00     0.131 A 
ATOM     79  C   UNL A   1      39.015  33.807  39.426  1.00  0.00     0.055 A 
ATOM     80  C   UNL A   1      39.941  35.696  38.265  1.00  0.00     0.041 A 
ATOM     81  F   UNL A   1      40.637  35.464  36.040  1.00  0.00    -0.206 F 
ATOM     82  C   UNL A   1      39.372  35.157  39.414  1.00  0.00     0.022 A 
BRANCH  79  83
ATOM     83  S   UNL A   1      38.145  33.113  40.859  1.00  0.00     0.124 S 
ATOM     84  O   UNL A   1      38.924  33.651  41.968  1.00  0.00    -0.237 OA
ATOM     85  O   UNL A   1      36.801  33.659  40.692  1.00  0.00    -0.237 OA
ATOM     86  O   UNL A   1      38.258  31.670  40.657  1.00  0.00    -0.744 OA
ENDBRANCH  79  83
ENDBRANCH  52  76
BRANCH  64  87
ATOM     87  C   UNL A   1      44.397  28.619  35.270  1.00  0.00     0.023 A 
ATOM     88  C   UNL A   1      44.357  27.480  36.091  1.00  0.00     0.031 A 
ATOM     89  C   UNL A   1      45.636  29.263  35.090  1.00  0.00     0.131 A 
ATOM     90  C   UNL A   1      45.519  27.057  36.754  1.00  0.00     0.055 A 
ATOM     91  C   UNL A   1      46.802  28.792  35.691  1.00  0.00     0.041 A 
ATOM     92  F   UNL A   1      45.732  30.358  34.320  1.00  0.00    -0.206 F 
ATOM     93  C   UNL A   1      46.746  27.691  36.542  1.00  0.00     0.022 A 
BRANCH  90  94
ATOM     94  S   UNL A   1      45.384  25.734  37.986  1.00  0.00     0.124 S 
ATOM     95  O   UNL A   1      45.674  26.447  39.227  1.00  0.00    -0.237 OA
ATOM     96  O   UNL A   1      44.006  25.286  37.815  1.00  0.00    -0.237 OA
ATOM     97  O   UNL A   1      46.404  24.772  37.571  1.00  0.00    -0.744 OA
ENDBRANCH  90  94
ENDBRANCH  64  87
ENDBRANCH  38  39
ENDBRANCH  30  33
ENDBRANCH  28  29
ENDBRANCH  27  28
ENDBRANCH  26  27
ENDBRANCH   1  26
TORSDOF 19
ENDMDL
