MODEL 1
REMARK VINA RESULT:     -10.6      0.000      0.000
REMARK SMILES C/C(=C\C(=O)NCCCCCCNC(=O)c1ccc(-c2c3nc(c(-c4cc(S(=O)(=O)[O-])ccc4F)c4ccc([nH]4)c(-c4cc(S(=O)(=O)[O-])ccc4F)c4nc(c(-c5cc(S(=O)(=O)[O-])ccc5F)c5ccc2[nH]5)C=C4)C=C3)cc1)CSc1ccc(N)c(C)c1
REMARK SMILES IDX 9 1 8 2 7 3 6 4 4 5 5 6 3 8 1 9 2 10 79 11 80 12 81 13 82 14
REMARK SMILES IDX 88 15 83 16 86 17 84 18 87 19 85 20 10 23 11 24 12 25 13 26
REMARK SMILES IDX 14 27 15 29 16 30 17 31 78 32 18 33 77 34 19 35 20 36 21 37
REMARK SMILES IDX 71 38 22 39 76 40 70 41 72 42 23 43 75 44 69 45 68 46 24 48
REMARK SMILES IDX 56 49 36 50 55 51 37 52 40 53 54 54 73 55 38 56 39 57 53 59
REMARK SMILES IDX 74 60 41 61 25 62 26 63 34 64 27 65 33 66 35 67 32 68 28 69
REMARK SMILES IDX 29 70 30 71 31 72 57 73 58 74 66 75 59 76 65 77 67 78 64 79
REMARK SMILES IDX 60 80 61 81 62 82 63 83 42 84 43 85 51 86 44 87 50 88 52 89
REMARK SMILES IDX 49 90 45 91 46 92 47 93 48 94
REMARK H PARENT 6 7 85 21 85 22 13 28 72 47 40 58
REMARK Flexibility Score: inf
ROOT
ATOM      1  C   UNL A   1      32.883  27.762  26.064  1.00  0.00     0.002 C 
ENDROOT
BRANCH   1   2
ATOM      2  C   UNL A   1      31.579  27.378  26.773  1.00  0.00     0.021 C 
BRANCH   2   3
ATOM      3  C   UNL A   1      30.855  26.203  26.115  1.00  0.00     0.116 C 
BRANCH   3   4
ATOM      4  N   UNL A   1      31.019  24.977  26.856  1.00  0.00    -0.353 N 
ATOM      5  C   UNL A   1      31.798  23.889  26.722  1.00  0.00     0.243 C 
ATOM      6  O   UNL A   1      31.727  23.055  27.634  1.00  0.00    -0.270 OA
ATOM      7  H   UNL A   1      30.425  24.923  27.638  1.00  0.00     0.163 HD
BRANCH   5   8
ATOM      8  C   UNL A   1      32.695  23.545  25.581  1.00  0.00     0.071 C 
ATOM      9  C   UNL A   1      34.965  24.736  25.574  1.00  0.00     0.040 C 
ATOM     10  C   UNL A   1      33.899  23.832  25.033  1.00  0.00    -0.058 C 
BRANCH  10  11
ATOM     11  C   UNL A   1      34.231  23.202  23.685  1.00  0.00     0.105 C 
BRANCH  11  12
ATOM     12  S   UNL A   1      32.965  23.499  22.391  1.00  0.00    -0.122 SA
BRANCH  12  13
ATOM     13  C   UNL A   1      32.613  25.246  22.486  1.00  0.00     0.008 A 
ATOM     14  C   UNL A   1      31.279  25.646  22.431  1.00  0.00     0.017 A 
ATOM     15  C   UNL A   1      33.591  26.241  22.496  1.00  0.00     0.020 A 
ATOM     16  C   UNL A   1      30.939  27.003  22.432  1.00  0.00     0.027 A 
ATOM     17  C   UNL A   1      33.266  27.610  22.537  1.00  0.00    -0.027 A 
ATOM     18  C   UNL A   1      31.919  27.997  22.519  1.00  0.00     0.034 A 
ATOM     19  C   UNL A   1      34.384  28.615  22.582  1.00  0.00     0.046 C 
BRANCH  18  20
ATOM     20  N   UNL A   1      31.544  29.330  22.467  1.00  0.00    -0.399 N 
ATOM     21  H   UNL A   1      32.229  30.031  22.370  1.00  0.00     0.156 HD
ATOM     22  H   UNL A   1      30.592  29.576  22.524  1.00  0.00     0.156 HD
ENDBRANCH  18  20
ENDBRANCH  12  13
ENDBRANCH  11  12
ENDBRANCH  10  11
ENDBRANCH   5   8
ENDBRANCH   3   4
ENDBRANCH   2   3
ENDBRANCH   1   2
BRANCH   1  23
ATOM     23  C   UNL A   1      33.520  29.073  26.546  1.00  0.00     0.002 C 
BRANCH  23  24
ATOM     24  C   UNL A   1      32.900  30.352  25.973  1.00  0.00     0.021 C 
BRANCH  24  25
ATOM     25  C   UNL A   1      31.952  31.076  26.924  1.00  0.00     0.116 C 
BRANCH  25  26
ATOM     26  N   UNL A   1      32.150  32.516  26.875  1.00  0.00    -0.352 N 
ATOM     27  C   UNL A   1      33.071  33.295  27.526  1.00  0.00     0.251 C 
ATOM     28  H   UNL A   1      31.530  33.004  26.286  1.00  0.00     0.163 HD
ATOM     29  O   UNL A   1      32.893  34.509  27.592  1.00  0.00    -0.269 OA
BRANCH  27  30
ATOM     30  C   UNL A   1      34.269  32.681  28.141  1.00  0.00     0.039 A 
ATOM     31  C   UNL A   1      34.108  31.575  28.981  1.00  0.00     0.014 A 
ATOM     32  C   UNL A   1      35.539  33.232  27.946  1.00  0.00     0.014 A 
ATOM     33  C   UNL A   1      35.224  31.006  29.599  1.00  0.00     0.010 A 
ATOM     34  C   UNL A   1      36.658  32.620  28.505  1.00  0.00     0.010 A 
ATOM     35  C   UNL A   1      36.510  31.515  29.355  1.00  0.00    -0.014 A 
BRANCH  35  36
ATOM     36  C   UNL A   1      37.704  30.936  30.024  1.00  0.00     0.031 A 
ATOM     37  C   UNL A   1      38.032  31.331  31.440  1.00  0.00     0.074 A 
ATOM     38  C   UNL A   1      38.510  30.096  29.347  1.00  0.00     0.049 A 
ATOM     39  N   UNL A   1      39.057  30.993  32.180  1.00  0.00    -0.248 NA
ATOM     40  C   UNL A   1      37.097  32.257  32.098  1.00  0.00     0.031 C 
ATOM     41  C   UNL A   1      38.311  29.671  27.960  1.00  0.00     0.029 A 
ATOM     42  N   UNL A   1      39.660  29.453  29.729  1.00  0.00    -0.354 N 
ATOM     43  C   UNL A   1      38.897  31.674  33.383  1.00  0.00     0.074 A 
ATOM     44  C   UNL A   1      37.713  32.494  33.246  1.00  0.00     0.031 C 
ATOM     45  C   UNL A   1      39.291  28.819  27.617  1.00  0.00     0.029 A 
ATOM     46  C   UNL A   1      40.210  28.668  28.742  1.00  0.00     0.049 A 
ATOM     47  H   UNL A   1      40.055  29.545  30.627  1.00  0.00     0.167 HD
ATOM     48  C   UNL A   1      39.655  31.602  34.507  1.00  0.00     0.034 A 
ATOM     49  C   UNL A   1      41.329  27.918  28.744  1.00  0.00     0.034 A 
ATOM     50  C   UNL A   1      40.824  30.765  34.629  1.00  0.00     0.049 A 
ATOM     51  C   UNL A   1      42.157  27.856  30.004  1.00  0.00     0.074 A 
ATOM     52  C   UNL A   1      41.646  30.584  35.728  1.00  0.00     0.029 A 
ATOM     53  N   UNL A   1      41.340  29.969  33.613  1.00  0.00    -0.354 N 
ATOM     54  N   UNL A   1      41.971  28.475  31.147  1.00  0.00    -0.248 NA
ATOM     55  C   UNL A   1      43.334  26.979  29.977  1.00  0.00     0.031 C 
ATOM     56  C   UNL A   1      42.689  29.726  35.360  1.00  0.00     0.029 A 
ATOM     57  C   UNL A   1      42.477  29.310  34.054  1.00  0.00     0.049 A 
ATOM     58  H   UNL A   1      40.953  29.884  32.712  1.00  0.00     0.167 HD
ATOM     59  C   UNL A   1      42.987  28.029  31.988  1.00  0.00     0.074 A 
ATOM     60  C   UNL A   1      43.771  27.081  31.222  1.00  0.00     0.031 C 
ATOM     61  C   UNL A   1      43.248  28.369  33.277  1.00  0.00     0.034 A 
BRANCH  48  62
ATOM     62  C   UNL A   1      39.247  32.470  35.675  1.00  0.00     0.023 A 
ATOM     63  C   UNL A   1      39.662  33.810  35.781  1.00  0.00     0.031 A 
ATOM     64  C   UNL A   1      38.459  31.945  36.715  1.00  0.00     0.131 A 
ATOM     65  C   UNL A   1      39.359  34.551  36.932  1.00  0.00     0.055 A 
ATOM     66  C   UNL A   1      38.088  32.716  37.820  1.00  0.00     0.041 A 
ATOM     67  F   UNL A   1      38.049  30.668  36.683  1.00  0.00    -0.206 F 
ATOM     68  C   UNL A   1      38.552  34.022  37.941  1.00  0.00     0.022 A 
BRANCH  65  69
ATOM     69  S   UNL A   1      40.157  36.165  37.159  1.00  0.00     0.124 S 
ATOM     70  O   UNL A   1      39.980  36.769  35.842  1.00  0.00    -0.237 OA
ATOM     71  O   UNL A   1      39.379  36.752  38.244  1.00  0.00    -0.237 OA
ATOM     72  O   UNL A   1      41.537  35.820  37.497  1.00  0.00    -0.744 OA
ENDBRANCH  65  69
ENDBRANCH  48  62
BRANCH  49  73
ATOM     73  C   UNL A   1      41.735  27.160  27.526  1.00  0.00     0.023 A 
ATOM     74  C   UNL A   1      41.565  25.768  27.452  1.00  0.00     0.031 A 
ATOM     75  C   UNL A   1      42.342  27.808  26.436  1.00  0.00     0.131 A 
ATOM     76  C   UNL A   1      42.045  25.063  26.336  1.00  0.00     0.055 A 
ATOM     77  C   UNL A   1      42.768  27.109  25.305  1.00  0.00     0.041 A 
ATOM     78  F   UNL A   1      42.521  29.139  26.451  1.00  0.00    -0.206 F 
ATOM     79  C   UNL A   1      42.634  25.725  25.258  1.00  0.00     0.022 A 
BRANCH  76  80
ATOM     80  S   UNL A   1      41.970  23.250  26.359  1.00  0.00     0.124 S 
ATOM     81  O   UNL A   1      42.554  22.912  25.066  1.00  0.00    -0.237 OA
ATOM     82  O   UNL A   1      42.778  22.930  27.532  1.00  0.00    -0.237 OA
ATOM     83  O   UNL A   1      40.542  22.971  26.493  1.00  0.00    -0.744 OA
ENDBRANCH  76  80
ENDBRANCH  49  73
BRANCH  61  84
ATOM     84  C   UNL A   1      44.395  27.657  33.951  1.00  0.00     0.023 A 
ATOM     85  C   UNL A   1      44.215  26.446  34.642  1.00  0.00     0.031 A 
ATOM     86  C   UNL A   1      45.686  28.214  33.918  1.00  0.00     0.131 A 
ATOM     87  C   UNL A   1      45.294  25.866  35.328  1.00  0.00     0.055 A 
ATOM     88  C   UNL A   1      46.769  27.599  34.549  1.00  0.00     0.041 A 
ATOM     89  F   UNL A   1      45.916  29.370  33.274  1.00  0.00    -0.206 F 
ATOM     90  C   UNL A   1      46.572  26.427  35.272  1.00  0.00     0.022 A 
BRANCH  87  91
ATOM     91  S   UNL A   1      44.980  24.425  36.385  1.00  0.00     0.124 S 
ATOM     92  O   UNL A   1      46.332  24.014  36.746  1.00  0.00    -0.237 OA
ATOM     93  O   UNL A   1      44.180  24.998  37.462  1.00  0.00    -0.237 OA
ATOM     94  O   UNL A   1      44.266  23.504  35.505  1.00  0.00    -0.744 OA
ENDBRANCH  87  91
ENDBRANCH  61  84
ENDBRANCH  35  36
ENDBRANCH  27  30
ENDBRANCH  25  26
ENDBRANCH  24  25
ENDBRANCH  23  24
ENDBRANCH   1  23
TORSDOF 20
ENDMDL
MODEL 2
REMARK VINA RESULT:     -10.4      2.345      8.253
REMARK SMILES C/C(=C\C(=O)NCCCCCCNC(=O)c1ccc(-c2c3nc(c(-c4cc(S(=O)(=O)[O-])ccc4F)c4ccc([nH]4)c(-c4cc(S(=O)(=O)[O-])ccc4F)c4nc(c(-c5cc(S(=O)(=O)[O-])ccc5F)c5ccc2[nH]5)C=C4)C=C3)cc1)CSc1ccc(N)c(C)c1
REMARK SMILES IDX 9 1 8 2 7 3 6 4 4 5 5 6 3 8 1 9 2 10 79 11 80 12 81 13 82 14
REMARK SMILES IDX 88 15 83 16 86 17 84 18 87 19 85 20 10 23 11 24 12 25 13 26
REMARK SMILES IDX 14 27 15 29 16 30 17 31 78 32 18 33 77 34 19 35 20 36 21 37
REMARK SMILES IDX 71 38 22 39 76 40 70 41 72 42 23 43 75 44 69 45 68 46 24 48
REMARK SMILES IDX 56 49 36 50 55 51 37 52 40 53 54 54 73 55 38 56 39 57 53 59
REMARK SMILES IDX 74 60 41 61 25 62 26 63 34 64 27 65 33 66 35 67 32 68 28 69
REMARK SMILES IDX 29 70 30 71 31 72 57 73 58 74 66 75 59 76 65 77 67 78 64 79
REMARK SMILES IDX 60 80 61 81 62 82 63 83 42 84 43 85 51 86 44 87 50 88 52 89
REMARK SMILES IDX 49 90 45 91 46 92 47 93 48 94
REMARK H PARENT 6 7 85 21 85 22 13 28 72 47 40 58
REMARK Flexibility Score: inf
ROOT
ATOM      1  C   UNL A   1      32.603  30.115  25.948  1.00  0.00     0.002 C 
ENDROOT
BRANCH   1   2
ATOM      2  C   UNL A   1      32.510  28.586  25.869  1.00  0.00     0.021 C 
BRANCH   2   3
ATOM      3  C   UNL A   1      31.969  27.946  27.148  1.00  0.00     0.116 C 
BRANCH   3   4
ATOM      4  N   UNL A   1      31.125  26.809  26.874  1.00  0.00    -0.353 N 
ATOM      5  C   UNL A   1      31.342  25.553  26.444  1.00  0.00     0.243 C 
ATOM      6  O   UNL A   1      30.352  24.811  26.420  1.00  0.00    -0.270 OA
ATOM      7  H   UNL A   1      30.173  26.995  27.038  1.00  0.00     0.163 HD
BRANCH   5   8
ATOM      8  C   UNL A   1      32.619  24.968  25.944  1.00  0.00     0.071 C 
ATOM      9  C   UNL A   1      33.332  25.737  23.605  1.00  0.00     0.040 C 
ATOM     10  C   UNL A   1      33.445  24.944  24.872  1.00  0.00    -0.058 C 
BRANCH  10  11
ATOM     11  C   UNL A   1      34.625  23.980  24.910  1.00  0.00     0.105 C 
BRANCH  11  12
ATOM     12  S   UNL A   1      34.391  22.560  26.047  1.00  0.00    -0.122 SA
BRANCH  12  13
ATOM     13  C   UNL A   1      33.794  21.236  25.011  1.00  0.00     0.008 A 
ATOM     14  C   UNL A   1      32.728  21.510  24.154  1.00  0.00     0.017 A 
ATOM     15  C   UNL A   1      34.246  19.918  25.086  1.00  0.00     0.020 A 
ATOM     16  C   UNL A   1      32.168  20.500  23.365  1.00  0.00     0.027 A 
ATOM     17  C   UNL A   1      33.719  18.899  24.272  1.00  0.00    -0.027 A 
ATOM     18  C   UNL A   1      32.674  19.196  23.387  1.00  0.00     0.034 A 
ATOM     19  C   UNL A   1      34.291  17.513  24.393  1.00  0.00     0.046 C 
BRANCH  18  20
ATOM     20  N   UNL A   1      32.059  18.214  22.627  1.00  0.00    -0.399 N 
ATOM     21  H   UNL A   1      31.171  17.877  22.885  1.00  0.00     0.156 HD
ATOM     22  H   UNL A   1      32.509  17.854  21.829  1.00  0.00     0.156 HD
ENDBRANCH  18  20
ENDBRANCH  12  13
ENDBRANCH  11  12
ENDBRANCH  10  11
ENDBRANCH   5   8
ENDBRANCH   3   4
ENDBRANCH   2   3
ENDBRANCH   1   2
BRANCH   1  23
ATOM     23  C   UNL A   1      31.255  30.848  25.911  1.00  0.00     0.002 C 
BRANCH  23  24
ATOM     24  C   UNL A   1      31.250  32.245  26.539  1.00  0.00     0.021 C 
BRANCH  24  25
ATOM     25  C   UNL A   1      32.568  32.650  27.192  1.00  0.00     0.116 C 
BRANCH  25  26
ATOM     26  N   UNL A   1      32.553  34.047  27.592  1.00  0.00    -0.352 N 
ATOM     27  C   UNL A   1      33.196  34.666  28.634  1.00  0.00     0.251 C 
ATOM     28  H   UNL A   1      31.998  34.638  27.032  1.00  0.00     0.163 HD
ATOM     29  O   UNL A   1      32.827  35.782  28.990  1.00  0.00    -0.269 OA
BRANCH  27  30
ATOM     30  C   UNL A   1      34.322  33.998  29.321  1.00  0.00     0.039 A 
ATOM     31  C   UNL A   1      34.051  33.132  30.384  1.00  0.00     0.014 A 
ATOM     32  C   UNL A   1      35.646  34.272  28.963  1.00  0.00     0.014 A 
ATOM     33  C   UNL A   1      35.105  32.521  31.068  1.00  0.00     0.010 A 
ATOM     34  C   UNL A   1      36.692  33.607  29.598  1.00  0.00     0.010 A 
ATOM     35  C   UNL A   1      36.434  32.743  30.672  1.00  0.00    -0.014 A 
BRANCH  35  36
ATOM     36  C   UNL A   1      37.567  32.119  31.403  1.00  0.00     0.031 A 
ATOM     37  C   UNL A   1      38.369  31.027  30.745  1.00  0.00     0.074 A 
ATOM     38  C   UNL A   1      37.843  32.502  32.664  1.00  0.00     0.049 A 
ATOM     39  N   UNL A   1      39.352  30.311  31.231  1.00  0.00    -0.248 NA
ATOM     40  C   UNL A   1      37.993  30.672  29.368  1.00  0.00     0.031 C 
ATOM     41  C   UNL A   1      37.110  33.524  33.415  1.00  0.00     0.029 A 
ATOM     42  N   UNL A   1      38.808  32.075  33.541  1.00  0.00    -0.354 N 
ATOM     43  C   UNL A   1      39.701  29.415  30.225  1.00  0.00     0.074 A 
ATOM     44  C   UNL A   1      38.780  29.634  29.131  1.00  0.00     0.031 C 
ATOM     45  C   UNL A   1      37.668  33.662  34.629  1.00  0.00     0.029 A 
ATOM     46  C   UNL A   1      38.770  32.713  34.759  1.00  0.00     0.049 A 
ATOM     47  H   UNL A   1      39.466  31.377  33.318  1.00  0.00     0.167 HD
ATOM     48  C   UNL A   1      40.712  28.509  30.208  1.00  0.00     0.034 A 
ATOM     49  C   UNL A   1      39.534  32.546  35.856  1.00  0.00     0.034 A 
ATOM     50  C   UNL A   1      41.629  28.317  31.305  1.00  0.00     0.049 A 
ATOM     51  C   UNL A   1      40.649  31.531  35.815  1.00  0.00     0.074 A 
ATOM     52  C   UNL A   1      42.711  27.457  31.385  1.00  0.00     0.029 A 
ATOM     53  N   UNL A   1      41.571  28.995  32.517  1.00  0.00    -0.354 N 
ATOM     54  N   UNL A   1      40.992  30.718  34.842  1.00  0.00    -0.248 NA
ATOM     55  C   UNL A   1      41.492  31.427  37.013  1.00  0.00     0.031 C 
ATOM     56  C   UNL A   1      43.270  27.573  32.664  1.00  0.00     0.029 A 
ATOM     57  C   UNL A   1      42.586  28.560  33.356  1.00  0.00     0.049 A 
ATOM     58  H   UNL A   1      40.907  29.684  32.745  1.00  0.00     0.167 HD
ATOM     59  C   UNL A   1      42.116  30.034  35.299  1.00  0.00     0.074 A 
ATOM     60  C   UNL A   1      42.397  30.542  36.627  1.00  0.00     0.031 C 
ATOM     61  C   UNL A   1      42.851  29.076  34.678  1.00  0.00     0.034 A 
BRANCH  48  62
ATOM     62  C   UNL A   1      40.853  27.650  28.972  1.00  0.00     0.023 A 
ATOM     63  C   UNL A   1      41.792  27.948  27.969  1.00  0.00     0.031 A 
ATOM     64  C   UNL A   1      40.017  26.536  28.778  1.00  0.00     0.131 A 
ATOM     65  C   UNL A   1      41.819  27.196  26.785  1.00  0.00     0.055 A 
ATOM     66  C   UNL A   1      40.107  25.739  27.634  1.00  0.00     0.041 A 
ATOM     67  F   UNL A   1      39.086  26.212  29.689  1.00  0.00    -0.206 F 
ATOM     68  C   UNL A   1      41.000  26.076  26.621  1.00  0.00     0.022 A 
BRANCH  65  69
ATOM     69  S   UNL A   1      42.833  27.790  25.403  1.00  0.00     0.124 S 
ATOM     70  O   UNL A   1      42.925  26.593  24.571  1.00  0.00    -0.237 OA
ATOM     71  O   UNL A   1      42.028  28.882  24.868  1.00  0.00    -0.237 OA
ATOM     72  O   UNL A   1      44.084  28.192  26.044  1.00  0.00    -0.744 OA
ENDBRANCH  65  69
ENDBRANCH  48  62
BRANCH  49  73
ATOM     73  C   UNL A   1      39.284  33.354  37.084  1.00  0.00     0.023 A 
ATOM     74  C   UNL A   1      39.944  34.575  37.292  1.00  0.00     0.031 A 
ATOM     75  C   UNL A   1      38.414  32.896  38.090  1.00  0.00     0.131 A 
ATOM     76  C   UNL A   1      39.768  35.271  38.500  1.00  0.00     0.055 A 
ATOM     77  C   UNL A   1      38.200  33.618  39.266  1.00  0.00     0.041 A 
ATOM     78  F   UNL A   1      37.750  31.739  37.939  1.00  0.00    -0.206 F 
ATOM     79  C   UNL A   1      38.891  34.806  39.482  1.00  0.00     0.022 A 
BRANCH  76  80
ATOM     80  S   UNL A   1      40.776  36.747  38.805  1.00  0.00     0.124 S 
ATOM     81  O   UNL A   1      39.756  37.778  38.960  1.00  0.00    -0.237 OA
ATOM     82  O   UNL A   1      41.500  36.374  40.016  1.00  0.00    -0.237 OA
ATOM     83  O   UNL A   1      41.595  36.854  37.599  1.00  0.00    -0.744 OA
ENDBRANCH  76  80
ENDBRANCH  49  73
BRANCH  61  84
ATOM     84  C   UNL A   1      44.068  28.567  35.412  1.00  0.00     0.023 A 
ATOM     85  C   UNL A   1      43.989  27.511  36.337  1.00  0.00     0.031 A 
ATOM     86  C   UNL A   1      45.322  29.164  35.195  1.00  0.00     0.131 A 
ATOM     87  C   UNL A   1      45.130  27.130  37.060  1.00  0.00     0.055 A 
ATOM     88  C   UNL A   1      46.467  28.738  35.870  1.00  0.00     0.041 A 
ATOM     89  F   UNL A   1      45.455  30.178  34.323  1.00  0.00    -0.206 F 
ATOM     90  C   UNL A   1      46.371  27.727  36.820  1.00  0.00     0.022 A 
BRANCH  87  91
ATOM     91  S   UNL A   1      44.949  25.917  38.396  1.00  0.00     0.124 S 
ATOM     92  O   UNL A   1      44.266  24.820  37.719  1.00  0.00    -0.237 OA
ATOM     93  O   UNL A   1      46.334  25.665  38.778  1.00  0.00    -0.237 OA
ATOM     94  O   UNL A   1      44.149  26.623  39.395  1.00  0.00    -0.744 OA
ENDBRANCH  87  91
ENDBRANCH  61  84
ENDBRANCH  35  36
ENDBRANCH  27  30
ENDBRANCH  25  26
ENDBRANCH  24  25
ENDBRANCH  23  24
ENDBRANCH   1  23
TORSDOF 20
ENDMDL
MODEL 3
REMARK VINA RESULT:     -10.4      2.696      3.647
REMARK SMILES C/C(=C\C(=O)NCCCCCCNC(=O)c1ccc(-c2c3nc(c(-c4cc(S(=O)(=O)[O-])ccc4F)c4ccc([nH]4)c(-c4cc(S(=O)(=O)[O-])ccc4F)c4nc(c(-c5cc(S(=O)(=O)[O-])ccc5F)c5ccc2[nH]5)C=C4)C=C3)cc1)CSc1ccc(N)c(C)c1
REMARK SMILES IDX 9 1 8 2 7 3 6 4 4 5 5 6 3 8 1 9 2 10 79 11 80 12 81 13 82 14
REMARK SMILES IDX 88 15 83 16 86 17 84 18 87 19 85 20 10 23 11 24 12 25 13 26
REMARK SMILES IDX 14 27 15 29 16 30 17 31 78 32 18 33 77 34 19 35 20 36 21 37
REMARK SMILES IDX 71 38 22 39 76 40 70 41 72 42 23 43 75 44 69 45 68 46 24 48
REMARK SMILES IDX 56 49 36 50 55 51 37 52 40 53 54 54 73 55 38 56 39 57 53 59
REMARK SMILES IDX 74 60 41 61 25 62 26 63 34 64 27 65 33 66 35 67 32 68 28 69
REMARK SMILES IDX 29 70 30 71 31 72 57 73 58 74 66 75 59 76 65 77 67 78 64 79
REMARK SMILES IDX 60 80 61 81 62 82 63 83 42 84 43 85 51 86 44 87 50 88 52 89
REMARK SMILES IDX 49 90 45 91 46 92 47 93 48 94
REMARK H PARENT 6 7 85 21 85 22 13 28 72 47 40 58
REMARK Flexibility Score: inf
ROOT
ATOM      1  C   UNL A   1      34.981  31.745  28.402  1.00  0.00     0.002 C 
ENDROOT
BRANCH   1   2
ATOM      2  C   UNL A   1      34.715  30.801  27.223  1.00  0.00     0.021 C 
BRANCH   2   3
ATOM      3  C   UNL A   1      34.678  29.326  27.624  1.00  0.00     0.116 C 
BRANCH   3   4
ATOM      4  N   UNL A   1      33.342  28.878  27.928  1.00  0.00    -0.353 N 
ATOM      5  C   UNL A   1      32.429  28.126  27.288  1.00  0.00     0.243 C 
ATOM      6  O   UNL A   1      31.398  27.868  27.923  1.00  0.00    -0.270 OA
ATOM      7  H   UNL A   1      33.025  29.195  28.804  1.00  0.00     0.163 HD
BRANCH   5   8
ATOM      8  C   UNL A   1      32.489  27.613  25.888  1.00  0.00     0.071 C 
ATOM      9  C   UNL A   1      34.228  25.777  25.469  1.00  0.00     0.040 C 
ATOM     10  C   UNL A   1      33.154  26.751  25.086  1.00  0.00    -0.058 C 
BRANCH  10  11
ATOM     11  C   UNL A   1      32.820  26.767  23.599  1.00  0.00     0.105 C 
BRANCH  11  12
ATOM     12  S   UNL A   1      32.389  28.428  22.950  1.00  0.00    -0.122 SA
BRANCH  12  13
ATOM     13  C   UNL A   1      30.612  28.522  23.074  1.00  0.00     0.008 A 
ATOM     14  C   UNL A   1      29.909  27.333  23.269  1.00  0.00     0.017 A 
ATOM     15  C   UNL A   1      29.874  29.689  22.873  1.00  0.00     0.020 A 
ATOM     16  C   UNL A   1      28.511  27.329  23.307  1.00  0.00     0.027 A 
ATOM     17  C   UNL A   1      28.469  29.708  22.946  1.00  0.00    -0.027 A 
ATOM     18  C   UNL A   1      27.776  28.512  23.181  1.00  0.00     0.034 A 
ATOM     19  C   UNL A   1      27.755  31.018  22.752  1.00  0.00     0.046 C 
BRANCH  18  20
ATOM     20  N   UNL A   1      26.392  28.457  23.174  1.00  0.00    -0.399 N 
ATOM     21  H   UNL A   1      25.926  27.742  23.665  1.00  0.00     0.156 HD
ATOM     22  H   UNL A   1      25.874  29.133  22.679  1.00  0.00     0.156 HD
ENDBRANCH  18  20
ENDBRANCH  12  13
ENDBRANCH  11  12
ENDBRANCH  10  11
ENDBRANCH   5   8
ENDBRANCH   3   4
ENDBRANCH   2   3
ENDBRANCH   1   2
BRANCH   1  23
ATOM     23  C   UNL A   1      35.645  33.078  28.027  1.00  0.00     0.002 C 
BRANCH  23  24
ATOM     24  C   UNL A   1      34.728  34.304  28.075  1.00  0.00     0.021 C 
BRANCH  24  25
ATOM     25  C   UNL A   1      33.308  34.013  28.551  1.00  0.00     0.116 C 
BRANCH  25  26
ATOM     26  N   UNL A   1      32.905  34.931  29.604  1.00  0.00    -0.352 N 
ATOM     27  C   UNL A   1      33.283  34.970  30.922  1.00  0.00     0.251 C 
ATOM     28  H   UNL A   1      32.264  35.627  29.331  1.00  0.00     0.163 HD
ATOM     29  O   UNL A   1      32.614  35.622  31.720  1.00  0.00    -0.269 OA
BRANCH  27  30
ATOM     30  C   UNL A   1      34.484  34.237  31.378  1.00  0.00     0.039 A 
ATOM     31  C   UNL A   1      35.737  34.847  31.257  1.00  0.00     0.014 A 
ATOM     32  C   UNL A   1      34.388  32.929  31.860  1.00  0.00     0.014 A 
ATOM     33  C   UNL A   1      36.886  34.155  31.647  1.00  0.00     0.010 A 
ATOM     34  C   UNL A   1      35.526  32.268  32.316  1.00  0.00     0.010 A 
ATOM     35  C   UNL A   1      36.788  32.865  32.193  1.00  0.00    -0.014 A 
BRANCH  35  36
ATOM     36  C   UNL A   1      38.002  32.107  32.591  1.00  0.00     0.031 A 
ATOM     37  C   UNL A   1      38.699  32.438  33.885  1.00  0.00     0.074 A 
ATOM     38  C   UNL A   1      38.498  31.158  31.774  1.00  0.00     0.049 A 
ATOM     39  N   UNL A   1      39.803  31.943  34.385  1.00  0.00    -0.248 NA
ATOM     40  C   UNL A   1      38.087  33.491  34.711  1.00  0.00     0.031 C 
ATOM     41  C   UNL A   1      37.929  30.777  30.480  1.00  0.00     0.029 A 
ATOM     42  N   UNL A   1      39.596  30.345  31.905  1.00  0.00    -0.354 N 
ATOM     43  C   UNL A   1      40.024  32.632  35.573  1.00  0.00     0.074 A 
ATOM     44  C   UNL A   1      38.977  33.624  35.683  1.00  0.00     0.031 C 
ATOM     45  C   UNL A   1      38.666  29.788  29.950  1.00  0.00     0.029 A 
ATOM     46  C   UNL A   1      39.783  29.492  30.843  1.00  0.00     0.049 A 
ATOM     47  H   UNL A   1      40.194  30.370  32.688  1.00  0.00     0.167 HD
ATOM     48  C   UNL A   1      40.998  32.439  36.498  1.00  0.00     0.034 A 
ATOM     49  C   UNL A   1      40.748  28.580  30.614  1.00  0.00     0.034 A 
ATOM     50  C   UNL A   1      42.025  31.433  36.377  1.00  0.00     0.049 A 
ATOM     51  C   UNL A   1      41.822  28.385  31.655  1.00  0.00     0.074 A 
ATOM     52  C   UNL A   1      43.039  31.122  37.267  1.00  0.00     0.029 A 
ATOM     53  N   UNL A   1      42.172  30.574  35.295  1.00  0.00    -0.354 N 
ATOM     54  N   UNL A   1      41.995  29.018  32.793  1.00  0.00    -0.248 NA
ATOM     55  C   UNL A   1      42.817  27.339  31.389  1.00  0.00     0.031 C 
ATOM     56  C   UNL A   1      43.831  30.118  36.698  1.00  0.00     0.029 A 
ATOM     57  C   UNL A   1      43.268  29.747  35.486  1.00  0.00     0.049 A 
ATOM     58  H   UNL A   1      41.582  30.555  34.507  1.00  0.00     0.167 HD
ATOM     59  C   UNL A   1      43.097  28.417  33.395  1.00  0.00     0.074 A 
ATOM     60  C   UNL A   1      43.536  27.365  32.500  1.00  0.00     0.031 C 
ATOM     61  C   UNL A   1      43.692  28.704  34.582  1.00  0.00     0.034 A 
BRANCH  48  62
ATOM     62  C   UNL A   1      41.001  33.351  37.704  1.00  0.00     0.023 A 
ATOM     63  C   UNL A   1      40.249  33.057  38.856  1.00  0.00     0.031 A 
ATOM     64  C   UNL A   1      41.740  34.547  37.691  1.00  0.00     0.131 A 
ATOM     65  C   UNL A   1      40.188  33.981  39.909  1.00  0.00     0.055 A 
ATOM     66  C   UNL A   1      41.743  35.424  38.780  1.00  0.00     0.041 A 
ATOM     67  F   UNL A   1      42.461  34.895  36.614  1.00  0.00    -0.206 F 
ATOM     68  C   UNL A   1      40.950  35.151  39.891  1.00  0.00     0.022 A 
BRANCH  65  69
ATOM     69  S   UNL A   1      38.982  33.703  41.236  1.00  0.00     0.124 S 
ATOM     70  O   UNL A   1      39.856  33.508  42.390  1.00  0.00    -0.237 OA
ATOM     71  O   UNL A   1      38.206  34.937  41.222  1.00  0.00    -0.237 OA
ATOM     72  O   UNL A   1      38.262  32.508  40.800  1.00  0.00    -0.744 OA
ENDBRANCH  65  69
ENDBRANCH  48  62
BRANCH  49  73
ATOM     73  C   UNL A   1      40.749  27.776  29.358  1.00  0.00     0.023 A 
ATOM     74  C   UNL A   1      41.663  28.047  28.327  1.00  0.00     0.031 A 
ATOM     75  C   UNL A   1      39.805  26.755  29.150  1.00  0.00     0.131 A 
ATOM     76  C   UNL A   1      41.580  27.342  27.115  1.00  0.00     0.055 A 
ATOM     77  C   UNL A   1      39.762  26.019  27.963  1.00  0.00     0.041 A 
ATOM     78  F   UNL A   1      38.913  26.449  30.106  1.00  0.00    -0.206 F 
ATOM     79  C   UNL A   1      40.644  26.323  26.932  1.00  0.00     0.022 A 
BRANCH  76  80
ATOM     80  S   UNL A   1      42.659  27.844  25.745  1.00  0.00     0.124 S 
ATOM     81  O   UNL A   1      43.983  27.666  26.328  1.00  0.00    -0.237 OA
ATOM     82  O   UNL A   1      42.283  26.895  24.702  1.00  0.00    -0.237 OA
ATOM     83  O   UNL A   1      42.267  29.230  25.496  1.00  0.00    -0.744 OA
ENDBRANCH  76  80
ENDBRANCH  49  73
BRANCH  61  84
ATOM     84  C   UNL A   1      44.843  27.821  35.000  1.00  0.00     0.023 A 
ATOM     85  C   UNL A   1      44.650  26.674  35.790  1.00  0.00     0.031 A 
ATOM     86  C   UNL A   1      46.156  28.149  34.618  1.00  0.00     0.131 A 
ATOM     87  C   UNL A   1      45.759  25.934  36.228  1.00  0.00     0.055 A 
ATOM     88  C   UNL A   1      47.249  27.372  35.004  1.00  0.00     0.041 A 
ATOM     89  F   UNL A   1      46.398  29.235  33.866  1.00  0.00    -0.206 F 
ATOM     90  C   UNL A   1      47.056  26.267  35.826  1.00  0.00     0.022 A 
BRANCH  87  91
ATOM     91  S   UNL A   1      45.494  24.591  37.418  1.00  0.00     0.124 S 
ATOM     92  O   UNL A   1      45.613  23.408  36.573  1.00  0.00    -0.237 OA
ATOM     93  O   UNL A   1      46.578  24.803  38.372  1.00  0.00    -0.237 OA
ATOM     94  O   UNL A   1      44.153  24.851  37.936  1.00  0.00    -0.744 OA
ENDBRANCH  87  91
ENDBRANCH  61  84
ENDBRANCH  35  36
ENDBRANCH  27  30
ENDBRANCH  25  26
ENDBRANCH  24  25
ENDBRANCH  23  24
ENDBRANCH   1  23
TORSDOF 20
ENDMDL
