MODEL 1
REMARK VINA RESULT:     -12.1      0.000      0.000
REMARK SMILES O=C(NCCCCCCNC(=O)c1cc2c(c(S(=O)(=O)Nc3cc(C(F)(F)F)ccc3-n3cccn3)c1)CCC2)c1ccc(-c2c3nc(c(-c4cc(S(=O)(=O)[O-])ccc4F)c4ccc([nH]4)c(-c4cc(S(=O)(=O)[O-])ccc4F)c4nc(c(-c5cc(S(=O)(=O)[O-])ccc5F)c5ccc2[nH]5)C=C4)C=C3)cc1
REMARK SMILES IDX 7 1 6 2 5 3 4 4 3 5 1 6 2 7 41 9 42 10 103 11 43 12 102 13
REMARK SMILES IDX 44 14 45 15 46 16 96 17 47 18 101 19 95 20 97 21 48 22
REMARK SMILES IDX 100 23 94 24 93 25 49 27 81 28 61 29 80 30 62 31 65 32 79 33
REMARK SMILES IDX 98 34 63 35 64 36 78 38 99 39 66 40 50 41 51 42 59 43 52 44
REMARK SMILES IDX 58 45 60 46 57 47 53 48 54 49 55 50 56 51 82 52 83 53 91 54
REMARK SMILES IDX 84 55 90 56 92 57 89 58 85 59 86 60 87 61 88 62 67 63 68 64
REMARK SMILES IDX 76 65 69 66 75 67 77 68 74 69 70 70 71 71 72 72 73 73 8 74
REMARK SMILES IDX 9 75 10 76 11 77 12 79 13 80 14 81 37 82 15 83 17 84 16 85
REMARK SMILES IDX 40 86 38 87 39 88 18 89 19 90 20 91 21 92 22 94 23 95 31 96
REMARK SMILES IDX 24 97 30 98 29 99 32 100 33 101 36 102 34 103 35 104 25 105
REMARK SMILES IDX 26 106 27 107 28 108
REMARK H PARENT 3 8 97 26 65 37 10 78 21 93
REMARK Flexibility Score: inf
ROOT
ATOM      1  C   UNL A   1      38.765  23.214  26.492  1.00  0.00     0.002 C 
ENDROOT
BRANCH   1   2
ATOM      2  C   UNL A   1      39.467  21.908  26.093  1.00  0.00     0.002 C 
BRANCH   2   3
ATOM      3  C   UNL A   1      40.286  21.210  27.188  1.00  0.00     0.021 C 
BRANCH   3   4
ATOM      4  C   UNL A   1      41.655  21.827  27.465  1.00  0.00     0.116 C 
BRANCH   4   5
ATOM      5  N   UNL A   1      42.304  22.384  26.297  1.00  0.00    -0.352 N 
ATOM      6  O   UNL A   1      43.370  23.679  24.866  1.00  0.00    -0.269 OA
ATOM      7  C   UNL A   1      42.790  23.615  25.955  1.00  0.00     0.251 C 
ATOM      8  H   UNL A   1      42.425  21.719  25.581  1.00  0.00     0.163 HD
BRANCH   7   9
ATOM      9  C   UNL A   1      42.630  24.861  26.756  1.00  0.00     0.039 A 
ATOM     10  C   UNL A   1      43.449  25.266  27.810  1.00  0.00     0.014 A 
ATOM     11  C   UNL A   1      41.558  25.696  26.384  1.00  0.00     0.014 A 
ATOM     12  C   UNL A   1      43.166  26.439  28.514  1.00  0.00     0.010 A 
ATOM     13  C   UNL A   1      41.281  26.874  27.075  1.00  0.00     0.010 A 
ATOM     14  C   UNL A   1      42.072  27.236  28.160  1.00  0.00    -0.014 A 
BRANCH  14  15
ATOM     15  C   UNL A   1      41.901  28.524  28.840  1.00  0.00     0.031 A 
ATOM     16  C   UNL A   1      42.856  29.593  28.414  1.00  0.00     0.074 A 
ATOM     17  C   UNL A   1      40.879  28.818  29.672  1.00  0.00     0.049 A 
ATOM     18  N   UNL A   1      43.695  30.262  29.139  1.00  0.00    -0.248 NA
ATOM     19  C   UNL A   1      42.950  29.891  26.976  1.00  0.00     0.031 C 
ATOM     20  C   UNL A   1      39.703  28.003  29.982  1.00  0.00     0.029 A 
ATOM     21  N   UNL A   1      40.635  29.979  30.351  1.00  0.00    -0.354 N 
ATOM     22  C   UNL A   1      44.298  31.190  28.289  1.00  0.00     0.074 A 
ATOM     23  C   UNL A   1      43.897  30.829  26.954  1.00  0.00     0.031 C 
ATOM     24  C   UNL A   1      38.778  28.770  30.606  1.00  0.00     0.029 A 
ATOM     25  C   UNL A   1      39.344  30.085  30.863  1.00  0.00     0.049 A 
ATOM     26  H   UNL A   1      41.315  30.680  30.469  1.00  0.00     0.167 HD
ATOM     27  C   UNL A   1      44.957  32.288  28.759  1.00  0.00     0.034 A 
ATOM     28  C   UNL A   1      38.759  31.185  31.411  1.00  0.00     0.034 A 
ATOM     29  C   UNL A   1      45.342  32.119  30.138  1.00  0.00     0.049 A 
ATOM     30  C   UNL A   1      39.849  32.084  31.859  1.00  0.00     0.074 A 
ATOM     31  C   UNL A   1      46.150  31.221  30.807  1.00  0.00     0.029 A 
ATOM     32  N   UNL A   1      44.585  32.723  31.115  1.00  0.00    -0.354 N 
ATOM     33  N   UNL A   1      40.678  31.783  32.819  1.00  0.00    -0.248 NA
ATOM     34  C   UNL A   1      40.314  33.111  30.939  1.00  0.00     0.031 C 
ATOM     35  C   UNL A   1      45.464  30.955  32.030  1.00  0.00     0.029 A 
ATOM     36  C   UNL A   1      44.325  31.761  32.063  1.00  0.00     0.049 A 
ATOM     37  H   UNL A   1      44.288  33.661  31.133  1.00  0.00     0.167 HD
ATOM     38  C   UNL A   1      41.911  32.243  32.385  1.00  0.00     0.074 A 
ATOM     39  C   UNL A   1      41.608  33.137  31.270  1.00  0.00     0.031 C 
ATOM     40  C   UNL A   1      43.075  31.651  32.789  1.00  0.00     0.034 A 
BRANCH  27  41
ATOM     41  C   UNL A   1      45.024  33.626  28.057  1.00  0.00     0.023 A 
ATOM     42  C   UNL A   1      44.070  34.609  28.388  1.00  0.00     0.031 A 
ATOM     43  C   UNL A   1      45.796  33.889  26.902  1.00  0.00     0.131 A 
ATOM     44  C   UNL A   1      43.872  35.737  27.568  1.00  0.00     0.055 A 
ATOM     45  C   UNL A   1      45.643  35.042  26.126  1.00  0.00     0.041 A 
ATOM     46  F   UNL A   1      46.671  33.005  26.405  1.00  0.00    -0.206 F 
ATOM     47  C   UNL A   1      44.659  35.962  26.441  1.00  0.00     0.022 A 
BRANCH  44  48
ATOM     48  S   UNL A   1      42.458  36.823  27.899  1.00  0.00     0.124 S 
ATOM     49  O   UNL A   1      42.924  37.577  29.057  1.00  0.00    -0.237 OA
ATOM     50  O   UNL A   1      42.350  37.565  26.647  1.00  0.00    -0.237 OA
ATOM     51  O   UNL A   1      41.366  35.888  28.163  1.00  0.00    -0.744 OA
ENDBRANCH  44  48
ENDBRANCH  27  41
BRANCH  28  52
ATOM     52  C   UNL A   1      37.348  31.636  31.244  1.00  0.00     0.023 A 
ATOM     53  C   UNL A   1      36.590  32.216  32.286  1.00  0.00     0.031 A 
ATOM     54  C   UNL A   1      36.803  31.720  29.944  1.00  0.00     0.131 A 
ATOM     55  C   UNL A   1      35.348  32.836  32.003  1.00  0.00     0.055 A 
ATOM     56  C   UNL A   1      35.577  32.330  29.671  1.00  0.00     0.041 A 
ATOM     57  F   UNL A   1      37.490  31.285  28.875  1.00  0.00    -0.206 F 
ATOM     58  C   UNL A   1      34.847  32.900  30.700  1.00  0.00     0.022 A 
BRANCH  55  59
ATOM     59  S   UNL A   1      34.394  33.660  33.323  1.00  0.00     0.124 S 
ATOM     60  O   UNL A   1      34.472  35.063  32.934  1.00  0.00    -0.237 OA
ATOM     61  O   UNL A   1      33.087  33.026  33.209  1.00  0.00    -0.237 OA
ATOM     62  O   UNL A   1      35.132  33.321  34.541  1.00  0.00    -0.744 OA
ENDBRANCH  55  59
ENDBRANCH  28  52
BRANCH  40  63
ATOM     63  C   UNL A   1      43.017  30.640  33.921  1.00  0.00     0.023 A 
ATOM     64  C   UNL A   1      42.402  29.367  33.837  1.00  0.00     0.031 A 
ATOM     65  C   UNL A   1      43.726  30.940  35.098  1.00  0.00     0.131 A 
ATOM     66  C   UNL A   1      42.501  28.460  34.913  1.00  0.00     0.055 A 
ATOM     67  C   UNL A   1      43.840  30.032  36.151  1.00  0.00     0.041 A 
ATOM     68  F   UNL A   1      44.357  32.118  35.232  1.00  0.00    -0.206 F 
ATOM     69  C   UNL A   1      43.221  28.791  36.064  1.00  0.00     0.022 A 
BRANCH  66  70
ATOM     70  S   UNL A   1      41.684  26.832  34.839  1.00  0.00     0.124 S 
ATOM     71  O   UNL A   1      40.603  27.035  33.882  1.00  0.00    -0.237 OA
ATOM     72  O   UNL A   1      42.768  25.953  34.407  1.00  0.00    -0.237 OA
ATOM     73  O   UNL A   1      41.242  26.611  36.217  1.00  0.00    -0.744 OA
ENDBRANCH  66  70
ENDBRANCH  40  63
ENDBRANCH  14  15
ENDBRANCH   7   9
ENDBRANCH   4   5
ENDBRANCH   3   4
ENDBRANCH   2   3
ENDBRANCH   1   2
BRANCH   1  74
ATOM     74  C   UNL A   1      37.732  23.749  25.500  1.00  0.00     0.021 C 
BRANCH  74  75
ATOM     75  C   UNL A   1      36.273  23.506  25.876  1.00  0.00     0.116 C 
BRANCH  75  76
ATOM     76  N   UNL A   1      35.647  22.427  25.112  1.00  0.00    -0.352 N 
ATOM     77  C   UNL A   1      34.381  22.371  24.556  1.00  0.00     0.251 C 
ATOM     78  H   UNL A   1      36.205  21.628  24.974  1.00  0.00     0.163 HD
ATOM     79  O   UNL A   1      33.954  21.339  24.052  1.00  0.00    -0.269 OA
BRANCH  77  80
ATOM     80  C   UNL A   1      33.518  23.576  24.613  1.00  0.00     0.041 A 
ATOM     81  C   UNL A   1      32.608  23.690  25.660  1.00  0.00     0.018 A 
ATOM     82  C   UNL A   1      33.516  24.500  23.545  1.00  0.00     0.036 A 
ATOM     83  C   UNL A   1      31.544  24.543  25.475  1.00  0.00    -0.043 A 
ATOM     84  C   UNL A   1      32.467  25.436  23.406  1.00  0.00     0.092 A 
ATOM     85  C   UNL A   1      31.423  25.343  24.320  1.00  0.00    -0.024 A 
ATOM     86  C   UNL A   1      30.317  24.604  26.335  1.00  0.00     0.036 C 
ATOM     87  C   UNL A   1      30.005  25.819  24.263  1.00  0.00     0.037 C 
ATOM     88  C   UNL A   1      29.643  25.842  25.751  1.00  0.00     0.010 C 
BRANCH  84  89
ATOM     89  S   UNL A   1      32.418  26.442  21.935  1.00  0.00     0.262 S 
ATOM     90  O   UNL A   1      33.553  26.053  21.115  1.00  0.00    -0.201 OA
ATOM     91  O   UNL A   1      31.083  26.352  21.386  1.00  0.00    -0.201 OA
BRANCH  89  92
ATOM     92  N   UNL A   1      32.704  28.105  22.221  1.00  0.00    -0.277 N 
ATOM     93  H   UNL A   1      33.584  28.480  21.988  1.00  0.00     0.180 HD
BRANCH  92  94
ATOM     94  C   UNL A   1      31.713  28.977  22.784  1.00  0.00     0.075 A 
ATOM     95  C   UNL A   1      30.726  29.519  21.941  1.00  0.00     0.042 A 
ATOM     96  C   UNL A   1      31.629  29.196  24.168  1.00  0.00     0.089 A 
ATOM     97  C   UNL A   1      29.619  30.213  22.476  1.00  0.00     0.058 A 
ATOM     98  C   UNL A   1      30.550  29.919  24.700  1.00  0.00     0.031 A 
ATOM     99  C   UNL A   1      29.555  30.427  23.860  1.00  0.00     0.015 A 
BRANCH  96 100
ATOM    100  N   UNL A   1      32.573  28.633  25.060  1.00  0.00    -0.239 N 
ATOM    101  C   UNL A   1      32.353  28.108  26.314  1.00  0.00     0.115 A 
ATOM    102  N   UNL A   1      33.896  28.670  24.769  1.00  0.00    -0.177 NA
ATOM    103  C   UNL A   1      33.577  28.026  26.930  1.00  0.00     0.042 A 
ATOM    104  C   UNL A   1      34.490  28.428  25.942  1.00  0.00     0.135 A 
ENDBRANCH  96 100
BRANCH  97 105
ATOM    105  C   UNL A   1      28.478  30.639  21.579  1.00  0.00     0.416 C 
ATOM    106  F   UNL A   1      27.688  29.596  21.208  1.00  0.00    -0.166 F 
ATOM    107  F   UNL A   1      27.653  31.539  22.184  1.00  0.00    -0.166 F 
ATOM    108  F   UNL A   1      28.887  31.233  20.423  1.00  0.00    -0.166 F 
ENDBRANCH  97 105
ENDBRANCH  92  94
ENDBRANCH  89  92
ENDBRANCH  84  89
ENDBRANCH  77  80
ENDBRANCH  75  76
ENDBRANCH  74  75
ENDBRANCH   1  74
TORSDOF 21
ENDMDL
MODEL 2
REMARK VINA RESULT:     -11.8      4.259      9.860
REMARK SMILES O=C(NCCCCCCNC(=O)c1cc2c(c(S(=O)(=O)Nc3cc(C(F)(F)F)ccc3-n3cccn3)c1)CCC2)c1ccc(-c2c3nc(c(-c4cc(S(=O)(=O)[O-])ccc4F)c4ccc([nH]4)c(-c4cc(S(=O)(=O)[O-])ccc4F)c4nc(c(-c5cc(S(=O)(=O)[O-])ccc5F)c5ccc2[nH]5)C=C4)C=C3)cc1
REMARK SMILES IDX 7 1 6 2 5 3 4 4 3 5 1 6 2 7 41 9 42 10 103 11 43 12 102 13
REMARK SMILES IDX 44 14 45 15 46 16 96 17 47 18 101 19 95 20 97 21 48 22
REMARK SMILES IDX 100 23 94 24 93 25 49 27 81 28 61 29 80 30 62 31 65 32 79 33
REMARK SMILES IDX 98 34 63 35 64 36 78 38 99 39 66 40 50 41 51 42 59 43 52 44
REMARK SMILES IDX 58 45 60 46 57 47 53 48 54 49 55 50 56 51 82 52 83 53 91 54
REMARK SMILES IDX 84 55 90 56 92 57 89 58 85 59 86 60 87 61 88 62 67 63 68 64
REMARK SMILES IDX 76 65 69 66 75 67 77 68 74 69 70 70 71 71 72 72 73 73 8 74
REMARK SMILES IDX 9 75 10 76 11 77 12 79 13 80 14 81 37 82 15 83 17 84 16 85
REMARK SMILES IDX 40 86 38 87 39 88 18 89 19 90 20 91 21 92 22 94 23 95 31 96
REMARK SMILES IDX 24 97 30 98 29 99 32 100 33 101 36 102 34 103 35 104 25 105
REMARK SMILES IDX 26 106 27 107 28 108
REMARK H PARENT 3 8 97 26 65 37 10 78 21 93
REMARK Flexibility Score: inf
ROOT
ATOM      1  C   UNL A   1      35.375  30.312  27.651  1.00  0.00     0.002 C 
ENDROOT
BRANCH   1   2
ATOM      2  C   UNL A   1      34.992  31.449  28.609  1.00  0.00     0.002 C 
BRANCH   2   3
ATOM      3  C   UNL A   1      35.318  31.231  30.094  1.00  0.00     0.021 C 
BRANCH   3   4
ATOM      4  C   UNL A   1      35.861  32.456  30.825  1.00  0.00     0.116 C 
BRANCH   4   5
ATOM      5  N   UNL A   1      36.727  33.293  30.021  1.00  0.00    -0.352 N 
ATOM      6  O   UNL A   1      38.337  34.081  28.737  1.00  0.00    -0.269 OA
ATOM      7  C   UNL A   1      37.954  33.139  29.439  1.00  0.00     0.251 C 
ATOM      8  H   UNL A   1      36.339  34.183  29.855  1.00  0.00     0.163 HD
BRANCH   7   9
ATOM      9  C   UNL A   1      38.858  31.970  29.625  1.00  0.00     0.039 A 
ATOM     10  C   UNL A   1      38.622  30.672  29.171  1.00  0.00     0.014 A 
ATOM     11  C   UNL A   1      40.062  32.229  30.309  1.00  0.00     0.014 A 
ATOM     12  C   UNL A   1      39.532  29.650  29.450  1.00  0.00     0.010 A 
ATOM     13  C   UNL A   1      40.979  31.214  30.576  1.00  0.00     0.010 A 
ATOM     14  C   UNL A   1      40.702  29.914  30.167  1.00  0.00    -0.014 A 
BRANCH  14  15
ATOM     15  C   UNL A   1      41.688  28.837  30.313  1.00  0.00     0.031 A 
ATOM     16  C   UNL A   1      42.059  28.509  31.724  1.00  0.00     0.074 A 
ATOM     17  C   UNL A   1      42.132  28.066  29.298  1.00  0.00     0.049 A 
ATOM     18  N   UNL A   1      43.229  28.531  32.277  1.00  0.00    -0.248 NA
ATOM     19  C   UNL A   1      40.967  28.206  32.664  1.00  0.00     0.031 C 
ATOM     20  C   UNL A   1      41.673  28.049  27.908  1.00  0.00     0.029 A 
ATOM     21  N   UNL A   1      43.045  27.049  29.330  1.00  0.00    -0.354 N 
ATOM     22  C   UNL A   1      43.057  28.072  33.584  1.00  0.00     0.074 A 
ATOM     23  C   UNL A   1      41.635  28.013  33.802  1.00  0.00     0.031 C 
ATOM     24  C   UNL A   1      42.145  26.940  27.293  1.00  0.00     0.029 A 
ATOM     25  C   UNL A   1      43.047  26.242  28.195  1.00  0.00     0.049 A 
ATOM     26  H   UNL A   1      43.648  26.899  30.093  1.00  0.00     0.167 HD
ATOM     27  C   UNL A   1      44.097  27.622  34.342  1.00  0.00     0.034 A 
ATOM     28  C   UNL A   1      43.701  25.060  28.022  1.00  0.00     0.034 A 
ATOM     29  C   UNL A   1      45.360  28.101  33.838  1.00  0.00     0.049 A 
ATOM     30  C   UNL A   1      44.808  25.023  29.005  1.00  0.00     0.074 A 
ATOM     31  C   UNL A   1      45.907  29.356  33.649  1.00  0.00     0.029 A 
ATOM     32  N   UNL A   1      46.138  27.252  33.087  1.00  0.00    -0.354 N 
ATOM     33  N   UNL A   1      45.827  25.835  28.969  1.00  0.00    -0.248 NA
ATOM     34  C   UNL A   1      44.561  24.397  30.295  1.00  0.00     0.031 C 
ATOM     35  C   UNL A   1      46.607  29.266  32.410  1.00  0.00     0.029 A 
ATOM     36  C   UNL A   1      46.508  27.948  31.960  1.00  0.00     0.049 A 
ATOM     37  H   UNL A   1      46.383  26.325  33.312  1.00  0.00     0.167 HD
ATOM     38  C   UNL A   1      46.073  26.160  30.293  1.00  0.00     0.074 A 
ATOM     39  C   UNL A   1      45.329  25.170  31.069  1.00  0.00     0.031 C 
ATOM     40  C   UNL A   1      46.633  27.357  30.641  1.00  0.00     0.034 A 
BRANCH  27  41
ATOM     41  C   UNL A   1      44.003  26.530  35.384  1.00  0.00     0.023 A 
ATOM     42  C   UNL A   1      44.360  26.835  36.713  1.00  0.00     0.031 A 
ATOM     43  C   UNL A   1      43.842  25.156  35.095  1.00  0.00     0.131 A 
ATOM     44  C   UNL A   1      44.602  25.816  37.654  1.00  0.00     0.055 A 
ATOM     45  C   UNL A   1      44.018  24.149  36.049  1.00  0.00     0.041 A 
ATOM     46  F   UNL A   1      43.601  24.705  33.858  1.00  0.00    -0.206 F 
ATOM     47  C   UNL A   1      44.426  24.472  37.330  1.00  0.00     0.022 A 
BRANCH  44  48
ATOM     48  S   UNL A   1      45.314  26.259  39.262  1.00  0.00     0.124 S 
ATOM     49  O   UNL A   1      45.921  24.999  39.677  1.00  0.00    -0.237 OA
ATOM     50  O   UNL A   1      46.235  27.330  38.899  1.00  0.00    -0.237 OA
ATOM     51  O   UNL A   1      44.152  26.677  40.044  1.00  0.00    -0.744 OA
ENDBRANCH  44  48
ENDBRANCH  27  41
BRANCH  28  52
ATOM     52  C   UNL A   1      43.202  23.850  27.308  1.00  0.00     0.023 A 
ATOM     53  C   UNL A   1      43.964  23.145  26.350  1.00  0.00     0.031 A 
ATOM     54  C   UNL A   1      42.022  23.221  27.764  1.00  0.00     0.131 A 
ATOM     55  C   UNL A   1      43.532  21.877  25.888  1.00  0.00     0.055 A 
ATOM     56  C   UNL A   1      41.600  21.973  27.303  1.00  0.00     0.041 A 
ATOM     57  F   UNL A   1      41.281  23.764  28.743  1.00  0.00    -0.206 F 
ATOM     58  C   UNL A   1      42.359  21.290  26.368  1.00  0.00     0.022 A 
BRANCH  55  59
ATOM     59  S   UNL A   1      44.545  20.918  24.710  1.00  0.00     0.124 S 
ATOM     60  O   UNL A   1      43.814  19.659  24.626  1.00  0.00    -0.237 OA
ATOM     61  O   UNL A   1      44.526  21.761  23.521  1.00  0.00    -0.237 OA
ATOM     62  O   UNL A   1      45.847  20.827  25.373  1.00  0.00    -0.744 OA
ENDBRANCH  55  59
ENDBRANCH  28  52
BRANCH  40  63
ATOM     63  C   UNL A   1      47.218  28.229  29.544  1.00  0.00     0.023 A 
ATOM     64  C   UNL A   1      46.462  29.070  28.690  1.00  0.00     0.031 A 
ATOM     65  C   UNL A   1      48.619  28.297  29.444  1.00  0.00     0.131 A 
ATOM     66  C   UNL A   1      47.115  29.921  27.775  1.00  0.00     0.055 A 
ATOM     67  C   UNL A   1      49.261  29.156  28.553  1.00  0.00     0.041 A 
ATOM     68  F   UNL A   1      49.396  27.548  30.243  1.00  0.00    -0.206 F 
ATOM     69  C   UNL A   1      48.511  29.967  27.710  1.00  0.00     0.022 A 
BRANCH  66  70
ATOM     70  S   UNL A   1      46.159  30.982  26.642  1.00  0.00     0.124 S 
ATOM     71  O   UNL A   1      46.217  30.268  25.373  1.00  0.00    -0.237 OA
ATOM     72  O   UNL A   1      44.849  31.037  27.289  1.00  0.00    -0.237 OA
ATOM     73  O   UNL A   1      46.893  32.248  26.662  1.00  0.00    -0.744 OA
ENDBRANCH  66  70
ENDBRANCH  40  63
ENDBRANCH  14  15
ENDBRANCH   7   9
ENDBRANCH   4   5
ENDBRANCH   3   4
ENDBRANCH   2   3
ENDBRANCH   1   2
BRANCH   1  74
ATOM     74  C   UNL A   1      34.379  29.157  27.551  1.00  0.00     0.021 C 
BRANCH  74  75
ATOM     75  C   UNL A   1      34.094  28.657  26.138  1.00  0.00     0.116 C 
BRANCH  75  76
ATOM     76  N   UNL A   1      32.707  28.856  25.719  1.00  0.00    -0.352 N 
ATOM     77  C   UNL A   1      31.869  27.995  25.032  1.00  0.00     0.251 C 
ATOM     78  H   UNL A   1      32.313  29.726  25.959  1.00  0.00     0.163 HD
ATOM     79  O   UNL A   1      30.767  28.360  24.638  1.00  0.00    -0.269 OA
BRANCH  77  80
ATOM     80  C   UNL A   1      32.341  26.620  24.734  1.00  0.00     0.041 A 
ATOM     81  C   UNL A   1      32.895  26.366  23.483  1.00  0.00     0.018 A 
ATOM     82  C   UNL A   1      32.086  25.570  25.643  1.00  0.00     0.036 A 
ATOM     83  C   UNL A   1      32.915  25.056  23.062  1.00  0.00    -0.043 A 
ATOM     84  C   UNL A   1      32.195  24.223  25.234  1.00  0.00     0.092 A 
ATOM     85  C   UNL A   1      32.485  24.000  23.892  1.00  0.00    -0.024 A 
ATOM     86  C   UNL A   1      33.197  24.595  21.663  1.00  0.00     0.036 C 
ATOM     87  C   UNL A   1      32.266  22.811  23.010  1.00  0.00     0.037 C 
ATOM     88  C   UNL A   1      33.271  23.089  21.888  1.00  0.00     0.010 C 
BRANCH  84  89
ATOM     89  S   UNL A   1      31.673  22.948  26.365  1.00  0.00     0.262 S 
ATOM     90  O   UNL A   1      31.358  23.600  27.626  1.00  0.00    -0.201 OA
ATOM     91  O   UNL A   1      30.657  22.161  25.702  1.00  0.00    -0.201 OA
BRANCH  89  92
ATOM     92  N   UNL A   1      32.916  21.854  26.800  1.00  0.00    -0.277 N 
ATOM     93  H   UNL A   1      32.795  21.295  27.602  1.00  0.00     0.180 HD
BRANCH  92  94
ATOM     94  C   UNL A   1      34.127  21.716  26.043  1.00  0.00     0.075 A 
ATOM     95  C   UNL A   1      35.154  22.659  26.226  1.00  0.00     0.042 A 
ATOM     96  C   UNL A   1      34.360  20.598  25.227  1.00  0.00     0.089 A 
ATOM     97  C   UNL A   1      36.432  22.457  25.662  1.00  0.00     0.058 A 
ATOM     98  C   UNL A   1      35.617  20.413  24.632  1.00  0.00     0.031 A 
ATOM     99  C   UNL A   1      36.644  21.336  24.845  1.00  0.00     0.015 A 
BRANCH  96 100
ATOM    100  N   UNL A   1      33.373  19.599  25.050  1.00  0.00    -0.239 N 
ATOM    101  C   UNL A   1      33.054  18.557  25.892  1.00  0.00     0.115 A 
ATOM    102  N   UNL A   1      32.680  19.519  23.888  1.00  0.00    -0.177 NA
ATOM    103  C   UNL A   1      32.317  17.663  25.155  1.00  0.00     0.042 A 
ATOM    104  C   UNL A   1      32.154  18.291  23.910  1.00  0.00     0.135 A 
ENDBRANCH  96 100
BRANCH  97 105
ATOM    105  C   UNL A   1      37.576  23.384  26.007  1.00  0.00     0.416 C 
ATOM    106  F   UNL A   1      37.364  24.067  27.163  1.00  0.00    -0.166 F 
ATOM    107  F   UNL A   1      38.751  22.715  26.176  1.00  0.00    -0.166 F 
ATOM    108  F   UNL A   1      37.822  24.324  25.052  1.00  0.00    -0.166 F 
ENDBRANCH  97 105
ENDBRANCH  92  94
ENDBRANCH  89  92
ENDBRANCH  84  89
ENDBRANCH  77  80
ENDBRANCH  75  76
ENDBRANCH  74  75
ENDBRANCH   1  74
TORSDOF 21
ENDMDL
MODEL 3
REMARK VINA RESULT:     -11.7      1.801      2.062
REMARK SMILES O=C(NCCCCCCNC(=O)c1cc2c(c(S(=O)(=O)Nc3cc(C(F)(F)F)ccc3-n3cccn3)c1)CCC2)c1ccc(-c2c3nc(c(-c4cc(S(=O)(=O)[O-])ccc4F)c4ccc([nH]4)c(-c4cc(S(=O)(=O)[O-])ccc4F)c4nc(c(-c5cc(S(=O)(=O)[O-])ccc5F)c5ccc2[nH]5)C=C4)C=C3)cc1
REMARK SMILES IDX 7 1 6 2 5 3 4 4 3 5 1 6 2 7 41 9 42 10 103 11 43 12 102 13
REMARK SMILES IDX 44 14 45 15 46 16 96 17 47 18 101 19 95 20 97 21 48 22
REMARK SMILES IDX 100 23 94 24 93 25 49 27 81 28 61 29 80 30 62 31 65 32 79 33
REMARK SMILES IDX 98 34 63 35 64 36 78 38 99 39 66 40 50 41 51 42 59 43 52 44
REMARK SMILES IDX 58 45 60 46 57 47 53 48 54 49 55 50 56 51 82 52 83 53 91 54
REMARK SMILES IDX 84 55 90 56 92 57 89 58 85 59 86 60 87 61 88 62 67 63 68 64
REMARK SMILES IDX 76 65 69 66 75 67 77 68 74 69 70 70 71 71 72 72 73 73 8 74
REMARK SMILES IDX 9 75 10 76 11 77 12 79 13 80 14 81 37 82 15 83 17 84 16 85
REMARK SMILES IDX 40 86 38 87 39 88 18 89 19 90 20 91 21 92 22 94 23 95 31 96
REMARK SMILES IDX 24 97 30 98 29 99 32 100 33 101 36 102 34 103 35 104 25 105
REMARK SMILES IDX 26 106 27 107 28 108
REMARK H PARENT 3 8 97 26 65 37 10 78 21 93
REMARK Flexibility Score: inf
ROOT
ATOM      1  C   UNL A   1      38.677  23.280  26.648  1.00  0.00     0.002 C 
ENDROOT
BRANCH   1   2
ATOM      2  C   UNL A   1      39.492  22.033  26.277  1.00  0.00     0.002 C 
BRANCH   2   3
ATOM      3  C   UNL A   1      40.342  21.414  27.397  1.00  0.00     0.021 C 
BRANCH   3   4
ATOM      4  C   UNL A   1      41.735  22.017  27.560  1.00  0.00     0.116 C 
BRANCH   4   5
ATOM      5  N   UNL A   1      42.300  22.548  26.337  1.00  0.00    -0.352 N 
ATOM      6  O   UNL A   1      43.256  23.815  24.805  1.00  0.00    -0.269 OA
ATOM      7  C   UNL A   1      42.749  23.775  25.932  1.00  0.00     0.251 C 
ATOM      8  H   UNL A   1      42.380  21.865  25.632  1.00  0.00     0.163 HD
BRANCH   7   9
ATOM      9  C   UNL A   1      42.630  25.039  26.709  1.00  0.00     0.039 A 
ATOM     10  C   UNL A   1      43.500  25.469  27.712  1.00  0.00     0.014 A 
ATOM     11  C   UNL A   1      41.541  25.867  26.371  1.00  0.00     0.014 A 
ATOM     12  C   UNL A   1      43.252  26.659  28.400  1.00  0.00     0.010 A 
ATOM     13  C   UNL A   1      41.299  27.062  27.046  1.00  0.00     0.010 A 
ATOM     14  C   UNL A   1      42.143  27.448  28.081  1.00  0.00    -0.014 A 
BRANCH  14  15
ATOM     15  C   UNL A   1      42.005  28.753  28.737  1.00  0.00     0.031 A 
ATOM     16  C   UNL A   1      42.953  29.805  28.253  1.00  0.00     0.074 A 
ATOM     17  C   UNL A   1      41.016  29.074  29.598  1.00  0.00     0.049 A 
ATOM     18  N   UNL A   1      43.821  30.482  28.932  1.00  0.00    -0.248 NA
ATOM     19  C   UNL A   1      42.997  30.069  26.806  1.00  0.00     0.031 C 
ATOM     20  C   UNL A   1      39.846  28.276  29.968  1.00  0.00     0.029 A 
ATOM     21  N   UNL A   1      40.805  30.252  30.260  1.00  0.00    -0.354 N 
ATOM     22  C   UNL A   1      44.401  31.386  28.041  1.00  0.00     0.074 A 
ATOM     23  C   UNL A   1      43.950  30.998  26.730  1.00  0.00     0.031 C 
ATOM     24  C   UNL A   1      38.950  29.064  30.607  1.00  0.00     0.029 A 
ATOM     25  C   UNL A   1      39.534  30.380  30.814  1.00  0.00     0.049 A 
ATOM     26  H   UNL A   1      41.494  30.950  30.337  1.00  0.00     0.167 HD
ATOM     27  C   UNL A   1      45.084  32.489  28.462  1.00  0.00     0.034 A 
ATOM     28  C   UNL A   1      38.978  31.497  31.358  1.00  0.00     0.034 A 
ATOM     29  C   UNL A   1      45.517  32.348  29.829  1.00  0.00     0.049 A 
ATOM     30  C   UNL A   1      40.090  32.397  31.745  1.00  0.00     0.074 A 
ATOM     31  C   UNL A   1      46.342  31.458  30.490  1.00  0.00     0.029 A 
ATOM     32  N   UNL A   1      44.801  32.980  30.819  1.00  0.00    -0.354 N 
ATOM     33  N   UNL A   1      40.950  32.111  32.682  1.00  0.00    -0.248 NA
ATOM     34  C   UNL A   1      40.528  33.399  30.787  1.00  0.00     0.031 C 
ATOM     35  C   UNL A   1      45.699  31.226  31.742  1.00  0.00     0.029 A 
ATOM     36  C   UNL A   1      44.567  32.042  31.797  1.00  0.00     0.049 A 
ATOM     37  H   UNL A   1      44.512  33.921  30.826  1.00  0.00     0.167 HD
ATOM     38  C   UNL A   1      42.170  32.550  32.194  1.00  0.00     0.074 A 
ATOM     39  C   UNL A   1      41.834  33.422  31.071  1.00  0.00     0.031 C 
ATOM     40  C   UNL A   1      43.343  31.958  32.570  1.00  0.00     0.034 A 
BRANCH  27  41
ATOM     41  C   UNL A   1      45.136  33.810  27.727  1.00  0.00     0.023 A 
ATOM     42  C   UNL A   1      46.367  34.230  27.183  1.00  0.00     0.031 A 
ATOM     43  C   UNL A   1      44.119  34.791  27.767  1.00  0.00     0.131 A 
ATOM     44  C   UNL A   1      46.566  35.563  26.776  1.00  0.00     0.055 A 
ATOM     45  C   UNL A   1      44.299  36.097  27.300  1.00  0.00     0.041 A 
ATOM     46  F   UNL A   1      42.931  34.572  28.343  1.00  0.00    -0.206 F 
ATOM     47  C   UNL A   1      45.535  36.499  26.826  1.00  0.00     0.022 A 
BRANCH  44  48
ATOM     48  S   UNL A   1      48.239  36.106  26.337  1.00  0.00     0.124 S 
ATOM     49  O   UNL A   1      48.041  37.531  26.104  1.00  0.00    -0.237 OA
ATOM     50  O   UNL A   1      48.995  35.747  27.533  1.00  0.00    -0.237 OA
ATOM     51  O   UNL A   1      48.551  35.318  25.147  1.00  0.00    -0.744 OA
ENDBRANCH  44  48
ENDBRANCH  27  41
BRANCH  28  52
ATOM     52  C   UNL A   1      37.564  31.955  31.231  1.00  0.00     0.023 A 
ATOM     53  C   UNL A   1      36.935  32.194  29.990  1.00  0.00     0.031 A 
ATOM     54  C   UNL A   1      36.727  31.923  32.369  1.00  0.00     0.131 A 
ATOM     55  C   UNL A   1      35.533  32.394  29.928  1.00  0.00     0.055 A 
ATOM     56  C   UNL A   1      35.348  32.123  32.303  1.00  0.00     0.041 A 
ATOM     57  F   UNL A   1      37.215  31.607  33.579  1.00  0.00    -0.206 F 
ATOM     58  C   UNL A   1      34.742  32.351  31.079  1.00  0.00     0.022 A 
BRANCH  55  59
ATOM     59  S   UNL A   1      34.693  32.626  28.325  1.00  0.00     0.124 S 
ATOM     60  O   UNL A   1      33.747  33.695  28.621  1.00  0.00    -0.237 OA
ATOM     61  O   UNL A   1      35.798  32.963  27.437  1.00  0.00    -0.237 OA
ATOM     62  O   UNL A   1      34.080  31.321  28.068  1.00  0.00    -0.744 OA
ENDBRANCH  55  59
ENDBRANCH  28  52
BRANCH  40  63
ATOM     63  C   UNL A   1      43.319  30.973  33.726  1.00  0.00     0.023 A 
ATOM     64  C   UNL A   1      43.075  29.584  33.599  1.00  0.00     0.031 A 
ATOM     65  C   UNL A   1      43.680  31.453  34.997  1.00  0.00     0.131 A 
ATOM     66  C   UNL A   1      43.184  28.740  34.724  1.00  0.00     0.055 A 
ATOM     67  C   UNL A   1      43.807  30.613  36.103  1.00  0.00     0.041 A 
ATOM     68  F   UNL A   1      43.952  32.756  35.182  1.00  0.00    -0.206 F 
ATOM     69  C   UNL A   1      43.552  29.253  35.971  1.00  0.00     0.022 A 
BRANCH  66  70
ATOM     70  S   UNL A   1      42.837  26.956  34.588  1.00  0.00     0.124 S 
ATOM     71  O   UNL A   1      41.397  26.870  34.798  1.00  0.00    -0.237 OA
ATOM     72  O   UNL A   1      43.310  26.642  33.241  1.00  0.00    -0.237 OA
ATOM     73  O   UNL A   1      43.644  26.371  35.661  1.00  0.00    -0.744 OA
ENDBRANCH  66  70
ENDBRANCH  40  63
ENDBRANCH  14  15
ENDBRANCH   7   9
ENDBRANCH   4   5
ENDBRANCH   3   4
ENDBRANCH   2   3
ENDBRANCH   1   2
BRANCH   1  74
ATOM     74  C   UNL A   1      37.660  23.749  25.607  1.00  0.00     0.021 C 
BRANCH  74  75
ATOM     75  C   UNL A   1      36.198  23.490  25.956  1.00  0.00     0.116 C 
BRANCH  75  76
ATOM     76  N   UNL A   1      35.592  22.419  25.164  1.00  0.00    -0.352 N 
ATOM     77  C   UNL A   1      34.339  22.366  24.579  1.00  0.00     0.251 C 
ATOM     78  H   UNL A   1      36.156  21.623  25.027  1.00  0.00     0.163 HD
ATOM     79  O   UNL A   1      33.927  21.338  24.052  1.00  0.00    -0.269 OA
BRANCH  77  80
ATOM     80  C   UNL A   1      33.470  23.567  24.634  1.00  0.00     0.041 A 
ATOM     81  C   UNL A   1      32.549  23.672  25.672  1.00  0.00     0.018 A 
ATOM     82  C   UNL A   1      33.474  24.495  23.570  1.00  0.00     0.036 A 
ATOM     83  C   UNL A   1      31.484  24.521  25.481  1.00  0.00    -0.043 A 
ATOM     84  C   UNL A   1      32.423  25.428  23.426  1.00  0.00     0.092 A 
ATOM     85  C   UNL A   1      31.370  25.326  24.328  1.00  0.00    -0.024 A 
ATOM     86  C   UNL A   1      30.248  24.573  26.329  1.00  0.00     0.036 C 
ATOM     87  C   UNL A   1      29.951  25.796  24.259  1.00  0.00     0.037 C 
ATOM     88  C   UNL A   1      29.575  25.810  25.744  1.00  0.00     0.010 C 
BRANCH  84  89
ATOM     89  S   UNL A   1      32.384  26.441  21.959  1.00  0.00     0.262 S 
ATOM     90  O   UNL A   1      33.517  26.045  21.138  1.00  0.00    -0.201 OA
ATOM     91  O   UNL A   1      31.049  26.365  21.408  1.00  0.00    -0.201 OA
BRANCH  89  92
ATOM     92  N   UNL A   1      32.685  28.100  22.252  1.00  0.00    -0.277 N 
ATOM     93  H   UNL A   1      33.573  28.465  22.036  1.00  0.00     0.180 HD
BRANCH  92  94
ATOM     94  C   UNL A   1      31.694  28.983  22.799  1.00  0.00     0.075 A 
ATOM     95  C   UNL A   1      30.723  29.530  21.943  1.00  0.00     0.042 A 
ATOM     96  C   UNL A   1      31.595  29.208  24.182  1.00  0.00     0.089 A 
ATOM     97  C   UNL A   1      29.615  30.236  22.460  1.00  0.00     0.058 A 
ATOM     98  C   UNL A   1      30.516  29.942  24.697  1.00  0.00     0.031 A 
ATOM     99  C   UNL A   1      29.536  30.455  23.843  1.00  0.00     0.015 A 
BRANCH  96 100
ATOM    100  N   UNL A   1      32.522  28.639  25.088  1.00  0.00    -0.239 N 
ATOM    101  C   UNL A   1      32.273  28.063  26.313  1.00  0.00     0.115 A 
ATOM    102  N   UNL A   1      33.853  28.725  24.848  1.00  0.00    -0.177 NA
ATOM    103  C   UNL A   1      33.477  27.994  26.971  1.00  0.00     0.042 A 
ATOM    104  C   UNL A   1      34.412  28.458  26.032  1.00  0.00     0.135 A 
ENDBRANCH  96 100
BRANCH  97 105
ATOM    105  C   UNL A   1      28.489  30.668  21.548  1.00  0.00     0.416 C 
ATOM    106  F   UNL A   1      28.937  31.147  20.357  1.00  0.00    -0.166 F 
ATOM    107  F   UNL A   1      27.645  29.642  21.247  1.00  0.00    -0.166 F 
ATOM    108  F   UNL A   1      27.705  31.648  22.078  1.00  0.00    -0.166 F 
ENDBRANCH  97 105
ENDBRANCH  92  94
ENDBRANCH  89  92
ENDBRANCH  84  89
ENDBRANCH  77  80
ENDBRANCH  75  76
ENDBRANCH  74  75
ENDBRANCH   1  74
TORSDOF 21
ENDMDL
