MODEL 1
REMARK VINA RESULT:     -11.2      0.000      0.000
REMARK SMILES O=C(NCCCCCCNC(=O)c1sccc1NS(=O)(=O)N1CCCC1)c1ccc(-c2c3nc(c(-c4cc(S(=O)(=O)[O-])ccc4F)c4ccc([nH]4)c(-c4cc(S(=O)(=O)[O-])ccc4F)c4nc(c(-c5cc(S(=O)(=O)[O-])ccc5F)c5ccc2[nH]5)C=C4)C=C3)cc1
REMARK SMILES IDX 6 1 5 2 4 3 3 4 1 5 2 6 27 8 28 9 89 10 29 11 88 12 30 13
REMARK SMILES IDX 31 14 32 15 82 16 33 17 87 18 81 19 83 20 34 21 86 22 80 23
REMARK SMILES IDX 79 24 35 26 67 27 47 28 66 29 48 30 51 31 65 32 84 33 49 34
REMARK SMILES IDX 50 35 64 37 85 38 52 39 36 40 37 41 45 42 38 43 44 44 46 45
REMARK SMILES IDX 43 46 39 47 40 48 41 49 42 50 68 51 69 52 77 53 70 54 76 55
REMARK SMILES IDX 78 56 75 57 71 58 72 59 73 60 74 61 53 62 54 63 62 64 55 65
REMARK SMILES IDX 61 66 63 67 60 68 56 69 57 70 58 71 59 72 7 73 8 74 9 75
REMARK SMILES IDX 10 76 11 77 12 79 13 80 14 81 17 82 15 83 16 84 18 85 19 87
REMARK SMILES IDX 20 88 21 89 22 90 23 91 26 92 24 93 25 94
REMARK H PARENT 3 7 83 25 51 36 10 78 18 86
REMARK Flexibility Score: inf
ROOT
ATOM      1  C   UNL A   1      31.369  31.213  26.417  1.00  0.00     0.002 C 
ENDROOT
BRANCH   1   2
ATOM      2  C   UNL A   1      31.567  32.727  26.515  1.00  0.00     0.021 C 
BRANCH   2   3
ATOM      3  C   UNL A   1      32.756  33.163  27.361  1.00  0.00     0.116 C 
BRANCH   3   4
ATOM      4  N   UNL A   1      32.590  34.507  27.893  1.00  0.00    -0.352 N 
ATOM      5  O   UNL A   1      32.828  36.184  29.380  1.00  0.00    -0.269 OA
ATOM      6  C   UNL A   1      33.224  35.101  28.956  1.00  0.00     0.251 C 
ATOM      7  H   UNL A   1      31.931  35.069  27.425  1.00  0.00     0.163 HD
BRANCH   6   8
ATOM      8  C   UNL A   1      34.373  34.425  29.592  1.00  0.00     0.039 A 
ATOM      9  C   UNL A   1      34.187  33.600  30.705  1.00  0.00     0.014 A 
ATOM     10  C   UNL A   1      35.653  34.618  29.067  1.00  0.00     0.014 A 
ATOM     11  C   UNL A   1      35.288  33.077  31.371  1.00  0.00     0.010 A 
ATOM     12  C   UNL A   1      36.751  34.019  29.687  1.00  0.00     0.010 A 
ATOM     13  C   UNL A   1      36.581  33.266  30.860  1.00  0.00    -0.014 A 
BRANCH  13  14
ATOM     14  C   UNL A   1      37.744  32.630  31.532  1.00  0.00     0.031 A 
ATOM     15  C   UNL A   1      38.470  31.481  30.890  1.00  0.00     0.074 A 
ATOM     16  C   UNL A   1      38.137  33.093  32.734  1.00  0.00     0.049 A 
ATOM     17  N   UNL A   1      39.454  30.758  31.361  1.00  0.00    -0.248 NA
ATOM     18  C   UNL A   1      38.020  31.084  29.549  1.00  0.00     0.031 C 
ATOM     19  C   UNL A   1      37.516  34.212  33.448  1.00  0.00     0.029 A 
ATOM     20  N   UNL A   1      39.146  32.687  33.569  1.00  0.00    -0.354 N 
ATOM     21  C   UNL A   1      39.732  29.808  30.384  1.00  0.00     0.074 A 
ATOM     22  C   UNL A   1      38.782  30.026  29.313  1.00  0.00     0.031 C 
ATOM     23  C   UNL A   1      38.171  34.418  34.598  1.00  0.00     0.029 A 
ATOM     24  C   UNL A   1      39.204  33.399  34.745  1.00  0.00     0.049 A 
ATOM     25  H   UNL A   1      39.769  31.956  33.349  1.00  0.00     0.167 HD
ATOM     26  C   UNL A   1      40.696  28.851  30.383  1.00  0.00     0.034 A 
ATOM     27  C   UNL A   1      39.973  33.229  35.837  1.00  0.00     0.034 A 
ATOM     28  C   UNL A   1      41.624  28.648  31.472  1.00  0.00     0.049 A 
ATOM     29  C   UNL A   1      40.981  32.113  35.848  1.00  0.00     0.074 A 
ATOM     30  C   UNL A   1      42.653  27.728  31.567  1.00  0.00     0.029 A 
ATOM     31  N   UNL A   1      41.625  29.363  32.666  1.00  0.00    -0.354 N 
ATOM     32  N   UNL A   1      41.240  31.226  34.915  1.00  0.00    -0.248 NA
ATOM     33  C   UNL A   1      41.803  31.976  37.056  1.00  0.00     0.031 C 
ATOM     34  C   UNL A   1      43.215  27.825  32.845  1.00  0.00     0.029 A 
ATOM     35  C   UNL A   1      42.611  28.877  33.514  1.00  0.00     0.049 A 
ATOM     36  H   UNL A   1      41.016  30.108  32.878  1.00  0.00     0.167 HD
ATOM     37  C   UNL A   1      42.282  30.447  35.410  1.00  0.00     0.074 A 
ATOM     38  C   UNL A   1      42.604  30.974  36.722  1.00  0.00     0.031 C 
ATOM     39  C   UNL A   1      42.920  29.401  34.827  1.00  0.00     0.034 A 
BRANCH  26  40
ATOM     40  C   UNL A   1      40.749  27.918  29.194  1.00  0.00     0.023 A 
ATOM     41  C   UNL A   1      41.697  28.075  28.168  1.00  0.00     0.031 A 
ATOM     42  C   UNL A   1      39.812  26.877  29.064  1.00  0.00     0.131 A 
ATOM     43  C   UNL A   1      41.631  27.267  27.021  1.00  0.00     0.055 A 
ATOM     44  C   UNL A   1      39.810  26.017  27.964  1.00  0.00     0.041 A 
ATOM     45  F   UNL A   1      38.866  26.687  29.998  1.00  0.00    -0.206 F 
ATOM     46  C   UNL A   1      40.711  26.221  26.924  1.00  0.00     0.022 A 
BRANCH  43  47
ATOM     47  S   UNL A   1      42.644  27.720  25.585  1.00  0.00     0.124 S 
ATOM     48  O   UNL A   1      41.925  28.882  25.071  1.00  0.00    -0.237 OA
ATOM     49  O   UNL A   1      43.945  27.987  26.189  1.00  0.00    -0.237 OA
ATOM     50  O   UNL A   1      42.583  26.533  24.735  1.00  0.00    -0.744 OA
ENDBRANCH  43  47
ENDBRANCH  26  40
BRANCH  27  51
ATOM     51  C   UNL A   1      39.785  34.113  37.022  1.00  0.00     0.023 A 
ATOM     52  C   UNL A   1      39.156  33.646  38.186  1.00  0.00     0.031 A 
ATOM     53  C   UNL A   1      40.229  35.449  37.003  1.00  0.00     0.131 A 
ATOM     54  C   UNL A   1      38.956  34.516  39.268  1.00  0.00     0.055 A 
ATOM     55  C   UNL A   1      40.082  36.292  38.103  1.00  0.00     0.041 A 
ATOM     56  F   UNL A   1      40.841  35.946  35.915  1.00  0.00    -0.206 F 
ATOM     57  C   UNL A   1      39.431  35.830  39.242  1.00  0.00     0.022 A 
BRANCH  54  58
ATOM     58  S   UNL A   1      37.996  33.927  40.689  1.00  0.00     0.124 S 
ATOM     59  O   UNL A   1      38.982  33.116  41.395  1.00  0.00    -0.237 OA
ATOM     60  O   UNL A   1      37.612  35.177  41.335  1.00  0.00    -0.237 OA
ATOM     61  O   UNL A   1      36.900  33.182  40.074  1.00  0.00    -0.744 OA
ENDBRANCH  54  58
ENDBRANCH  27  51
BRANCH  39  62
ATOM     62  C   UNL A   1      44.082  28.794  35.578  1.00  0.00     0.023 A 
ATOM     63  C   UNL A   1      43.921  27.718  36.467  1.00  0.00     0.031 A 
ATOM     64  C   UNL A   1      45.378  29.309  35.394  1.00  0.00     0.131 A 
ATOM     65  C   UNL A   1      45.028  27.224  37.175  1.00  0.00     0.055 A 
ATOM     66  C   UNL A   1      46.486  28.771  36.049  1.00  0.00     0.041 A 
ATOM     67  F   UNL A   1      45.592  30.344  34.564  1.00  0.00    -0.206 F 
ATOM     68  C   UNL A   1      46.313  27.729  36.955  1.00  0.00     0.022 A 
BRANCH  65  69
ATOM     69  S   UNL A   1      44.758  25.975  38.462  1.00  0.00     0.124 S 
ATOM     70  O   UNL A   1      44.424  24.794  37.672  1.00  0.00    -0.237 OA
ATOM     71  O   UNL A   1      46.048  25.942  39.143  1.00  0.00    -0.237 OA
ATOM     72  O   UNL A   1      43.656  26.525  39.249  1.00  0.00    -0.744 OA
ENDBRANCH  65  69
ENDBRANCH  39  62
ENDBRANCH  13  14
ENDBRANCH   6   8
ENDBRANCH   3   4
ENDBRANCH   2   3
ENDBRANCH   1   2
BRANCH   1  73
ATOM     73  C   UNL A   1      32.376  30.365  27.199  1.00  0.00     0.002 C 
BRANCH  73  74
ATOM     74  C   UNL A   1      32.059  28.871  27.267  1.00  0.00     0.021 C 
BRANCH  74  75
ATOM     75  C   UNL A   1      33.268  27.955  27.124  1.00  0.00     0.116 C 
BRANCH  75  76
ATOM     76  N   UNL A   1      33.746  27.879  25.748  1.00  0.00    -0.351 N 
ATOM     77  C   UNL A   1      33.306  27.060  24.729  1.00  0.00     0.263 C 
ATOM     78  H   UNL A   1      34.478  28.495  25.515  1.00  0.00     0.163 HD
ATOM     79  O   UNL A   1      33.957  27.031  23.685  1.00  0.00    -0.268 OA
BRANCH  77  80
ATOM     80  C   UNL A   1      32.099  26.296  24.958  1.00  0.00     0.116 A 
ATOM     81  S   UNL A   1      32.230  24.690  25.528  1.00  0.00    -0.136 S 
ATOM     82  C   UNL A   1      30.782  26.681  24.766  1.00  0.00     0.073 A 
ATOM     83  C   UNL A   1      30.543  24.587  25.764  1.00  0.00     0.068 A 
ATOM     84  C   UNL A   1      29.898  25.739  25.371  1.00  0.00     0.039 A 
BRANCH  82  85
ATOM     85  N   UNL A   1      30.424  27.852  24.079  1.00  0.00    -0.269 N 
ATOM     86  H   UNL A   1      29.934  28.514  24.619  1.00  0.00     0.181 HD
BRANCH  85  87
ATOM     87  S   UNL A   1      30.694  28.301  22.508  1.00  0.00     0.301 S 
ATOM     88  O   UNL A   1      31.756  29.274  22.506  1.00  0.00    -0.189 OA
ATOM     89  O   UNL A   1      30.818  27.057  21.779  1.00  0.00    -0.189 OA
BRANCH  87  90
ATOM     90  N   UNL A   1      29.272  29.052  22.009  1.00  0.00    -0.185 NA
ATOM     91  C   UNL A   1      29.346  30.480  21.627  1.00  0.00     0.104 C 
ATOM     92  C   UNL A   1      28.164  28.917  23.011  1.00  0.00     0.104 C 
ATOM     93  C   UNL A   1      28.770  31.235  22.799  1.00  0.00     0.018 C 
ATOM     94  C   UNL A   1      27.642  30.331  23.251  1.00  0.00     0.018 C 
ENDBRANCH  87  90
ENDBRANCH  85  87
ENDBRANCH  82  85
ENDBRANCH  77  80
ENDBRANCH  75  76
ENDBRANCH  74  75
ENDBRANCH  73  74
ENDBRANCH   1  73
TORSDOF 19
ENDMDL
MODEL 2
REMARK VINA RESULT:     -10.9      4.725      9.808
REMARK SMILES O=C(NCCCCCCNC(=O)c1sccc1NS(=O)(=O)N1CCCC1)c1ccc(-c2c3nc(c(-c4cc(S(=O)(=O)[O-])ccc4F)c4ccc([nH]4)c(-c4cc(S(=O)(=O)[O-])ccc4F)c4nc(c(-c5cc(S(=O)(=O)[O-])ccc5F)c5ccc2[nH]5)C=C4)C=C3)cc1
REMARK SMILES IDX 6 1 5 2 4 3 3 4 1 5 2 6 27 8 28 9 89 10 29 11 88 12 30 13
REMARK SMILES IDX 31 14 32 15 82 16 33 17 87 18 81 19 83 20 34 21 86 22 80 23
REMARK SMILES IDX 79 24 35 26 67 27 47 28 66 29 48 30 51 31 65 32 84 33 49 34
REMARK SMILES IDX 50 35 64 37 85 38 52 39 36 40 37 41 45 42 38 43 44 44 46 45
REMARK SMILES IDX 43 46 39 47 40 48 41 49 42 50 68 51 69 52 77 53 70 54 76 55
REMARK SMILES IDX 78 56 75 57 71 58 72 59 73 60 74 61 53 62 54 63 62 64 55 65
REMARK SMILES IDX 61 66 63 67 60 68 56 69 57 70 58 71 59 72 7 73 8 74 9 75
REMARK SMILES IDX 10 76 11 77 12 79 13 80 14 81 17 82 15 83 16 84 18 85 19 87
REMARK SMILES IDX 20 88 21 89 22 90 23 91 26 92 24 93 25 94
REMARK H PARENT 3 7 83 25 51 36 10 78 18 86
REMARK Flexibility Score: inf
ROOT
ATOM      1  C   UNL A   1      32.769  27.475  24.461  1.00  0.00     0.002 C 
ENDROOT
BRANCH   1   2
ATOM      2  C   UNL A   1      33.981  28.293  24.913  1.00  0.00     0.021 C 
BRANCH   2   3
ATOM      3  C   UNL A   1      34.072  28.526  26.415  1.00  0.00     0.116 C 
BRANCH   3   4
ATOM      4  N   UNL A   1      33.828  29.915  26.772  1.00  0.00    -0.352 N 
ATOM      5  O   UNL A   1      34.085  31.823  27.944  1.00  0.00    -0.269 OA
ATOM      6  C   UNL A   1      34.540  30.730  27.617  1.00  0.00     0.251 C 
ATOM      7  H   UNL A   1      33.041  30.329  26.348  1.00  0.00     0.163 HD
BRANCH   6   8
ATOM      8  C   UNL A   1      35.846  30.278  28.138  1.00  0.00     0.039 A 
ATOM      9  C   UNL A   1      37.010  30.443  27.381  1.00  0.00     0.014 A 
ATOM     10  C   UNL A   1      35.906  29.682  29.399  1.00  0.00     0.014 A 
ATOM     11  C   UNL A   1      38.208  29.897  27.826  1.00  0.00     0.010 A 
ATOM     12  C   UNL A   1      37.129  29.211  29.883  1.00  0.00     0.010 A 
ATOM     13  C   UNL A   1      38.285  29.290  29.089  1.00  0.00    -0.014 A 
BRANCH  13  14
ATOM     14  C   UNL A   1      39.589  28.786  29.590  1.00  0.00     0.031 A 
ATOM     15  C   UNL A   1      40.316  29.498  30.697  1.00  0.00     0.074 A 
ATOM     16  C   UNL A   1      40.120  27.680  29.033  1.00  0.00     0.049 A 
ATOM     17  N   UNL A   1      41.493  29.246  31.209  1.00  0.00    -0.248 NA
ATOM     18  C   UNL A   1      39.634  30.654  31.294  1.00  0.00     0.031 C 
ATOM     19  C   UNL A   1      39.498  26.898  27.961  1.00  0.00     0.029 A 
ATOM     20  N   UNL A   1      41.296  27.021  29.285  1.00  0.00    -0.354 N 
ATOM     21  C   UNL A   1      41.705  30.221  32.178  1.00  0.00     0.074 A 
ATOM     22  C   UNL A   1      40.548  31.091  32.150  1.00  0.00     0.031 C 
ATOM     23  C   UNL A   1      40.285  25.854  27.665  1.00  0.00     0.029 A 
ATOM     24  C   UNL A   1      41.502  25.936  28.464  1.00  0.00     0.049 A 
ATOM     25  H   UNL A   1      41.932  27.298  29.984  1.00  0.00     0.167 HD
ATOM     26  C   UNL A   1      42.765  30.367  33.015  1.00  0.00     0.034 A 
ATOM     27  C   UNL A   1      42.566  25.120  28.338  1.00  0.00     0.034 A 
ATOM     28  C   UNL A   1      43.914  29.490  33.013  1.00  0.00     0.049 A 
ATOM     29  C   UNL A   1      43.763  25.348  29.220  1.00  0.00     0.074 A 
ATOM     30  C   UNL A   1      45.029  29.530  33.831  1.00  0.00     0.029 A 
ATOM     31  N   UNL A   1      44.106  28.425  32.139  1.00  0.00    -0.354 N 
ATOM     32  N   UNL A   1      43.948  26.268  30.138  1.00  0.00    -0.248 NA
ATOM     33  C   UNL A   1      44.892  24.425  29.054  1.00  0.00     0.031 C 
ATOM     34  C   UNL A   1      45.930  28.552  33.396  1.00  0.00     0.029 A 
ATOM     35  C   UNL A   1      45.337  27.828  32.374  1.00  0.00     0.049 A 
ATOM     36  H   UNL A   1      43.461  28.135  31.453  1.00  0.00     0.167 HD
ATOM     37  C   UNL A   1      45.203  26.012  30.685  1.00  0.00     0.074 A 
ATOM     38  C   UNL A   1      45.723  24.848  29.995  1.00  0.00     0.031 C 
ATOM     39  C   UNL A   1      45.856  26.673  31.674  1.00  0.00     0.034 A 
BRANCH  26  40
ATOM     40  C   UNL A   1      42.752  31.553  33.954  1.00  0.00     0.023 A 
ATOM     41  C   UNL A   1      42.263  31.454  35.269  1.00  0.00     0.031 A 
ATOM     42  C   UNL A   1      43.200  32.812  33.517  1.00  0.00     0.131 A 
ATOM     43  C   UNL A   1      42.150  32.606  36.064  1.00  0.00     0.055 A 
ATOM     44  C   UNL A   1      43.172  33.936  34.345  1.00  0.00     0.041 A 
ATOM     45  F   UNL A   1      43.659  32.978  32.266  1.00  0.00    -0.206 F 
ATOM     46  C   UNL A   1      42.627  33.841  35.621  1.00  0.00     0.022 A 
BRANCH  43  47
ATOM     47  S   UNL A   1      41.207  32.499  37.611  1.00  0.00     0.124 S 
ATOM     48  O   UNL A   1      42.051  31.615  38.410  1.00  0.00    -0.237 OA
ATOM     49  O   UNL A   1      41.150  33.891  38.042  1.00  0.00    -0.237 OA
ATOM     50  O   UNL A   1      39.931  31.922  37.195  1.00  0.00    -0.744 OA
ENDBRANCH  43  47
ENDBRANCH  26  40
BRANCH  27  51
ATOM     51  C   UNL A   1      42.557  24.044  27.308  1.00  0.00     0.023 A 
ATOM     52  C   UNL A   1      41.861  22.844  27.516  1.00  0.00     0.031 A 
ATOM     53  C   UNL A   1      43.257  24.200  26.095  1.00  0.00     0.131 A 
ATOM     54  C   UNL A   1      41.909  21.833  26.544  1.00  0.00     0.055 A 
ATOM     55  C   UNL A   1      43.250  23.217  25.107  1.00  0.00     0.041 A 
ATOM     56  F   UNL A   1      43.936  25.331  25.844  1.00  0.00    -0.206 F 
ATOM     57  C   UNL A   1      42.582  22.018  25.334  1.00  0.00     0.022 A 
BRANCH  54  58
ATOM     58  S   UNL A   1      41.136  20.235  26.916  1.00  0.00     0.124 S 
ATOM     59  O   UNL A   1      40.882  20.357  28.347  1.00  0.00    -0.237 OA
ATOM     60  O   UNL A   1      39.961  20.258  26.051  1.00  0.00    -0.237 OA
ATOM     61  O   UNL A   1      42.163  19.265  26.544  1.00  0.00    -0.744 OA
ENDBRANCH  54  58
ENDBRANCH  27  51
BRANCH  39  62
ATOM     62  C   UNL A   1      47.185  26.110  32.120  1.00  0.00     0.023 A 
ATOM     63  C   UNL A   1      48.388  26.417  31.461  1.00  0.00     0.031 A 
ATOM     64  C   UNL A   1      47.243  25.250  33.231  1.00  0.00     0.131 A 
ATOM     65  C   UNL A   1      49.589  25.830  31.888  1.00  0.00     0.055 A 
ATOM     66  C   UNL A   1      48.449  24.721  33.693  1.00  0.00     0.041 A 
ATOM     67  F   UNL A   1      46.125  24.912  33.894  1.00  0.00    -0.206 F 
ATOM     68  C   UNL A   1      49.630  25.000  33.013  1.00  0.00     0.022 A 
BRANCH  65  69
ATOM     69  S   UNL A   1      51.088  26.082  30.898  1.00  0.00     0.124 S 
ATOM     70  O   UNL A   1      51.198  27.538  30.882  1.00  0.00    -0.237 OA
ATOM     71  O   UNL A   1      52.100  25.376  31.677  1.00  0.00    -0.237 OA
ATOM     72  O   UNL A   1      50.758  25.472  29.612  1.00  0.00    -0.744 OA
ENDBRANCH  65  69
ENDBRANCH  39  62
ENDBRANCH  13  14
ENDBRANCH   6   8
ENDBRANCH   3   4
ENDBRANCH   2   3
ENDBRANCH   1   2
BRANCH   1  73
ATOM     73  C   UNL A   1      33.077  26.307  23.520  1.00  0.00     0.002 C 
BRANCH  73  74
ATOM     74  C   UNL A   1      32.146  25.100  23.649  1.00  0.00     0.021 C 
BRANCH  74  75
ATOM     75  C   UNL A   1      32.814  23.832  24.166  1.00  0.00     0.116 C 
BRANCH  75  76
ATOM     76  N   UNL A   1      32.910  23.810  25.621  1.00  0.00    -0.351 N 
ATOM     77  C   UNL A   1      33.800  23.117  26.414  1.00  0.00     0.263 C 
ATOM     78  H   UNL A   1      32.252  24.364  26.101  1.00  0.00     0.163 HD
ATOM     79  O   UNL A   1      33.604  23.100  27.629  1.00  0.00    -0.268 OA
BRANCH  77  80
ATOM     80  C   UNL A   1      34.913  22.465  25.758  1.00  0.00     0.116 A 
ATOM     81  S   UNL A   1      36.251  23.405  25.263  1.00  0.00    -0.136 S 
ATOM     82  C   UNL A   1      35.064  21.124  25.442  1.00  0.00     0.073 A 
ATOM     83  C   UNL A   1      37.144  22.007  24.861  1.00  0.00     0.068 A 
ATOM     84  C   UNL A   1      36.412  20.856  25.059  1.00  0.00     0.039 A 
BRANCH  82  85
ATOM     85  N   UNL A   1      34.012  20.199  25.521  1.00  0.00    -0.269 N 
ATOM     86  H   UNL A   1      34.126  19.500  26.204  1.00  0.00     0.181 HD
BRANCH  85  87
ATOM     87  S   UNL A   1      32.606  20.096  24.651  1.00  0.00     0.301 S 
ATOM     88  O   UNL A   1      31.569  20.740  25.415  1.00  0.00    -0.189 OA
ATOM     89  O   UNL A   1      32.952  20.554  23.323  1.00  0.00    -0.189 OA
BRANCH  87  90
ATOM     90  N   UNL A   1      32.262  18.449  24.555  1.00  0.00    -0.185 NA
ATOM     91  C   UNL A   1      32.887  17.557  25.557  1.00  0.00     0.104 C 
ATOM     92  C   UNL A   1      32.561  17.874  23.201  1.00  0.00     0.104 C 
ATOM     93  C   UNL A   1      34.021  16.876  24.832  1.00  0.00     0.018 C 
ATOM     94  C   UNL A   1      33.442  16.653  23.451  1.00  0.00     0.018 C 
ENDBRANCH  87  90
ENDBRANCH  85  87
ENDBRANCH  82  85
ENDBRANCH  77  80
ENDBRANCH  75  76
ENDBRANCH  74  75
ENDBRANCH  73  74
ENDBRANCH   1  73
TORSDOF 19
ENDMDL
MODEL 3
REMARK VINA RESULT:     -10.8      5.811      9.122
REMARK SMILES O=C(NCCCCCCNC(=O)c1sccc1NS(=O)(=O)N1CCCC1)c1ccc(-c2c3nc(c(-c4cc(S(=O)(=O)[O-])ccc4F)c4ccc([nH]4)c(-c4cc(S(=O)(=O)[O-])ccc4F)c4nc(c(-c5cc(S(=O)(=O)[O-])ccc5F)c5ccc2[nH]5)C=C4)C=C3)cc1
REMARK SMILES IDX 6 1 5 2 4 3 3 4 1 5 2 6 27 8 28 9 89 10 29 11 88 12 30 13
REMARK SMILES IDX 31 14 32 15 82 16 33 17 87 18 81 19 83 20 34 21 86 22 80 23
REMARK SMILES IDX 79 24 35 26 67 27 47 28 66 29 48 30 51 31 65 32 84 33 49 34
REMARK SMILES IDX 50 35 64 37 85 38 52 39 36 40 37 41 45 42 38 43 44 44 46 45
REMARK SMILES IDX 43 46 39 47 40 48 41 49 42 50 68 51 69 52 77 53 70 54 76 55
REMARK SMILES IDX 78 56 75 57 71 58 72 59 73 60 74 61 53 62 54 63 62 64 55 65
REMARK SMILES IDX 61 66 63 67 60 68 56 69 57 70 58 71 59 72 7 73 8 74 9 75
REMARK SMILES IDX 10 76 11 77 12 79 13 80 14 81 17 82 15 83 16 84 18 85 19 87
REMARK SMILES IDX 20 88 21 89 22 90 23 91 26 92 24 93 25 94
REMARK H PARENT 3 7 83 25 51 36 10 78 18 86
REMARK Flexibility Score: inf
ROOT
ATOM      1  C   UNL A   1      35.394  19.946  24.991  1.00  0.00     0.002 C 
ENDROOT
BRANCH   1   2
ATOM      2  C   UNL A   1      35.786  21.326  24.459  1.00  0.00     0.021 C 
BRANCH   2   3
ATOM      3  C   UNL A   1      37.279  21.625  24.492  1.00  0.00     0.116 C 
BRANCH   3   4
ATOM      4  N   UNL A   1      38.042  20.552  25.112  1.00  0.00    -0.352 N 
ATOM      5  O   UNL A   1      39.820  19.590  26.108  1.00  0.00    -0.269 OA
ATOM      6  C   UNL A   1      39.221  20.621  25.811  1.00  0.00     0.251 C 
ATOM      7  H   UNL A   1      37.658  19.651  25.018  1.00  0.00     0.163 HD
BRANCH   6   8
ATOM      8  C   UNL A   1      39.770  21.939  26.190  1.00  0.00     0.039 A 
ATOM      9  C   UNL A   1      38.934  23.054  26.295  1.00  0.00     0.014 A 
ATOM     10  C   UNL A   1      41.138  22.059  26.443  1.00  0.00     0.014 A 
ATOM     11  C   UNL A   1      39.482  24.311  26.522  1.00  0.00     0.010 A 
ATOM     12  C   UNL A   1      41.674  23.310  26.758  1.00  0.00     0.010 A 
ATOM     13  C   UNL A   1      40.855  24.451  26.774  1.00  0.00    -0.014 A 
BRANCH  13  14
ATOM     14  C   UNL A   1      41.417  25.787  27.101  1.00  0.00     0.031 A 
ATOM     15  C   UNL A   1      42.785  26.185  26.622  1.00  0.00     0.074 A 
ATOM     16  C   UNL A   1      40.684  26.639  27.843  1.00  0.00     0.049 A 
ATOM     17  N   UNL A   1      43.464  27.275  26.872  1.00  0.00    -0.248 NA
ATOM     18  C   UNL A   1      43.486  25.224  25.761  1.00  0.00     0.031 C 
ATOM     19  C   UNL A   1      39.338  26.366  28.352  1.00  0.00     0.029 A 
ATOM     20  N   UNL A   1      40.961  27.903  28.299  1.00  0.00    -0.354 N 
ATOM     21  C   UNL A   1      44.680  27.128  26.215  1.00  0.00     0.074 A 
ATOM     22  C   UNL A   1      44.657  25.821  25.590  1.00  0.00     0.031 C 
ATOM     23  C   UNL A   1      38.898  27.437  29.028  1.00  0.00     0.029 A 
ATOM     24  C   UNL A   1      39.957  28.439  29.071  1.00  0.00     0.049 A 
ATOM     25  H   UNL A   1      41.798  28.380  28.095  1.00  0.00     0.167 HD
ATOM     26  C   UNL A   1      45.714  28.005  26.138  1.00  0.00     0.034 A 
ATOM     27  C   UNL A   1      39.905  29.588  29.770  1.00  0.00     0.034 A 
ATOM     28  C   UNL A   1      45.715  29.299  26.782  1.00  0.00     0.049 A 
ATOM     29  C   UNL A   1      41.092  30.512  29.736  1.00  0.00     0.074 A 
ATOM     30  C   UNL A   1      46.695  30.276  26.751  1.00  0.00     0.029 A 
ATOM     31  N   UNL A   1      44.696  29.791  27.591  1.00  0.00    -0.354 N 
ATOM     32  N   UNL A   1      42.234  30.364  29.105  1.00  0.00    -0.248 NA
ATOM     33  C   UNL A   1      40.983  31.758  30.504  1.00  0.00     0.031 C 
ATOM     34  C   UNL A   1      46.310  31.314  27.607  1.00  0.00     0.029 A 
ATOM     35  C   UNL A   1      45.042  31.038  28.093  1.00  0.00     0.049 A 
ATOM     36  H   UNL A   1      43.849  29.323  27.779  1.00  0.00     0.167 HD
ATOM     37  C   UNL A   1      42.967  31.518  29.371  1.00  0.00     0.074 A 
ATOM     38  C   UNL A   1      42.133  32.350  30.216  1.00  0.00     0.031 C 
ATOM     39  C   UNL A   1      44.209  31.860  28.945  1.00  0.00     0.034 A 
BRANCH  26  40
ATOM     40  C   UNL A   1      46.947  27.565  25.380  1.00  0.00     0.023 A 
ATOM     41  C   UNL A   1      47.190  27.971  24.056  1.00  0.00     0.031 A 
ATOM     42  C   UNL A   1      47.875  26.693  25.977  1.00  0.00     0.131 A 
ATOM     43  C   UNL A   1      48.278  27.438  23.347  1.00  0.00     0.055 A 
ATOM     44  C   UNL A   1      49.007  26.240  25.297  1.00  0.00     0.041 A 
ATOM     45  F   UNL A   1      47.691  26.251  27.232  1.00  0.00    -0.206 F 
ATOM     46  C   UNL A   1      49.204  26.596  23.967  1.00  0.00     0.022 A 
BRANCH  43  47
ATOM     47  S   UNL A   1      48.363  27.717  21.556  1.00  0.00     0.124 S 
ATOM     48  O   UNL A   1      49.431  28.708  21.462  1.00  0.00    -0.237 OA
ATOM     49  O   UNL A   1      48.676  26.387  21.044  1.00  0.00    -0.237 OA
ATOM     50  O   UNL A   1      47.030  28.215  21.223  1.00  0.00    -0.744 OA
ENDBRANCH  43  47
ENDBRANCH  26  40
BRANCH  27  51
ATOM     51  C   UNL A   1      38.703  29.904  30.592  1.00  0.00     0.023 A 
ATOM     52  C   UNL A   1      37.706  30.770  30.120  1.00  0.00     0.031 A 
ATOM     53  C   UNL A   1      38.538  29.344  31.874  1.00  0.00     0.131 A 
ATOM     54  C   UNL A   1      36.608  31.081  30.935  1.00  0.00     0.055 A 
ATOM     55  C   UNL A   1      37.415  29.608  32.656  1.00  0.00     0.041 A 
ATOM     56  F   UNL A   1      39.461  28.505  32.372  1.00  0.00    -0.206 F 
ATOM     57  C   UNL A   1      36.445  30.491  32.192  1.00  0.00     0.022 A 
BRANCH  54  58
ATOM     58  S   UNL A   1      35.425  32.328  30.360  1.00  0.00     0.124 S 
ATOM     59  O   UNL A   1      34.487  32.383  31.476  1.00  0.00    -0.237 OA
ATOM     60  O   UNL A   1      36.279  33.498  30.182  1.00  0.00    -0.237 OA
ATOM     61  O   UNL A   1      34.895  31.752  29.127  1.00  0.00    -0.744 OA
ENDBRANCH  54  58
ENDBRANCH  27  51
BRANCH  39  62
ATOM     62  C   UNL A   1      44.720  33.228  29.332  1.00  0.00     0.023 A 
ATOM     63  C   UNL A   1      44.501  34.363  28.533  1.00  0.00     0.031 A 
ATOM     64  C   UNL A   1      45.440  33.392  30.529  1.00  0.00     0.131 A 
ATOM     65  C   UNL A   1      45.039  35.602  28.917  1.00  0.00     0.055 A 
ATOM     66  C   UNL A   1      45.915  34.638  30.940  1.00  0.00     0.041 A 
ATOM     67  F   UNL A   1      45.689  32.341  31.328  1.00  0.00    -0.206 F 
ATOM     68  C   UNL A   1      45.726  35.751  30.125  1.00  0.00     0.022 A 
BRANCH  65  69
ATOM     69  S   UNL A   1      44.916  37.003  27.771  1.00  0.00     0.124 S 
ATOM     70  O   UNL A   1      46.303  37.173  27.351  1.00  0.00    -0.237 OA
ATOM     71  O   UNL A   1      43.999  36.496  26.755  1.00  0.00    -0.237 OA
ATOM     72  O   UNL A   1      44.384  38.081  28.603  1.00  0.00    -0.744 OA
ENDBRANCH  65  69
ENDBRANCH  39  62
ENDBRANCH  13  14
ENDBRANCH   6   8
ENDBRANCH   3   4
ENDBRANCH   2   3
ENDBRANCH   1   2
BRANCH   1  73
ATOM     73  C   UNL A   1      34.009  19.447  24.569  1.00  0.00     0.002 C 
BRANCH  73  74
ATOM     74  C   UNL A   1      32.842  19.974  25.405  1.00  0.00     0.021 C 
BRANCH  74  75
ATOM     75  C   UNL A   1      32.085  21.139  24.780  1.00  0.00     0.116 C 
BRANCH  75  76
ATOM     76  N   UNL A   1      31.218  21.815  25.738  1.00  0.00    -0.351 N 
ATOM     77  C   UNL A   1      31.534  22.834  26.612  1.00  0.00     0.263 C 
ATOM     78  H   UNL A   1      30.285  21.503  25.765  1.00  0.00     0.163 HD
ATOM     79  O   UNL A   1      30.700  23.150  27.460  1.00  0.00    -0.268 OA
BRANCH  77  80
ATOM     80  C   UNL A   1      32.825  23.468  26.463  1.00  0.00     0.116 A 
ATOM     81  S   UNL A   1      34.150  22.875  27.366  1.00  0.00    -0.136 S 
ATOM     82  C   UNL A   1      33.172  24.549  25.667  1.00  0.00     0.073 A 
ATOM     83  C   UNL A   1      35.238  23.879  26.517  1.00  0.00     0.068 A 
ATOM     84  C   UNL A   1      34.591  24.678  25.600  1.00  0.00     0.039 A 
BRANCH  82  85
ATOM     85  N   UNL A   1      32.221  25.358  25.027  1.00  0.00    -0.269 N 
ATOM     86  H   UNL A   1      32.078  25.152  24.075  1.00  0.00     0.181 HD
BRANCH  85  87
ATOM     87  S   UNL A   1      31.298  26.602  25.614  1.00  0.00     0.301 S 
ATOM     88  O   UNL A   1      30.072  26.633  24.860  1.00  0.00    -0.189 OA
ATOM     89  O   UNL A   1      31.290  26.417  27.049  1.00  0.00    -0.189 OA
BRANCH  87  90
ATOM     90  N   UNL A   1      32.174  28.002  25.280  1.00  0.00    -0.185 NA
ATOM     91  C   UNL A   1      33.195  28.426  26.264  1.00  0.00     0.104 C 
ATOM     92  C   UNL A   1      31.292  29.187  25.017  1.00  0.00     0.104 C 
ATOM     93  C   UNL A   1      32.567  29.570  27.021  1.00  0.00     0.018 C 
ATOM     94  C   UNL A   1      31.795  30.295  25.939  1.00  0.00     0.018 C 
ENDBRANCH  87  90
ENDBRANCH  85  87
ENDBRANCH  82  85
ENDBRANCH  77  80
ENDBRANCH  75  76
ENDBRANCH  74  75
ENDBRANCH  73  74
ENDBRANCH   1  73
TORSDOF 19
ENDMDL
