MODEL 1
REMARK VINA RESULT:     -11.6      0.000      0.000
REMARK SMILES CN1C(=O)c2ccc(NC(=O)C[C@@](C)(C(=O)NCCCCCCNC(=O)c3ccc(-c4c5nc(c(-c6cc(S(=O)(=O)[O-])ccc6F)c6ccc([nH]6)c(-c6cc(S(=O)(=O)[O-])ccc6F)c6nc(c(-c7cc(S(=O)(=O)[O-])ccc7F)c7ccc4[nH]7)C=C6)C=C5)cc3)c3ccccc3)cc2C1=O
REMARK SMILES IDX 20 1 19 2 18 3 17 4 15 5 16 6 13 8 14 9 12 10 10 11 9 12
REMARK SMILES IDX 11 14 8 15 1 16 2 17 3 18 98 19 4 20 5 21 97 22 99 23 6 24
REMARK SMILES IDX 96 25 7 26 90 27 91 28 95 29 92 30 94 31 93 32 21 33 22 34
REMARK SMILES IDX 23 35 24 36 25 37 26 39 27 40 28 41 89 42 29 43 88 44 30 45
REMARK SMILES IDX 31 46 32 47 82 48 33 49 87 50 81 51 83 52 34 53 86 54 80 55
REMARK SMILES IDX 79 56 35 58 67 59 47 60 66 61 48 62 51 63 65 64 84 65 49 66
REMARK SMILES IDX 50 67 64 69 85 70 52 71 36 72 37 73 45 74 38 75 44 76 46 77
REMARK SMILES IDX 43 78 39 79 40 80 41 81 42 82 68 83 69 84 77 85 70 86 76 87
REMARK SMILES IDX 78 88 75 89 71 90 72 91 73 92 74 93 53 94 54 95 62 96 55 97
REMARK SMILES IDX 61 98 63 99 60 100 56 101 57 102 58 103 59 104
REMARK H PARENT 17 7 9 13 24 38 83 57 51 68
REMARK Flexibility Score: inf
ROOT
ATOM      1  C   UNL A   1      37.227  22.510  25.429  1.00  0.00     0.002 C 
ENDROOT
BRANCH   1   2
ATOM      2  C   UNL A   1      36.118  21.502  25.736  1.00  0.00     0.021 C 
BRANCH   2   3
ATOM      3  C   UNL A   1      35.169  21.136  24.594  1.00  0.00     0.116 C 
BRANCH   3   4
ATOM      4  N   UNL A   1      33.946  20.469  25.009  1.00  0.00    -0.355 N 
ATOM      5  C   UNL A   1      32.689  20.857  25.370  1.00  0.00     0.230 C 
ATOM      6  O   UNL A   1      31.891  19.905  25.373  1.00  0.00    -0.274 OA
ATOM      7  H   UNL A   1      34.051  19.490  25.037  1.00  0.00     0.163 HD
BRANCH   5   8
ATOM      8  C   UNL A   1      32.173  22.338  25.631  1.00  0.00     0.080 C 
ATOM      9  C   UNL A   1      32.897  22.708  26.946  1.00  0.00     0.027 C 
BRANCH   8  10
ATOM     10  C   UNL A   1      30.626  22.445  25.656  1.00  0.00     0.121 C 
BRANCH  10  11
ATOM     11  C   UNL A   1      29.899  23.164  26.784  1.00  0.00     0.225 C 
ATOM     12  N   UNL A   1      29.721  24.517  26.864  1.00  0.00    -0.326 N 
ATOM     13  H   UNL A   1      29.336  24.789  27.728  1.00  0.00     0.169 HD
ATOM     14  O   UNL A   1      29.463  22.507  27.738  1.00  0.00    -0.275 OA
BRANCH  12  15
ATOM     15  C   UNL A   1      29.953  25.617  26.015  1.00  0.00     0.042 A 
ATOM     16  C   UNL A   1      33.567  29.262  22.934  1.00  0.00     0.157 C 
ATOM     17  N   UNL A   1      32.493  28.546  23.578  1.00  0.00    -0.277 N 
ATOM     18  C   UNL A   1      31.347  28.138  22.944  1.00  0.00     0.261 C 
ATOM     19  C   UNL A   1      32.558  28.075  24.853  1.00  0.00     0.261 C 
ATOM     20  O   UNL A   1      31.009  28.306  21.795  1.00  0.00    -0.269 OA
ATOM     21  C   UNL A   1      30.599  27.337  23.921  1.00  0.00     0.053 A 
ATOM     22  C   UNL A   1      31.335  27.313  25.082  1.00  0.00     0.055 A 
ATOM     23  O   UNL A   1      33.465  28.160  25.661  1.00  0.00    -0.269 OA
ATOM     24  C   UNL A   1      29.450  26.586  23.802  1.00  0.00     0.017 A 
ATOM     25  C   UNL A   1      30.999  26.515  26.160  1.00  0.00     0.040 A 
ATOM     26  C   UNL A   1      29.131  25.720  24.865  1.00  0.00     0.027 A 
ENDBRANCH  12  15
ENDBRANCH  10  11
ENDBRANCH   8  10
BRANCH   8  27
ATOM     27  C   UNL A   1      32.692  23.350  24.550  1.00  0.00    -0.032 A 
ATOM     28  C   UNL A   1      33.763  24.227  24.788  1.00  0.00     0.005 A 
ATOM     29  C   UNL A   1      32.073  23.430  23.282  1.00  0.00     0.005 A 
ATOM     30  C   UNL A   1      34.130  25.202  23.853  1.00  0.00     0.000 A 
ATOM     31  C   UNL A   1      32.453  24.389  22.339  1.00  0.00     0.000 A 
ATOM     32  C   UNL A   1      33.468  25.291  22.632  1.00  0.00     0.000 A 
ENDBRANCH   8  27
ENDBRANCH   5   8
ENDBRANCH   3   4
ENDBRANCH   2   3
ENDBRANCH   1   2
BRANCH   1  33
ATOM     33  C   UNL A   1      38.664  22.101  25.763  1.00  0.00     0.002 C 
BRANCH  33  34
ATOM     34  C   UNL A   1      39.099  20.683  25.388  1.00  0.00     0.021 C 
BRANCH  34  35
ATOM     35  C   UNL A   1      39.710  19.840  26.503  1.00  0.00     0.116 C 
BRANCH  35  36
ATOM     36  N   UNL A   1      41.023  19.311  26.180  1.00  0.00    -0.352 N 
ATOM     37  C   UNL A   1      42.230  19.968  26.110  1.00  0.00     0.251 C 
ATOM     38  H   UNL A   1      41.055  18.346  25.985  1.00  0.00     0.163 HD
ATOM     39  O   UNL A   1      43.232  19.367  25.731  1.00  0.00    -0.269 OA
BRANCH  37  40
ATOM     40  C   UNL A   1      42.308  21.408  26.449  1.00  0.00     0.039 A 
ATOM     41  C   UNL A   1      42.372  21.782  27.795  1.00  0.00     0.014 A 
ATOM     42  C   UNL A   1      42.332  22.384  25.450  1.00  0.00     0.014 A 
ATOM     43  C   UNL A   1      42.537  23.130  28.137  1.00  0.00     0.010 A 
ATOM     44  C   UNL A   1      42.558  23.716  25.790  1.00  0.00     0.010 A 
ATOM     45  C   UNL A   1      42.671  24.103  27.136  1.00  0.00    -0.014 A 
BRANCH  45  46
ATOM     46  C   UNL A   1      42.905  25.538  27.454  1.00  0.00     0.031 A 
ATOM     47  C   UNL A   1      44.304  26.089  27.391  1.00  0.00     0.074 A 
ATOM     48  C   UNL A   1      41.889  26.316  27.881  1.00  0.00     0.049 A 
ATOM     49  N   UNL A   1      44.766  27.233  27.823  1.00  0.00    -0.248 NA
ATOM     50  C   UNL A   1      45.322  25.214  26.790  1.00  0.00     0.031 C 
ATOM     51  C   UNL A   1      40.490  25.900  27.989  1.00  0.00     0.029 A 
ATOM     52  N   UNL A   1      41.882  27.614  28.330  1.00  0.00    -0.354 N 
ATOM     53  C   UNL A   1      46.131  27.212  27.560  1.00  0.00     0.074 A 
ATOM     54  C   UNL A   1      46.428  25.917  26.983  1.00  0.00     0.031 C 
ATOM     55  C   UNL A   1      39.764  26.919  28.475  1.00  0.00     0.029 A 
ATOM     56  C   UNL A   1      40.648  28.043  28.768  1.00  0.00     0.049 A 
ATOM     57  H   UNL A   1      42.684  28.185  28.339  1.00  0.00     0.167 HD
ATOM     58  C   UNL A   1      47.050  28.189  27.763  1.00  0.00     0.034 A 
ATOM     59  C   UNL A   1      40.280  29.195  29.365  1.00  0.00     0.034 A 
ATOM     60  C   UNL A   1      46.737  29.479  28.326  1.00  0.00     0.049 A 
ATOM     61  C   UNL A   1      41.327  30.255  29.617  1.00  0.00     0.074 A 
ATOM     62  C   UNL A   1      47.589  30.542  28.575  1.00  0.00     0.029 A 
ATOM     63  N   UNL A   1      45.471  29.885  28.723  1.00  0.00    -0.354 N 
ATOM     64  N   UNL A   1      42.615  30.216  29.368  1.00  0.00    -0.248 NA
ATOM     65  C   UNL A   1      40.872  31.516  30.221  1.00  0.00     0.031 C 
ATOM     66  C   UNL A   1      46.847  31.571  29.164  1.00  0.00     0.029 A 
ATOM     67  C   UNL A   1      45.519  31.178  29.219  1.00  0.00     0.049 A 
ATOM     68  H   UNL A   1      44.656  29.335  28.660  1.00  0.00     0.167 HD
ATOM     69  C   UNL A   1      43.112  31.463  29.741  1.00  0.00     0.074 A 
ATOM     70  C   UNL A   1      41.987  32.230  30.231  1.00  0.00     0.031 C 
ATOM     71  C   UNL A   1      44.382  31.934  29.680  1.00  0.00     0.034 A 
BRANCH  58  72
ATOM     72  C   UNL A   1      48.478  27.886  27.387  1.00  0.00     0.023 A 
ATOM     73  C   UNL A   1      48.979  28.189  26.109  1.00  0.00     0.031 A 
ATOM     74  C   UNL A   1      49.347  27.271  28.306  1.00  0.00     0.131 A 
ATOM     75  C   UNL A   1      50.285  27.814  25.762  1.00  0.00     0.055 A 
ATOM     76  C   UNL A   1      50.672  26.974  27.981  1.00  0.00     0.041 A 
ATOM     77  F   UNL A   1      48.919  26.940  29.535  1.00  0.00    -0.206 F 
ATOM     78  C   UNL A   1      51.144  27.232  26.697  1.00  0.00     0.022 A 
BRANCH  75  79
ATOM     79  S   UNL A   1      50.799  27.978  24.031  1.00  0.00     0.124 S 
ATOM     80  O   UNL A   1      51.476  29.272  24.048  1.00  0.00    -0.237 OA
ATOM     81  O   UNL A   1      51.655  26.812  23.842  1.00  0.00    -0.237 OA
ATOM     82  O   UNL A   1      49.536  27.952  23.296  1.00  0.00    -0.744 OA
ENDBRANCH  75  79
ENDBRANCH  58  72
BRANCH  59  83
ATOM     83  C   UNL A   1      38.869  29.410  29.804  1.00  0.00     0.023 A 
ATOM     84  C   UNL A   1      37.964  30.123  29.002  1.00  0.00     0.031 A 
ATOM     85  C   UNL A   1      38.424  28.971  31.064  1.00  0.00     0.131 A 
ATOM     86  C   UNL A   1      36.686  30.436  29.494  1.00  0.00     0.055 A 
ATOM     87  C   UNL A   1      37.132  29.229  31.523  1.00  0.00     0.041 A 
ATOM     88  F   UNL A   1      39.246  28.282  31.873  1.00  0.00    -0.206 F 
ATOM     89  C   UNL A   1      36.259  29.982  30.743  1.00  0.00     0.022 A 
BRANCH  86  90
ATOM     90  S   UNL A   1      35.634  31.554  28.527  1.00  0.00     0.124 S 
ATOM     91  O   UNL A   1      36.608  32.522  28.035  1.00  0.00    -0.237 OA
ATOM     92  O   UNL A   1      35.070  30.649  27.531  1.00  0.00    -0.237 OA
ATOM     93  O   UNL A   1      34.686  32.066  29.513  1.00  0.00    -0.744 OA
ENDBRANCH  86  90
ENDBRANCH  59  83
BRANCH  71  94
ATOM     94  C   UNL A   1      44.608  33.373  30.071  1.00  0.00     0.023 A 
ATOM     95  C   UNL A   1      44.522  34.421  29.141  1.00  0.00     0.031 A 
ATOM     96  C   UNL A   1      44.890  33.694  31.412  1.00  0.00     0.131 A 
ATOM     97  C   UNL A   1      44.755  35.741  29.556  1.00  0.00     0.055 A 
ATOM     98  C   UNL A   1      45.070  35.012  31.828  1.00  0.00     0.041 A 
ATOM     99  F   UNL A   1      44.981  32.728  32.340  1.00  0.00    -0.206 F 
ATOM    100  C   UNL A   1      45.011  36.045  30.896  1.00  0.00     0.022 A 
BRANCH  97 101
ATOM    101  S   UNL A   1      44.766  37.060  28.311  1.00  0.00     0.124 S 
ATOM    102  O   UNL A   1      45.438  38.143  29.022  1.00  0.00    -0.237 OA
ATOM    103  O   UNL A   1      45.519  36.453  27.217  1.00  0.00    -0.237 OA
ATOM    104  O   UNL A   1      43.348  37.285  28.035  1.00  0.00    -0.744 OA
ENDBRANCH  97 101
ENDBRANCH  71  94
ENDBRANCH  45  46
ENDBRANCH  37  40
ENDBRANCH  35  36
ENDBRANCH  34  35
ENDBRANCH  33  34
ENDBRANCH   1  33
TORSDOF 20
ENDMDL
MODEL 2
REMARK VINA RESULT:     -11.4      1.811      7.394
REMARK SMILES CN1C(=O)c2ccc(NC(=O)C[C@@](C)(C(=O)NCCCCCCNC(=O)c3ccc(-c4c5nc(c(-c6cc(S(=O)(=O)[O-])ccc6F)c6ccc([nH]6)c(-c6cc(S(=O)(=O)[O-])ccc6F)c6nc(c(-c7cc(S(=O)(=O)[O-])ccc7F)c7ccc4[nH]7)C=C6)C=C5)cc3)c3ccccc3)cc2C1=O
REMARK SMILES IDX 20 1 19 2 18 3 17 4 15 5 16 6 13 8 14 9 12 10 10 11 9 12
REMARK SMILES IDX 11 14 8 15 1 16 2 17 3 18 98 19 4 20 5 21 97 22 99 23 6 24
REMARK SMILES IDX 96 25 7 26 90 27 91 28 95 29 92 30 94 31 93 32 21 33 22 34
REMARK SMILES IDX 23 35 24 36 25 37 26 39 27 40 28 41 89 42 29 43 88 44 30 45
REMARK SMILES IDX 31 46 32 47 82 48 33 49 87 50 81 51 83 52 34 53 86 54 80 55
REMARK SMILES IDX 79 56 35 58 67 59 47 60 66 61 48 62 51 63 65 64 84 65 49 66
REMARK SMILES IDX 50 67 64 69 85 70 52 71 36 72 37 73 45 74 38 75 44 76 46 77
REMARK SMILES IDX 43 78 39 79 40 80 41 81 42 82 68 83 69 84 77 85 70 86 76 87
REMARK SMILES IDX 78 88 75 89 71 90 72 91 73 92 74 93 53 94 54 95 62 96 55 97
REMARK SMILES IDX 61 98 63 99 60 100 56 101 57 102 58 103 59 104
REMARK H PARENT 17 7 9 13 24 38 83 57 51 68
REMARK Flexibility Score: inf
ROOT
ATOM      1  C   UNL A   1      37.338  22.531  25.568  1.00  0.00     0.002 C 
ENDROOT
BRANCH   1   2
ATOM      2  C   UNL A   1      36.260  21.455  25.698  1.00  0.00     0.021 C 
BRANCH   2   3
ATOM      3  C   UNL A   1      35.239  21.346  24.565  1.00  0.00     0.116 C 
BRANCH   3   4
ATOM      4  N   UNL A   1      34.037  20.599  24.899  1.00  0.00    -0.355 N 
ATOM      5  C   UNL A   1      32.764  20.905  25.282  1.00  0.00     0.230 C 
ATOM      6  O   UNL A   1      32.000  19.930  25.182  1.00  0.00    -0.274 OA
ATOM      7  H   UNL A   1      34.177  19.626  24.831  1.00  0.00     0.163 HD
BRANCH   5   8
ATOM      8  C   UNL A   1      32.194  22.334  25.683  1.00  0.00     0.080 C 
ATOM      9  C   UNL A   1      32.894  22.597  27.036  1.00  0.00     0.027 C 
BRANCH   8  10
ATOM     10  C   UNL A   1      30.644  22.384  25.701  1.00  0.00     0.121 C 
BRANCH  10  11
ATOM     11  C   UNL A   1      29.888  23.170  26.763  1.00  0.00     0.225 C 
ATOM     12  N   UNL A   1      29.885  24.532  26.876  1.00  0.00    -0.326 N 
ATOM     13  H   UNL A   1      29.438  24.835  27.699  1.00  0.00     0.169 HD
ATOM     14  O   UNL A   1      29.256  22.557  27.633  1.00  0.00    -0.275 OA
BRANCH  12  15
ATOM     15  C   UNL A   1      30.364  25.610  26.104  1.00  0.00     0.042 A 
ATOM     16  C   UNL A   1      29.542  30.461  22.694  1.00  0.00     0.157 C 
ATOM     17  N   UNL A   1      30.010  29.339  23.471  1.00  0.00    -0.277 N 
ATOM     18  C   UNL A   1      30.998  29.416  24.420  1.00  0.00     0.261 C 
ATOM     19  C   UNL A   1      29.429  28.109  23.448  1.00  0.00     0.261 C 
ATOM     20  O   UNL A   1      31.658  30.371  24.760  1.00  0.00    -0.269 OA
ATOM     21  C   UNL A   1      31.062  28.094  25.055  1.00  0.00     0.053 A 
ATOM     22  C   UNL A   1      30.114  27.302  24.453  1.00  0.00     0.055 A 
ATOM     23  O   UNL A   1      28.467  27.723  22.809  1.00  0.00    -0.269 OA
ATOM     24  C   UNL A   1      31.777  27.632  26.139  1.00  0.00     0.017 A 
ATOM     25  C   UNL A   1      29.793  26.039  24.916  1.00  0.00     0.040 A 
ATOM     26  C   UNL A   1      31.418  26.376  26.662  1.00  0.00     0.027 A 
ENDBRANCH  12  15
ENDBRANCH  10  11
ENDBRANCH   8  10
BRANCH   8  27
ATOM     27  C   UNL A   1      32.685  23.465  24.712  1.00  0.00    -0.032 A 
ATOM     28  C   UNL A   1      33.695  24.376  25.063  1.00  0.00     0.005 A 
ATOM     29  C   UNL A   1      32.099  23.624  23.436  1.00  0.00     0.005 A 
ATOM     30  C   UNL A   1      34.032  25.449  24.229  1.00  0.00     0.000 A 
ATOM     31  C   UNL A   1      32.450  24.683  22.594  1.00  0.00     0.000 A 
ATOM     32  C   UNL A   1      33.402  25.610  23.000  1.00  0.00     0.000 A 
ENDBRANCH   8  27
ENDBRANCH   5   8
ENDBRANCH   3   4
ENDBRANCH   2   3
ENDBRANCH   1   2
BRANCH   1  33
ATOM     33  C   UNL A   1      38.784  22.122  25.863  1.00  0.00     0.002 C 
BRANCH  33  34
ATOM     34  C   UNL A   1      39.232  20.735  25.400  1.00  0.00     0.021 C 
BRANCH  34  35
ATOM     35  C   UNL A   1      39.833  19.822  26.464  1.00  0.00     0.116 C 
BRANCH  35  36
ATOM     36  N   UNL A   1      41.020  19.113  26.021  1.00  0.00    -0.352 N 
ATOM     37  C   UNL A   1      42.308  19.578  25.886  1.00  0.00     0.251 C 
ATOM     38  H   UNL A   1      40.885  18.167  25.784  1.00  0.00     0.163 HD
ATOM     39  O   UNL A   1      43.174  18.850  25.409  1.00  0.00    -0.269 OA
BRANCH  37  40
ATOM     40  C   UNL A   1      42.636  20.969  26.278  1.00  0.00     0.039 A 
ATOM     41  C   UNL A   1      42.814  21.265  27.634  1.00  0.00     0.014 A 
ATOM     42  C   UNL A   1      42.782  21.973  25.318  1.00  0.00     0.014 A 
ATOM     43  C   UNL A   1      43.213  22.550  28.020  1.00  0.00     0.010 A 
ATOM     44  C   UNL A   1      43.238  23.233  25.699  1.00  0.00     0.010 A 
ATOM     45  C   UNL A   1      43.466  23.534  27.052  1.00  0.00    -0.014 A 
BRANCH  45  46
ATOM     46  C   UNL A   1      43.946  24.894  27.415  1.00  0.00     0.031 A 
ATOM     47  C   UNL A   1      42.962  25.913  27.923  1.00  0.00     0.074 A 
ATOM     48  C   UNL A   1      45.233  25.241  27.208  1.00  0.00     0.049 A 
ATOM     49  N   UNL A   1      43.114  27.200  28.097  1.00  0.00    -0.248 NA
ATOM     50  C   UNL A   1      41.616  25.415  28.245  1.00  0.00     0.031 C 
ATOM     51  C   UNL A   1      46.283  24.348  26.717  1.00  0.00     0.029 A 
ATOM     52  N   UNL A   1      45.872  26.448  27.358  1.00  0.00    -0.354 N 
ATOM     53  C   UNL A   1      41.880  27.670  28.535  1.00  0.00     0.074 A 
ATOM     54  C   UNL A   1      40.979  26.537  28.545  1.00  0.00     0.031 C 
ATOM     55  C   UNL A   1      47.431  25.036  26.604  1.00  0.00     0.029 A 
ATOM     56  C   UNL A   1      47.190  26.431  26.959  1.00  0.00     0.049 A 
ATOM     57  H   UNL A   1      45.429  27.251  27.718  1.00  0.00     0.167 HD
ATOM     58  C   UNL A   1      41.536  28.926  28.913  1.00  0.00     0.034 A 
ATOM     59  C   UNL A   1      48.090  27.432  26.859  1.00  0.00     0.034 A 
ATOM     60  C   UNL A   1      42.448  30.043  28.910  1.00  0.00     0.049 A 
ATOM     61  C   UNL A   1      47.674  28.831  27.248  1.00  0.00     0.074 A 
ATOM     62  C   UNL A   1      42.206  31.356  29.273  1.00  0.00     0.029 A 
ATOM     63  N   UNL A   1      43.782  29.976  28.533  1.00  0.00    -0.354 N 
ATOM     64  N   UNL A   1      46.501  29.259  27.654  1.00  0.00    -0.248 NA
ATOM     65  C   UNL A   1      48.701  29.880  27.175  1.00  0.00     0.031 C 
ATOM     66  C   UNL A   1      43.378  32.092  29.071  1.00  0.00     0.029 A 
ATOM     67  C   UNL A   1      44.372  31.224  28.648  1.00  0.00     0.049 A 
ATOM     68  H   UNL A   1      44.242  29.160  28.228  1.00  0.00     0.167 HD
ATOM     69  C   UNL A   1      46.666  30.615  27.929  1.00  0.00     0.074 A 
ATOM     70  C   UNL A   1      48.048  30.933  27.644  1.00  0.00     0.031 C 
ATOM     71  C   UNL A   1      45.758  31.515  28.381  1.00  0.00     0.034 A 
BRANCH  58  72
ATOM     72  C   UNL A   1      40.108  29.154  29.341  1.00  0.00     0.023 A 
ATOM     73  C   UNL A   1      39.739  29.139  30.697  1.00  0.00     0.031 A 
ATOM     74  C   UNL A   1      39.099  29.371  28.386  1.00  0.00     0.131 A 
ATOM     75  C   UNL A   1      38.390  29.265  31.057  1.00  0.00     0.055 A 
ATOM     76  C   UNL A   1      37.768  29.578  28.756  1.00  0.00     0.041 A 
ATOM     77  F   UNL A   1      39.388  29.377  27.075  1.00  0.00    -0.206 F 
ATOM     78  C   UNL A   1      37.405  29.511  30.098  1.00  0.00     0.022 A 
BRANCH  75  79
ATOM     79  S   UNL A   1      37.927  28.971  32.785  1.00  0.00     0.124 S 
ATOM     80  O   UNL A   1      39.054  29.569  33.496  1.00  0.00    -0.237 OA
ATOM     81  O   UNL A   1      36.654  29.676  32.897  1.00  0.00    -0.237 OA
ATOM     82  O   UNL A   1      37.844  27.514  32.874  1.00  0.00    -0.744 OA
ENDBRANCH  75  79
ENDBRANCH  58  72
BRANCH  59  83
ATOM     83  C   UNL A   1      49.466  27.171  26.340  1.00  0.00     0.023 A 
ATOM     84  C   UNL A   1      49.845  27.592  25.056  1.00  0.00     0.031 A 
ATOM     85  C   UNL A   1      50.399  26.432  27.090  1.00  0.00     0.131 A 
ATOM     86  C   UNL A   1      51.092  27.214  24.533  1.00  0.00     0.055 A 
ATOM     87  C   UNL A   1      51.663  26.114  26.591  1.00  0.00     0.041 A 
ATOM     88  F   UNL A   1      50.092  26.006  28.326  1.00  0.00    -0.206 F 
ATOM     89  C   UNL A   1      52.009  26.490  25.297  1.00  0.00     0.022 A 
BRANCH  86  90
ATOM     90  S   UNL A   1      51.448  27.577  22.792  1.00  0.00     0.124 S 
ATOM     91  O   UNL A   1      52.855  27.206  22.695  1.00  0.00    -0.237 OA
ATOM     92  O   UNL A   1      50.504  26.703  22.103  1.00  0.00    -0.237 OA
ATOM     93  O   UNL A   1      51.170  29.007  22.679  1.00  0.00    -0.744 OA
ENDBRANCH  86  90
ENDBRANCH  59  83
BRANCH  71  94
ATOM     94  C   UNL A   1      46.253  32.908  28.680  1.00  0.00     0.023 A 
ATOM     95  C   UNL A   1      46.141  33.955  27.751  1.00  0.00     0.031 A 
ATOM     96  C   UNL A   1      46.826  33.189  29.934  1.00  0.00     0.131 A 
ATOM     97  C   UNL A   1      46.630  35.230  28.077  1.00  0.00     0.055 A 
ATOM     98  C   UNL A   1      47.265  34.469  30.270  1.00  0.00     0.041 A 
ATOM     99  F   UNL A   1      46.956  32.223  30.857  1.00  0.00    -0.206 F 
ATOM    100  C   UNL A   1      47.176  35.497  29.336  1.00  0.00     0.022 A 
BRANCH  97 101
ATOM    101  S   UNL A   1      46.590  36.530  26.813  1.00  0.00     0.124 S 
ATOM    102  O   UNL A   1      45.196  36.959  26.863  1.00  0.00    -0.237 OA
ATOM    103  O   UNL A   1      47.569  37.489  27.317  1.00  0.00    -0.237 OA
ATOM    104  O   UNL A   1      46.982  35.833  25.589  1.00  0.00    -0.744 OA
ENDBRANCH  97 101
ENDBRANCH  71  94
ENDBRANCH  45  46
ENDBRANCH  37  40
ENDBRANCH  35  36
ENDBRANCH  34  35
ENDBRANCH  33  34
ENDBRANCH   1  33
TORSDOF 20
ENDMDL
MODEL 3
REMARK VINA RESULT:     -11.4      1.440      2.303
REMARK SMILES CN1C(=O)c2ccc(NC(=O)C[C@@](C)(C(=O)NCCCCCCNC(=O)c3ccc(-c4c5nc(c(-c6cc(S(=O)(=O)[O-])ccc6F)c6ccc([nH]6)c(-c6cc(S(=O)(=O)[O-])ccc6F)c6nc(c(-c7cc(S(=O)(=O)[O-])ccc7F)c7ccc4[nH]7)C=C6)C=C5)cc3)c3ccccc3)cc2C1=O
REMARK SMILES IDX 20 1 19 2 18 3 17 4 15 5 16 6 13 8 14 9 12 10 10 11 9 12
REMARK SMILES IDX 11 14 8 15 1 16 2 17 3 18 98 19 4 20 5 21 97 22 99 23 6 24
REMARK SMILES IDX 96 25 7 26 90 27 91 28 95 29 92 30 94 31 93 32 21 33 22 34
REMARK SMILES IDX 23 35 24 36 25 37 26 39 27 40 28 41 89 42 29 43 88 44 30 45
REMARK SMILES IDX 31 46 32 47 82 48 33 49 87 50 81 51 83 52 34 53 86 54 80 55
REMARK SMILES IDX 79 56 35 58 67 59 47 60 66 61 48 62 51 63 65 64 84 65 49 66
REMARK SMILES IDX 50 67 64 69 85 70 52 71 36 72 37 73 45 74 38 75 44 76 46 77
REMARK SMILES IDX 43 78 39 79 40 80 41 81 42 82 68 83 69 84 77 85 70 86 76 87
REMARK SMILES IDX 78 88 75 89 71 90 72 91 73 92 74 93 53 94 54 95 62 96 55 97
REMARK SMILES IDX 61 98 63 99 60 100 56 101 57 102 58 103 59 104
REMARK H PARENT 17 7 9 13 24 38 83 57 51 68
REMARK Flexibility Score: inf
ROOT
ATOM      1  C   UNL A   1      37.743  22.071  24.781  1.00  0.00     0.002 C 
ENDROOT
BRANCH   1   2
ATOM      2  C   UNL A   1      37.002  22.867  25.856  1.00  0.00     0.021 C 
BRANCH   2   3
ATOM      3  C   UNL A   1      35.569  23.300  25.543  1.00  0.00     0.116 C 
BRANCH   3   4
ATOM      4  N   UNL A   1      35.215  23.260  24.134  1.00  0.00    -0.355 N 
ATOM      5  C   UNL A   1      34.136  22.857  23.403  1.00  0.00     0.230 C 
ATOM      6  O   UNL A   1      34.181  23.280  22.235  1.00  0.00    -0.274 OA
ATOM      7  H   UNL A   1      35.936  23.613  23.563  1.00  0.00     0.163 HD
BRANCH   5   8
ATOM      8  C   UNL A   1      32.858  22.069  23.923  1.00  0.00     0.080 C 
ATOM      9  C   UNL A   1      31.820  22.361  22.815  1.00  0.00     0.027 C 
BRANCH   8  10
ATOM     10  C   UNL A   1      32.443  22.472  25.362  1.00  0.00     0.121 C 
BRANCH  10  11
ATOM     11  C   UNL A   1      30.990  22.754  25.719  1.00  0.00     0.225 C 
ATOM     12  N   UNL A   1      30.398  23.986  25.676  1.00  0.00    -0.326 N 
ATOM     13  H   UNL A   1      29.492  23.975  26.062  1.00  0.00     0.169 HD
ATOM     14  O   UNL A   1      30.276  21.829  26.126  1.00  0.00    -0.275 OA
BRANCH  12  15
ATOM     15  C   UNL A   1      30.764  25.266  25.216  1.00  0.00     0.042 A 
ATOM     16  C   UNL A   1      29.459  30.832  23.440  1.00  0.00     0.157 C 
ATOM     17  N   UNL A   1      30.036  29.566  23.819  1.00  0.00    -0.277 N 
ATOM     18  C   UNL A   1      31.105  29.427  24.668  1.00  0.00     0.261 C 
ATOM     19  C   UNL A   1      29.500  28.361  23.485  1.00  0.00     0.261 C 
ATOM     20  O   UNL A   1      31.759  30.283  25.218  1.00  0.00    -0.269 OA
ATOM     21  C   UNL A   1      31.274  27.985  24.885  1.00  0.00     0.053 A 
ATOM     22  C   UNL A   1      30.303  27.343  24.154  1.00  0.00     0.055 A 
ATOM     23  O   UNL A   1      28.497  28.117  22.838  1.00  0.00    -0.269 OA
ATOM     24  C   UNL A   1      32.102  27.276  25.727  1.00  0.00     0.017 A 
ATOM     25  C   UNL A   1      30.072  25.983  24.254  1.00  0.00     0.040 A 
ATOM     26  C   UNL A   1      31.837  25.903  25.889  1.00  0.00     0.027 A 
ENDBRANCH  12  15
ENDBRANCH  10  11
ENDBRANCH   8  10
BRANCH   8  27
ATOM     27  C   UNL A   1      33.072  20.515  23.918  1.00  0.00    -0.032 A 
ATOM     28  C   UNL A   1      34.026  19.881  24.731  1.00  0.00     0.005 A 
ATOM     29  C   UNL A   1      32.313  19.685  23.062  1.00  0.00     0.005 A 
ATOM     30  C   UNL A   1      34.283  18.509  24.622  1.00  0.00     0.000 A 
ATOM     31  C   UNL A   1      32.554  18.311  22.969  1.00  0.00     0.000 A 
ATOM     32  C   UNL A   1      33.554  17.726  23.733  1.00  0.00     0.000 A 
ENDBRANCH   8  27
ENDBRANCH   5   8
ENDBRANCH   3   4
ENDBRANCH   2   3
ENDBRANCH   1   2
BRANCH   1  33
ATOM     33  C   UNL A   1      37.371  20.595  24.612  1.00  0.00     0.002 C 
BRANCH  33  34
ATOM     34  C   UNL A   1      38.368  19.554  25.125  1.00  0.00     0.021 C 
BRANCH  34  35
ATOM     35  C   UNL A   1      39.442  20.054  26.086  1.00  0.00     0.116 C 
BRANCH  35  36
ATOM     36  N   UNL A   1      40.613  19.198  26.149  1.00  0.00    -0.352 N 
ATOM     37  C   UNL A   1      41.934  19.546  26.314  1.00  0.00     0.251 C 
ATOM     38  H   UNL A   1      40.438  18.233  26.062  1.00  0.00     0.163 HD
ATOM     39  O   UNL A   1      42.805  18.684  26.253  1.00  0.00    -0.269 OA
BRANCH  37  40
ATOM     40  C   UNL A   1      42.304  20.966  26.521  1.00  0.00     0.039 A 
ATOM     41  C   UNL A   1      42.485  21.787  25.403  1.00  0.00     0.014 A 
ATOM     42  C   UNL A   1      42.457  21.490  27.807  1.00  0.00     0.014 A 
ATOM     43  C   UNL A   1      42.745  23.152  25.576  1.00  0.00     0.010 A 
ATOM     44  C   UNL A   1      42.654  22.859  27.976  1.00  0.00     0.010 A 
ATOM     45  C   UNL A   1      42.793  23.707  26.864  1.00  0.00    -0.014 A 
BRANCH  45  46
ATOM     46  C   UNL A   1      43.010  25.161  27.091  1.00  0.00     0.031 A 
ATOM     47  C   UNL A   1      44.367  25.755  26.827  1.00  0.00     0.074 A 
ATOM     48  C   UNL A   1      42.028  25.923  27.612  1.00  0.00     0.049 A 
ATOM     49  N   UNL A   1      44.836  26.932  27.149  1.00  0.00    -0.248 NA
ATOM     50  C   UNL A   1      45.334  24.888  26.137  1.00  0.00     0.031 C 
ATOM     51  C   UNL A   1      40.670  25.467  27.916  1.00  0.00     0.029 A 
ATOM     52  N   UNL A   1      42.027  27.240  28.006  1.00  0.00    -0.354 N 
ATOM     53  C   UNL A   1      46.157  26.944  26.715  1.00  0.00     0.074 A 
ATOM     54  C   UNL A   1      46.428  25.635  26.158  1.00  0.00     0.031 C 
ATOM     55  C   UNL A   1      39.972  26.482  28.449  1.00  0.00     0.029 A 
ATOM     56  C   UNL A   1      40.843  27.647  28.580  1.00  0.00     0.049 A 
ATOM     57  H   UNL A   1      42.801  27.837  27.889  1.00  0.00     0.167 HD
ATOM     58  C   UNL A   1      47.056  27.959  26.758  1.00  0.00     0.034 A 
ATOM     59  C   UNL A   1      40.509  28.812  29.172  1.00  0.00     0.034 A 
ATOM     60  C   UNL A   1      46.767  29.262  27.304  1.00  0.00     0.049 A 
ATOM     61  C   UNL A   1      41.538  29.916  29.245  1.00  0.00     0.074 A 
ATOM     62  C   UNL A   1      47.601  30.363  27.398  1.00  0.00     0.029 A 
ATOM     63  N   UNL A   1      45.546  29.644  27.842  1.00  0.00    -0.354 N 
ATOM     64  N   UNL A   1      42.785  29.909  28.834  1.00  0.00    -0.248 NA
ATOM     65  C   UNL A   1      41.115  31.188  29.850  1.00  0.00     0.031 C 
ATOM     66  C   UNL A   1      46.901  31.393  28.034  1.00  0.00     0.029 A 
ATOM     67  C   UNL A   1      45.607  30.959  28.275  1.00  0.00     0.049 A 
ATOM     68  H   UNL A   1      44.752  29.065  27.907  1.00  0.00     0.167 HD
ATOM     69  C   UNL A   1      43.277  31.187  29.089  1.00  0.00     0.074 A 
ATOM     70  C   UNL A   1      42.194  31.938  29.687  1.00  0.00     0.031 C 
ATOM     71  C   UNL A   1      44.510  31.697  28.847  1.00  0.00     0.034 A 
BRANCH  58  72
ATOM     72  C   UNL A   1      48.436  27.687  26.215  1.00  0.00     0.023 A 
ATOM     73  C   UNL A   1      48.739  27.882  24.857  1.00  0.00     0.031 A 
ATOM     74  C   UNL A   1      49.456  27.210  27.056  1.00  0.00     0.131 A 
ATOM     75  C   UNL A   1      50.006  27.534  24.365  1.00  0.00     0.055 A 
ATOM     76  C   UNL A   1      50.741  26.944  26.577  1.00  0.00     0.041 A 
ATOM     77  F   UNL A   1      49.219  26.986  28.359  1.00  0.00    -0.206 F 
ATOM     78  C   UNL A   1      51.018  27.092  25.221  1.00  0.00     0.022 A 
BRANCH  75  79
ATOM     79  S   UNL A   1      50.270  27.546  22.572  1.00  0.00     0.124 S 
ATOM     80  O   UNL A   1      49.014  26.978  22.088  1.00  0.00    -0.237 OA
ATOM     81  O   UNL A   1      50.480  28.962  22.291  1.00  0.00    -0.237 OA
ATOM     82  O   UNL A   1      51.442  26.692  22.393  1.00  0.00    -0.744 OA
ENDBRANCH  75  79
ENDBRANCH  58  72
BRANCH  59  83
ATOM     83  C   UNL A   1      39.157  29.000  29.779  1.00  0.00     0.023 A 
ATOM     84  C   UNL A   1      38.144  29.683  29.089  1.00  0.00     0.031 A 
ATOM     85  C   UNL A   1      38.881  28.565  31.088  1.00  0.00     0.131 A 
ATOM     86  C   UNL A   1      36.929  29.972  29.731  1.00  0.00     0.055 A 
ATOM     87  C   UNL A   1      37.649  28.799  31.700  1.00  0.00     0.041 A 
ATOM     88  F   UNL A   1      39.812  27.904  31.795  1.00  0.00    -0.206 F 
ATOM     89  C   UNL A   1      36.670  29.523  31.027  1.00  0.00     0.022 A 
BRANCH  86  90
ATOM     90  S   UNL A   1      35.741  31.056  28.891  1.00  0.00     0.124 S 
ATOM     91  O   UNL A   1      35.148  31.771  30.015  1.00  0.00    -0.237 OA
ATOM     92  O   UNL A   1      36.611  31.838  28.019  1.00  0.00    -0.237 OA
ATOM     93  O   UNL A   1      34.852  30.119  28.208  1.00  0.00    -0.744 OA
ENDBRANCH  86  90
ENDBRANCH  59  83
BRANCH  71  94
ATOM     94  C   UNL A   1      44.727  33.159  29.147  1.00  0.00     0.023 A 
ATOM     95  C   UNL A   1      44.291  34.172  28.278  1.00  0.00     0.031 A 
ATOM     96  C   UNL A   1      45.363  33.536  30.344  1.00  0.00     0.131 A 
ATOM     97  C   UNL A   1      44.532  35.516  28.599  1.00  0.00     0.055 A 
ATOM     98  C   UNL A   1      45.555  34.876  30.682  1.00  0.00     0.041 A 
ATOM     99  F   UNL A   1      45.798  32.606  31.209  1.00  0.00    -0.206 F 
ATOM    100  C   UNL A   1      45.145  35.875  29.803  1.00  0.00     0.022 A 
BRANCH  97 101
ATOM    101  S   UNL A   1      44.075  36.797  27.400  1.00  0.00     0.124 S 
ATOM    102  O   UNL A   1      43.376  37.765  28.239  1.00  0.00    -0.237 OA
ATOM    103  O   UNL A   1      45.373  37.223  26.885  1.00  0.00    -0.237 OA
ATOM    104  O   UNL A   1      43.233  36.086  26.440  1.00  0.00    -0.744 OA
ENDBRANCH  97 101
ENDBRANCH  71  94
ENDBRANCH  45  46
ENDBRANCH  37  40
ENDBRANCH  35  36
ENDBRANCH  34  35
ENDBRANCH  33  34
ENDBRANCH   1  33
TORSDOF 20
ENDMDL
