MODEL 1
REMARK VINA RESULT:     -12.3      0.000      0.000
REMARK SMILES O=C(NCCCCCCNC(=O)c1ccc(-c2c3nc(c(-c4cc(S(=O)(=O)[O-])ccc4F)c4ccc([nH]4)c(-c4cc(S(=O)(=O)[O-])ccc4F)c4nc(c(-c5cc(S(=O)(=O)[O-])ccc5F)c5ccc2[nH]5)C=C4)C=C3)cc1)C1=Cc2c(ccc(Cl)c2Oc2ccccc2)O[C@H]1C(F)(F)F
REMARK SMILES IDX 7 1 6 2 5 3 4 4 3 5 1 6 2 7 76 9 77 10 93 11 78 12 92 13
REMARK SMILES IDX 79 14 84 15 80 16 82 17 81 18 83 19 94 20 95 21 96 22 97 23
REMARK SMILES IDX 85 24 86 25 87 26 91 27 88 28 90 29 89 30 8 31 9 32 10 33
REMARK SMILES IDX 11 34 12 36 13 37 14 38 75 39 15 40 74 41 16 42 17 43 18 44
REMARK SMILES IDX 68 45 19 46 73 47 67 48 69 49 20 50 72 51 66 52 65 53 21 55
REMARK SMILES IDX 53 56 33 57 52 58 34 59 37 60 51 61 70 62 35 63 36 64 50 66
REMARK SMILES IDX 71 67 38 68 22 69 23 70 31 71 24 72 30 73 32 74 29 75 25 76
REMARK SMILES IDX 26 77 27 78 28 79 54 80 55 81 63 82 56 83 62 84 64 85 61 86
REMARK SMILES IDX 57 87 58 88 59 89 60 90 39 91 40 92 48 93 41 94 47 95 49 96
REMARK SMILES IDX 46 97 42 98 43 99 44 100 45 101
REMARK H PARENT 3 8 10 35 69 54 37 65
REMARK Flexibility Score: inf
ROOT
ATOM      1  C   UNL A   1      31.944  28.575  24.437  1.00  0.00     0.002 C 
ENDROOT
BRANCH   1   2
ATOM      2  C   UNL A   1      31.251  27.691  25.483  1.00  0.00     0.002 C 
BRANCH   2   3
ATOM      3  C   UNL A   1      30.156  26.753  24.978  1.00  0.00     0.021 C 
BRANCH   3   4
ATOM      4  C   UNL A   1      30.178  25.335  25.545  1.00  0.00     0.116 C 
BRANCH   4   5
ATOM      5  N   UNL A   1      31.313  25.051  26.407  1.00  0.00    -0.352 N 
ATOM      6  O   UNL A   1      33.282  24.133  27.007  1.00  0.00    -0.270 OA
ATOM      7  C   UNL A   1      32.471  24.384  26.117  1.00  0.00     0.251 C 
ATOM      8  H   UNL A   1      31.238  25.386  27.329  1.00  0.00     0.163 HD
BRANCH   7   9
ATOM      9  C   UNL A   1      32.765  23.940  24.740  1.00  0.00     0.067 C 
ATOM     10  C   UNL A   1      32.923  22.641  24.464  1.00  0.00     0.029 C 
ATOM     11  C   UNL A   1      33.207  24.926  23.712  1.00  0.00     0.314 C 
ATOM     12  C   UNL A   1      34.346  22.344  24.169  1.00  0.00     0.061 A 
ATOM     13  O   UNL A   1      34.565  24.625  23.250  1.00  0.00    -0.475 OA
ATOM     14  C   UNL A   1      35.098  23.393  23.583  1.00  0.00     0.131 A 
ATOM     15  C   UNL A   1      34.981  21.158  24.614  1.00  0.00     0.156 A 
ATOM     16  C   UNL A   1      36.477  23.274  23.453  1.00  0.00     0.049 A 
ATOM     17  C   UNL A   1      36.381  21.087  24.508  1.00  0.00     0.084 A 
ATOM     18  C   UNL A   1      37.119  22.133  23.936  1.00  0.00     0.028 A 
ATOM     19  Cl  UNL A   1      37.260  19.744  25.151  1.00  0.00    -0.080 Cl
BRANCH  11  20
ATOM     20  C   UNL A   1      32.234  24.990  22.519  1.00  0.00     0.429 C 
ATOM     21  F   UNL A   1      31.932  26.264  22.165  1.00  0.00    -0.167 F 
ATOM     22  F   UNL A   1      32.757  24.393  21.423  1.00  0.00    -0.167 F 
ATOM     23  F   UNL A   1      31.056  24.374  22.790  1.00  0.00    -0.167 F 
ENDBRANCH  11  20
BRANCH  15  24
ATOM     24  O   UNL A   1      34.371  20.089  25.271  1.00  0.00    -0.455 OA
BRANCH  24  25
ATOM     25  C   UNL A   1      33.897  19.038  24.526  1.00  0.00     0.127 A 
ATOM     26  C   UNL A   1      32.698  19.203  23.826  1.00  0.00     0.047 A 
ATOM     27  C   UNL A   1      34.649  17.868  24.392  1.00  0.00     0.047 A 
ATOM     28  C   UNL A   1      32.329  18.256  22.871  1.00  0.00     0.004 A 
ATOM     29  C   UNL A   1      34.266  16.919  23.443  1.00  0.00     0.004 A 
ATOM     30  C   UNL A   1      33.125  17.127  22.665  1.00  0.00     0.000 A 
ENDBRANCH  24  25
ENDBRANCH  15  24
ENDBRANCH   7   9
ENDBRANCH   4   5
ENDBRANCH   3   4
ENDBRANCH   2   3
ENDBRANCH   1   2
BRANCH   1  31
ATOM     31  C   UNL A   1      33.437  28.857  24.636  1.00  0.00     0.021 C 
BRANCH  31  32
ATOM     32  C   UNL A   1      33.935  28.952  26.079  1.00  0.00     0.116 C 
BRANCH  32  33
ATOM     33  N   UNL A   1      33.796  30.283  26.643  1.00  0.00    -0.352 N 
ATOM     34  C   UNL A   1      34.548  30.932  27.589  1.00  0.00     0.251 C 
ATOM     35  H   UNL A   1      33.039  30.804  26.288  1.00  0.00     0.163 HD
ATOM     36  O   UNL A   1      34.151  32.021  28.015  1.00  0.00    -0.269 OA
BRANCH  34  37
ATOM     37  C   UNL A   1      35.802  30.349  28.126  1.00  0.00     0.039 A 
ATOM     38  C   UNL A   1      36.967  30.445  27.356  1.00  0.00     0.014 A 
ATOM     39  C   UNL A   1      35.839  29.661  29.343  1.00  0.00     0.014 A 
ATOM     40  C   UNL A   1      38.169  29.902  27.822  1.00  0.00     0.010 A 
ATOM     41  C   UNL A   1      37.054  29.173  29.836  1.00  0.00     0.010 A 
ATOM     42  C   UNL A   1      38.231  29.282  29.080  1.00  0.00    -0.014 A 
BRANCH  42  43
ATOM     43  C   UNL A   1      39.512  28.734  29.605  1.00  0.00     0.031 A 
ATOM     44  C   UNL A   1      40.213  29.408  30.756  1.00  0.00     0.074 A 
ATOM     45  C   UNL A   1      40.073  27.657  29.018  1.00  0.00     0.049 A 
ATOM     46  N   UNL A   1      41.362  29.118  31.314  1.00  0.00    -0.248 NA
ATOM     47  C   UNL A   1      39.545  30.581  31.337  1.00  0.00     0.031 C 
ATOM     48  C   UNL A   1      39.508  26.927  27.882  1.00  0.00     0.029 A 
ATOM     49  N   UNL A   1      41.243  26.991  29.291  1.00  0.00    -0.354 N 
ATOM     50  C   UNL A   1      41.563  30.080  32.299  1.00  0.00     0.074 A 
ATOM     51  C   UNL A   1      40.440  30.992  32.222  1.00  0.00     0.031 C 
ATOM     52  C   UNL A   1      40.317  25.901  27.574  1.00  0.00     0.029 A 
ATOM     53  C   UNL A   1      41.480  25.924  28.456  1.00  0.00     0.049 A 
ATOM     54  H   UNL A   1      41.855  27.253  30.017  1.00  0.00     0.167 HD
ATOM     55  C   UNL A   1      42.579  30.185  33.194  1.00  0.00     0.034 A 
ATOM     56  C   UNL A   1      42.519  25.066  28.399  1.00  0.00     0.034 A 
ATOM     57  C   UNL A   1      43.682  29.257  33.270  1.00  0.00     0.049 A 
ATOM     58  C   UNL A   1      43.652  25.221  29.382  1.00  0.00     0.074 A 
ATOM     59  C   UNL A   1      44.723  29.229  34.183  1.00  0.00     0.029 A 
ATOM     60  N   UNL A   1      43.897  28.200  32.394  1.00  0.00    -0.354 N 
ATOM     61  N   UNL A   1      43.800  26.106  30.341  1.00  0.00    -0.248 NA
ATOM     62  C   UNL A   1      44.754  24.256  29.279  1.00  0.00     0.031 C 
ATOM     63  C   UNL A   1      45.604  28.205  33.817  1.00  0.00     0.029 A 
ATOM     64  C   UNL A   1      45.074  27.540  32.722  1.00  0.00     0.049 A 
ATOM     65  H   UNL A   1      43.302  27.954  31.651  1.00  0.00     0.167 HD
ATOM     66  C   UNL A   1      44.995  25.779  30.976  1.00  0.00     0.074 A 
ATOM     67  C   UNL A   1      45.520  24.612  30.298  1.00  0.00     0.031 C 
ATOM     68  C   UNL A   1      45.599  26.386  32.031  1.00  0.00     0.034 A 
BRANCH  55  69
ATOM     69  C   UNL A   1      42.559  31.367  34.137  1.00  0.00     0.023 A 
ATOM     70  C   UNL A   1      41.764  31.379  35.297  1.00  0.00     0.031 A 
ATOM     71  C   UNL A   1      43.326  32.512  33.857  1.00  0.00     0.131 A 
ATOM     72  C   UNL A   1      41.691  32.537  36.085  1.00  0.00     0.055 A 
ATOM     73  C   UNL A   1      43.316  33.630  34.692  1.00  0.00     0.041 A 
ATOM     74  F   UNL A   1      44.091  32.569  32.755  1.00  0.00    -0.206 F 
ATOM     75  C   UNL A   1      42.482  33.654  35.806  1.00  0.00     0.022 A 
BRANCH  72  76
ATOM     76  S   UNL A   1      40.433  32.623  37.390  1.00  0.00     0.124 S 
ATOM     77  O   UNL A   1      39.967  34.002  37.258  1.00  0.00    -0.237 OA
ATOM     78  O   UNL A   1      39.485  31.588  36.980  1.00  0.00    -0.237 OA
ATOM     79  O   UNL A   1      41.180  32.337  38.608  1.00  0.00    -0.744 OA
ENDBRANCH  72  76
ENDBRANCH  55  69
BRANCH  56  80
ATOM     80  C   UNL A   1      42.550  23.982  27.374  1.00  0.00     0.023 A 
ATOM     81  C   UNL A   1      41.940  22.742  27.620  1.00  0.00     0.031 A 
ATOM     82  C   UNL A   1      43.225  24.156  26.153  1.00  0.00     0.131 A 
ATOM     83  C   UNL A   1      42.054  21.707  26.678  1.00  0.00     0.055 A 
ATOM     84  C   UNL A   1      43.291  23.140  25.197  1.00  0.00     0.041 A 
ATOM     85  F   UNL A   1      43.823  25.323  25.867  1.00  0.00    -0.206 F 
ATOM     86  C   UNL A   1      42.714  21.903  25.462  1.00  0.00     0.022 A 
BRANCH  83  87
ATOM     87  S   UNL A   1      41.395  20.072  27.102  1.00  0.00     0.124 S 
ATOM     88  O   UNL A   1      40.724  20.341  28.368  1.00  0.00    -0.237 OA
ATOM     89  O   UNL A   1      40.526  19.792  25.963  1.00  0.00    -0.237 OA
ATOM     90  O   UNL A   1      42.590  19.236  27.192  1.00  0.00    -0.744 OA
ENDBRANCH  83  87
ENDBRANCH  56  80
BRANCH  68  91
ATOM     91  C   UNL A   1      46.876  25.762  32.542  1.00  0.00     0.023 A 
ATOM     92  C   UNL A   1      48.116  25.996  31.922  1.00  0.00     0.031 A 
ATOM     93  C   UNL A   1      46.847  24.907  33.658  1.00  0.00     0.131 A 
ATOM     94  C   UNL A   1      49.265  25.339  32.387  1.00  0.00     0.055 A 
ATOM     95  C   UNL A   1      48.003  24.304  34.154  1.00  0.00     0.041 A 
ATOM     96  F   UNL A   1      45.690  24.645  34.287  1.00  0.00    -0.206 F 
ATOM     97  C   UNL A   1      49.220  24.508  33.509  1.00  0.00     0.022 A 
BRANCH  94  98
ATOM     98  S   UNL A   1      50.809  25.512  31.449  1.00  0.00     0.124 S 
ATOM     99  O   UNL A   1      50.365  25.252  30.083  1.00  0.00    -0.237 OA
ATOM    100  O   UNL A   1      51.200  26.887  31.740  1.00  0.00    -0.237 OA
ATOM    101  O   UNL A   1      51.678  24.486  32.024  1.00  0.00    -0.744 OA
ENDBRANCH  94  98
ENDBRANCH  68  91
ENDBRANCH  42  43
ENDBRANCH  34  37
ENDBRANCH  32  33
ENDBRANCH  31  32
ENDBRANCH   1  31
TORSDOF 19
ENDMDL
MODEL 2
REMARK VINA RESULT:     -12.2      2.472      7.578
REMARK SMILES O=C(NCCCCCCNC(=O)c1ccc(-c2c3nc(c(-c4cc(S(=O)(=O)[O-])ccc4F)c4ccc([nH]4)c(-c4cc(S(=O)(=O)[O-])ccc4F)c4nc(c(-c5cc(S(=O)(=O)[O-])ccc5F)c5ccc2[nH]5)C=C4)C=C3)cc1)C1=Cc2c(ccc(Cl)c2Oc2ccccc2)O[C@H]1C(F)(F)F
REMARK SMILES IDX 7 1 6 2 5 3 4 4 3 5 1 6 2 7 76 9 77 10 93 11 78 12 92 13
REMARK SMILES IDX 79 14 84 15 80 16 82 17 81 18 83 19 94 20 95 21 96 22 97 23
REMARK SMILES IDX 85 24 86 25 87 26 91 27 88 28 90 29 89 30 8 31 9 32 10 33
REMARK SMILES IDX 11 34 12 36 13 37 14 38 75 39 15 40 74 41 16 42 17 43 18 44
REMARK SMILES IDX 68 45 19 46 73 47 67 48 69 49 20 50 72 51 66 52 65 53 21 55
REMARK SMILES IDX 53 56 33 57 52 58 34 59 37 60 51 61 70 62 35 63 36 64 50 66
REMARK SMILES IDX 71 67 38 68 22 69 23 70 31 71 24 72 30 73 32 74 29 75 25 76
REMARK SMILES IDX 26 77 27 78 28 79 54 80 55 81 63 82 56 83 62 84 64 85 61 86
REMARK SMILES IDX 57 87 58 88 59 89 60 90 39 91 40 92 48 93 41 94 47 95 49 96
REMARK SMILES IDX 46 97 42 98 43 99 44 100 45 101
REMARK H PARENT 3 8 10 35 69 54 37 65
REMARK Flexibility Score: inf
ROOT
ATOM      1  C   UNL A   1      31.208  28.551  23.633  1.00  0.00     0.002 C 
ENDROOT
BRANCH   1   2
ATOM      2  C   UNL A   1      30.679  27.639  24.749  1.00  0.00     0.002 C 
BRANCH   2   3
ATOM      3  C   UNL A   1      29.738  26.510  24.329  1.00  0.00     0.021 C 
BRANCH   3   4
ATOM      4  C   UNL A   1      29.969  25.162  25.009  1.00  0.00     0.116 C 
BRANCH   4   5
ATOM      5  N   UNL A   1      31.119  25.126  25.898  1.00  0.00    -0.352 N 
ATOM      6  O   UNL A   1      33.187  24.560  26.592  1.00  0.00    -0.270 OA
ATOM      7  C   UNL A   1      32.364  24.605  25.679  1.00  0.00     0.251 C 
ATOM      8  H   UNL A   1      30.982  25.536  26.782  1.00  0.00     0.163 HD
BRANCH   7   9
ATOM      9  C   UNL A   1      32.741  24.075  24.353  1.00  0.00     0.067 C 
ATOM     10  C   UNL A   1      32.904  22.761  24.169  1.00  0.00     0.029 C 
ATOM     11  C   UNL A   1      33.255  24.993  23.297  1.00  0.00     0.314 C 
ATOM     12  C   UNL A   1      34.340  22.439  23.985  1.00  0.00     0.061 A 
ATOM     13  O   UNL A   1      34.637  24.658  22.941  1.00  0.00    -0.475 OA
ATOM     14  C   UNL A   1      35.137  23.445  23.383  1.00  0.00     0.131 A 
ATOM     15  C   UNL A   1      34.935  21.280  24.542  1.00  0.00     0.156 A 
ATOM     16  C   UNL A   1      36.520  23.313  23.349  1.00  0.00     0.049 A 
ATOM     17  C   UNL A   1      36.338  21.196  24.529  1.00  0.00     0.084 A 
ATOM     18  C   UNL A   1      37.120  22.201  23.942  1.00  0.00     0.028 A 
ATOM     19  Cl  UNL A   1      37.164  19.892  25.309  1.00  0.00    -0.080 Cl
BRANCH  11  20
ATOM     20  C   UNL A   1      32.360  24.987  22.043  1.00  0.00     0.429 C 
ATOM     21  F   UNL A   1      32.114  26.236  21.576  1.00  0.00    -0.167 F 
ATOM     22  F   UNL A   1      32.934  24.297  21.030  1.00  0.00    -0.167 F 
ATOM     23  F   UNL A   1      31.152  24.420  22.282  1.00  0.00    -0.167 F 
ENDBRANCH  11  20
BRANCH  15  24
ATOM     24  O   UNL A   1      34.276  20.258  25.224  1.00  0.00    -0.455 OA
BRANCH  24  25
ATOM     25  C   UNL A   1      33.849  19.160  24.517  1.00  0.00     0.127 A 
ATOM     26  C   UNL A   1      32.682  19.269  23.755  1.00  0.00     0.047 A 
ATOM     27  C   UNL A   1      34.620  17.995  24.484  1.00  0.00     0.047 A 
ATOM     28  C   UNL A   1      32.369  18.265  22.839  1.00  0.00     0.004 A 
ATOM     29  C   UNL A   1      34.292  16.989  23.574  1.00  0.00     0.004 A 
ATOM     30  C   UNL A   1      33.186  17.138  22.733  1.00  0.00     0.000 A 
ENDBRANCH  24  25
ENDBRANCH  15  24
ENDBRANCH   7   9
ENDBRANCH   4   5
ENDBRANCH   3   4
ENDBRANCH   2   3
ENDBRANCH   1   2
BRANCH   1  31
ATOM     31  C   UNL A   1      32.721  28.786  23.579  1.00  0.00     0.021 C 
BRANCH  31  32
ATOM     32  C   UNL A   1      33.387  29.296  24.857  1.00  0.00     0.116 C 
BRANCH  32  33
ATOM     33  N   UNL A   1      32.669  30.399  25.470  1.00  0.00    -0.352 N 
ATOM     34  C   UNL A   1      32.915  31.085  26.633  1.00  0.00     0.251 C 
ATOM     35  H   UNL A   1      31.877  30.704  24.972  1.00  0.00     0.163 HD
ATOM     36  O   UNL A   1      32.078  31.903  27.025  1.00  0.00    -0.269 OA
BRANCH  34  37
ATOM     37  C   UNL A   1      34.141  30.850  27.435  1.00  0.00     0.039 A 
ATOM     38  C   UNL A   1      34.361  29.571  27.961  1.00  0.00     0.014 A 
ATOM     39  C   UNL A   1      35.045  31.876  27.727  1.00  0.00     0.014 A 
ATOM     40  C   UNL A   1      35.499  29.310  28.730  1.00  0.00     0.010 A 
ATOM     41  C   UNL A   1      36.214  31.599  28.443  1.00  0.00     0.010 A 
ATOM     42  C   UNL A   1      36.452  30.315  28.958  1.00  0.00    -0.014 A 
BRANCH  42  43
ATOM     43  C   UNL A   1      37.689  30.040  29.742  1.00  0.00     0.031 A 
ATOM     44  C   UNL A   1      38.770  29.159  29.171  1.00  0.00     0.074 A 
ATOM     45  C   UNL A   1      37.821  30.542  30.986  1.00  0.00     0.049 A 
ATOM     46  N   UNL A   1      39.888  28.756  29.721  1.00  0.00    -0.248 NA
ATOM     47  C   UNL A   1      38.550  28.642  27.813  1.00  0.00     0.031 C 
ATOM     48  C   UNL A   1      36.836  31.390  31.662  1.00  0.00     0.029 A 
ATOM     49  N   UNL A   1      38.833  30.411  31.906  1.00  0.00    -0.354 N 
ATOM     50  C   UNL A   1      40.497  27.925  28.786  1.00  0.00     0.074 A 
ATOM     51  C   UNL A   1      39.594  27.843  27.656  1.00  0.00     0.031 C 
ATOM     52  C   UNL A   1      37.304  31.723  32.875  1.00  0.00     0.029 A 
ATOM     53  C   UNL A   1      38.598  31.079  33.086  1.00  0.00     0.049 A 
ATOM     54  H   UNL A   1      39.649  29.888  31.738  1.00  0.00     0.167 HD
ATOM     55  C   UNL A   1      41.702  27.303  28.853  1.00  0.00     0.034 A 
ATOM     56  C   UNL A   1      39.333  31.158  34.213  1.00  0.00     0.034 A 
ATOM     57  C   UNL A   1      42.599  27.410  29.979  1.00  0.00     0.049 A 
ATOM     58  C   UNL A   1      40.654  30.433  34.278  1.00  0.00     0.074 A 
ATOM     59  C   UNL A   1      43.871  26.881  30.120  1.00  0.00     0.029 A 
ATOM     60  N   UNL A   1      42.318  28.080  31.163  1.00  0.00    -0.354 N 
ATOM     61  N   UNL A   1      41.238  29.694  33.363  1.00  0.00    -0.248 NA
ATOM     62  C   UNL A   1      41.417  30.559  35.526  1.00  0.00     0.031 C 
ATOM     63  C   UNL A   1      44.328  27.167  31.412  1.00  0.00     0.029 A 
ATOM     64  C   UNL A   1      43.375  27.943  32.053  1.00  0.00     0.049 A 
ATOM     65  H   UNL A   1      41.490  28.579  31.345  1.00  0.00     0.167 HD
ATOM     66  C   UNL A   1      42.453  29.298  33.915  1.00  0.00     0.074 A 
ATOM     67  C   UNL A   1      42.520  29.888  35.236  1.00  0.00     0.031 C 
ATOM     68  C   UNL A   1      43.428  28.522  33.375  1.00  0.00     0.034 A 
BRANCH  55  69
ATOM     69  C   UNL A   1      42.099  26.422  27.690  1.00  0.00     0.023 A 
ATOM     70  C   UNL A   1      41.723  25.069  27.621  1.00  0.00     0.031 A 
ATOM     71  C   UNL A   1      42.890  26.937  26.648  1.00  0.00     0.131 A 
ATOM     72  C   UNL A   1      42.203  24.260  26.580  1.00  0.00     0.055 A 
ATOM     73  C   UNL A   1      43.295  26.147  25.569  1.00  0.00     0.041 A 
ATOM     74  F   UNL A   1      43.298  28.216  26.666  1.00  0.00    -0.206 F 
ATOM     75  C   UNL A   1      42.965  24.795  25.539  1.00  0.00     0.022 A 
BRANCH  72  76
ATOM     76  S   UNL A   1      41.952  22.466  26.686  1.00  0.00     0.124 S 
ATOM     77  O   UNL A   1      42.414  22.026  25.371  1.00  0.00    -0.237 OA
ATOM     78  O   UNL A   1      42.802  22.097  27.817  1.00  0.00    -0.237 OA
ATOM     79  O   UNL A   1      40.519  22.332  26.914  1.00  0.00    -0.744 OA
ENDBRANCH  72  76
ENDBRANCH  55  69
BRANCH  56  80
ATOM     80  C   UNL A   1      38.846  31.949  35.381  1.00  0.00     0.023 A 
ATOM     81  C   UNL A   1      38.299  31.310  36.505  1.00  0.00     0.031 A 
ATOM     82  C   UNL A   1      38.883  33.354  35.373  1.00  0.00     0.131 A 
ATOM     83  C   UNL A   1      37.769  32.074  37.556  1.00  0.00     0.055 A 
ATOM     84  C   UNL A   1      38.401  34.110  36.444  1.00  0.00     0.041 A 
ATOM     85  F   UNL A   1      39.398  34.015  34.324  1.00  0.00    -0.206 F 
ATOM     86  C   UNL A   1      37.829  33.469  37.539  1.00  0.00     0.022 A 
BRANCH  83  87
ATOM     87  S   UNL A   1      36.925  31.216  38.912  1.00  0.00     0.124 S 
ATOM     88  O   UNL A   1      37.853  31.422  40.018  1.00  0.00    -0.237 OA
ATOM     89  O   UNL A   1      35.662  31.944  38.991  1.00  0.00    -0.237 OA
ATOM     90  O   UNL A   1      36.820  29.840  38.432  1.00  0.00    -0.744 OA
ENDBRANCH  83  87
ENDBRANCH  56  80
BRANCH  68  91
ATOM     91  C   UNL A   1      44.674  28.310  34.202  1.00  0.00     0.023 A 
ATOM     92  C   UNL A   1      44.826  27.191  35.041  1.00  0.00     0.031 A 
ATOM     93  C   UNL A   1      45.718  29.251  34.161  1.00  0.00     0.131 A 
ATOM     94  C   UNL A   1      45.968  27.072  35.846  1.00  0.00     0.055 A 
ATOM     95  C   UNL A   1      46.880  29.095  34.918  1.00  0.00     0.041 A 
ATOM     96  F   UNL A   1      45.625  30.340  33.380  1.00  0.00    -0.206 F 
ATOM     97  C   UNL A   1      47.004  28.008  35.777  1.00  0.00     0.022 A 
BRANCH  94  98
ATOM     98  S   UNL A   1      46.045  25.722  37.056  1.00  0.00     0.124 S 
ATOM     99  O   UNL A   1      47.429  25.275  36.925  1.00  0.00    -0.237 OA
ATOM    100  O   UNL A   1      45.712  26.400  38.304  1.00  0.00    -0.237 OA
ATOM    101  O   UNL A   1      45.039  24.774  36.579  1.00  0.00    -0.744 OA
ENDBRANCH  94  98
ENDBRANCH  68  91
ENDBRANCH  42  43
ENDBRANCH  34  37
ENDBRANCH  32  33
ENDBRANCH  31  32
ENDBRANCH   1  31
TORSDOF 19
ENDMDL
MODEL 3
REMARK VINA RESULT:     -12.1      1.802      2.129
REMARK SMILES O=C(NCCCCCCNC(=O)c1ccc(-c2c3nc(c(-c4cc(S(=O)(=O)[O-])ccc4F)c4ccc([nH]4)c(-c4cc(S(=O)(=O)[O-])ccc4F)c4nc(c(-c5cc(S(=O)(=O)[O-])ccc5F)c5ccc2[nH]5)C=C4)C=C3)cc1)C1=Cc2c(ccc(Cl)c2Oc2ccccc2)O[C@H]1C(F)(F)F
REMARK SMILES IDX 7 1 6 2 5 3 4 4 3 5 1 6 2 7 76 9 77 10 93 11 78 12 92 13
REMARK SMILES IDX 79 14 84 15 80 16 82 17 81 18 83 19 94 20 95 21 96 22 97 23
REMARK SMILES IDX 85 24 86 25 87 26 91 27 88 28 90 29 89 30 8 31 9 32 10 33
REMARK SMILES IDX 11 34 12 36 13 37 14 38 75 39 15 40 74 41 16 42 17 43 18 44
REMARK SMILES IDX 68 45 19 46 73 47 67 48 69 49 20 50 72 51 66 52 65 53 21 55
REMARK SMILES IDX 53 56 33 57 52 58 34 59 37 60 51 61 70 62 35 63 36 64 50 66
REMARK SMILES IDX 71 67 38 68 22 69 23 70 31 71 24 72 30 73 32 74 29 75 25 76
REMARK SMILES IDX 26 77 27 78 28 79 54 80 55 81 63 82 56 83 62 84 64 85 61 86
REMARK SMILES IDX 57 87 58 88 59 89 60 90 39 91 40 92 48 93 41 94 47 95 49 96
REMARK SMILES IDX 46 97 42 98 43 99 44 100 45 101
REMARK H PARENT 3 8 10 35 69 54 37 65
REMARK Flexibility Score: inf
ROOT
ATOM      1  C   UNL A   1      31.357  28.637  24.862  1.00  0.00     0.002 C 
ENDROOT
BRANCH   1   2
ATOM      2  C   UNL A   1      31.259  27.318  25.641  1.00  0.00     0.002 C 
BRANCH   2   3
ATOM      3  C   UNL A   1      30.066  26.416  25.324  1.00  0.00     0.021 C 
BRANCH   3   4
ATOM      4  C   UNL A   1      30.137  24.996  25.881  1.00  0.00     0.116 C 
BRANCH   4   5
ATOM      5  N   UNL A   1      31.301  24.733  26.711  1.00  0.00    -0.352 N 
ATOM      6  O   UNL A   1      33.325  23.893  27.237  1.00  0.00    -0.270 OA
ATOM      7  C   UNL A   1      32.486  24.140  26.373  1.00  0.00     0.251 C 
ATOM      8  H   UNL A   1      31.227  25.025  27.648  1.00  0.00     0.163 HD
BRANCH   7   9
ATOM      9  C   UNL A   1      32.776  23.770  24.973  1.00  0.00     0.067 C 
ATOM     10  C   UNL A   1      32.973  22.491  24.635  1.00  0.00     0.029 C 
ATOM     11  C   UNL A   1      33.170  24.817  23.987  1.00  0.00     0.314 C 
ATOM     12  C   UNL A   1      34.401  22.257  24.309  1.00  0.00     0.061 A 
ATOM     13  O   UNL A   1      34.531  24.584  23.494  1.00  0.00    -0.475 OA
ATOM     14  C   UNL A   1      35.109  23.356  23.763  1.00  0.00     0.131 A 
ATOM     15  C   UNL A   1      35.081  21.074  24.691  1.00  0.00     0.156 A 
ATOM     16  C   UNL A   1      36.489  23.291  23.612  1.00  0.00     0.049 A 
ATOM     17  C   UNL A   1      36.481  21.055  24.564  1.00  0.00     0.084 A 
ATOM     18  C   UNL A   1      37.176  22.151  24.033  1.00  0.00     0.028 A 
ATOM     19  Cl  UNL A   1      37.414  19.715  25.133  1.00  0.00    -0.080 Cl
BRANCH  11  20
ATOM     20  C   UNL A   1      32.179  24.903  22.810  1.00  0.00     0.429 C 
ATOM     21  F   UNL A   1      31.824  26.180  22.524  1.00  0.00    -0.167 F 
ATOM     22  F   UNL A   1      32.709  24.382  21.679  1.00  0.00    -0.167 F 
ATOM     23  F   UNL A   1      31.029  24.230  23.063  1.00  0.00    -0.167 F 
ENDBRANCH  11  20
BRANCH  15  24
ATOM     24  O   UNL A   1      34.517  19.956  25.305  1.00  0.00    -0.455 OA
BRANCH  24  25
ATOM     25  C   UNL A   1      33.977  18.970  24.516  1.00  0.00     0.127 A 
ATOM     26  C   UNL A   1      32.788  19.239  23.830  1.00  0.00     0.047 A 
ATOM     27  C   UNL A   1      34.655  17.763  24.327  1.00  0.00     0.047 A 
ATOM     28  C   UNL A   1      32.360  18.359  22.836  1.00  0.00     0.004 A 
ATOM     29  C   UNL A   1      34.213  16.882  23.338  1.00  0.00     0.004 A 
ATOM     30  C   UNL A   1      33.085  17.194  22.576  1.00  0.00     0.000 A 
ENDBRANCH  24  25
ENDBRANCH  15  24
ENDBRANCH   7   9
ENDBRANCH   4   5
ENDBRANCH   3   4
ENDBRANCH   2   3
ENDBRANCH   1   2
BRANCH   1  31
ATOM     31  C   UNL A   1      32.722  29.333  24.831  1.00  0.00     0.021 C 
BRANCH  31  32
ATOM     32  C   UNL A   1      33.374  29.631  26.180  1.00  0.00     0.116 C 
BRANCH  32  33
ATOM     33  N   UNL A   1      33.198  31.009  26.606  1.00  0.00    -0.352 N 
ATOM     34  C   UNL A   1      33.918  31.765  27.495  1.00  0.00     0.251 C 
ATOM     35  H   UNL A   1      32.438  31.475  26.188  1.00  0.00     0.163 HD
ATOM     36  O   UNL A   1      33.491  32.882  27.803  1.00  0.00    -0.269 OA
BRANCH  34  37
ATOM     37  C   UNL A   1      35.172  31.267  28.110  1.00  0.00     0.039 A 
ATOM     38  C   UNL A   1      35.146  30.037  28.780  1.00  0.00     0.014 A 
ATOM     39  C   UNL A   1      36.356  32.011  28.091  1.00  0.00     0.014 A 
ATOM     40  C   UNL A   1      36.305  29.535  29.381  1.00  0.00     0.010 A 
ATOM     41  C   UNL A   1      37.529  31.480  28.638  1.00  0.00     0.010 A 
ATOM     42  C   UNL A   1      37.516  30.240  29.294  1.00  0.00    -0.014 A 
BRANCH  42  43
ATOM     43  C   UNL A   1      38.766  29.697  29.895  1.00  0.00     0.031 A 
ATOM     44  C   UNL A   1      39.260  30.217  31.221  1.00  0.00     0.074 A 
ATOM     45  C   UNL A   1      39.484  28.771  29.229  1.00  0.00     0.049 A 
ATOM     46  N   UNL A   1      40.353  29.913  31.876  1.00  0.00    -0.248 NA
ATOM     47  C   UNL A   1      38.427  31.231  31.882  1.00  0.00     0.031 C 
ATOM     48  C   UNL A   1      39.127  28.203  27.928  1.00  0.00     0.029 A 
ATOM     49  N   UNL A   1      40.666  28.147  29.551  1.00  0.00    -0.354 N 
ATOM     50  C   UNL A   1      40.349  30.711  33.017  1.00  0.00     0.074 A 
ATOM     51  C   UNL A   1      39.169  31.548  32.932  1.00  0.00     0.031 C 
ATOM     52  C   UNL A   1      40.053  27.297  27.576  1.00  0.00     0.029 A 
ATOM     53  C   UNL A   1      41.094  27.249  28.599  1.00  0.00     0.049 A 
ATOM     54  H   UNL A   1      41.159  28.324  30.383  1.00  0.00     0.167 HD
ATOM     55  C   UNL A   1      41.234  30.732  34.046  1.00  0.00     0.034 A 
ATOM     56  C   UNL A   1      42.202  26.483  28.550  1.00  0.00     0.034 A 
ATOM     57  C   UNL A   1      42.395  29.878  34.125  1.00  0.00     0.049 A 
ATOM     58  C   UNL A   1      43.188  26.546  29.689  1.00  0.00     0.074 A 
ATOM     59  C   UNL A   1      43.315  29.767  35.153  1.00  0.00     0.029 A 
ATOM     60  N   UNL A   1      42.806  28.996  33.132  1.00  0.00    -0.354 N 
ATOM     61  N   UNL A   1      43.141  27.268  30.784  1.00  0.00    -0.248 NA
ATOM     62  C   UNL A   1      44.373  25.685  29.586  1.00  0.00     0.031 C 
ATOM     63  C   UNL A   1      44.320  28.878  34.755  1.00  0.00     0.029 A 
ATOM     64  C   UNL A   1      43.986  28.370  33.509  1.00  0.00     0.049 A 
ATOM     65  H   UNL A   1      42.330  28.839  32.286  1.00  0.00     0.167 HD
ATOM     66  C   UNL A   1      44.273  26.920  31.516  1.00  0.00     0.074 A 
ATOM     67  C   UNL A   1      44.976  25.917  30.742  1.00  0.00     0.031 C 
ATOM     68  C   UNL A   1      44.689  27.382  32.724  1.00  0.00     0.034 A 
BRANCH  55  69
ATOM     69  C   UNL A   1      40.997  31.738  35.149  1.00  0.00     0.023 A 
ATOM     70  C   UNL A   1      39.990  31.560  36.114  1.00  0.00     0.031 A 
ATOM     71  C   UNL A   1      41.774  32.909  35.221  1.00  0.00     0.131 A 
ATOM     72  C   UNL A   1      39.733  32.569  37.054  1.00  0.00     0.055 A 
ATOM     73  C   UNL A   1      41.570  33.871  36.213  1.00  0.00     0.041 A 
ATOM     74  F   UNL A   1      42.738  33.146  34.318  1.00  0.00    -0.206 F 
ATOM     75  C   UNL A   1      40.533  33.712  37.127  1.00  0.00     0.022 A 
BRANCH  72  76
ATOM     76  S   UNL A   1      38.241  32.443  38.079  1.00  0.00     0.124 S 
ATOM     77  O   UNL A   1      37.544  33.681  37.737  1.00  0.00    -0.237 OA
ATOM     78  O   UNL A   1      37.628  31.210  37.589  1.00  0.00    -0.237 OA
ATOM     79  O   UNL A   1      38.762  32.383  39.439  1.00  0.00    -0.744 OA
ENDBRANCH  72  76
ENDBRANCH  55  69
BRANCH  56  80
ATOM     80  C   UNL A   1      42.451  25.587  27.383  1.00  0.00     0.023 A 
ATOM     81  C   UNL A   1      41.990  24.261  27.382  1.00  0.00     0.031 A 
ATOM     82  C   UNL A   1      43.189  26.030  26.271  1.00  0.00     0.131 A 
ATOM     83  C   UNL A   1      42.308  23.410  26.312  1.00  0.00     0.055 A 
ATOM     84  C   UNL A   1      43.459  25.195  25.185  1.00  0.00     0.041 A 
ATOM     85  F   UNL A   1      43.651  27.289  26.220  1.00  0.00    -0.206 F 
ATOM     86  C   UNL A   1      43.028  23.872  25.207  1.00  0.00     0.022 A 
BRANCH  83  87
ATOM     87  S   UNL A   1      41.835  21.663  26.422  1.00  0.00     0.124 S 
ATOM     88  O   UNL A   1      42.703  21.056  25.420  1.00  0.00    -0.237 OA
ATOM     89  O   UNL A   1      42.146  21.352  27.814  1.00  0.00    -0.237 OA
ATOM     90  O   UNL A   1      40.411  21.674  26.092  1.00  0.00    -0.744 OA
ENDBRANCH  83  87
ENDBRANCH  56  80
BRANCH  68  91
ATOM     91  C   UNL A   1      45.943  26.767  33.299  1.00  0.00     0.023 A 
ATOM     92  C   UNL A   1      45.906  25.588  34.066  1.00  0.00     0.031 A 
ATOM     93  C   UNL A   1      47.191  27.379  33.088  1.00  0.00     0.131 A 
ATOM     94  C   UNL A   1      47.086  25.092  34.641  1.00  0.00     0.055 A 
ATOM     95  C   UNL A   1      48.370  26.846  33.611  1.00  0.00     0.041 A 
ATOM     96  F   UNL A   1      47.285  28.507  32.366  1.00  0.00    -0.206 F 
ATOM     97  C   UNL A   1      48.320  25.704  34.404  1.00  0.00     0.022 A 
BRANCH  94  98
ATOM     98  S   UNL A   1      46.976  23.685  35.781  1.00  0.00     0.124 S 
ATOM     99  O   UNL A   1      47.116  22.549  34.875  1.00  0.00    -0.237 OA
ATOM    100  O   UNL A   1      48.099  23.923  36.681  1.00  0.00    -0.237 OA
ATOM    101  O   UNL A   1      45.654  23.835  36.387  1.00  0.00    -0.744 OA
ENDBRANCH  94  98
ENDBRANCH  68  91
ENDBRANCH  42  43
ENDBRANCH  34  37
ENDBRANCH  32  33
ENDBRANCH  31  32
ENDBRANCH   1  31
TORSDOF 19
ENDMDL
