MODEL 1
REMARK VINA RESULT:     -10.4      0.000      0.000
REMARK SMILES CC[C@@H](Sc1cccc(N)c1)C(=O)NCCCCCCNC(=O)c1ccc(-c2c3nc(c(-c4cc(S(=O)(=O)[O-])ccc4F)c4ccc([nH]4)c(-c4cc(S(=O)(=O)[O-])ccc4F)c4nc(c(-c5cc(S(=O)(=O)[O-])ccc5F)c5ccc2[nH]5)C=C4)C=C3)cc1
REMARK SMILES IDX 17 1 16 2 15 3 14 4 12 5 13 6 3 8 2 9 1 10 4 11 5 12 6 13
REMARK SMILES IDX 11 14 7 15 9 16 8 17 10 18 18 21 19 22 20 23 21 24 22 25
REMARK SMILES IDX 23 27 24 28 25 29 86 30 26 31 85 32 27 33 28 34 29 35 79 36
REMARK SMILES IDX 30 37 84 38 78 39 80 40 31 41 83 42 77 43 76 44 32 46 64 47
REMARK SMILES IDX 44 48 63 49 45 50 48 51 62 52 81 53 46 54 47 55 61 57 82 58
REMARK SMILES IDX 49 59 33 60 34 61 42 62 35 63 41 64 43 65 40 66 36 67 37 68
REMARK SMILES IDX 38 69 39 70 65 71 66 72 74 73 67 74 73 75 75 76 72 77 68 78
REMARK SMILES IDX 69 79 70 80 71 81 50 82 51 83 59 84 52 85 58 86 60 87 57 88
REMARK SMILES IDX 53 89 54 90 55 91 56 92
REMARK H PARENT 14 7 10 19 10 20 21 26 80 45 48 56
REMARK Flexibility Score: inf
ROOT
ATOM      1  C   UNL A   1      37.586  22.556  25.155  1.00  0.00     0.002 C 
ENDROOT
BRANCH   1   2
ATOM      2  C   UNL A   1      36.469  23.591  25.305  1.00  0.00     0.021 C 
BRANCH   2   3
ATOM      3  C   UNL A   1      35.094  22.976  25.571  1.00  0.00     0.116 C 
BRANCH   3   4
ATOM      4  N   UNL A   1      34.200  23.181  24.439  1.00  0.00    -0.355 N 
ATOM      5  C   UNL A   1      33.093  22.475  24.046  1.00  0.00     0.233 C 
ATOM      6  O   UNL A   1      32.504  22.846  23.027  1.00  0.00    -0.274 OA
ATOM      7  H   UNL A   1      34.427  23.948  23.865  1.00  0.00     0.163 HD
BRANCH   5   8
ATOM      8  C   UNL A   1      32.609  21.238  24.839  1.00  0.00     0.140 C 
BRANCH   8   9
ATOM      9  C   UNL A   1      31.459  21.692  25.765  1.00  0.00     0.021 C 
ATOM     10  C   UNL A   1      31.687  22.868  26.692  1.00  0.00     0.005 C 
ENDBRANCH   8   9
BRANCH   8  11
ATOM     11  S   UNL A   1      32.435  19.896  23.555  1.00  0.00    -0.113 SA
BRANCH  11  12
ATOM     12  C   UNL A   1      33.071  18.406  24.271  1.00  0.00     0.010 A 
ATOM     13  C   UNL A   1      34.463  18.263  24.289  1.00  0.00     0.015 A 
ATOM     14  C   UNL A   1      32.281  17.391  24.809  1.00  0.00     0.040 A 
ATOM     15  C   UNL A   1      35.048  17.096  24.772  1.00  0.00     0.003 A 
ATOM     16  C   UNL A   1      32.848  16.170  25.186  1.00  0.00     0.032 A 
ATOM     17  C   UNL A   1      34.239  16.049  25.208  1.00  0.00     0.025 A 
BRANCH  16  18
ATOM     18  N   UNL A   1      32.045  15.132  25.639  1.00  0.00    -0.399 N 
ATOM     19  H   UNL A   1      31.151  14.996  25.251  1.00  0.00     0.156 HD
ATOM     20  H   UNL A   1      32.369  14.534  26.351  1.00  0.00     0.156 HD
ENDBRANCH  16  18
ENDBRANCH  11  12
ENDBRANCH   8  11
ENDBRANCH   5   8
ENDBRANCH   3   4
ENDBRANCH   2   3
ENDBRANCH   1   2
BRANCH   1  21
ATOM     21  C   UNL A   1      37.113  21.156  24.751  1.00  0.00     0.002 C 
BRANCH  21  22
ATOM     22  C   UNL A   1      38.131  20.035  24.980  1.00  0.00     0.021 C 
BRANCH  22  23
ATOM     23  C   UNL A   1      39.260  20.391  25.943  1.00  0.00     0.116 C 
BRANCH  23  24
ATOM     24  N   UNL A   1      40.255  19.335  26.024  1.00  0.00    -0.352 N 
ATOM     25  C   UNL A   1      41.622  19.427  26.104  1.00  0.00     0.251 C 
ATOM     26  H   UNL A   1      39.897  18.418  26.019  1.00  0.00     0.163 HD
ATOM     27  O   UNL A   1      42.311  18.422  25.930  1.00  0.00    -0.269 OA
BRANCH  25  28
ATOM     28  C   UNL A   1      42.263  20.732  26.376  1.00  0.00     0.039 A 
ATOM     29  C   UNL A   1      42.387  21.654  25.335  1.00  0.00     0.014 A 
ATOM     30  C   UNL A   1      42.742  21.046  27.652  1.00  0.00     0.014 A 
ATOM     31  C   UNL A   1      42.926  22.917  25.589  1.00  0.00     0.010 A 
ATOM     32  C   UNL A   1      43.215  22.330  27.920  1.00  0.00     0.010 A 
ATOM     33  C   UNL A   1      43.304  23.283  26.893  1.00  0.00    -0.014 A 
BRANCH  33  34
ATOM     34  C   UNL A   1      43.759  24.666  27.199  1.00  0.00     0.031 A 
ATOM     35  C   UNL A   1      42.791  25.688  27.733  1.00  0.00     0.074 A 
ATOM     36  C   UNL A   1      45.037  25.012  26.938  1.00  0.00     0.049 A 
ATOM     37  N   UNL A   1      42.992  26.953  27.999  1.00  0.00    -0.248 NA
ATOM     38  C   UNL A   1      41.414  25.235  27.981  1.00  0.00     0.031 C 
ATOM     39  C   UNL A   1      46.057  24.116  26.385  1.00  0.00     0.029 A 
ATOM     40  N   UNL A   1      45.698  26.205  27.093  1.00  0.00    -0.354 N 
ATOM     41  C   UNL A   1      41.769  27.450  28.436  1.00  0.00     0.074 A 
ATOM     42  C   UNL A   1      40.821  26.360  28.353  1.00  0.00     0.031 C 
ATOM     43  C   UNL A   1      47.216  24.784  26.271  1.00  0.00     0.029 A 
ATOM     44  C   UNL A   1      47.014  26.167  26.687  1.00  0.00     0.049 A 
ATOM     45  H   UNL A   1      45.272  27.013  27.461  1.00  0.00     0.167 HD
ATOM     46  C   UNL A   1      41.473  28.698  28.878  1.00  0.00     0.034 A 
ATOM     47  C   UNL A   1      47.945  27.141  26.634  1.00  0.00     0.034 A 
ATOM     48  C   UNL A   1      42.434  29.769  28.967  1.00  0.00     0.049 A 
ATOM     49  C   UNL A   1      47.573  28.528  27.099  1.00  0.00     0.074 A 
ATOM     50  C   UNL A   1      42.251  31.048  29.466  1.00  0.00     0.029 A 
ATOM     51  N   UNL A   1      43.752  29.698  28.538  1.00  0.00    -0.354 N 
ATOM     52  N   UNL A   1      46.427  28.960  27.573  1.00  0.00    -0.248 NA
ATOM     53  C   UNL A   1      48.621  29.555  27.031  1.00  0.00     0.031 C 
ATOM     54  C   UNL A   1      43.429  31.773  29.262  1.00  0.00     0.029 A 
ATOM     55  C   UNL A   1      44.378  30.923  28.718  1.00  0.00     0.049 A 
ATOM     56  H   UNL A   1      44.181  28.896  28.159  1.00  0.00     0.167 HD
ATOM     57  C   UNL A   1      46.631  30.301  27.891  1.00  0.00     0.074 A 
ATOM     58  C   UNL A   1      48.013  30.596  27.577  1.00  0.00     0.031 C 
ATOM     59  C   UNL A   1      45.755  31.208  28.395  1.00  0.00     0.034 A 
BRANCH  46  60
ATOM     60  C   UNL A   1      40.045  28.987  29.275  1.00  0.00     0.023 A 
ATOM     61  C   UNL A   1      39.644  29.041  30.621  1.00  0.00     0.031 A 
ATOM     62  C   UNL A   1      39.078  29.247  28.288  1.00  0.00     0.131 A 
ATOM     63  C   UNL A   1      38.303  29.305  30.941  1.00  0.00     0.055 A 
ATOM     64  C   UNL A   1      37.762  29.580  28.615  1.00  0.00     0.041 A 
ATOM     65  F   UNL A   1      39.397  29.188  26.986  1.00  0.00    -0.206 F 
ATOM     66  C   UNL A   1      37.366  29.603  29.949  1.00  0.00     0.022 A 
BRANCH  63  67
ATOM     67  S   UNL A   1      37.775  29.153  32.669  1.00  0.00     0.124 S 
ATOM     68  O   UNL A   1      37.908  27.716  32.893  1.00  0.00    -0.237 OA
ATOM     69  O   UNL A   1      38.735  30.000  33.369  1.00  0.00    -0.237 OA
ATOM     70  O   UNL A   1      36.401  29.649  32.653  1.00  0.00    -0.744 OA
ENDBRANCH  63  67
ENDBRANCH  46  60
BRANCH  47  71
ATOM     71  C   UNL A   1      49.311  26.866  26.093  1.00  0.00     0.023 A 
ATOM     72  C   UNL A   1      49.697  27.340  24.828  1.00  0.00     0.031 A 
ATOM     73  C   UNL A   1      50.221  26.054  26.794  1.00  0.00     0.131 A 
ATOM     74  C   UNL A   1      50.922  26.937  24.274  1.00  0.00     0.055 A 
ATOM     75  C   UNL A   1      51.469  25.716  26.269  1.00  0.00     0.041 A 
ATOM     76  F   UNL A   1      49.906  25.570  28.007  1.00  0.00    -0.206 F 
ATOM     77  C   UNL A   1      51.817  26.142  24.991  1.00  0.00     0.022 A 
BRANCH  74  78
ATOM     78  S   UNL A   1      51.266  27.354  22.542  1.00  0.00     0.124 S 
ATOM     79  O   UNL A   1      50.152  26.709  21.856  1.00  0.00    -0.237 OA
ATOM     80  O   UNL A   1      51.243  28.813  22.571  1.00  0.00    -0.237 OA
ATOM     81  O   UNL A   1      52.577  26.756  22.302  1.00  0.00    -0.744 OA
ENDBRANCH  74  78
ENDBRANCH  47  71
BRANCH  59  82
ATOM     82  C   UNL A   1      46.288  32.592  28.679  1.00  0.00     0.023 A 
ATOM     83  C   UNL A   1      46.233  33.618  27.720  1.00  0.00     0.031 A 
ATOM     84  C   UNL A   1      46.872  32.884  29.926  1.00  0.00     0.131 A 
ATOM     85  C   UNL A   1      46.809  34.868  27.998  1.00  0.00     0.055 A 
ATOM     86  C   UNL A   1      47.379  34.149  30.221  1.00  0.00     0.041 A 
ATOM     87  F   UNL A   1      46.955  31.942  30.878  1.00  0.00    -0.206 F 
ATOM     88  C   UNL A   1      47.363  35.145  29.249  1.00  0.00     0.022 A 
BRANCH  85  89
ATOM     89  S   UNL A   1      46.914  36.092  26.665  1.00  0.00     0.124 S 
ATOM     90  O   UNL A   1      46.016  37.138  27.141  1.00  0.00    -0.237 OA
ATOM     91  O   UNL A   1      48.335  36.426  26.660  1.00  0.00    -0.237 OA
ATOM     92  O   UNL A   1      46.447  35.360  25.489  1.00  0.00    -0.744 OA
ENDBRANCH  85  89
ENDBRANCH  59  82
ENDBRANCH  33  34
ENDBRANCH  25  28
ENDBRANCH  23  24
ENDBRANCH  22  23
ENDBRANCH  21  22
ENDBRANCH   1  21
TORSDOF 20
ENDMDL
MODEL 2
REMARK VINA RESULT:     -10.4      2.598      4.117
REMARK SMILES CC[C@@H](Sc1cccc(N)c1)C(=O)NCCCCCCNC(=O)c1ccc(-c2c3nc(c(-c4cc(S(=O)(=O)[O-])ccc4F)c4ccc([nH]4)c(-c4cc(S(=O)(=O)[O-])ccc4F)c4nc(c(-c5cc(S(=O)(=O)[O-])ccc5F)c5ccc2[nH]5)C=C4)C=C3)cc1
REMARK SMILES IDX 17 1 16 2 15 3 14 4 12 5 13 6 3 8 2 9 1 10 4 11 5 12 6 13
REMARK SMILES IDX 11 14 7 15 9 16 8 17 10 18 18 21 19 22 20 23 21 24 22 25
REMARK SMILES IDX 23 27 24 28 25 29 86 30 26 31 85 32 27 33 28 34 29 35 79 36
REMARK SMILES IDX 30 37 84 38 78 39 80 40 31 41 83 42 77 43 76 44 32 46 64 47
REMARK SMILES IDX 44 48 63 49 45 50 48 51 62 52 81 53 46 54 47 55 61 57 82 58
REMARK SMILES IDX 49 59 33 60 34 61 42 62 35 63 41 64 43 65 40 66 36 67 37 68
REMARK SMILES IDX 38 69 39 70 65 71 66 72 74 73 67 74 73 75 75 76 72 77 68 78
REMARK SMILES IDX 69 79 70 80 71 81 50 82 51 83 59 84 52 85 58 86 60 87 57 88
REMARK SMILES IDX 53 89 54 90 55 91 56 92
REMARK H PARENT 14 7 10 19 10 20 21 26 80 45 48 56
REMARK Flexibility Score: inf
ROOT
ATOM      1  C   UNL A   1      36.796  22.410  25.197  1.00  0.00     0.002 C 
ENDROOT
BRANCH   1   2
ATOM      2  C   UNL A   1      35.934  23.172  26.207  1.00  0.00     0.021 C 
BRANCH   2   3
ATOM      3  C   UNL A   1      34.709  23.843  25.586  1.00  0.00     0.116 C 
BRANCH   3   4
ATOM      4  N   UNL A   1      33.560  23.771  26.480  1.00  0.00    -0.355 N 
ATOM      5  C   UNL A   1      32.290  24.261  26.330  1.00  0.00     0.233 C 
ATOM      6  O   UNL A   1      31.489  24.079  27.251  1.00  0.00    -0.274 OA
ATOM      7  H   UNL A   1      33.724  23.294  27.326  1.00  0.00     0.163 HD
BRANCH   5   8
ATOM      8  C   UNL A   1      31.877  25.039  25.058  1.00  0.00     0.140 C 
BRANCH   8   9
ATOM      9  C   UNL A   1      30.763  24.234  24.355  1.00  0.00     0.021 C 
ATOM     10  C   UNL A   1      31.133  23.330  23.197  1.00  0.00     0.005 C 
ENDBRANCH   8   9
BRANCH   8  11
ATOM     11  S   UNL A   1      31.674  26.802  25.633  1.00  0.00    -0.113 SA
BRANCH  11  12
ATOM     12  C   UNL A   1      30.733  27.647  24.393  1.00  0.00     0.010 A 
ATOM     13  C   UNL A   1      29.394  27.264  24.251  1.00  0.00     0.015 A 
ATOM     14  C   UNL A   1      31.238  28.652  23.570  1.00  0.00     0.040 A 
ATOM     15  C   UNL A   1      28.599  27.828  23.258  1.00  0.00     0.003 A 
ATOM     16  C   UNL A   1      30.487  29.140  22.496  1.00  0.00     0.032 A 
ATOM     17  C   UNL A   1      29.151  28.755  22.376  1.00  0.00     0.025 A 
BRANCH  16  18
ATOM     18  N   UNL A   1      31.029  30.078  21.626  1.00  0.00    -0.399 N 
ATOM     19  H   UNL A   1      31.338  29.801  20.734  1.00  0.00     0.156 HD
ATOM     20  H   UNL A   1      31.105  31.019  21.904  1.00  0.00     0.156 HD
ENDBRANCH  16  18
ENDBRANCH  11  12
ENDBRANCH   8  11
ENDBRANCH   5   8
ENDBRANCH   3   4
ENDBRANCH   2   3
ENDBRANCH   1   2
BRANCH   1  21
ATOM     21  C   UNL A   1      36.608  20.890  25.212  1.00  0.00     0.002 C 
BRANCH  21  22
ATOM     22  C   UNL A   1      37.878  20.076  24.946  1.00  0.00     0.021 C 
BRANCH  22  23
ATOM     23  C   UNL A   1      39.094  20.517  25.755  1.00  0.00     0.116 C 
BRANCH  23  24
ATOM     24  N   UNL A   1      40.043  19.431  25.942  1.00  0.00    -0.352 N 
ATOM     25  C   UNL A   1      41.401  19.481  26.127  1.00  0.00     0.251 C 
ATOM     26  H   UNL A   1      39.654  18.527  25.933  1.00  0.00     0.163 HD
ATOM     27  O   UNL A   1      42.065  18.449  26.034  1.00  0.00    -0.269 OA
BRANCH  25  28
ATOM     28  C   UNL A   1      42.065  20.771  26.414  1.00  0.00     0.039 A 
ATOM     29  C   UNL A   1      42.447  21.586  25.346  1.00  0.00     0.014 A 
ATOM     30  C   UNL A   1      42.312  21.176  27.729  1.00  0.00     0.014 A 
ATOM     31  C   UNL A   1      43.011  22.838  25.599  1.00  0.00     0.010 A 
ATOM     32  C   UNL A   1      42.811  22.454  27.981  1.00  0.00     0.010 A 
ATOM     33  C   UNL A   1      43.157  23.302  26.918  1.00  0.00    -0.014 A 
BRANCH  33  34
ATOM     34  C   UNL A   1      43.638  24.683  27.196  1.00  0.00     0.031 A 
ATOM     35  C   UNL A   1      42.692  25.729  27.723  1.00  0.00     0.074 A 
ATOM     36  C   UNL A   1      44.918  25.004  26.915  1.00  0.00     0.049 A 
ATOM     37  N   UNL A   1      42.917  26.995  27.965  1.00  0.00    -0.248 NA
ATOM     38  C   UNL A   1      41.311  25.303  27.994  1.00  0.00     0.031 C 
ATOM     39  C   UNL A   1      45.917  24.083  26.366  1.00  0.00     0.029 A 
ATOM     40  N   UNL A   1      45.599  26.188  27.043  1.00  0.00    -0.354 N 
ATOM     41  C   UNL A   1      41.707  27.519  28.407  1.00  0.00     0.074 A 
ATOM     42  C   UNL A   1      40.740  26.444  28.353  1.00  0.00     0.031 C 
ATOM     43  C   UNL A   1      47.085  24.730  26.228  1.00  0.00     0.029 A 
ATOM     44  C   UNL A   1      46.910  26.123  26.623  1.00  0.00     0.049 A 
ATOM     45  H   UNL A   1      45.191  27.009  27.401  1.00  0.00     0.167 HD
ATOM     46  C   UNL A   1      41.435  28.779  28.831  1.00  0.00     0.034 A 
ATOM     47  C   UNL A   1      47.856  27.080  26.543  1.00  0.00     0.034 A 
ATOM     48  C   UNL A   1      42.415  29.836  28.892  1.00  0.00     0.049 A 
ATOM     49  C   UNL A   1      47.511  28.481  26.988  1.00  0.00     0.074 A 
ATOM     50  C   UNL A   1      42.257  31.126  29.371  1.00  0.00     0.029 A 
ATOM     51  N   UNL A   1      43.726  29.737  28.449  1.00  0.00    -0.354 N 
ATOM     52  N   UNL A   1      46.378  28.940  27.468  1.00  0.00    -0.248 NA
ATOM     53  C   UNL A   1      48.574  29.490  26.892  1.00  0.00     0.031 C 
ATOM     54  C   UNL A   1      43.444  31.828  29.141  1.00  0.00     0.029 A 
ATOM     55  C   UNL A   1      44.373  30.954  28.602  1.00  0.00     0.049 A 
ATOM     56  H   UNL A   1      44.138  28.921  28.079  1.00  0.00     0.167 HD
ATOM     57  C   UNL A   1      46.607  30.282  27.760  1.00  0.00     0.074 A 
ATOM     58  C   UNL A   1      47.990  30.550  27.427  1.00  0.00     0.031 C 
ATOM     59  C   UNL A   1      45.751  31.211  28.259  1.00  0.00     0.034 A 
BRANCH  46  60
ATOM     60  C   UNL A   1      40.017  29.097  29.240  1.00  0.00     0.023 A 
ATOM     61  C   UNL A   1      39.623  29.143  30.588  1.00  0.00     0.031 A 
ATOM     62  C   UNL A   1      39.052  29.395  28.260  1.00  0.00     0.131 A 
ATOM     63  C   UNL A   1      38.290  29.436  30.918  1.00  0.00     0.055 A 
ATOM     64  C   UNL A   1      37.746  29.755  28.598  1.00  0.00     0.041 A 
ATOM     65  F   UNL A   1      39.364  29.345  26.956  1.00  0.00    -0.206 F 
ATOM     66  C   UNL A   1      37.357  29.770  29.934  1.00  0.00     0.022 A 
BRANCH  63  67
ATOM     67  S   UNL A   1      37.767  29.274  32.646  1.00  0.00     0.124 S 
ATOM     68  O   UNL A   1      38.816  30.015  33.342  1.00  0.00    -0.237 OA
ATOM     69  O   UNL A   1      36.446  29.893  32.636  1.00  0.00    -0.237 OA
ATOM     70  O   UNL A   1      37.778  27.831  32.874  1.00  0.00    -0.744 OA
ENDBRANCH  63  67
ENDBRANCH  46  60
BRANCH  47  71
ATOM     71  C   UNL A   1      49.212  26.775  25.992  1.00  0.00     0.023 A 
ATOM     72  C   UNL A   1      50.300  26.526  26.844  1.00  0.00     0.031 A 
ATOM     73  C   UNL A   1      49.459  26.813  24.608  1.00  0.00     0.131 A 
ATOM     74  C   UNL A   1      51.592  26.401  26.311  1.00  0.00     0.055 A 
ATOM     75  C   UNL A   1      50.734  26.614  24.077  1.00  0.00     0.041 A 
ATOM     76  F   UNL A   1      48.457  27.049  23.743  1.00  0.00    -0.206 F 
ATOM     77  C   UNL A   1      51.815  26.427  24.933  1.00  0.00     0.022 A 
BRANCH  74  78
ATOM     78  S   UNL A   1      52.998  26.343  27.456  1.00  0.00     0.124 S 
ATOM     79  O   UNL A   1      53.843  25.329  26.836  1.00  0.00    -0.237 OA
ATOM     80  O   UNL A   1      53.493  27.715  27.397  1.00  0.00    -0.237 OA
ATOM     81  O   UNL A   1      52.386  25.956  28.725  1.00  0.00    -0.744 OA
ENDBRANCH  74  78
ENDBRANCH  47  71
BRANCH  59  82
ATOM     82  C   UNL A   1      46.309  32.591  28.513  1.00  0.00     0.023 A 
ATOM     83  C   UNL A   1      46.319  33.582  27.516  1.00  0.00     0.031 A 
ATOM     84  C   UNL A   1      46.851  32.915  29.771  1.00  0.00     0.131 A 
ATOM     85  C   UNL A   1      46.917  34.826  27.772  1.00  0.00     0.055 A 
ATOM     86  C   UNL A   1      47.379  34.177  30.041  1.00  0.00     0.041 A 
ATOM     87  F   UNL A   1      46.870  32.008  30.760  1.00  0.00    -0.206 F 
ATOM     88  C   UNL A   1      47.429  35.136  29.033  1.00  0.00     0.022 A 
BRANCH  85  89
ATOM     89  S   UNL A   1      47.109  35.996  26.399  1.00  0.00     0.124 S 
ATOM     90  O   UNL A   1      47.741  35.167  25.380  1.00  0.00    -0.237 OA
ATOM     91  O   UNL A   1      45.730  36.393  26.133  1.00  0.00    -0.237 OA
ATOM     92  O   UNL A   1      47.958  37.046  26.961  1.00  0.00    -0.744 OA
ENDBRANCH  85  89
ENDBRANCH  59  82
ENDBRANCH  33  34
ENDBRANCH  25  28
ENDBRANCH  23  24
ENDBRANCH  22  23
ENDBRANCH  21  22
ENDBRANCH   1  21
TORSDOF 20
ENDMDL
MODEL 3
REMARK VINA RESULT:     -10.2      2.497      4.064
REMARK SMILES CC[C@@H](Sc1cccc(N)c1)C(=O)NCCCCCCNC(=O)c1ccc(-c2c3nc(c(-c4cc(S(=O)(=O)[O-])ccc4F)c4ccc([nH]4)c(-c4cc(S(=O)(=O)[O-])ccc4F)c4nc(c(-c5cc(S(=O)(=O)[O-])ccc5F)c5ccc2[nH]5)C=C4)C=C3)cc1
REMARK SMILES IDX 17 1 16 2 15 3 14 4 12 5 13 6 3 8 2 9 1 10 4 11 5 12 6 13
REMARK SMILES IDX 11 14 7 15 9 16 8 17 10 18 18 21 19 22 20 23 21 24 22 25
REMARK SMILES IDX 23 27 24 28 25 29 86 30 26 31 85 32 27 33 28 34 29 35 79 36
REMARK SMILES IDX 30 37 84 38 78 39 80 40 31 41 83 42 77 43 76 44 32 46 64 47
REMARK SMILES IDX 44 48 63 49 45 50 48 51 62 52 81 53 46 54 47 55 61 57 82 58
REMARK SMILES IDX 49 59 33 60 34 61 42 62 35 63 41 64 43 65 40 66 36 67 37 68
REMARK SMILES IDX 38 69 39 70 65 71 66 72 74 73 67 74 73 75 75 76 72 77 68 78
REMARK SMILES IDX 69 79 70 80 71 81 50 82 51 83 59 84 52 85 58 86 60 87 57 88
REMARK SMILES IDX 53 89 54 90 55 91 56 92
REMARK H PARENT 14 7 10 19 10 20 21 26 80 45 48 56
REMARK Flexibility Score: inf
ROOT
ATOM      1  C   UNL A   1      37.230  22.656  25.391  1.00  0.00     0.002 C 
ENDROOT
BRANCH   1   2
ATOM      2  C   UNL A   1      35.958  23.241  26.009  1.00  0.00     0.021 C 
BRANCH   2   3
ATOM      3  C   UNL A   1      34.684  22.491  25.616  1.00  0.00     0.116 C 
BRANCH   3   4
ATOM      4  N   UNL A   1      33.514  23.067  26.265  1.00  0.00    -0.355 N 
ATOM      5  C   UNL A   1      32.786  24.183  25.949  1.00  0.00     0.233 C 
ATOM      6  O   UNL A   1      31.830  24.473  26.675  1.00  0.00    -0.274 OA
ATOM      7  H   UNL A   1      33.196  22.575  27.058  1.00  0.00     0.163 HD
BRANCH   5   8
ATOM      8  C   UNL A   1      33.160  25.067  24.736  1.00  0.00     0.140 C 
BRANCH   8   9
ATOM      9  C   UNL A   1      32.486  24.461  23.486  1.00  0.00     0.021 C 
ATOM     10  C   UNL A   1      33.352  23.797  22.436  1.00  0.00     0.005 C 
ENDBRANCH   8   9
BRANCH   8  11
ATOM     11  S   UNL A   1      32.873  26.814  25.321  1.00  0.00    -0.113 SA
BRANCH  11  12
ATOM     12  C   UNL A   1      31.575  27.489  24.324  1.00  0.00     0.010 A 
ATOM     13  C   UNL A   1      30.315  26.892  24.445  1.00  0.00     0.015 A 
ATOM     14  C   UNL A   1      31.732  28.561  23.447  1.00  0.00     0.040 A 
ATOM     15  C   UNL A   1      29.253  27.314  23.652  1.00  0.00     0.003 A 
ATOM     16  C   UNL A   1      30.708  28.915  22.563  1.00  0.00     0.032 A 
ATOM     17  C   UNL A   1      29.455  28.316  22.705  1.00  0.00     0.025 A 
BRANCH  16  18
ATOM     18  N   UNL A   1      30.902  29.927  21.631  1.00  0.00    -0.399 N 
ATOM     19  H   UNL A   1      30.357  29.953  20.812  1.00  0.00     0.156 HD
ATOM     20  H   UNL A   1      31.585  30.617  21.790  1.00  0.00     0.156 HD
ENDBRANCH  16  18
ENDBRANCH  11  12
ENDBRANCH   8  11
ENDBRANCH   5   8
ENDBRANCH   3   4
ENDBRANCH   2   3
ENDBRANCH   1   2
BRANCH   1  21
ATOM     21  C   UNL A   1      37.012  21.395  24.548  1.00  0.00     0.002 C 
BRANCH  21  22
ATOM     22  C   UNL A   1      37.881  20.196  24.938  1.00  0.00     0.021 C 
BRANCH  22  23
ATOM     23  C   UNL A   1      38.960  20.505  25.973  1.00  0.00     0.116 C 
BRANCH  23  24
ATOM     24  N   UNL A   1      40.001  19.490  25.988  1.00  0.00    -0.352 N 
ATOM     25  C   UNL A   1      41.363  19.637  26.053  1.00  0.00     0.251 C 
ATOM     26  H   UNL A   1      39.682  18.559  25.946  1.00  0.00     0.163 HD
ATOM     27  O   UNL A   1      42.091  18.672  25.821  1.00  0.00    -0.269 OA
BRANCH  25  28
ATOM     28  C   UNL A   1      41.953  20.954  26.377  1.00  0.00     0.039 A 
ATOM     29  C   UNL A   1      42.238  21.841  25.337  1.00  0.00     0.014 A 
ATOM     30  C   UNL A   1      42.225  21.314  27.701  1.00  0.00     0.014 A 
ATOM     31  C   UNL A   1      42.730  23.115  25.629  1.00  0.00     0.010 A 
ATOM     32  C   UNL A   1      42.650  22.609  27.995  1.00  0.00     0.010 A 
ATOM     33  C   UNL A   1      42.898  23.527  26.963  1.00  0.00    -0.014 A 
BRANCH  33  34
ATOM     34  C   UNL A   1      43.299  24.922  27.288  1.00  0.00     0.031 A 
ATOM     35  C   UNL A   1      42.326  25.862  27.950  1.00  0.00     0.074 A 
ATOM     36  C   UNL A   1      44.526  25.355  26.933  1.00  0.00     0.049 A 
ATOM     37  N   UNL A   1      42.477  27.125  28.253  1.00  0.00    -0.248 NA
ATOM     38  C   UNL A   1      41.005  25.316  28.297  1.00  0.00     0.031 C 
ATOM     39  C   UNL A   1      45.542  24.546  26.254  1.00  0.00     0.029 A 
ATOM     40  N   UNL A   1      45.129  26.580  27.082  1.00  0.00    -0.354 N 
ATOM     41  C   UNL A   1      41.272  27.530  28.817  1.00  0.00     0.074 A 
ATOM     42  C   UNL A   1      40.384  26.388  28.769  1.00  0.00     0.031 C 
ATOM     43  C   UNL A   1      46.646  25.287  26.069  1.00  0.00     0.029 A 
ATOM     44  C   UNL A   1      46.403  26.638  26.561  1.00  0.00     0.049 A 
ATOM     45  H   UNL A   1      44.692  27.345  27.521  1.00  0.00     0.167 HD
ATOM     46  C   UNL A   1      40.945  28.739  29.337  1.00  0.00     0.034 A 
ATOM     47  C   UNL A   1      47.269  27.668  26.470  1.00  0.00     0.034 A 
ATOM     48  C   UNL A   1      41.848  29.863  29.390  1.00  0.00     0.049 A 
ATOM     49  C   UNL A   1      46.861  29.011  27.026  1.00  0.00     0.074 A 
ATOM     50  C   UNL A   1      41.637  31.107  29.959  1.00  0.00     0.029 A 
ATOM     51  N   UNL A   1      43.124  29.889  28.844  1.00  0.00    -0.354 N 
ATOM     52  N   UNL A   1      45.739  29.354  27.618  1.00  0.00    -0.248 NA
ATOM     53  C   UNL A   1      47.838  30.102  26.913  1.00  0.00     0.031 C 
ATOM     54  C   UNL A   1      42.748  31.910  29.684  1.00  0.00     0.029 A 
ATOM     55  C   UNL A   1      43.692  31.142  29.023  1.00  0.00     0.049 A 
ATOM     56  H   UNL A   1      43.562  29.130  28.394  1.00  0.00     0.167 HD
ATOM     57  C   UNL A   1      45.894  30.691  27.975  1.00  0.00     0.074 A 
ATOM     58  C   UNL A   1      47.223  31.082  27.555  1.00  0.00     0.031 C 
ATOM     59  C   UNL A   1      45.016  31.522  28.594  1.00  0.00     0.034 A 
BRANCH  46  60
ATOM     60  C   UNL A   1      39.545  28.924  29.871  1.00  0.00     0.023 A 
ATOM     61  C   UNL A   1      38.527  29.511  29.100  1.00  0.00     0.031 A 
ATOM     62  C   UNL A   1      39.217  28.472  31.162  1.00  0.00     0.131 A 
ATOM     63  C   UNL A   1      37.242  29.670  29.643  1.00  0.00     0.055 A 
ATOM     64  C   UNL A   1      37.920  28.568  31.669  1.00  0.00     0.041 A 
ATOM     65  F   UNL A   1      40.154  27.923  31.952  1.00  0.00    -0.206 F 
ATOM     66  C   UNL A   1      36.925  29.177  30.911  1.00  0.00     0.022 A 
BRANCH  63  67
ATOM     67  S   UNL A   1      36.015  30.623  28.709  1.00  0.00     0.124 S 
ATOM     68  O   UNL A   1      36.867  31.409  27.820  1.00  0.00    -0.237 OA
ATOM     69  O   UNL A   1      35.220  29.578  28.073  1.00  0.00    -0.237 OA
ATOM     70  O   UNL A   1      35.323  31.395  29.739  1.00  0.00    -0.744 OA
ENDBRANCH  63  67
ENDBRANCH  46  60
BRANCH  47  71
ATOM     71  C   UNL A   1      48.594  27.499  25.800  1.00  0.00     0.023 A 
ATOM     72  C   UNL A   1      48.743  27.726  24.422  1.00  0.00     0.031 A 
ATOM     73  C   UNL A   1      49.712  27.024  26.510  1.00  0.00     0.131 A 
ATOM     74  C   UNL A   1      49.953  27.408  23.786  1.00  0.00     0.055 A 
ATOM     75  C   UNL A   1      50.936  26.779  25.886  1.00  0.00     0.041 A 
ATOM     76  F   UNL A   1      49.629  26.787  27.830  1.00  0.00    -0.206 F 
ATOM     77  C   UNL A   1      51.055  26.951  24.510  1.00  0.00     0.022 A 
BRANCH  74  78
ATOM     78  S   UNL A   1      50.019  27.467  21.974  1.00  0.00     0.124 S 
ATOM     79  O   UNL A   1      51.208  26.670  21.696  1.00  0.00    -0.237 OA
ATOM     80  O   UNL A   1      48.742  26.865  21.605  1.00  0.00    -0.237 OA
ATOM     81  O   UNL A   1      50.142  28.894  21.685  1.00  0.00    -0.744 OA
ENDBRANCH  74  78
ENDBRANCH  47  71
BRANCH  59  82
ATOM     82  C   UNL A   1      45.492  32.924  28.891  1.00  0.00     0.023 A 
ATOM     83  C   UNL A   1      45.234  33.995  28.018  1.00  0.00     0.031 A 
ATOM     84  C   UNL A   1      46.227  33.189  30.061  1.00  0.00     0.131 A 
ATOM     85  C   UNL A   1      45.760  35.266  28.294  1.00  0.00     0.055 A 
ATOM     86  C   UNL A   1      46.687  34.470  30.366  1.00  0.00     0.041 A 
ATOM     87  F   UNL A   1      46.506  32.206  30.930  1.00  0.00    -0.206 F 
ATOM     88  C   UNL A   1      46.468  35.514  29.472  1.00  0.00     0.022 A 
BRANCH  85  89
ATOM     89  S   UNL A   1      45.595  36.568  27.042  1.00  0.00     0.124 S 
ATOM     90  O   UNL A   1      46.523  36.116  26.011  1.00  0.00    -0.237 OA
ATOM     91  O   UNL A   1      44.178  36.494  26.701  1.00  0.00    -0.237 OA
ATOM     92  O   UNL A   1      45.998  37.781  27.752  1.00  0.00    -0.744 OA
ENDBRANCH  85  89
ENDBRANCH  59  82
ENDBRANCH  33  34
ENDBRANCH  25  28
ENDBRANCH  23  24
ENDBRANCH  22  23
ENDBRANCH  21  22
ENDBRANCH   1  21
TORSDOF 20
ENDMDL
