MODEL 1
REMARK VINA RESULT:     -10.8      0.000      0.000
REMARK SMILES Cc1csc(=O)n1CC(=O)N[C@@H](C(=O)NCCCCCCNC(=O)c1ccc(-c2c3nc(c(-c4cc(S(=O)(=O)[O-])ccc4F)c4ccc([nH]4)c(-c4cc(S(=O)(=O)[O-])ccc4F)c4nc(c(-c5cc(S(=O)(=O)[O-])ccc5F)c5ccc2[nH]5)C=C4)C=C3)cc1)[C@@H](C)O
REMARK SMILES IDX 18 1 17 2 16 3 15 4 13 5 14 6 12 8 11 9 9 10 10 11 8 13 7 14
REMARK SMILES IDX 1 15 2 16 3 17 4 18 5 19 6 20 88 21 89 22 90 23 19 25 20 26
REMARK SMILES IDX 21 27 22 28 23 29 24 31 25 32 26 33 87 34 27 35 86 36 28 37
REMARK SMILES IDX 29 38 30 39 80 40 31 41 85 42 79 43 81 44 32 45 84 46 78 47
REMARK SMILES IDX 77 48 33 50 65 51 45 52 64 53 46 54 49 55 63 56 82 57 47 58
REMARK SMILES IDX 48 59 62 61 83 62 50 63 34 64 35 65 43 66 36 67 42 68 44 69
REMARK SMILES IDX 41 70 37 71 38 72 39 73 40 74 66 75 67 76 75 77 68 78 74 79
REMARK SMILES IDX 76 80 73 81 69 82 70 83 71 84 72 85 51 86 52 87 60 88 53 89
REMARK SMILES IDX 59 90 61 91 58 92 54 93 55 94 56 95 57 96
REMARK H PARENT 15 7 11 12 90 24 22 30 81 49 49 60
REMARK Flexibility Score: inf
ROOT
ATOM      1  C   UNL A   1      37.004  22.811  24.040  1.00  0.00     0.002 C 
ENDROOT
BRANCH   1   2
ATOM      2  C   UNL A   1      35.635  22.158  24.249  1.00  0.00     0.021 C 
BRANCH   2   3
ATOM      3  C   UNL A   1      35.666  20.960  25.184  1.00  0.00     0.116 C 
BRANCH   3   4
ATOM      4  N   UNL A   1      35.127  21.252  26.493  1.00  0.00    -0.354 N 
ATOM      5  C   UNL A   1      33.840  21.515  26.870  1.00  0.00     0.245 C 
ATOM      6  O   UNL A   1      33.619  21.545  28.083  1.00  0.00    -0.273 OA
ATOM      7  H   UNL A   1      35.787  21.263  27.224  1.00  0.00     0.163 HD
BRANCH   5   8
ATOM      8  C   UNL A   1      32.705  21.574  25.807  1.00  0.00     0.200 C 
BRANCH   8   9
ATOM      9  N   UNL A   1      31.556  22.346  26.285  1.00  0.00    -0.340 N 
ATOM     10  C   UNL A   1      31.378  23.686  26.472  1.00  0.00     0.240 C 
ATOM     11  O   UNL A   1      30.253  24.045  26.828  1.00  0.00    -0.273 OA
ATOM     12  H   UNL A   1      30.769  21.800  26.513  1.00  0.00     0.164 HD
BRANCH  10  13
ATOM     13  C   UNL A   1      32.467  24.733  26.153  1.00  0.00     0.226 C 
BRANCH  13  14
ATOM     14  N   UNL A   1      32.192  25.716  25.110  1.00  0.00    -0.294 N 
ATOM     15  C   UNL A   1      31.469  27.646  26.614  1.00  0.00     0.065 C 
ATOM     16  C   UNL A   1      31.757  27.023  25.291  1.00  0.00     0.029 A 
ATOM     17  C   UNL A   1      31.643  27.713  24.144  1.00  0.00     0.091 A 
ATOM     18  S   UNL A   1      32.194  26.811  22.780  1.00  0.00    -0.082 S 
ATOM     19  C   UNL A   1      32.521  25.388  23.787  1.00  0.00     0.307 A 
ATOM     20  O   UNL A   1      32.931  24.343  23.348  1.00  0.00    -0.257 OA
ENDBRANCH  13  14
ENDBRANCH  10  13
ENDBRANCH   8   9
BRANCH   8  21
ATOM     21  C   UNL A   1      32.301  20.137  25.367  1.00  0.00     0.143 C 
ATOM     22  C   UNL A   1      32.641  19.816  23.912  1.00  0.00     0.041 C 
BRANCH  21  23
ATOM     23  O   UNL A   1      32.966  19.142  26.159  1.00  0.00    -0.391 OA
ATOM     24  H   UNL A   1      32.501  18.294  26.071  1.00  0.00     0.211 HD
ENDBRANCH  21  23
ENDBRANCH   8  21
ENDBRANCH   5   8
ENDBRANCH   3   4
ENDBRANCH   2   3
ENDBRANCH   1   2
BRANCH   1  25
ATOM     25  C   UNL A   1      37.964  22.753  25.243  1.00  0.00     0.002 C 
BRANCH  25  26
ATOM     26  C   UNL A   1      37.873  23.908  26.250  1.00  0.00     0.021 C 
BRANCH  26  27
ATOM     27  C   UNL A   1      39.169  24.203  26.973  1.00  0.00     0.116 C 
BRANCH  27  28
ATOM     28  N   UNL A   1      40.221  24.736  26.095  1.00  0.00    -0.352 N 
ATOM     29  C   UNL A   1      40.766  26.017  26.082  1.00  0.00     0.251 C 
ATOM     30  H   UNL A   1      40.587  24.107  25.431  1.00  0.00     0.163 HD
ATOM     31  O   UNL A   1      41.355  26.442  25.095  1.00  0.00    -0.269 OA
BRANCH  29  32
ATOM     32  C   UNL A   1      40.623  26.835  27.300  1.00  0.00     0.039 A 
ATOM     33  C   UNL A   1      40.662  26.346  28.609  1.00  0.00     0.014 A 
ATOM     34  C   UNL A   1      40.535  28.195  27.070  1.00  0.00     0.014 A 
ATOM     35  C   UNL A   1      40.634  27.274  29.653  1.00  0.00     0.010 A 
ATOM     36  C   UNL A   1      40.970  29.035  28.035  1.00  0.00     0.010 A 
ATOM     37  C   UNL A   1      40.771  28.631  29.336  1.00  0.00    -0.014 A 
BRANCH  37  38
ATOM     38  C   UNL A   1      40.757  29.732  30.281  1.00  0.00     0.031 A 
ATOM     39  C   UNL A   1      39.424  30.337  30.475  1.00  0.00     0.074 A 
ATOM     40  C   UNL A   1      41.792  29.942  31.132  1.00  0.00     0.049 A 
ATOM     41  N   UNL A   1      39.029  31.489  30.054  1.00  0.00    -0.248 NA
ATOM     42  C   UNL A   1      38.344  29.503  31.025  1.00  0.00     0.031 C 
ATOM     43  C   UNL A   1      43.059  29.201  31.264  1.00  0.00     0.029 A 
ATOM     44  N   UNL A   1      41.874  30.819  32.163  1.00  0.00    -0.354 N 
ATOM     45  C   UNL A   1      37.729  31.634  30.519  1.00  0.00     0.074 A 
ATOM     46  C   UNL A   1      37.292  30.311  30.874  1.00  0.00     0.031 C 
ATOM     47  C   UNL A   1      43.658  29.514  32.437  1.00  0.00     0.029 A 
ATOM     48  C   UNL A   1      42.913  30.590  33.065  1.00  0.00     0.049 A 
ATOM     49  H   UNL A   1      41.243  31.567  32.268  1.00  0.00     0.167 HD
ATOM     50  C   UNL A   1      37.227  32.866  30.813  1.00  0.00     0.034 A 
ATOM     51  C   UNL A   1      43.131  31.239  34.244  1.00  0.00     0.034 A 
ATOM     52  C   UNL A   1      38.108  33.907  30.321  1.00  0.00     0.049 A 
ATOM     53  C   UNL A   1      42.418  32.541  34.123  1.00  0.00     0.074 A 
ATOM     54  C   UNL A   1      38.585  34.251  29.070  1.00  0.00     0.029 A 
ATOM     55  N   UNL A   1      38.986  34.482  31.218  1.00  0.00    -0.354 N 
ATOM     56  N   UNL A   1      42.755  33.446  33.241  1.00  0.00    -0.248 NA
ATOM     57  C   UNL A   1      41.028  32.602  34.560  1.00  0.00     0.031 C 
ATOM     58  C   UNL A   1      39.970  34.534  29.276  1.00  0.00     0.029 A 
ATOM     59  C   UNL A   1      40.237  34.454  30.647  1.00  0.00     0.049 A 
ATOM     60  H   UNL A   1      38.757  34.845  32.105  1.00  0.00     0.167 HD
ATOM     61  C   UNL A   1      41.559  33.883  32.690  1.00  0.00     0.074 A 
ATOM     62  C   UNL A   1      40.524  33.396  33.607  1.00  0.00     0.031 C 
ATOM     63  C   UNL A   1      41.479  34.317  31.393  1.00  0.00     0.034 A 
BRANCH  50  64
ATOM     64  C   UNL A   1      36.154  33.157  31.836  1.00  0.00     0.023 A 
ATOM     65  C   UNL A   1      35.057  33.930  31.409  1.00  0.00     0.031 A 
ATOM     66  C   UNL A   1      36.264  32.961  33.230  1.00  0.00     0.131 A 
ATOM     67  C   UNL A   1      34.200  34.542  32.338  1.00  0.00     0.055 A 
ATOM     68  C   UNL A   1      35.369  33.518  34.147  1.00  0.00     0.041 A 
ATOM     69  F   UNL A   1      37.287  32.312  33.796  1.00  0.00    -0.206 F 
ATOM     70  C   UNL A   1      34.348  34.340  33.707  1.00  0.00     0.022 A 
BRANCH  67  71
ATOM     71  S   UNL A   1      33.002  35.754  31.729  1.00  0.00     0.124 S 
ATOM     72  O   UNL A   1      33.039  35.516  30.290  1.00  0.00    -0.237 OA
ATOM     73  O   UNL A   1      31.783  35.344  32.420  1.00  0.00    -0.237 OA
ATOM     74  O   UNL A   1      33.563  37.032  32.163  1.00  0.00    -0.744 OA
ENDBRANCH  67  71
ENDBRANCH  50  64
BRANCH  51  75
ATOM     75  C   UNL A   1      43.585  30.631  35.536  1.00  0.00     0.023 A 
ATOM     76  C   UNL A   1      43.612  29.240  35.797  1.00  0.00     0.031 A 
ATOM     77  C   UNL A   1      44.233  31.454  36.487  1.00  0.00     0.131 A 
ATOM     78  C   UNL A   1      44.255  28.738  36.962  1.00  0.00     0.055 A 
ATOM     79  C   UNL A   1      44.869  30.955  37.628  1.00  0.00     0.041 A 
ATOM     80  F   UNL A   1      44.341  32.779  36.298  1.00  0.00    -0.206 F 
ATOM     81  C   UNL A   1      44.888  29.592  37.867  1.00  0.00     0.022 A 
BRANCH  78  82
ATOM     82  S   UNL A   1      44.344  26.943  37.295  1.00  0.00     0.124 S 
ATOM     83  O   UNL A   1      43.133  26.708  38.071  1.00  0.00    -0.237 OA
ATOM     84  O   UNL A   1      44.376  26.374  35.952  1.00  0.00    -0.237 OA
ATOM     85  O   UNL A   1      45.591  26.793  38.049  1.00  0.00    -0.744 OA
ENDBRANCH  78  82
ENDBRANCH  51  75
BRANCH  63  86
ATOM     86  C   UNL A   1      42.771  34.470  30.600  1.00  0.00     0.023 A 
ATOM     87  C   UNL A   1      43.224  33.567  29.607  1.00  0.00     0.031 A 
ATOM     88  C   UNL A   1      43.492  35.665  30.757  1.00  0.00     0.131 A 
ATOM     89  C   UNL A   1      44.358  33.873  28.826  1.00  0.00     0.055 A 
ATOM     90  C   UNL A   1      44.599  35.977  29.966  1.00  0.00     0.041 A 
ATOM     91  F   UNL A   1      43.100  36.582  31.658  1.00  0.00    -0.206 F 
ATOM     92  C   UNL A   1      45.040  35.080  29.000  1.00  0.00     0.022 A 
BRANCH  89  93
ATOM     93  S   UNL A   1      44.970  32.702  27.565  1.00  0.00     0.124 S 
ATOM     94  O   UNL A   1      46.419  32.855  27.637  1.00  0.00    -0.237 OA
ATOM     95  O   UNL A   1      44.437  31.423  28.025  1.00  0.00    -0.237 OA
ATOM     96  O   UNL A   1      44.370  33.195  26.322  1.00  0.00    -0.744 OA
ENDBRANCH  89  93
ENDBRANCH  63  86
ENDBRANCH  37  38
ENDBRANCH  29  32
ENDBRANCH  27  28
ENDBRANCH  26  27
ENDBRANCH  25  26
ENDBRANCH   1  25
TORSDOF 21
ENDMDL
MODEL 2
REMARK VINA RESULT:     -10.6      3.742      6.544
REMARK SMILES Cc1csc(=O)n1CC(=O)N[C@@H](C(=O)NCCCCCCNC(=O)c1ccc(-c2c3nc(c(-c4cc(S(=O)(=O)[O-])ccc4F)c4ccc([nH]4)c(-c4cc(S(=O)(=O)[O-])ccc4F)c4nc(c(-c5cc(S(=O)(=O)[O-])ccc5F)c5ccc2[nH]5)C=C4)C=C3)cc1)[C@@H](C)O
REMARK SMILES IDX 18 1 17 2 16 3 15 4 13 5 14 6 12 8 11 9 9 10 10 11 8 13 7 14
REMARK SMILES IDX 1 15 2 16 3 17 4 18 5 19 6 20 88 21 89 22 90 23 19 25 20 26
REMARK SMILES IDX 21 27 22 28 23 29 24 31 25 32 26 33 87 34 27 35 86 36 28 37
REMARK SMILES IDX 29 38 30 39 80 40 31 41 85 42 79 43 81 44 32 45 84 46 78 47
REMARK SMILES IDX 77 48 33 50 65 51 45 52 64 53 46 54 49 55 63 56 82 57 47 58
REMARK SMILES IDX 48 59 62 61 83 62 50 63 34 64 35 65 43 66 36 67 42 68 44 69
REMARK SMILES IDX 41 70 37 71 38 72 39 73 40 74 66 75 67 76 75 77 68 78 74 79
REMARK SMILES IDX 76 80 73 81 69 82 70 83 71 84 72 85 51 86 52 87 60 88 53 89
REMARK SMILES IDX 59 90 61 91 58 92 54 93 55 94 56 95 57 96
REMARK H PARENT 15 7 11 12 90 24 22 30 81 49 49 60
REMARK Flexibility Score: inf
ROOT
ATOM      1  C   UNL A   1      34.278  28.584  26.590  1.00  0.00     0.002 C 
ENDROOT
BRANCH   1   2
ATOM      2  C   UNL A   1      32.761  28.782  26.574  1.00  0.00     0.021 C 
BRANCH   2   3
ATOM      3  C   UNL A   1      32.242  29.433  25.302  1.00  0.00     0.116 C 
BRANCH   3   4
ATOM      4  N   UNL A   1      33.181  29.356  24.205  1.00  0.00    -0.354 N 
ATOM      5  C   UNL A   1      33.327  28.393  23.246  1.00  0.00     0.245 C 
ATOM      6  O   UNL A   1      34.084  28.663  22.310  1.00  0.00    -0.273 OA
ATOM      7  H   UNL A   1      33.810  30.110  24.140  1.00  0.00     0.163 HD
BRANCH   5   8
ATOM      8  C   UNL A   1      32.428  27.124  23.261  1.00  0.00     0.200 C 
BRANCH   8   9
ATOM      9  N   UNL A   1      33.159  25.937  22.811  1.00  0.00    -0.340 N 
ATOM     10  C   UNL A   1      33.994  25.083  23.471  1.00  0.00     0.240 C 
ATOM     11  O   UNL A   1      34.411  24.118  22.826  1.00  0.00    -0.273 OA
ATOM     12  H   UNL A   1      33.025  25.716  21.861  1.00  0.00     0.164 HD
BRANCH  10  13
ATOM     13  C   UNL A   1      34.325  25.220  24.973  1.00  0.00     0.226 C 
BRANCH  13  14
ATOM     14  N   UNL A   1      33.808  24.208  25.887  1.00  0.00    -0.294 N 
ATOM     15  C   UNL A   1      31.432  25.107  26.117  1.00  0.00     0.065 C 
ATOM     16  C   UNL A   1      32.520  24.130  26.403  1.00  0.00     0.029 A 
ATOM     17  C   UNL A   1      32.317  23.052  27.177  1.00  0.00     0.091 A 
ATOM     18  S   UNL A   1      33.686  22.001  27.208  1.00  0.00    -0.082 S 
ATOM     19  C   UNL A   1      34.625  23.108  26.189  1.00  0.00     0.307 A 
ATOM     20  O   UNL A   1      35.769  22.906  25.866  1.00  0.00    -0.257 OA
ENDBRANCH  13  14
ENDBRANCH  10  13
ENDBRANCH   8   9
BRANCH   8  21
ATOM     21  C   UNL A   1      31.136  27.366  22.426  1.00  0.00     0.143 C 
ATOM     22  C   UNL A   1      29.848  27.307  23.245  1.00  0.00     0.041 C 
BRANCH  21  23
ATOM     23  O   UNL A   1      31.153  28.658  21.802  1.00  0.00    -0.391 OA
ATOM     24  H   UNL A   1      30.661  28.620  20.966  1.00  0.00     0.211 HD
ENDBRANCH  21  23
ENDBRANCH   8  21
ENDBRANCH   5   8
ENDBRANCH   3   4
ENDBRANCH   2   3
ENDBRANCH   1   2
BRANCH   1  25
ATOM     25  C   UNL A   1      35.082  29.628  27.387  1.00  0.00     0.002 C 
BRANCH  25  26
ATOM     26  C   UNL A   1      34.386  30.968  27.661  1.00  0.00     0.021 C 
BRANCH  26  27
ATOM     27  C   UNL A   1      35.260  31.990  28.355  1.00  0.00     0.116 C 
BRANCH  27  28
ATOM     28  N   UNL A   1      34.521  33.175  28.815  1.00  0.00    -0.352 N 
ATOM     29  C   UNL A   1      34.373  33.647  30.116  1.00  0.00     0.251 C 
ATOM     30  H   UNL A   1      34.075  33.703  28.113  1.00  0.00     0.163 HD
ATOM     31  O   UNL A   1      33.459  34.409  30.410  1.00  0.00    -0.269 OA
BRANCH  29  32
ATOM     32  C   UNL A   1      35.361  33.211  31.120  1.00  0.00     0.039 A 
ATOM     33  C   UNL A   1      35.557  31.892  31.538  1.00  0.00     0.014 A 
ATOM     34  C   UNL A   1      36.190  34.216  31.581  1.00  0.00     0.014 A 
ATOM     35  C   UNL A   1      36.620  31.634  32.408  1.00  0.00     0.010 A 
ATOM     36  C   UNL A   1      37.425  33.877  32.013  1.00  0.00     0.010 A 
ATOM     37  C   UNL A   1      37.542  32.661  32.649  1.00  0.00    -0.014 A 
BRANCH  37  38
ATOM     38  C   UNL A   1      38.696  32.581  33.523  1.00  0.00     0.031 A 
ATOM     39  C   UNL A   1      38.438  33.046  34.901  1.00  0.00     0.074 A 
ATOM     40  C   UNL A   1      39.784  31.843  33.187  1.00  0.00     0.049 A 
ATOM     41  N   UNL A   1      38.861  34.135  35.443  1.00  0.00    -0.248 NA
ATOM     42  C   UNL A   1      37.442  32.327  35.712  1.00  0.00     0.031 C 
ATOM     43  C   UNL A   1      40.039  31.056  31.967  1.00  0.00     0.029 A 
ATOM     44  N   UNL A   1      40.869  31.544  33.942  1.00  0.00    -0.354 N 
ATOM     45  C   UNL A   1      38.403  34.108  36.752  1.00  0.00     0.074 A 
ATOM     46  C   UNL A   1      37.350  33.128  36.777  1.00  0.00     0.031 C 
ATOM     47  C   UNL A   1      41.077  30.212  32.170  1.00  0.00     0.029 A 
ATOM     48  C   UNL A   1      41.666  30.504  33.465  1.00  0.00     0.049 A 
ATOM     49  H   UNL A   1      41.081  32.028  34.773  1.00  0.00     0.167 HD
ATOM     50  C   UNL A   1      39.109  34.707  37.751  1.00  0.00     0.034 A 
ATOM     51  C   UNL A   1      42.727  29.928  34.098  1.00  0.00     0.034 A 
ATOM     52  C   UNL A   1      40.160  35.542  37.203  1.00  0.00     0.049 A 
ATOM     53  C   UNL A   1      43.195  30.934  35.092  1.00  0.00     0.074 A 
ATOM     54  C   UNL A   1      40.179  36.631  36.352  1.00  0.00     0.029 A 
ATOM     55  N   UNL A   1      41.435  35.015  37.150  1.00  0.00    -0.354 N 
ATOM     56  N   UNL A   1      43.680  32.096  34.738  1.00  0.00    -0.248 NA
ATOM     57  C   UNL A   1      42.613  30.896  36.429  1.00  0.00     0.031 C 
ATOM     58  C   UNL A   1      41.260  36.373  35.457  1.00  0.00     0.029 A 
ATOM     59  C   UNL A   1      41.907  35.204  35.872  1.00  0.00     0.049 A 
ATOM     60  H   UNL A   1      41.917  34.582  37.892  1.00  0.00     0.167 HD
ATOM     61  C   UNL A   1      43.081  33.016  35.588  1.00  0.00     0.074 A 
ATOM     62  C   UNL A   1      42.506  32.210  36.668  1.00  0.00     0.031 C 
ATOM     63  C   UNL A   1      42.824  34.302  35.192  1.00  0.00     0.034 A 
BRANCH  50  64
ATOM     64  C   UNL A   1      39.108  34.288  39.202  1.00  0.00     0.023 A 
ATOM     65  C   UNL A   1      38.677  32.978  39.488  1.00  0.00     0.031 A 
ATOM     66  C   UNL A   1      39.238  35.150  40.313  1.00  0.00     0.131 A 
ATOM     67  C   UNL A   1      38.309  32.608  40.791  1.00  0.00     0.055 A 
ATOM     68  C   UNL A   1      38.933  34.756  41.619  1.00  0.00     0.041 A 
ATOM     69  F   UNL A   1      39.567  36.441  40.198  1.00  0.00    -0.206 F 
ATOM     70  C   UNL A   1      38.434  33.489  41.861  1.00  0.00     0.022 A 
BRANCH  67  71
ATOM     71  S   UNL A   1      37.488  31.012  41.030  1.00  0.00     0.124 S 
ATOM     72  O   UNL A   1      37.163  30.634  39.659  1.00  0.00    -0.237 OA
ATOM     73  O   UNL A   1      38.534  30.231  41.683  1.00  0.00    -0.237 OA
ATOM     74  O   UNL A   1      36.341  31.344  41.872  1.00  0.00    -0.744 OA
ENDBRANCH  67  71
ENDBRANCH  50  64
BRANCH  51  75
ATOM     75  C   UNL A   1      43.074  28.471  34.130  1.00  0.00     0.023 A 
ATOM     76  C   UNL A   1      42.498  27.533  35.020  1.00  0.00     0.031 A 
ATOM     77  C   UNL A   1      43.856  27.932  33.081  1.00  0.00     0.131 A 
ATOM     78  C   UNL A   1      42.722  26.140  34.843  1.00  0.00     0.055 A 
ATOM     79  C   UNL A   1      44.068  26.562  32.909  1.00  0.00     0.041 A 
ATOM     80  F   UNL A   1      44.382  28.724  32.132  1.00  0.00    -0.206 F 
ATOM     81  C   UNL A   1      43.496  25.658  33.786  1.00  0.00     0.022 A 
BRANCH  78  82
ATOM     82  S   UNL A   1      41.948  24.908  35.951  1.00  0.00     0.124 S 
ATOM     83  O   UNL A   1      40.526  25.181  35.776  1.00  0.00    -0.237 OA
ATOM     84  O   UNL A   1      42.438  23.646  35.411  1.00  0.00    -0.237 OA
ATOM     85  O   UNL A   1      42.478  25.253  37.272  1.00  0.00    -0.744 OA
ENDBRANCH  78  82
ENDBRANCH  51  75
BRANCH  63  86
ATOM     86  C   UNL A   1      43.359  34.763  33.841  1.00  0.00     0.023 A 
ATOM     87  C   UNL A   1      42.711  34.557  32.599  1.00  0.00     0.031 A 
ATOM     88  C   UNL A   1      44.501  35.582  33.841  1.00  0.00     0.131 A 
ATOM     89  C   UNL A   1      43.213  35.151  31.422  1.00  0.00     0.055 A 
ATOM     90  C   UNL A   1      44.982  36.188  32.680  1.00  0.00     0.041 A 
ATOM     91  F   UNL A   1      45.147  35.847  34.989  1.00  0.00    -0.206 F 
ATOM     92  C   UNL A   1      44.343  35.972  31.464  1.00  0.00     0.022 A 
BRANCH  89  93
ATOM     93  S   UNL A   1      42.405  34.865  29.810  1.00  0.00     0.124 S 
ATOM     94  O   UNL A   1      43.243  33.848  29.187  1.00  0.00    -0.237 OA
ATOM     95  O   UNL A   1      41.061  34.442  30.192  1.00  0.00    -0.237 OA
ATOM     96  O   UNL A   1      42.463  36.179  29.162  1.00  0.00    -0.744 OA
ENDBRANCH  89  93
ENDBRANCH  63  86
ENDBRANCH  37  38
ENDBRANCH  29  32
ENDBRANCH  27  28
ENDBRANCH  26  27
ENDBRANCH  25  26
ENDBRANCH   1  25
TORSDOF 21
ENDMDL
MODEL 3
REMARK VINA RESULT:     -10.4      2.362      7.259
REMARK SMILES Cc1csc(=O)n1CC(=O)N[C@@H](C(=O)NCCCCCCNC(=O)c1ccc(-c2c3nc(c(-c4cc(S(=O)(=O)[O-])ccc4F)c4ccc([nH]4)c(-c4cc(S(=O)(=O)[O-])ccc4F)c4nc(c(-c5cc(S(=O)(=O)[O-])ccc5F)c5ccc2[nH]5)C=C4)C=C3)cc1)[C@@H](C)O
REMARK SMILES IDX 18 1 17 2 16 3 15 4 13 5 14 6 12 8 11 9 9 10 10 11 8 13 7 14
REMARK SMILES IDX 1 15 2 16 3 17 4 18 5 19 6 20 88 21 89 22 90 23 19 25 20 26
REMARK SMILES IDX 21 27 22 28 23 29 24 31 25 32 26 33 87 34 27 35 86 36 28 37
REMARK SMILES IDX 29 38 30 39 80 40 31 41 85 42 79 43 81 44 32 45 84 46 78 47
REMARK SMILES IDX 77 48 33 50 65 51 45 52 64 53 46 54 49 55 63 56 82 57 47 58
REMARK SMILES IDX 48 59 62 61 83 62 50 63 34 64 35 65 43 66 36 67 42 68 44 69
REMARK SMILES IDX 41 70 37 71 38 72 39 73 40 74 66 75 67 76 75 77 68 78 74 79
REMARK SMILES IDX 76 80 73 81 69 82 70 83 71 84 72 85 51 86 52 87 60 88 53 89
REMARK SMILES IDX 59 90 61 91 58 92 54 93 55 94 56 95 57 96
REMARK H PARENT 15 7 11 12 90 24 22 30 81 49 49 60
REMARK Flexibility Score: inf
ROOT
ATOM      1  C   UNL A   1      36.243  21.288  25.558  1.00  0.00     0.002 C 
ENDROOT
BRANCH   1   2
ATOM      2  C   UNL A   1      34.916  21.138  24.810  1.00  0.00     0.021 C 
BRANCH   2   3
ATOM      3  C   UNL A   1      33.962  22.303  25.020  1.00  0.00     0.116 C 
BRANCH   3   4
ATOM      4  N   UNL A   1      33.430  22.363  26.363  1.00  0.00    -0.354 N 
ATOM      5  C   UNL A   1      32.476  23.189  26.889  1.00  0.00     0.245 C 
ATOM      6  O   UNL A   1      32.068  22.906  28.018  1.00  0.00    -0.273 OA
ATOM      7  H   UNL A   1      33.813  21.711  26.994  1.00  0.00     0.163 HD
BRANCH   5   8
ATOM      8  C   UNL A   1      31.823  24.297  26.013  1.00  0.00     0.200 C 
BRANCH   8   9
ATOM      9  N   UNL A   1      31.491  25.485  26.802  1.00  0.00    -0.340 N 
ATOM     10  C   UNL A   1      31.904  26.782  26.704  1.00  0.00     0.240 C 
ATOM     11  O   UNL A   1      31.385  27.582  27.486  1.00  0.00    -0.273 OA
ATOM     12  H   UNL A   1      30.856  25.318  27.535  1.00  0.00     0.164 HD
BRANCH  10  13
ATOM     13  C   UNL A   1      32.876  27.277  25.612  1.00  0.00     0.226 C 
BRANCH  13  14
ATOM     14  N   UNL A   1      32.534  27.017  24.217  1.00  0.00    -0.294 N 
ATOM     15  C   UNL A   1      30.565  28.626  24.021  1.00  0.00     0.065 C 
ATOM     16  C   UNL A   1      31.516  27.613  23.483  1.00  0.00     0.029 A 
ATOM     17  C   UNL A   1      31.476  27.215  22.201  1.00  0.00     0.091 A 
ATOM     18  S   UNL A   1      32.787  26.166  21.801  1.00  0.00    -0.082 S 
ATOM     19  C   UNL A   1      33.384  26.189  23.470  1.00  0.00     0.307 A 
ATOM     20  O   UNL A   1      34.346  25.563  23.841  1.00  0.00    -0.257 OA
ENDBRANCH  13  14
ENDBRANCH  10  13
ENDBRANCH   8   9
BRANCH   8  21
ATOM     21  C   UNL A   1      30.584  23.730  25.260  1.00  0.00     0.143 C 
ATOM     22  C   UNL A   1      30.776  23.615  23.749  1.00  0.00     0.041 C 
BRANCH  21  23
ATOM     23  O   UNL A   1      30.251  22.412  25.721  1.00  0.00    -0.391 OA
ATOM     24  H   UNL A   1      29.562  22.472  26.402  1.00  0.00     0.211 HD
ENDBRANCH  21  23
ENDBRANCH   8  21
ENDBRANCH   5   8
ENDBRANCH   3   4
ENDBRANCH   2   3
ENDBRANCH   1   2
BRANCH   1  25
ATOM     25  C   UNL A   1      37.152  22.437  25.087  1.00  0.00     0.002 C 
BRANCH  25  26
ATOM     26  C   UNL A   1      36.998  23.778  25.818  1.00  0.00     0.021 C 
BRANCH  26  27
ATOM     27  C   UNL A   1      38.206  24.181  26.636  1.00  0.00     0.116 C 
BRANCH  27  28
ATOM     28  N   UNL A   1      39.181  23.094  26.813  1.00  0.00    -0.352 N 
ATOM     29  C   UNL A   1      40.502  23.183  27.241  1.00  0.00     0.251 C 
ATOM     30  H   UNL A   1      38.857  22.188  26.604  1.00  0.00     0.163 HD
ATOM     31  O   UNL A   1      41.303  22.286  27.005  1.00  0.00    -0.269 OA
BRANCH  29  32
ATOM     32  C   UNL A   1      40.898  24.383  28.000  1.00  0.00     0.039 A 
ATOM     33  C   UNL A   1      42.176  24.630  28.510  1.00  0.00     0.014 A 
ATOM     34  C   UNL A   1      39.911  25.344  28.107  1.00  0.00     0.014 A 
ATOM     35  C   UNL A   1      42.415  25.875  29.099  1.00  0.00     0.010 A 
ATOM     36  C   UNL A   1      40.288  26.636  28.242  1.00  0.00     0.010 A 
ATOM     37  C   UNL A   1      41.436  26.868  28.967  1.00  0.00    -0.014 A 
BRANCH  37  38
ATOM     38  C   UNL A   1      41.504  28.209  29.516  1.00  0.00     0.031 A 
ATOM     39  C   UNL A   1      42.510  29.072  28.866  1.00  0.00     0.074 A 
ATOM     40  C   UNL A   1      40.512  28.696  30.304  1.00  0.00     0.049 A 
ATOM     41  N   UNL A   1      43.630  29.465  29.365  1.00  0.00    -0.248 NA
ATOM     42  C   UNL A   1      42.356  29.380  27.436  1.00  0.00     0.031 C 
ATOM     43  C   UNL A   1      39.278  28.039  30.769  1.00  0.00     0.029 A 
ATOM     44  N   UNL A   1      40.348  29.959  30.770  1.00  0.00    -0.354 N 
ATOM     45  C   UNL A   1      44.201  30.289  28.407  1.00  0.00     0.074 A 
ATOM     46  C   UNL A   1      43.513  29.995  27.179  1.00  0.00     0.031 C 
ATOM     47  C   UNL A   1      38.412  28.965  31.244  1.00  0.00     0.029 A 
ATOM     48  C   UNL A   1      39.080  30.253  31.273  1.00  0.00     0.049 A 
ATOM     49  H   UNL A   1      41.073  30.624  30.755  1.00  0.00     0.167 HD
ATOM     50  C   UNL A   1      45.010  31.324  28.769  1.00  0.00     0.034 A 
ATOM     51  C   UNL A   1      38.622  31.473  31.674  1.00  0.00     0.034 A 
ATOM     52  C   UNL A   1      45.361  31.230  30.172  1.00  0.00     0.049 A 
ATOM     53  C   UNL A   1      39.837  32.276  31.984  1.00  0.00     0.074 A 
ATOM     54  C   UNL A   1      46.007  30.280  30.941  1.00  0.00     0.029 A 
ATOM     55  N   UNL A   1      44.640  31.995  31.067  1.00  0.00    -0.354 N 
ATOM     56  N   UNL A   1      40.661  31.957  32.949  1.00  0.00    -0.248 NA
ATOM     57  C   UNL A   1      40.431  33.060  30.908  1.00  0.00     0.031 C 
ATOM     58  C   UNL A   1      45.231  30.192  32.136  1.00  0.00     0.029 A 
ATOM     59  C   UNL A   1      44.225  31.162  32.080  1.00  0.00     0.049 A 
ATOM     60  H   UNL A   1      44.456  32.960  30.992  1.00  0.00     0.167 HD
ATOM     61  C   UNL A   1      41.931  32.099  32.407  1.00  0.00     0.074 A 
ATOM     62  C   UNL A   1      41.730  32.870  31.177  1.00  0.00     0.031 C 
ATOM     63  C   UNL A   1      42.981  31.322  32.819  1.00  0.00     0.034 A 
BRANCH  50  64
ATOM     64  C   UNL A   1      45.202  32.604  27.990  1.00  0.00     0.023 A 
ATOM     65  C   UNL A   1      44.379  33.693  28.336  1.00  0.00     0.031 A 
ATOM     66  C   UNL A   1      45.928  32.739  26.786  1.00  0.00     0.131 A 
ATOM     67  C   UNL A   1      44.228  34.788  27.470  1.00  0.00     0.055 A 
ATOM     68  C   UNL A   1      45.825  33.862  25.960  1.00  0.00     0.041 A 
ATOM     69  F   UNL A   1      46.696  31.765  26.285  1.00  0.00    -0.206 F 
ATOM     70  C   UNL A   1      44.948  34.881  26.282  1.00  0.00     0.022 A 
BRANCH  67  71
ATOM     71  S   UNL A   1      42.935  36.001  27.838  1.00  0.00     0.124 S 
ATOM     72  O   UNL A   1      43.629  37.261  27.596  1.00  0.00    -0.237 OA
ATOM     73  O   UNL A   1      41.901  35.638  26.875  1.00  0.00    -0.237 OA
ATOM     74  O   UNL A   1      42.607  35.731  29.237  1.00  0.00    -0.744 OA
ENDBRANCH  67  71
ENDBRANCH  50  64
BRANCH  51  75
ATOM     75  C   UNL A   1      37.258  32.045  31.435  1.00  0.00     0.023 A 
ATOM     76  C   UNL A   1      36.682  32.227  30.155  1.00  0.00     0.031 A 
ATOM     77  C   UNL A   1      36.389  32.220  32.538  1.00  0.00     0.131 A 
ATOM     78  C   UNL A   1      35.309  32.574  30.025  1.00  0.00     0.055 A 
ATOM     79  C   UNL A   1      35.038  32.556  32.404  1.00  0.00     0.041 A 
ATOM     80  F   UNL A   1      36.807  31.992  33.793  1.00  0.00    -0.206 F 
ATOM     81  C   UNL A   1      34.490  32.728  31.145  1.00  0.00     0.022 A 
BRANCH  78  82
ATOM     82  S   UNL A   1      34.533  32.766  28.381  1.00  0.00     0.124 S 
ATOM     83  O   UNL A   1      35.670  33.117  27.538  1.00  0.00    -0.237 OA
ATOM     84  O   UNL A   1      33.939  31.454  28.157  1.00  0.00    -0.237 OA
ATOM     85  O   UNL A   1      33.565  33.847  28.581  1.00  0.00    -0.744 OA
ENDBRANCH  78  82
ENDBRANCH  51  75
BRANCH  63  86
ATOM     86  C   UNL A   1      42.772  30.397  34.011  1.00  0.00     0.023 A 
ATOM     87  C   UNL A   1      42.629  28.989  33.930  1.00  0.00     0.031 A 
ATOM     88  C   UNL A   1      42.877  30.958  35.295  1.00  0.00     0.131 A 
ATOM     89  C   UNL A   1      42.589  28.206  35.103  1.00  0.00     0.055 A 
ATOM     90  C   UNL A   1      42.861  30.178  36.452  1.00  0.00     0.041 A 
ATOM     91  F   UNL A   1      43.047  32.282  35.445  1.00  0.00    -0.206 F 
ATOM     92  C   UNL A   1      42.713  28.799  36.362  1.00  0.00     0.022 A 
BRANCH  89  93
ATOM     93  S   UNL A   1      42.373  26.395  35.012  1.00  0.00     0.124 S 
ATOM     94  O   UNL A   1      40.925  26.231  34.937  1.00  0.00    -0.237 OA
ATOM     95  O   UNL A   1      43.121  26.039  33.810  1.00  0.00    -0.237 OA
ATOM     96  O   UNL A   1      42.973  25.917  36.261  1.00  0.00    -0.744 OA
ENDBRANCH  89  93
ENDBRANCH  63  86
ENDBRANCH  37  38
ENDBRANCH  29  32
ENDBRANCH  27  28
ENDBRANCH  26  27
ENDBRANCH  25  26
ENDBRANCH   1  25
TORSDOF 21
ENDMDL
