MODEL 1
REMARK VINA RESULT:     -13.4      0.000      0.000
REMARK SMILES O=C(NCCCCCCNC(=O)[C@@]12C[C@H]3C[C@@H](C1)C[C@](n1cc([N+](=O)[O-])cn1)(C3)C2)c1ccc(-c2c3nc(c(-c4cc(S(=O)(=O)[O-])ccc4F)c4ccc([nH]4)c(-c4cc(S(=O)(=O)[O-])ccc4F)c4nc(c(-c5cc(S(=O)(=O)[O-])ccc5F)c5ccc2[nH]5)C=C4)C=C3)cc1
REMARK SMILES IDX 6 1 5 2 4 3 3 4 1 5 2 6 31 8 32 9 93 10 33 11 92 12 34 13
REMARK SMILES IDX 35 14 36 15 86 16 37 17 91 18 85 19 87 20 38 21 90 22 84 23
REMARK SMILES IDX 83 24 39 26 71 27 51 28 70 29 52 30 55 31 69 32 88 33 53 34
REMARK SMILES IDX 54 35 68 37 89 38 56 39 40 40 41 41 49 42 42 43 48 44 50 45
REMARK SMILES IDX 47 46 43 47 44 48 45 49 46 50 72 51 73 52 81 53 74 54 80 55
REMARK SMILES IDX 82 56 79 57 75 58 76 59 77 60 78 61 57 62 58 63 66 64 59 65
REMARK SMILES IDX 65 66 67 67 64 68 60 69 61 70 62 71 63 72 7 73 8 74 9 75
REMARK SMILES IDX 10 76 11 77 12 79 13 80 14 81 18 82 30 83 15 84 17 85 20 86
REMARK SMILES IDX 16 87 29 88 19 89 21 90 22 91 28 92 23 93 27 94 24 95 25 96
REMARK SMILES IDX 26 97
REMARK H PARENT 3 7 87 25 55 36 10 78
REMARK Flexibility Score: inf
ROOT
ATOM      1  C   UNL A   1      32.540  28.667  27.322  1.00  0.00     0.002 C 
ENDROOT
BRANCH   1   2
ATOM      2  C   UNL A   1      33.851  28.190  26.686  1.00  0.00     0.021 C 
BRANCH   2   3
ATOM      3  C   UNL A   1      35.026  29.145  26.893  1.00  0.00     0.116 C 
BRANCH   3   4
ATOM      4  N   UNL A   1      35.129  29.645  28.248  1.00  0.00    -0.352 N 
ATOM      5  O   UNL A   1      35.867  30.292  30.224  1.00  0.00    -0.269 OA
ATOM      6  C   UNL A   1      36.159  29.782  29.139  1.00  0.00     0.251 C 
ATOM      7  H   UNL A   1      34.268  29.957  28.608  1.00  0.00     0.163 HD
BRANCH   6   8
ATOM      8  C   UNL A   1      37.561  29.332  28.904  1.00  0.00     0.039 A 
ATOM      9  C   UNL A   1      38.357  29.674  27.810  1.00  0.00     0.014 A 
ATOM     10  C   UNL A   1      38.110  28.494  29.894  1.00  0.00     0.014 A 
ATOM     11  C   UNL A   1      39.640  29.147  27.673  1.00  0.00     0.010 A 
ATOM     12  C   UNL A   1      39.401  27.985  29.773  1.00  0.00     0.010 A 
ATOM     13  C   UNL A   1      40.160  28.295  28.647  1.00  0.00    -0.014 A 
BRANCH  13  14
ATOM     14  C   UNL A   1      41.560  27.886  28.525  1.00  0.00     0.031 A 
ATOM     15  C   UNL A   1      41.781  26.578  27.837  1.00  0.00     0.074 A 
ATOM     16  C   UNL A   1      42.606  28.675  28.841  1.00  0.00     0.049 A 
ATOM     17  N   UNL A   1      42.389  25.523  28.277  1.00  0.00    -0.248 NA
ATOM     18  C   UNL A   1      41.161  26.392  26.514  1.00  0.00     0.031 C 
ATOM     19  C   UNL A   1      42.577  30.083  29.240  1.00  0.00     0.029 A 
ATOM     20  N   UNL A   1      43.942  28.404  28.755  1.00  0.00    -0.354 N 
ATOM     21  C   UNL A   1      42.401  24.608  27.224  1.00  0.00     0.074 A 
ATOM     22  C   UNL A   1      41.514  25.140  26.225  1.00  0.00     0.031 C 
ATOM     23  C   UNL A   1      43.822  30.599  29.140  1.00  0.00     0.029 A 
ATOM     24  C   UNL A   1      44.752  29.533  28.800  1.00  0.00     0.049 A 
ATOM     25  H   UNL A   1      44.299  27.491  28.668  1.00  0.00     0.167 HD
ATOM     26  C   UNL A   1      43.279  23.565  27.180  1.00  0.00     0.034 A 
ATOM     27  C   UNL A   1      46.077  29.608  28.507  1.00  0.00     0.034 A 
ATOM     28  C   UNL A   1      43.810  23.274  28.491  1.00  0.00     0.049 A 
ATOM     29  C   UNL A   1      46.637  28.243  28.645  1.00  0.00     0.074 A 
ATOM     30  C   UNL A   1      43.254  22.907  29.702  1.00  0.00     0.029 A 
ATOM     31  N   UNL A   1      45.093  23.673  28.787  1.00  0.00    -0.354 N 
ATOM     32  N   UNL A   1      46.704  27.600  29.779  1.00  0.00    -0.248 NA
ATOM     33  C   UNL A   1      46.716  27.407  27.456  1.00  0.00     0.031 C 
ATOM     34  C   UNL A   1      44.026  23.597  30.681  1.00  0.00     0.029 A 
ATOM     35  C   UNL A   1      45.039  24.287  30.013  1.00  0.00     0.049 A 
ATOM     36  H   UNL A   1      45.894  23.544  28.229  1.00  0.00     0.167 HD
ATOM     37  C   UNL A   1      46.405  26.284  29.465  1.00  0.00     0.074 A 
ATOM     38  C   UNL A   1      46.522  26.207  28.011  1.00  0.00     0.031 C 
ATOM     39  C   UNL A   1      45.827  25.448  30.377  1.00  0.00     0.034 A 
BRANCH  26  40
ATOM     40  C   UNL A   1      43.911  23.007  25.919  1.00  0.00     0.023 A 
ATOM     41  C   UNL A   1      43.794  21.620  25.694  1.00  0.00     0.031 A 
ATOM     42  C   UNL A   1      44.849  23.678  25.104  1.00  0.00     0.131 A 
ATOM     43  C   UNL A   1      44.657  20.951  24.808  1.00  0.00     0.055 A 
ATOM     44  C   UNL A   1      45.656  23.019  24.170  1.00  0.00     0.041 A 
ATOM     45  F   UNL A   1      45.108  24.985  25.221  1.00  0.00    -0.206 F 
ATOM     46  C   UNL A   1      45.590  21.642  24.044  1.00  0.00     0.022 A 
BRANCH  43  47
ATOM     47  S   UNL A   1      44.674  19.138  24.827  1.00  0.00     0.124 S 
ATOM     48  O   UNL A   1      44.571  18.827  23.405  1.00  0.00    -0.237 OA
ATOM     49  O   UNL A   1      45.961  18.858  25.456  1.00  0.00    -0.237 OA
ATOM     50  O   UNL A   1      43.500  18.797  25.626  1.00  0.00    -0.744 OA
ENDBRANCH  43  47
ENDBRANCH  26  40
BRANCH  27  51
ATOM     51  C   UNL A   1      46.766  30.719  27.792  1.00  0.00     0.023 A 
ATOM     52  C   UNL A   1      46.078  31.723  27.079  1.00  0.00     0.031 A 
ATOM     53  C   UNL A   1      48.149  30.928  28.004  1.00  0.00     0.131 A 
ATOM     54  C   UNL A   1      46.775  32.861  26.601  1.00  0.00     0.055 A 
ATOM     55  C   UNL A   1      48.832  32.046  27.523  1.00  0.00     0.041 A 
ATOM     56  F   UNL A   1      48.871  30.086  28.760  1.00  0.00    -0.206 F 
ATOM     57  C   UNL A   1      48.145  33.023  26.824  1.00  0.00     0.022 A 
BRANCH  54  58
ATOM     58  S   UNL A   1      45.881  34.203  25.752  1.00  0.00     0.124 S 
ATOM     59  O   UNL A   1      46.953  34.873  25.018  1.00  0.00    -0.237 OA
ATOM     60  O   UNL A   1      44.905  33.478  24.956  1.00  0.00    -0.237 OA
ATOM     61  O   UNL A   1      45.316  34.987  26.853  1.00  0.00    -0.744 OA
ENDBRANCH  54  58
ENDBRANCH  27  51
BRANCH  39  62
ATOM     62  C   UNL A   1      45.785  25.865  31.831  1.00  0.00     0.023 A 
ATOM     63  C   UNL A   1      44.634  26.340  32.497  1.00  0.00     0.031 A 
ATOM     64  C   UNL A   1      46.933  25.616  32.604  1.00  0.00     0.131 A 
ATOM     65  C   UNL A   1      44.665  26.552  33.889  1.00  0.00     0.055 A 
ATOM     66  C   UNL A   1      46.955  25.810  33.984  1.00  0.00     0.041 A 
ATOM     67  F   UNL A   1      48.047  25.130  32.032  1.00  0.00    -0.206 F 
ATOM     68  C   UNL A   1      45.820  26.282  34.632  1.00  0.00     0.022 A 
BRANCH  65  69
ATOM     69  S   UNL A   1      43.193  27.170  34.768  1.00  0.00     0.124 S 
ATOM     70  O   UNL A   1      43.755  27.906  35.894  1.00  0.00    -0.237 OA
ATOM     71  O   UNL A   1      42.526  27.971  33.744  1.00  0.00    -0.237 OA
ATOM     72  O   UNL A   1      42.478  25.947  35.137  1.00  0.00    -0.744 OA
ENDBRANCH  65  69
ENDBRANCH  39  62
ENDBRANCH  13  14
ENDBRANCH   6   8
ENDBRANCH   3   4
ENDBRANCH   2   3
ENDBRANCH   1   2
BRANCH   1  73
ATOM     73  C   UNL A   1      31.347  27.721  27.135  1.00  0.00     0.002 C 
BRANCH  73  74
ATOM     74  C   UNL A   1      31.174  27.204  25.701  1.00  0.00     0.021 C 
BRANCH  74  75
ATOM     75  C   UNL A   1      30.109  26.110  25.607  1.00  0.00     0.116 C 
BRANCH  75  76
ATOM     76  N   UNL A   1      30.393  25.089  26.598  1.00  0.00    -0.356 N 
ATOM     77  C   UNL A   1      30.962  23.860  26.485  1.00  0.00     0.226 C 
ATOM     78  H   UNL A   1      30.125  25.329  27.514  1.00  0.00     0.163 HD
ATOM     79  O   UNL A   1      30.737  23.076  27.413  1.00  0.00    -0.274 OA
BRANCH  77  80
ATOM     80  C   UNL A   1      31.995  23.508  25.389  1.00  0.00     0.052 C 
ATOM     81  C   UNL A   1      31.294  23.517  24.002  1.00  0.00     0.020 C 
ATOM     82  C   UNL A   1      33.269  24.371  25.272  1.00  0.00     0.020 C 
ATOM     83  C   UNL A   1      32.400  22.062  25.678  1.00  0.00     0.047 C 
ATOM     84  C   UNL A   1      32.225  22.975  22.904  1.00  0.00    -0.007 C 
ATOM     85  C   UNL A   1      34.207  23.827  24.171  1.00  0.00    -0.007 C 
ATOM     86  C   UNL A   1      33.365  21.475  24.614  1.00  0.00     0.065 C 
ATOM     87  C   UNL A   1      33.473  23.861  22.827  1.00  0.00     0.007 C 
ATOM     88  C   UNL A   1      32.637  21.528  23.241  1.00  0.00     0.034 C 
ATOM     89  C   UNL A   1      34.618  22.376  24.508  1.00  0.00     0.034 C 
BRANCH  86  90
ATOM     90  N   UNL A   1      33.701  20.104  25.066  1.00  0.00    -0.259 N 
ATOM     91  C   UNL A   1      32.874  19.025  24.788  1.00  0.00     0.195 A 
ATOM     92  N   UNL A   1      34.999  19.711  25.132  1.00  0.00    -0.173 NA
ATOM     93  C   UNL A   1      33.704  18.149  24.116  1.00  0.00     0.307 A 
ATOM     94  C   UNL A   1      35.003  18.545  24.470  1.00  0.00     0.220 A 
BRANCH  93  95
ATOM     95  N   UNL A   1      33.314  17.172  23.152  1.00  0.00     0.066 N 
ATOM     96  O   UNL A   1      33.755  16.028  23.307  1.00  0.00    -0.258 OA
ATOM     97  O   UNL A   1      32.644  17.575  22.193  1.00  0.00    -0.258 OA
ENDBRANCH  93  95
ENDBRANCH  86  90
ENDBRANCH  77  80
ENDBRANCH  75  76
ENDBRANCH  74  75
ENDBRANCH  73  74
ENDBRANCH   1  73
TORSDOF 18
ENDMDL
MODEL 2
REMARK VINA RESULT:     -13.4      2.690      7.261
REMARK SMILES O=C(NCCCCCCNC(=O)[C@@]12C[C@H]3C[C@@H](C1)C[C@](n1cc([N+](=O)[O-])cn1)(C3)C2)c1ccc(-c2c3nc(c(-c4cc(S(=O)(=O)[O-])ccc4F)c4ccc([nH]4)c(-c4cc(S(=O)(=O)[O-])ccc4F)c4nc(c(-c5cc(S(=O)(=O)[O-])ccc5F)c5ccc2[nH]5)C=C4)C=C3)cc1
REMARK SMILES IDX 6 1 5 2 4 3 3 4 1 5 2 6 31 8 32 9 93 10 33 11 92 12 34 13
REMARK SMILES IDX 35 14 36 15 86 16 37 17 91 18 85 19 87 20 38 21 90 22 84 23
REMARK SMILES IDX 83 24 39 26 71 27 51 28 70 29 52 30 55 31 69 32 88 33 53 34
REMARK SMILES IDX 54 35 68 37 89 38 56 39 40 40 41 41 49 42 42 43 48 44 50 45
REMARK SMILES IDX 47 46 43 47 44 48 45 49 46 50 72 51 73 52 81 53 74 54 80 55
REMARK SMILES IDX 82 56 79 57 75 58 76 59 77 60 78 61 57 62 58 63 66 64 59 65
REMARK SMILES IDX 65 66 67 67 64 68 60 69 61 70 62 71 63 72 7 73 8 74 9 75
REMARK SMILES IDX 10 76 11 77 12 79 13 80 14 81 18 82 30 83 15 84 17 85 20 86
REMARK SMILES IDX 16 87 29 88 19 89 21 90 22 91 28 92 23 93 27 94 24 95 25 96
REMARK SMILES IDX 26 97
REMARK H PARENT 3 7 87 25 55 36 10 78
REMARK Flexibility Score: inf
ROOT
ATOM      1  C   UNL A   1      32.168  29.892  25.307  1.00  0.00     0.002 C 
ENDROOT
BRANCH   1   2
ATOM      2  C   UNL A   1      32.478  29.431  26.736  1.00  0.00     0.021 C 
BRANCH   2   3
ATOM      3  C   UNL A   1      33.931  29.649  27.158  1.00  0.00     0.116 C 
BRANCH   3   4
ATOM      4  N   UNL A   1      34.152  30.910  27.833  1.00  0.00    -0.352 N 
ATOM      5  O   UNL A   1      35.043  32.612  28.918  1.00  0.00    -0.269 OA
ATOM      6  C   UNL A   1      35.220  31.472  28.478  1.00  0.00     0.251 C 
ATOM      7  H   UNL A   1      33.359  31.493  27.826  1.00  0.00     0.163 HD
BRANCH   6   8
ATOM      8  C   UNL A   1      36.531  30.801  28.711  1.00  0.00     0.039 A 
ATOM      9  C   UNL A   1      37.751  31.445  28.928  1.00  0.00     0.014 A 
ATOM     10  C   UNL A   1      36.509  29.394  28.716  1.00  0.00     0.014 A 
ATOM     11  C   UNL A   1      38.924  30.709  29.082  1.00  0.00     0.010 A 
ATOM     12  C   UNL A   1      37.675  28.654  28.894  1.00  0.00     0.010 A 
ATOM     13  C   UNL A   1      38.890  29.314  29.055  1.00  0.00    -0.014 A 
BRANCH  13  14
ATOM     14  C   UNL A   1      40.125  28.591  29.364  1.00  0.00     0.031 A 
ATOM     15  C   UNL A   1      40.474  28.521  30.815  1.00  0.00     0.074 A 
ATOM     16  C   UNL A   1      40.830  27.883  28.459  1.00  0.00     0.049 A 
ATOM     17  N   UNL A   1      41.553  28.918  31.409  1.00  0.00    -0.248 NA
ATOM     18  C   UNL A   1      39.441  28.024  31.739  1.00  0.00     0.031 C 
ATOM     19  C   UNL A   1      40.471  27.597  27.069  1.00  0.00     0.029 A 
ATOM     20  N   UNL A   1      41.978  27.165  28.637  1.00  0.00    -0.354 N 
ATOM     21  C   UNL A   1      41.424  28.550  32.748  1.00  0.00     0.074 A 
ATOM     22  C   UNL A   1      40.056  28.137  32.916  1.00  0.00     0.031 C 
ATOM     23  C   UNL A   1      41.250  26.595  26.606  1.00  0.00     0.029 A 
ATOM     24  C   UNL A   1      42.244  26.262  27.614  1.00  0.00     0.049 A 
ATOM     25  H   UNL A   1      42.564  27.277  29.419  1.00  0.00     0.167 HD
ATOM     26  C   UNL A   1      42.501  28.445  33.579  1.00  0.00     0.034 A 
ATOM     27  C   UNL A   1      43.164  25.260  27.618  1.00  0.00     0.034 A 
ATOM     28  C   UNL A   1      43.630  29.183  33.064  1.00  0.00     0.049 A 
ATOM     29  C   UNL A   1      44.182  25.601  28.640  1.00  0.00     0.074 A 
ATOM     30  C   UNL A   1      43.858  30.508  32.745  1.00  0.00     0.029 A 
ATOM     31  N   UNL A   1      44.662  28.487  32.478  1.00  0.00    -0.354 N 
ATOM     32  N   UNL A   1      44.982  26.628  28.548  1.00  0.00    -0.248 NA
ATOM     33  C   UNL A   1      44.016  25.066  29.984  1.00  0.00     0.031 C 
ATOM     34  C   UNL A   1      44.675  30.467  31.579  1.00  0.00     0.029 A 
ATOM     35  C   UNL A   1      44.946  29.126  31.298  1.00  0.00     0.049 A 
ATOM     36  H   UNL A   1      45.110  27.685  32.836  1.00  0.00     0.167 HD
ATOM     37  C   UNL A   1      45.080  27.124  29.838  1.00  0.00     0.074 A 
ATOM     38  C   UNL A   1      44.548  26.065  30.692  1.00  0.00     0.031 C 
ATOM     39  C   UNL A   1      45.327  28.446  30.076  1.00  0.00     0.034 A 
BRANCH  26  40
ATOM     40  C   UNL A   1      42.651  27.424  34.690  1.00  0.00     0.023 A 
ATOM     41  C   UNL A   1      43.423  26.276  34.416  1.00  0.00     0.031 A 
ATOM     42  C   UNL A   1      41.862  27.361  35.860  1.00  0.00     0.131 A 
ATOM     43  C   UNL A   1      43.299  25.112  35.195  1.00  0.00     0.055 A 
ATOM     44  C   UNL A   1      41.797  26.224  36.674  1.00  0.00     0.041 A 
ATOM     45  F   UNL A   1      41.042  28.349  36.237  1.00  0.00    -0.206 F 
ATOM     46  C   UNL A   1      42.487  25.077  36.323  1.00  0.00     0.022 A 
BRANCH  43  47
ATOM     47  S   UNL A   1      44.058  23.583  34.585  1.00  0.00     0.124 S 
ATOM     48  O   UNL A   1      44.425  22.918  35.831  1.00  0.00    -0.237 OA
ATOM     49  O   UNL A   1      42.960  22.983  33.834  1.00  0.00    -0.237 OA
ATOM     50  O   UNL A   1      45.179  24.060  33.780  1.00  0.00    -0.744 OA
ENDBRANCH  43  47
ENDBRANCH  26  40
BRANCH  27  51
ATOM     51  C   UNL A   1      42.996  23.899  27.036  1.00  0.00     0.023 A 
ATOM     52  C   UNL A   1      43.971  23.280  26.226  1.00  0.00     0.031 A 
ATOM     53  C   UNL A   1      41.928  23.083  27.476  1.00  0.00     0.131 A 
ATOM     54  C   UNL A   1      43.844  21.912  25.879  1.00  0.00     0.055 A 
ATOM     55  C   UNL A   1      41.803  21.738  27.123  1.00  0.00     0.041 A 
ATOM     56  F   UNL A   1      41.007  23.547  28.335  1.00  0.00    -0.206 F 
ATOM     57  C   UNL A   1      42.766  21.144  26.327  1.00  0.00     0.022 A 
BRANCH  54  58
ATOM     58  S   UNL A   1      45.140  21.081  24.903  1.00  0.00     0.124 S 
ATOM     59  O   UNL A   1      44.683  21.300  23.532  1.00  0.00    -0.237 OA
ATOM     60  O   UNL A   1      46.342  21.790  25.307  1.00  0.00    -0.237 OA
ATOM     61  O   UNL A   1      45.067  19.689  25.354  1.00  0.00    -0.744 OA
ENDBRANCH  54  58
ENDBRANCH  27  51
BRANCH  39  62
ATOM     62  C   UNL A   1      45.795  29.322  28.934  1.00  0.00     0.023 A 
ATOM     63  C   UNL A   1      44.995  30.284  28.280  1.00  0.00     0.031 A 
ATOM     64  C   UNL A   1      47.162  29.276  28.608  1.00  0.00     0.131 A 
ATOM     65  C   UNL A   1      45.574  31.154  27.335  1.00  0.00     0.055 A 
ATOM     66  C   UNL A   1      47.735  30.150  27.686  1.00  0.00     0.041 A 
ATOM     67  F   UNL A   1      47.980  28.405  29.223  1.00  0.00    -0.206 F 
ATOM     68  C   UNL A   1      46.941  31.091  27.043  1.00  0.00     0.022 A 
BRANCH  65  69
ATOM     69  S   UNL A   1      44.560  32.400  26.475  1.00  0.00     0.124 S 
ATOM     70  O   UNL A   1      44.046  33.227  27.560  1.00  0.00    -0.237 OA
ATOM     71  O   UNL A   1      45.527  33.036  25.584  1.00  0.00    -0.237 OA
ATOM     72  O   UNL A   1      43.545  31.599  25.788  1.00  0.00    -0.744 OA
ENDBRANCH  65  69
ENDBRANCH  39  62
ENDBRANCH  13  14
ENDBRANCH   6   8
ENDBRANCH   3   4
ENDBRANCH   2   3
ENDBRANCH   1   2
BRANCH   1  73
ATOM     73  C   UNL A   1      31.106  29.063  24.575  1.00  0.00     0.002 C 
BRANCH  73  74
ATOM     74  C   UNL A   1      31.321  28.961  23.060  1.00  0.00     0.021 C 
BRANCH  74  75
ATOM     75  C   UNL A   1      30.648  27.724  22.463  1.00  0.00     0.116 C 
BRANCH  75  76
ATOM     76  N   UNL A   1      31.628  26.978  21.698  1.00  0.00    -0.356 N 
ATOM     77  C   UNL A   1      32.741  26.299  22.081  1.00  0.00     0.226 C 
ATOM     78  H   UNL A   1      31.458  26.962  20.728  1.00  0.00     0.163 HD
ATOM     79  O   UNL A   1      33.574  26.083  21.193  1.00  0.00    -0.274 OA
BRANCH  77  80
ATOM     80  C   UNL A   1      32.889  25.643  23.475  1.00  0.00     0.052 C 
ATOM     81  C   UNL A   1      33.651  26.614  24.419  1.00  0.00     0.020 C 
ATOM     82  C   UNL A   1      31.613  25.184  24.213  1.00  0.00     0.020 C 
ATOM     83  C   UNL A   1      33.795  24.433  23.248  1.00  0.00     0.047 C 
ATOM     84  C   UNL A   1      34.003  25.932  25.752  1.00  0.00    -0.007 C 
ATOM     85  C   UNL A   1      31.965  24.496  25.550  1.00  0.00    -0.007 C 
ATOM     86  C   UNL A   1      34.158  23.689  24.561  1.00  0.00     0.065 C 
ATOM     87  C   UNL A   1      32.709  25.493  26.444  1.00  0.00     0.007 C 
ATOM     88  C   UNL A   1      34.893  24.701  25.486  1.00  0.00     0.034 C 
ATOM     89  C   UNL A   1      32.858  23.263  25.283  1.00  0.00     0.034 C 
BRANCH  86  90
ATOM     90  N   UNL A   1      34.984  22.523  24.166  1.00  0.00    -0.259 N 
ATOM     91  C   UNL A   1      36.357  22.630  24.000  1.00  0.00     0.195 A 
ATOM     92  N   UNL A   1      34.644  21.278  24.588  1.00  0.00    -0.173 NA
ATOM     93  C   UNL A   1      36.859  21.682  24.870  1.00  0.00     0.307 A 
ATOM     94  C   UNL A   1      35.790  20.802  25.096  1.00  0.00     0.220 A 
BRANCH  93  95
ATOM     95  N   UNL A   1      38.133  21.703  25.514  1.00  0.00     0.066 N 
ATOM     96  O   UNL A   1      38.466  22.761  26.058  1.00  0.00    -0.258 OA
ATOM     97  O   UNL A   1      38.833  20.690  25.391  1.00  0.00    -0.258 OA
ENDBRANCH  93  95
ENDBRANCH  86  90
ENDBRANCH  77  80
ENDBRANCH  75  76
ENDBRANCH  74  75
ENDBRANCH  73  74
ENDBRANCH   1  73
TORSDOF 18
ENDMDL
MODEL 3
REMARK VINA RESULT:     -13.3      4.221      9.174
REMARK SMILES O=C(NCCCCCCNC(=O)[C@@]12C[C@H]3C[C@@H](C1)C[C@](n1cc([N+](=O)[O-])cn1)(C3)C2)c1ccc(-c2c3nc(c(-c4cc(S(=O)(=O)[O-])ccc4F)c4ccc([nH]4)c(-c4cc(S(=O)(=O)[O-])ccc4F)c4nc(c(-c5cc(S(=O)(=O)[O-])ccc5F)c5ccc2[nH]5)C=C4)C=C3)cc1
REMARK SMILES IDX 6 1 5 2 4 3 3 4 1 5 2 6 31 8 32 9 93 10 33 11 92 12 34 13
REMARK SMILES IDX 35 14 36 15 86 16 37 17 91 18 85 19 87 20 38 21 90 22 84 23
REMARK SMILES IDX 83 24 39 26 71 27 51 28 70 29 52 30 55 31 69 32 88 33 53 34
REMARK SMILES IDX 54 35 68 37 89 38 56 39 40 40 41 41 49 42 42 43 48 44 50 45
REMARK SMILES IDX 47 46 43 47 44 48 45 49 46 50 72 51 73 52 81 53 74 54 80 55
REMARK SMILES IDX 82 56 79 57 75 58 76 59 77 60 78 61 57 62 58 63 66 64 59 65
REMARK SMILES IDX 65 66 67 67 64 68 60 69 61 70 62 71 63 72 7 73 8 74 9 75
REMARK SMILES IDX 10 76 11 77 12 79 13 80 14 81 18 82 30 83 15 84 17 85 20 86
REMARK SMILES IDX 16 87 29 88 19 89 21 90 22 91 28 92 23 93 27 94 24 95 25 96
REMARK SMILES IDX 26 97
REMARK H PARENT 3 7 87 25 55 36 10 78
REMARK Flexibility Score: inf
ROOT
ATOM      1  C   UNL A   1      36.144  22.690  23.914  1.00  0.00     0.002 C 
ENDROOT
BRANCH   1   2
ATOM      2  C   UNL A   1      37.371  22.037  24.562  1.00  0.00     0.021 C 
BRANCH   2   3
ATOM      3  C   UNL A   1      37.859  22.747  25.824  1.00  0.00     0.116 C 
BRANCH   3   4
ATOM      4  N   UNL A   1      39.076  22.184  26.368  1.00  0.00    -0.352 N 
ATOM      5  O   UNL A   1      40.970  21.864  27.453  1.00  0.00    -0.269 OA
ATOM      6  C   UNL A   1      40.081  22.669  27.159  1.00  0.00     0.251 C 
ATOM      7  H   UNL A   1      39.210  21.242  26.113  1.00  0.00     0.163 HD
BRANCH   6   8
ATOM      8  C   UNL A   1      40.190  24.076  27.642  1.00  0.00     0.039 A 
ATOM      9  C   UNL A   1      39.203  25.057  27.530  1.00  0.00     0.014 A 
ATOM     10  C   UNL A   1      41.403  24.417  28.269  1.00  0.00     0.014 A 
ATOM     11  C   UNL A   1      39.440  26.356  27.973  1.00  0.00     0.010 A 
ATOM     12  C   UNL A   1      41.636  25.709  28.736  1.00  0.00     0.010 A 
ATOM     13  C   UNL A   1      40.659  26.687  28.566  1.00  0.00    -0.014 A 
BRANCH  13  14
ATOM     14  C   UNL A   1      40.802  28.026  29.141  1.00  0.00     0.031 A 
ATOM     15  C   UNL A   1      41.892  28.858  28.548  1.00  0.00     0.074 A 
ATOM     16  C   UNL A   1      39.931  28.567  30.016  1.00  0.00     0.049 A 
ATOM     17  N   UNL A   1      42.900  29.414  29.140  1.00  0.00    -0.248 NA
ATOM     18  C   UNL A   1      41.909  29.013  27.084  1.00  0.00     0.031 C 
ATOM     19  C   UNL A   1      38.655  28.012  30.470  1.00  0.00     0.029 A 
ATOM     20  N   UNL A   1      39.958  29.801  30.601  1.00  0.00    -0.354 N 
ATOM     21  C   UNL A   1      43.573  30.150  28.164  1.00  0.00     0.074 A 
ATOM     22  C   UNL A   1      43.005  29.752  26.905  1.00  0.00     0.031 C 
ATOM     23  C   UNL A   1      37.933  28.986  31.066  1.00  0.00     0.029 A 
ATOM     24  C   UNL A   1      38.744  30.190  31.155  1.00  0.00     0.049 A 
ATOM     25  H   UNL A   1      40.764  30.364  30.627  1.00  0.00     0.167 HD
ATOM     26  C   UNL A   1      44.429  31.163  28.482  1.00  0.00     0.034 A 
ATOM     27  C   UNL A   1      38.397  31.431  31.589  1.00  0.00     0.034 A 
ATOM     28  C   UNL A   1      44.884  31.054  29.847  1.00  0.00     0.049 A 
ATOM     29  C   UNL A   1      39.652  32.167  31.871  1.00  0.00     0.074 A 
ATOM     30  C   UNL A   1      45.571  30.093  30.566  1.00  0.00     0.029 A 
ATOM     31  N   UNL A   1      44.348  31.898  30.792  1.00  0.00    -0.354 N 
ATOM     32  N   UNL A   1      40.488  31.834  32.816  1.00  0.00    -0.248 NA
ATOM     33  C   UNL A   1      40.211  33.005  30.819  1.00  0.00     0.031 C 
ATOM     34  C   UNL A   1      44.973  30.108  31.859  1.00  0.00     0.029 A 
ATOM     35  C   UNL A   1      44.007  31.117  31.868  1.00  0.00     0.049 A 
ATOM     36  H   UNL A   1      44.231  32.873  30.713  1.00  0.00     0.167 HD
ATOM     37  C   UNL A   1      41.746  32.051  32.277  1.00  0.00     0.074 A 
ATOM     38  C   UNL A   1      41.512  32.865  31.087  1.00  0.00     0.031 C 
ATOM     39  C   UNL A   1      42.830  31.328  32.686  1.00  0.00     0.034 A 
BRANCH  26  40
ATOM     40  C   UNL A   1      44.613  32.436  27.677  1.00  0.00     0.023 A 
ATOM     41  C   UNL A   1      44.003  33.608  28.169  1.00  0.00     0.031 A 
ATOM     42  C   UNL A   1      45.078  32.505  26.345  1.00  0.00     0.131 A 
ATOM     43  C   UNL A   1      43.767  34.713  27.330  1.00  0.00     0.055 A 
ATOM     44  C   UNL A   1      44.905  33.634  25.536  1.00  0.00     0.041 A 
ATOM     45  F   UNL A   1      45.641  31.466  25.718  1.00  0.00    -0.206 F 
ATOM     46  C   UNL A   1      44.212  34.733  26.014  1.00  0.00     0.022 A 
BRANCH  43  47
ATOM     47  S   UNL A   1      42.684  36.036  27.935  1.00  0.00     0.124 S 
ATOM     48  O   UNL A   1      41.442  35.748  27.225  1.00  0.00    -0.237 OA
ATOM     49  O   UNL A   1      42.678  35.784  29.372  1.00  0.00    -0.237 OA
ATOM     50  O   UNL A   1      43.374  37.254  27.516  1.00  0.00    -0.744 OA
ENDBRANCH  43  47
ENDBRANCH  26  40
BRANCH  27  51
ATOM     51  C   UNL A   1      37.068  32.087  31.430  1.00  0.00     0.023 A 
ATOM     52  C   UNL A   1      36.484  32.356  30.174  1.00  0.00     0.031 A 
ATOM     53  C   UNL A   1      36.239  32.258  32.562  1.00  0.00     0.131 A 
ATOM     54  C   UNL A   1      35.137  32.787  30.093  1.00  0.00     0.055 A 
ATOM     55  C   UNL A   1      34.915  32.692  32.478  1.00  0.00     0.041 A 
ATOM     56  F   UNL A   1      36.665  31.928  33.792  1.00  0.00    -0.206 F 
ATOM     57  C   UNL A   1      34.355  32.952  31.240  1.00  0.00     0.022 A 
BRANCH  54  58
ATOM     58  S   UNL A   1      34.348  33.056  28.472  1.00  0.00     0.124 S 
ATOM     59  O   UNL A   1      35.469  33.514  27.654  1.00  0.00    -0.237 OA
ATOM     60  O   UNL A   1      33.812  31.741  28.161  1.00  0.00    -0.237 OA
ATOM     61  O   UNL A   1      33.338  34.081  28.750  1.00  0.00    -0.744 OA
ENDBRANCH  54  58
ENDBRANCH  27  51
BRANCH  39  62
ATOM     62  C   UNL A   1      42.723  30.495  33.944  1.00  0.00     0.023 A 
ATOM     63  C   UNL A   1      42.211  29.180  33.996  1.00  0.00     0.031 A 
ATOM     64  C   UNL A   1      43.316  31.012  35.110  1.00  0.00     0.131 A 
ATOM     65  C   UNL A   1      42.302  28.437  35.190  1.00  0.00     0.055 A 
ATOM     66  C   UNL A   1      43.421  30.268  36.283  1.00  0.00     0.041 A 
ATOM     67  F   UNL A   1      43.853  32.245  35.111  1.00  0.00    -0.206 F 
ATOM     68  C   UNL A   1      42.910  28.977  36.329  1.00  0.00     0.022 A 
BRANCH  65  69
ATOM     69  S   UNL A   1      41.642  26.741  35.281  1.00  0.00     0.124 S 
ATOM     70  O   UNL A   1      42.788  25.912  34.925  1.00  0.00    -0.237 OA
ATOM     71  O   UNL A   1      41.189  26.651  36.667  1.00  0.00    -0.237 OA
ATOM     72  O   UNL A   1      40.562  26.741  34.292  1.00  0.00    -0.744 OA
ENDBRANCH  65  69
ENDBRANCH  39  62
ENDBRANCH  13  14
ENDBRANCH   6   8
ENDBRANCH   3   4
ENDBRANCH   2   3
ENDBRANCH   1   2
BRANCH   1  73
ATOM     73  C   UNL A   1      35.435  23.738  24.779  1.00  0.00     0.002 C 
BRANCH  73  74
ATOM     74  C   UNL A   1      33.906  23.621  24.781  1.00  0.00     0.021 C 
BRANCH  74  75
ATOM     75  C   UNL A   1      33.263  24.466  25.883  1.00  0.00     0.116 C 
BRANCH  75  76
ATOM     76  N   UNL A   1      31.842  24.585  25.616  1.00  0.00    -0.356 N 
ATOM     77  C   UNL A   1      31.047  25.674  25.446  1.00  0.00     0.226 C 
ATOM     78  H   UNL A   1      31.369  23.724  25.548  1.00  0.00     0.163 HD
ATOM     79  O   UNL A   1      29.836  25.488  25.605  1.00  0.00    -0.274 OA
BRANCH  77  80
ATOM     80  C   UNL A   1      31.571  27.019  24.886  1.00  0.00     0.052 C 
ATOM     81  C   UNL A   1      32.017  27.926  26.066  1.00  0.00     0.020 C 
ATOM     82  C   UNL A   1      32.723  26.991  23.860  1.00  0.00     0.020 C 
ATOM     83  C   UNL A   1      30.350  27.681  24.246  1.00  0.00     0.047 C 
ATOM     84  C   UNL A   1      32.352  29.347  25.581  1.00  0.00    -0.007 C 
ATOM     85  C   UNL A   1      33.060  28.417  23.369  1.00  0.00    -0.007 C 
ATOM     86  C   UNL A   1      30.643  29.109  23.710  1.00  0.00     0.065 C 
ATOM     87  C   UNL A   1      33.496  29.268  24.565  1.00  0.00     0.007 C 
ATOM     88  C   UNL A   1      31.111  29.974  24.915  1.00  0.00     0.034 C 
ATOM     89  C   UNL A   1      31.815  29.047  22.703  1.00  0.00     0.034 C 
BRANCH  86  90
ATOM     90  N   UNL A   1      29.388  29.582  23.079  1.00  0.00    -0.259 N 
ATOM     91  C   UNL A   1      28.737  30.723  23.525  1.00  0.00     0.195 A 
ATOM     92  N   UNL A   1      29.192  29.403  21.747  1.00  0.00    -0.173 NA
ATOM     93  C   UNL A   1      28.668  31.515  22.394  1.00  0.00     0.307 A 
ATOM     94  C   UNL A   1      28.828  30.623  21.323  1.00  0.00     0.220 A 
BRANCH  93  95
ATOM     95  N   UNL A   1      28.611  32.939  22.352  1.00  0.00     0.066 N 
ATOM     96  O   UNL A   1      29.294  33.551  23.181  1.00  0.00    -0.258 OA
ATOM     97  O   UNL A   1      27.811  33.440  21.551  1.00  0.00    -0.258 OA
ENDBRANCH  93  95
ENDBRANCH  86  90
ENDBRANCH  77  80
ENDBRANCH  75  76
ENDBRANCH  74  75
ENDBRANCH  73  74
ENDBRANCH   1  73
TORSDOF 18
ENDMDL
