MODEL 1
REMARK VINA RESULT:     -11.4      0.000      0.000
REMARK SMILES O=C(NCCCCCCNC(=O)[C@H]1CC[C@@H](CNC(=O)[C@H]2CCSC2)CC1)c1ccc(-c2c3nc(c(-c4cc(S(=O)(=O)[O-])ccc4F)c4ccc([nH]4)c(-c4cc(S(=O)(=O)[O-])ccc4F)c4nc(c(-c5cc(S(=O)(=O)[O-])ccc5F)c5ccc2[nH]5)C=C4)C=C3)cc1
REMARK SMILES IDX 6 1 5 2 4 3 3 4 1 5 2 6 28 8 29 9 90 10 30 11 89 12 31 13
REMARK SMILES IDX 32 14 33 15 83 16 34 17 88 18 82 19 84 20 35 21 87 22 81 23
REMARK SMILES IDX 80 24 36 26 68 27 48 28 67 29 49 30 52 31 66 32 85 33 50 34
REMARK SMILES IDX 51 35 65 37 86 38 53 39 37 40 38 41 46 42 39 43 45 44 47 45
REMARK SMILES IDX 44 46 40 47 41 48 42 49 43 50 69 51 70 52 78 53 71 54 77 55
REMARK SMILES IDX 79 56 76 57 72 58 73 59 74 60 75 61 54 62 55 63 63 64 56 65
REMARK SMILES IDX 62 66 64 67 61 68 57 69 58 70 59 71 60 72 7 73 8 74 9 75
REMARK SMILES IDX 10 76 11 77 12 79 13 80 27 81 14 82 26 83 15 84 16 85 17 86
REMARK SMILES IDX 18 87 19 88 20 90 21 91 22 92 25 93 23 94 24 95
REMARK H PARENT 3 7 84 25 52 36 10 78 18 89
REMARK Flexibility Score: inf
ROOT
ATOM      1  C   UNL A   1      36.553  22.821  23.645  1.00  0.00     0.002 C 
ENDROOT
BRANCH   1   2
ATOM      2  C   UNL A   1      37.059  21.525  24.283  1.00  0.00     0.021 C 
BRANCH   2   3
ATOM      3  C   UNL A   1      37.641  21.682  25.682  1.00  0.00     0.116 C 
BRANCH   3   4
ATOM      4  N   UNL A   1      38.682  20.707  25.963  1.00  0.00    -0.352 N 
ATOM      5  O   UNL A   1      40.762  19.979  26.432  1.00  0.00    -0.269 OA
ATOM      6  C   UNL A   1      39.966  20.908  26.415  1.00  0.00     0.251 C 
ATOM      7  H   UNL A   1      38.432  19.768  25.807  1.00  0.00     0.163 HD
BRANCH   6   8
ATOM      8  C   UNL A   1      40.382  22.259  26.859  1.00  0.00     0.039 A 
ATOM      9  C   UNL A   1      39.955  23.397  26.171  1.00  0.00     0.014 A 
ATOM     10  C   UNL A   1      41.208  22.382  27.979  1.00  0.00     0.014 A 
ATOM     11  C   UNL A   1      40.474  24.642  26.510  1.00  0.00     0.010 A 
ATOM     12  C   UNL A   1      41.660  23.647  28.371  1.00  0.00     0.010 A 
ATOM     13  C   UNL A   1      41.327  24.784  27.618  1.00  0.00    -0.014 A 
BRANCH  13  14
ATOM     14  C   UNL A   1      41.835  26.135  27.976  1.00  0.00     0.031 A 
ATOM     15  C   UNL A   1      43.217  26.574  27.575  1.00  0.00     0.074 A 
ATOM     16  C   UNL A   1      41.019  26.982  28.636  1.00  0.00     0.049 A 
ATOM     17  N   UNL A   1      43.808  27.726  27.774  1.00  0.00    -0.248 NA
ATOM     18  C   UNL A   1      44.048  25.589  26.870  1.00  0.00     0.031 C 
ATOM     19  C   UNL A   1      39.660  26.663  29.082  1.00  0.00     0.029 A 
ATOM     20  N   UNL A   1      41.197  28.285  29.023  1.00  0.00    -0.354 N 
ATOM     21  C   UNL A   1      45.087  27.599  27.239  1.00  0.00     0.074 A 
ATOM     22  C   UNL A   1      45.194  26.243  26.740  1.00  0.00     0.031 C 
ATOM     23  C   UNL A   1      39.110  27.755  29.631  1.00  0.00     0.029 A 
ATOM     24  C   UNL A   1      40.094  28.832  29.636  1.00  0.00     0.049 A 
ATOM     25  H   UNL A   1      42.034  28.782  28.876  1.00  0.00     0.167 HD
ATOM     26  C   UNL A   1      46.073  28.529  27.165  1.00  0.00     0.034 A 
ATOM     27  C   UNL A   1      39.897  30.059  30.155  1.00  0.00     0.034 A 
ATOM     28  C   UNL A   1      45.944  29.880  27.663  1.00  0.00     0.049 A 
ATOM     29  C   UNL A   1      41.014  31.064  30.079  1.00  0.00     0.074 A 
ATOM     30  C   UNL A   1      46.868  30.910  27.613  1.00  0.00     0.029 A 
ATOM     31  N   UNL A   1      44.823  30.388  28.309  1.00  0.00    -0.354 N 
ATOM     32  N   UNL A   1      42.209  30.932  29.552  1.00  0.00    -0.248 NA
ATOM     33  C   UNL A   1      40.749  32.385  30.659  1.00  0.00     0.031 C 
ATOM     34  C   UNL A   1      46.332  32.016  28.283  1.00  0.00     0.029 A 
ATOM     35  C   UNL A   1      45.042  31.706  28.685  1.00  0.00     0.049 A 
ATOM     36  H   UNL A   1      43.993  29.886  28.475  1.00  0.00     0.167 HD
ATOM     37  C   UNL A   1      42.830  32.167  29.714  1.00  0.00     0.074 A 
ATOM     38  C   UNL A   1      41.869  33.032  30.369  1.00  0.00     0.031 C 
ATOM     39  C   UNL A   1      44.080  32.553  29.349  1.00  0.00     0.034 A 
BRANCH  26  40
ATOM     40  C   UNL A   1      47.392  28.097  26.565  1.00  0.00     0.023 A 
ATOM     41  C   UNL A   1      47.595  28.043  25.175  1.00  0.00     0.031 A 
ATOM     42  C   UNL A   1      48.454  27.701  27.400  1.00  0.00     0.131 A 
ATOM     43  C   UNL A   1      48.798  27.534  24.660  1.00  0.00     0.055 A 
ATOM     44  C   UNL A   1      49.678  27.271  26.882  1.00  0.00     0.041 A 
ATOM     45  F   UNL A   1      48.314  27.710  28.734  1.00  0.00    -0.206 F 
ATOM     46  C   UNL A   1      49.850  27.170  25.505  1.00  0.00     0.022 A 
BRANCH  43  47
ATOM     47  S   UNL A   1      48.909  27.208  22.880  1.00  0.00     0.124 S 
ATOM     48  O   UNL A   1      48.352  25.859  22.788  1.00  0.00    -0.237 OA
ATOM     49  O   UNL A   1      48.091  28.272  22.310  1.00  0.00    -0.237 OA
ATOM     50  O   UNL A   1      50.341  27.303  22.601  1.00  0.00    -0.744 OA
ENDBRANCH  43  47
ENDBRANCH  26  40
BRANCH  27  51
ATOM     51  C   UNL A   1      38.599  30.400  30.802  1.00  0.00     0.023 A 
ATOM     52  C   UNL A   1      37.599  31.088  30.098  1.00  0.00     0.031 A 
ATOM     53  C   UNL A   1      38.350  30.065  32.146  1.00  0.00     0.131 A 
ATOM     54  C   UNL A   1      36.412  31.456  30.751  1.00  0.00     0.055 A 
ATOM     55  C   UNL A   1      37.147  30.384  32.774  1.00  0.00     0.041 A 
ATOM     56  F   UNL A   1      39.272  29.400  32.861  1.00  0.00    -0.206 F 
ATOM     57  C   UNL A   1      36.174  31.096  32.080  1.00  0.00     0.022 A 
BRANCH  54  58
ATOM     58  S   UNL A   1      35.212  32.479  29.858  1.00  0.00     0.124 S 
ATOM     59  O   UNL A   1      34.846  31.608  28.746  1.00  0.00    -0.237 OA
ATOM     60  O   UNL A   1      34.184  32.692  30.872  1.00  0.00    -0.237 OA
ATOM     61  O   UNL A   1      35.981  33.666  29.494  1.00  0.00    -0.744 OA
ENDBRANCH  54  58
ENDBRANCH  27  51
BRANCH  39  62
ATOM     62  C   UNL A   1      44.448  33.994  29.611  1.00  0.00     0.023 A 
ATOM     63  C   UNL A   1      44.227  35.002  28.656  1.00  0.00     0.031 A 
ATOM     64  C   UNL A   1      45.068  34.354  30.820  1.00  0.00     0.131 A 
ATOM     65  C   UNL A   1      44.684  36.307  28.897  1.00  0.00     0.055 A 
ATOM     66  C   UNL A   1      45.464  35.666  31.082  1.00  0.00     0.041 A 
ATOM     67  F   UNL A   1      45.307  33.432  31.767  1.00  0.00    -0.206 F 
ATOM     68  C   UNL A   1      45.287  36.648  30.110  1.00  0.00     0.022 A 
BRANCH  65  69
ATOM     69  S   UNL A   1      44.583  37.526  27.559  1.00  0.00     0.124 S 
ATOM     70  O   UNL A   1      45.717  37.153  26.720  1.00  0.00    -0.237 OA
ATOM     71  O   UNL A   1      43.262  37.263  26.998  1.00  0.00    -0.237 OA
ATOM     72  O   UNL A   1      44.718  38.807  28.251  1.00  0.00    -0.744 OA
ENDBRANCH  65  69
ENDBRANCH  39  62
ENDBRANCH  13  14
ENDBRANCH   6   8
ENDBRANCH   3   4
ENDBRANCH   2   3
ENDBRANCH   1   2
BRANCH   1  73
ATOM     73  C   UNL A   1      36.024  23.881  24.619  1.00  0.00     0.002 C 
BRANCH  73  74
ATOM     74  C   UNL A   1      34.611  24.395  24.332  1.00  0.00     0.021 C 
BRANCH  74  75
ATOM     75  C   UNL A   1      33.889  23.640  23.219  1.00  0.00     0.116 C 
BRANCH  75  76
ATOM     76  N   UNL A   1      33.748  24.462  22.031  1.00  0.00    -0.356 N 
ATOM     77  C   UNL A   1      32.824  25.333  21.569  1.00  0.00     0.223 C 
ATOM     78  H   UNL A   1      34.507  24.359  21.412  1.00  0.00     0.163 HD
ATOM     79  O   UNL A   1      33.010  25.732  20.410  1.00  0.00    -0.275 OA
BRANCH  77  80
ATOM     80  C   UNL A   1      31.667  25.943  22.371  1.00  0.00     0.078 C 
ATOM     81  C   UNL A   1      30.712  25.025  23.129  1.00  0.00     0.014 C 
ATOM     82  C   UNL A   1      32.254  27.052  23.269  1.00  0.00     0.014 C 
ATOM     83  C   UNL A   1      29.674  25.787  23.945  1.00  0.00     0.006 C 
ATOM     84  C   UNL A   1      31.210  27.731  24.159  1.00  0.00     0.006 C 
ATOM     85  C   UNL A   1      30.359  26.726  24.951  1.00  0.00     0.008 C 
BRANCH  85  86
ATOM     86  C   UNL A   1      31.197  25.948  25.992  1.00  0.00     0.119 C 
BRANCH  86  87
ATOM     87  N   UNL A   1      30.406  24.925  26.643  1.00  0.00    -0.356 N 
ATOM     88  C   UNL A   1      30.689  23.614  26.881  1.00  0.00     0.223 C 
ATOM     89  H   UNL A   1      29.524  25.224  26.964  1.00  0.00     0.163 HD
ATOM     90  O   UNL A   1      29.850  22.967  27.508  1.00  0.00    -0.275 OA
BRANCH  88  91
ATOM     91  C   UNL A   1      31.999  23.016  26.391  1.00  0.00     0.089 C 
ATOM     92  C   UNL A   1      32.859  22.544  27.568  1.00  0.00     0.025 C 
ATOM     93  C   UNL A   1      31.762  21.785  25.519  1.00  0.00     0.083 C 
ATOM     94  C   UNL A   1      34.001  21.732  26.990  1.00  0.00     0.070 C 
ATOM     95  S   UNL A   1      33.211  20.713  25.716  1.00  0.00    -0.161 SA
ENDBRANCH  88  91
ENDBRANCH  86  87
ENDBRANCH  85  86
ENDBRANCH  77  80
ENDBRANCH  75  76
ENDBRANCH  74  75
ENDBRANCH  73  74
ENDBRANCH   1  73
TORSDOF 19
ENDMDL
MODEL 2
REMARK VINA RESULT:     -11.2      4.681      9.660
REMARK SMILES O=C(NCCCCCCNC(=O)[C@H]1CC[C@@H](CNC(=O)[C@H]2CCSC2)CC1)c1ccc(-c2c3nc(c(-c4cc(S(=O)(=O)[O-])ccc4F)c4ccc([nH]4)c(-c4cc(S(=O)(=O)[O-])ccc4F)c4nc(c(-c5cc(S(=O)(=O)[O-])ccc5F)c5ccc2[nH]5)C=C4)C=C3)cc1
REMARK SMILES IDX 6 1 5 2 4 3 3 4 1 5 2 6 28 8 29 9 90 10 30 11 89 12 31 13
REMARK SMILES IDX 32 14 33 15 83 16 34 17 88 18 82 19 84 20 35 21 87 22 81 23
REMARK SMILES IDX 80 24 36 26 68 27 48 28 67 29 49 30 52 31 66 32 85 33 50 34
REMARK SMILES IDX 51 35 65 37 86 38 53 39 37 40 38 41 46 42 39 43 45 44 47 45
REMARK SMILES IDX 44 46 40 47 41 48 42 49 43 50 69 51 70 52 78 53 71 54 77 55
REMARK SMILES IDX 79 56 76 57 72 58 73 59 74 60 75 61 54 62 55 63 63 64 56 65
REMARK SMILES IDX 62 66 64 67 61 68 57 69 58 70 59 71 60 72 7 73 8 74 9 75
REMARK SMILES IDX 10 76 11 77 12 79 13 80 27 81 14 82 26 83 15 84 16 85 17 86
REMARK SMILES IDX 18 87 19 88 20 90 21 91 22 92 25 93 23 94 24 95
REMARK H PARENT 3 7 84 25 52 36 10 78 18 89
REMARK Flexibility Score: inf
ROOT
ATOM      1  C   UNL A   1      33.175  27.509  26.903  1.00  0.00     0.002 C 
ENDROOT
BRANCH   1   2
ATOM      2  C   UNL A   1      32.745  28.971  26.760  1.00  0.00     0.021 C 
BRANCH   2   3
ATOM      3  C   UNL A   1      33.887  29.961  26.563  1.00  0.00     0.116 C 
BRANCH   3   4
ATOM      4  N   UNL A   1      33.681  31.199  27.296  1.00  0.00    -0.352 N 
ATOM      5  O   UNL A   1      34.007  32.713  28.932  1.00  0.00    -0.269 OA
ATOM      6  C   UNL A   1      34.427  31.744  28.315  1.00  0.00     0.251 C 
ATOM      7  H   UNL A   1      32.893  31.723  27.024  1.00  0.00     0.163 HD
BRANCH   6   8
ATOM      8  C   UNL A   1      35.730  31.137  28.672  1.00  0.00     0.039 A 
ATOM      9  C   UNL A   1      35.789  29.866  29.248  1.00  0.00     0.014 A 
ATOM     10  C   UNL A   1      36.905  31.852  28.425  1.00  0.00     0.014 A 
ATOM     11  C   UNL A   1      37.005  29.376  29.712  1.00  0.00     0.010 A 
ATOM     12  C   UNL A   1      38.137  31.318  28.816  1.00  0.00     0.010 A 
ATOM     13  C   UNL A   1      38.195  30.091  29.496  1.00  0.00    -0.014 A 
BRANCH  13  14
ATOM     14  C   UNL A   1      39.483  29.522  29.973  1.00  0.00     0.031 A 
ATOM     15  C   UNL A   1      40.156  30.055  31.208  1.00  0.00     0.074 A 
ATOM     16  C   UNL A   1      40.024  28.486  29.300  1.00  0.00     0.049 A 
ATOM     17  N   UNL A   1      41.262  29.655  31.784  1.00  0.00    -0.248 NA
ATOM     18  C   UNL A   1      39.510  31.192  31.878  1.00  0.00     0.031 C 
ATOM     19  C   UNL A   1      39.463  27.889  28.084  1.00  0.00     0.029 A 
ATOM     20  N   UNL A   1      41.144  27.735  29.551  1.00  0.00    -0.354 N 
ATOM     21  C   UNL A   1      41.458  30.503  32.871  1.00  0.00     0.074 A 
ATOM     22  C   UNL A   1      40.371  31.462  32.848  1.00  0.00     0.031 C 
ATOM     23  C   UNL A   1      40.209  26.834  27.729  1.00  0.00     0.029 A 
ATOM     24  C   UNL A   1      41.335  26.716  28.648  1.00  0.00     0.049 A 
ATOM     25  H   UNL A   1      41.751  27.910  30.305  1.00  0.00     0.167 HD
ATOM     26  C   UNL A   1      42.445  30.478  33.801  1.00  0.00     0.034 A 
ATOM     27  C   UNL A   1      42.314  25.794  28.561  1.00  0.00     0.034 A 
ATOM     28  C   UNL A   1      43.517  29.508  33.811  1.00  0.00     0.049 A 
ATOM     29  C   UNL A   1      43.408  25.801  29.594  1.00  0.00     0.074 A 
ATOM     30  C   UNL A   1      44.552  29.374  34.722  1.00  0.00     0.029 A 
ATOM     31  N   UNL A   1      43.698  28.511  32.860  1.00  0.00    -0.354 N 
ATOM     32  N   UNL A   1      43.566  26.599  30.624  1.00  0.00    -0.248 NA
ATOM     33  C   UNL A   1      44.449  24.776  29.454  1.00  0.00     0.031 C 
ATOM     34  C   UNL A   1      45.390  28.340  34.288  1.00  0.00     0.029 A 
ATOM     35  C   UNL A   1      44.840  27.775  33.148  1.00  0.00     0.049 A 
ATOM     36  H   UNL A   1      43.103  28.349  32.094  1.00  0.00     0.167 HD
ATOM     37  C   UNL A   1      44.713  26.152  31.273  1.00  0.00     0.074 A 
ATOM     38  C   UNL A   1      45.192  25.005  30.527  1.00  0.00     0.031 C 
ATOM     39  C   UNL A   1      45.313  26.642  32.388  1.00  0.00     0.034 A 
BRANCH  26  40
ATOM     40  C   UNL A   1      42.435  31.562  34.856  1.00  0.00     0.023 A 
ATOM     41  C   UNL A   1      41.500  31.569  35.906  1.00  0.00     0.031 A 
ATOM     42  C   UNL A   1      43.356  32.623  34.790  1.00  0.00     0.131 A 
ATOM     43  C   UNL A   1      41.457  32.651  36.800  1.00  0.00     0.055 A 
ATOM     44  C   UNL A   1      43.361  33.656  35.731  1.00  0.00     0.041 A 
ATOM     45  F   UNL A   1      44.259  32.684  33.799  1.00  0.00    -0.206 F 
ATOM     46  C   UNL A   1      42.396  33.682  36.735  1.00  0.00     0.022 A 
BRANCH  43  47
ATOM     47  S   UNL A   1      40.061  32.767  37.952  1.00  0.00     0.124 S 
ATOM     48  O   UNL A   1      40.685  32.385  39.218  1.00  0.00    -0.237 OA
ATOM     49  O   UNL A   1      39.668  34.166  37.836  1.00  0.00    -0.237 OA
ATOM     50  O   UNL A   1      39.098  31.801  37.425  1.00  0.00    -0.744 OA
ENDBRANCH  43  47
ENDBRANCH  26  40
BRANCH  27  51
ATOM     51  C   UNL A   1      42.309  24.798  27.452  1.00  0.00     0.023 A 
ATOM     52  C   UNL A   1      41.519  23.641  27.524  1.00  0.00     0.031 A 
ATOM     53  C   UNL A   1      43.117  24.978  26.315  1.00  0.00     0.131 A 
ATOM     54  C   UNL A   1      41.584  22.687  26.496  1.00  0.00     0.055 A 
ATOM     55  C   UNL A   1      43.138  24.054  25.272  1.00  0.00     0.041 A 
ATOM     56  F   UNL A   1      43.887  26.072  26.196  1.00  0.00    -0.206 F 
ATOM     57  C   UNL A   1      42.378  22.892  25.364  1.00  0.00     0.022 A 
BRANCH  54  58
ATOM     58  S   UNL A   1      40.671  21.133  26.695  1.00  0.00     0.124 S 
ATOM     59  O   UNL A   1      39.345  21.504  26.215  1.00  0.00    -0.237 OA
ATOM     60  O   UNL A   1      41.432  20.225  25.842  1.00  0.00    -0.237 OA
ATOM     61  O   UNL A   1      40.765  20.865  28.128  1.00  0.00    -0.744 OA
ENDBRANCH  54  58
ENDBRANCH  27  51
BRANCH  39  62
ATOM     62  C   UNL A   1      46.527  25.897  32.888  1.00  0.00     0.023 A 
ATOM     63  C   UNL A   1      47.811  26.131  32.364  1.00  0.00     0.031 A 
ATOM     64  C   UNL A   1      46.388  24.907  33.877  1.00  0.00     0.131 A 
ATOM     65  C   UNL A   1      48.892  25.339  32.781  1.00  0.00     0.055 A 
ATOM     66  C   UNL A   1      47.478  24.165  34.334  1.00  0.00     0.041 A 
ATOM     67  F   UNL A   1      45.185  24.638  34.410  1.00  0.00    -0.206 F 
ATOM     68  C   UNL A   1      48.736  24.369  33.773  1.00  0.00     0.022 A 
BRANCH  65  69
ATOM     69  S   UNL A   1      50.482  25.518  31.927  1.00  0.00     0.124 S 
ATOM     70  O   UNL A   1      51.435  25.276  33.005  1.00  0.00    -0.237 OA
ATOM     71  O   UNL A   1      50.403  24.483  30.902  1.00  0.00    -0.237 OA
ATOM     72  O   UNL A   1      50.450  26.890  31.425  1.00  0.00    -0.744 OA
ENDBRANCH  65  69
ENDBRANCH  39  62
ENDBRANCH  13  14
ENDBRANCH   6   8
ENDBRANCH   3   4
ENDBRANCH   2   3
ENDBRANCH   1   2
BRANCH   1  73
ATOM     73  C   UNL A   1      32.294  26.482  26.181  1.00  0.00     0.002 C 
BRANCH  73  74
ATOM     74  C   UNL A   1      30.811  26.845  26.074  1.00  0.00     0.021 C 
BRANCH  74  75
ATOM     75  C   UNL A   1      29.926  25.704  25.579  1.00  0.00     0.116 C 
BRANCH  75  76
ATOM     76  N   UNL A   1      29.741  24.697  26.606  1.00  0.00    -0.356 N 
ATOM     77  C   UNL A   1      30.133  23.415  26.777  1.00  0.00     0.223 C 
ATOM     78  H   UNL A   1      29.199  25.026  27.360  1.00  0.00     0.163 HD
ATOM     79  O   UNL A   1      29.634  22.838  27.755  1.00  0.00    -0.275 OA
BRANCH  77  80
ATOM     80  C   UNL A   1      31.198  22.671  25.960  1.00  0.00     0.078 C 
ATOM     81  C   UNL A   1      31.200  22.796  24.439  1.00  0.00     0.014 C 
ATOM     82  C   UNL A   1      32.573  22.997  26.579  1.00  0.00     0.014 C 
ATOM     83  C   UNL A   1      32.370  22.072  23.782  1.00  0.00     0.006 C 
ATOM     84  C   UNL A   1      33.743  22.346  25.838  1.00  0.00     0.006 C 
ATOM     85  C   UNL A   1      33.707  22.603  24.323  1.00  0.00     0.008 C 
BRANCH  85  86
ATOM     86  C   UNL A   1      33.917  24.097  23.984  1.00  0.00     0.119 C 
BRANCH  86  87
ATOM     87  N   UNL A   1      33.720  24.347  22.571  1.00  0.00    -0.356 N 
ATOM     88  C   UNL A   1      33.208  25.436  21.934  1.00  0.00     0.223 C 
ATOM     89  H   UNL A   1      33.999  23.612  21.978  1.00  0.00     0.163 HD
ATOM     90  O   UNL A   1      33.200  25.410  20.703  1.00  0.00    -0.275 OA
BRANCH  88  91
ATOM     91  C   UNL A   1      32.694  26.620  22.740  1.00  0.00     0.089 C 
ATOM     92  C   UNL A   1      33.541  27.869  22.477  1.00  0.00     0.025 C 
ATOM     93  C   UNL A   1      31.265  26.986  22.349  1.00  0.00     0.083 C 
ATOM     94  C   UNL A   1      32.810  29.043  23.098  1.00  0.00     0.070 C 
ATOM     95  S   UNL A   1      31.077  28.765  22.649  1.00  0.00    -0.161 SA
ENDBRANCH  88  91
ENDBRANCH  86  87
ENDBRANCH  85  86
ENDBRANCH  77  80
ENDBRANCH  75  76
ENDBRANCH  74  75
ENDBRANCH  73  74
ENDBRANCH   1  73
TORSDOF 19
ENDMDL
MODEL 3
REMARK VINA RESULT:     -11.1      5.678      8.596
REMARK SMILES O=C(NCCCCCCNC(=O)[C@H]1CC[C@@H](CNC(=O)[C@H]2CCSC2)CC1)c1ccc(-c2c3nc(c(-c4cc(S(=O)(=O)[O-])ccc4F)c4ccc([nH]4)c(-c4cc(S(=O)(=O)[O-])ccc4F)c4nc(c(-c5cc(S(=O)(=O)[O-])ccc5F)c5ccc2[nH]5)C=C4)C=C3)cc1
REMARK SMILES IDX 6 1 5 2 4 3 3 4 1 5 2 6 28 8 29 9 90 10 30 11 89 12 31 13
REMARK SMILES IDX 32 14 33 15 83 16 34 17 88 18 82 19 84 20 35 21 87 22 81 23
REMARK SMILES IDX 80 24 36 26 68 27 48 28 67 29 49 30 52 31 66 32 85 33 50 34
REMARK SMILES IDX 51 35 65 37 86 38 53 39 37 40 38 41 46 42 39 43 45 44 47 45
REMARK SMILES IDX 44 46 40 47 41 48 42 49 43 50 69 51 70 52 78 53 71 54 77 55
REMARK SMILES IDX 79 56 76 57 72 58 73 59 74 60 75 61 54 62 55 63 63 64 56 65
REMARK SMILES IDX 62 66 64 67 61 68 57 69 58 70 59 71 60 72 7 73 8 74 9 75
REMARK SMILES IDX 10 76 11 77 12 79 13 80 27 81 14 82 26 83 15 84 16 85 17 86
REMARK SMILES IDX 18 87 19 88 20 90 21 91 22 92 25 93 23 94 24 95
REMARK H PARENT 3 7 84 25 52 36 10 78 18 89
REMARK Flexibility Score: inf
ROOT
ATOM      1  C   UNL A   1      31.728  30.448  26.753  1.00  0.00     0.002 C 
ENDROOT
BRANCH   1   2
ATOM      2  C   UNL A   1      31.626  31.975  26.798  1.00  0.00     0.021 C 
BRANCH   2   3
ATOM      3  C   UNL A   1      32.893  32.691  27.249  1.00  0.00     0.116 C 
BRANCH   3   4
ATOM      4  N   UNL A   1      32.643  34.067  27.641  1.00  0.00    -0.352 N 
ATOM      5  O   UNL A   1      32.724  35.888  28.966  1.00  0.00    -0.269 OA
ATOM      6  C   UNL A   1      33.181  34.789  28.682  1.00  0.00     0.251 C 
ATOM      7  H   UNL A   1      31.996  34.554  27.081  1.00  0.00     0.163 HD
BRANCH   6   8
ATOM      8  C   UNL A   1      34.298  34.217  29.468  1.00  0.00     0.039 A 
ATOM      9  C   UNL A   1      35.623  34.447  29.092  1.00  0.00     0.014 A 
ATOM     10  C   UNL A   1      34.011  33.442  30.595  1.00  0.00     0.014 A 
ATOM     11  C   UNL A   1      36.652  33.781  29.751  1.00  0.00     0.010 A 
ATOM     12  C   UNL A   1      35.054  32.843  31.309  1.00  0.00     0.010 A 
ATOM     13  C   UNL A   1      36.381  32.978  30.872  1.00  0.00    -0.014 A 
BRANCH  13  14
ATOM     14  C   UNL A   1      37.508  32.309  31.576  1.00  0.00     0.031 A 
ATOM     15  C   UNL A   1      38.288  31.204  30.916  1.00  0.00     0.074 A 
ATOM     16  C   UNL A   1      37.849  32.738  32.808  1.00  0.00     0.049 A 
ATOM     17  N   UNL A   1      39.319  30.536  31.370  1.00  0.00    -0.248 NA
ATOM     18  C   UNL A   1      37.846  30.787  29.579  1.00  0.00     0.031 C 
ATOM     19  C   UNL A   1      37.160  33.798  33.550  1.00  0.00     0.029 A 
ATOM     20  N   UNL A   1      38.869  32.359  33.643  1.00  0.00    -0.354 N 
ATOM     21  C   UNL A   1      39.637  29.605  30.385  1.00  0.00     0.074 A 
ATOM     22  C   UNL A   1      38.663  29.774  29.326  1.00  0.00     0.031 C 
ATOM     23  C   UNL A   1      37.809  34.021  34.701  1.00  0.00     0.029 A 
ATOM     24  C   UNL A   1      38.918  33.080  34.812  1.00  0.00     0.049 A 
ATOM     25  H   UNL A   1      39.505  31.640  33.425  1.00  0.00     0.167 HD
ATOM     26  C   UNL A   1      40.650  28.702  30.366  1.00  0.00     0.034 A 
ATOM     27  C   UNL A   1      39.755  32.989  35.864  1.00  0.00     0.034 A 
ATOM     28  C   UNL A   1      41.616  28.553  31.431  1.00  0.00     0.049 A 
ATOM     29  C   UNL A   1      40.856  31.965  35.826  1.00  0.00     0.074 A 
ATOM     30  C   UNL A   1      42.698  27.692  31.500  1.00  0.00     0.029 A 
ATOM     31  N   UNL A   1      41.614  29.278  32.616  1.00  0.00    -0.354 N 
ATOM     32  N   UNL A   1      41.153  31.107  34.878  1.00  0.00    -0.248 NA
ATOM     33  C   UNL A   1      41.740  31.907  36.996  1.00  0.00     0.031 C 
ATOM     34  C   UNL A   1      43.309  27.851  32.750  1.00  0.00     0.029 A 
ATOM     35  C   UNL A   1      42.658  28.866  33.433  1.00  0.00     0.049 A 
ATOM     36  H   UNL A   1      40.966  29.983  32.844  1.00  0.00     0.167 HD
ATOM     37  C   UNL A   1      42.278  30.424  35.329  1.00  0.00     0.074 A 
ATOM     38  C   UNL A   1      42.614  30.985  36.622  1.00  0.00     0.031 C 
ATOM     39  C   UNL A   1      42.974  29.426  34.726  1.00  0.00     0.034 A 
BRANCH  26  40
ATOM     40  C   UNL A   1      40.730  27.774  29.174  1.00  0.00     0.023 A 
ATOM     41  C   UNL A   1      41.666  27.967  28.143  1.00  0.00     0.031 A 
ATOM     42  C   UNL A   1      39.834  26.696  29.054  1.00  0.00     0.131 A 
ATOM     43  C   UNL A   1      41.635  27.147  27.004  1.00  0.00     0.055 A 
ATOM     44  C   UNL A   1      39.860  25.833  27.956  1.00  0.00     0.041 A 
ATOM     45  F   UNL A   1      38.903  26.473  29.994  1.00  0.00    -0.206 F 
ATOM     46  C   UNL A   1      40.755  26.066  26.914  1.00  0.00     0.022 A 
BRANCH  43  47
ATOM     47  S   UNL A   1      42.656  27.607  25.577  1.00  0.00     0.124 S 
ATOM     48  O   UNL A   1      43.964  27.810  26.199  1.00  0.00    -0.237 OA
ATOM     49  O   UNL A   1      42.540  26.438  24.713  1.00  0.00    -0.237 OA
ATOM     50  O   UNL A   1      42.018  28.822  25.075  1.00  0.00    -0.744 OA
ENDBRANCH  43  47
ENDBRANCH  26  40
BRANCH  27  51
ATOM     51  C   UNL A   1      39.576  33.883  37.044  1.00  0.00     0.023 A 
ATOM     52  C   UNL A   1      38.972  33.414  38.221  1.00  0.00     0.031 A 
ATOM     53  C   UNL A   1      39.984  35.228  37.001  1.00  0.00     0.131 A 
ATOM     54  C   UNL A   1      38.755  34.293  39.292  1.00  0.00     0.055 A 
ATOM     55  C   UNL A   1      39.816  36.084  38.088  1.00  0.00     0.041 A 
ATOM     56  F   UNL A   1      40.573  35.724  35.900  1.00  0.00    -0.206 F 
ATOM     57  C   UNL A   1      39.186  35.622  39.239  1.00  0.00     0.022 A 
BRANCH  54  58
ATOM     58  S   UNL A   1      37.833  33.695  40.733  1.00  0.00     0.124 S 
ATOM     59  O   UNL A   1      36.774  32.912  40.105  1.00  0.00    -0.237 OA
ATOM     60  O   UNL A   1      38.853  32.937  41.451  1.00  0.00    -0.237 OA
ATOM     61  O   UNL A   1      37.395  34.924  41.391  1.00  0.00    -0.744 OA
ENDBRANCH  54  58
ENDBRANCH  27  51
BRANCH  39  62
ATOM     62  C   UNL A   1      44.200  28.921  35.448  1.00  0.00     0.023 A 
ATOM     63  C   UNL A   1      44.141  27.837  36.342  1.00  0.00     0.031 A 
ATOM     64  C   UNL A   1      45.438  29.563  35.268  1.00  0.00     0.131 A 
ATOM     65  C   UNL A   1      45.282  27.472  37.074  1.00  0.00     0.055 A 
ATOM     66  C   UNL A   1      46.585  29.155  35.951  1.00  0.00     0.041 A 
ATOM     67  F   UNL A   1      45.551  30.605  34.430  1.00  0.00    -0.206 F 
ATOM     68  C   UNL A   1      46.506  28.114  36.873  1.00  0.00     0.022 A 
BRANCH  65  69
ATOM     69  S   UNL A   1      45.117  26.220  38.376  1.00  0.00     0.124 S 
ATOM     70  O   UNL A   1      46.443  26.239  38.986  1.00  0.00    -0.237 OA
ATOM     71  O   UNL A   1      44.033  26.759  39.191  1.00  0.00    -0.237 OA
ATOM     72  O   UNL A   1      44.791  25.000  37.640  1.00  0.00    -0.744 OA
ENDBRANCH  65  69
ENDBRANCH  39  62
ENDBRANCH  13  14
ENDBRANCH   6   8
ENDBRANCH   3   4
ENDBRANCH   2   3
ENDBRANCH   1   2
BRANCH   1  73
ATOM     73  C   UNL A   1      33.147  29.872  26.827  1.00  0.00     0.002 C 
BRANCH  73  74
ATOM     74  C   UNL A   1      33.611  29.098  25.591  1.00  0.00     0.021 C 
BRANCH  74  75
ATOM     75  C   UNL A   1      32.895  29.495  24.303  1.00  0.00     0.116 C 
BRANCH  75  76
ATOM     76  N   UNL A   1      33.430  28.779  23.161  1.00  0.00    -0.356 N 
ATOM     77  C   UNL A   1      33.108  27.646  22.500  1.00  0.00     0.223 C 
ATOM     78  H   UNL A   1      34.218  29.226  22.775  1.00  0.00     0.163 HD
ATOM     79  O   UNL A   1      33.924  27.290  21.636  1.00  0.00    -0.275 OA
BRANCH  77  80
ATOM     80  C   UNL A   1      31.804  26.850  22.639  1.00  0.00     0.078 C 
ATOM     81  C   UNL A   1      31.850  25.420  23.172  1.00  0.00     0.014 C 
ATOM     82  C   UNL A   1      30.799  27.732  23.408  1.00  0.00     0.014 C 
ATOM     83  C   UNL A   1      30.468  24.799  23.334  1.00  0.00     0.006 C 
ATOM     84  C   UNL A   1      29.452  27.047  23.654  1.00  0.00     0.006 C 
ATOM     85  C   UNL A   1      29.599  25.649  24.275  1.00  0.00     0.008 C 
BRANCH  85  86
ATOM     86  C   UNL A   1      30.183  25.709  25.706  1.00  0.00     0.119 C 
BRANCH  86  87
ATOM     87  N   UNL A   1      29.671  24.633  26.527  1.00  0.00    -0.356 N 
ATOM     88  C   UNL A   1      30.277  23.494  26.962  1.00  0.00     0.223 C 
ATOM     89  H   UNL A   1      28.735  24.741  26.817  1.00  0.00     0.163 HD
ATOM     90  O   UNL A   1      29.621  22.759  27.702  1.00  0.00    -0.275 OA
BRANCH  88  91
ATOM     91  C   UNL A   1      31.706  23.183  26.543  1.00  0.00     0.089 C 
ATOM     92  C   UNL A   1      32.508  22.613  27.718  1.00  0.00     0.025 C 
ATOM     93  C   UNL A   1      31.751  22.123  25.445  1.00  0.00     0.083 C 
ATOM     94  C   UNL A   1      33.814  22.089  27.154  1.00  0.00     0.070 C 
ATOM     95  S   UNL A   1      33.323  21.238  25.631  1.00  0.00    -0.161 SA
ENDBRANCH  88  91
ENDBRANCH  86  87
ENDBRANCH  85  86
ENDBRANCH  77  80
ENDBRANCH  75  76
ENDBRANCH  74  75
ENDBRANCH  73  74
ENDBRANCH   1  73
TORSDOF 19
ENDMDL
