MODEL 1
REMARK VINA RESULT:     -11.1      0.000      0.000
REMARK SMILES CC1(C)C(n2c(SCC(=O)NCCCCCCNC(=O)c3ccc(-c4c5nc(c(-c6cc(S(=O)(=O)[O-])ccc6F)c6ccc([nH]6)c(-c6cc(S(=O)(=O)[O-])ccc6F)c6nc(c(-c7cc(S(=O)(=O)[O-])ccc7F)c7ccc4[nH]7)C=C6)C=C5)cc3)nc3cnccc32)C1(C)C
REMARK SMILES IDX 14 1 13 2 12 3 11 4 9 5 10 6 8 8 7 9 6 10 5 11 90 12 84 13
REMARK SMILES IDX 85 14 89 15 86 16 88 17 87 18 4 19 1 20 2 21 3 22 91 23
REMARK SMILES IDX 92 24 93 25 15 26 16 27 17 28 18 29 19 30 20 32 21 33 22 34
REMARK SMILES IDX 83 35 23 36 82 37 24 38 25 39 26 40 76 41 27 42 81 43 75 44
REMARK SMILES IDX 77 45 28 46 80 47 74 48 73 49 29 51 61 52 41 53 60 54 42 55
REMARK SMILES IDX 45 56 59 57 78 58 43 59 44 60 58 62 79 63 46 64 30 65 31 66
REMARK SMILES IDX 39 67 32 68 38 69 40 70 37 71 33 72 34 73 35 74 36 75 62 76
REMARK SMILES IDX 63 77 71 78 64 79 70 80 72 81 69 82 65 83 66 84 67 85 68 86
REMARK SMILES IDX 47 87 48 88 56 89 49 90 55 91 57 92 54 93 50 94 51 95 52 96
REMARK SMILES IDX 53 97
REMARK H PARENT 11 7 18 31 77 50 45 61
REMARK Flexibility Score: inf
ROOT
ATOM      1  C   UNL A   1      31.370  29.678  25.554  1.00  0.00     0.002 C 
ENDROOT
BRANCH   1   2
ATOM      2  C   UNL A   1      32.310  28.845  24.671  1.00  0.00     0.021 C 
BRANCH   2   3
ATOM      3  C   UNL A   1      31.569  27.997  23.643  1.00  0.00     0.116 C 
BRANCH   3   4
ATOM      4  N   UNL A   1      30.296  27.617  24.200  1.00  0.00    -0.355 N 
ATOM      5  C   UNL A   1      29.811  26.352  24.230  1.00  0.00     0.230 C 
ATOM      6  O   UNL A   1      28.580  26.221  24.236  1.00  0.00    -0.274 OA
ATOM      7  H   UNL A   1      29.738  28.328  24.590  1.00  0.00     0.163 HD
BRANCH   5   8
ATOM      8  C   UNL A   1      30.780  25.205  24.360  1.00  0.00     0.178 C 
BRANCH   8   9
ATOM      9  S   UNL A   1      31.024  24.187  22.927  1.00  0.00    -0.078 SA
BRANCH   9  10
ATOM     10  C   UNL A   1      31.981  22.793  23.266  1.00  0.00     0.169 A 
ATOM     11  N   UNL A   1      33.150  22.605  23.984  1.00  0.00    -0.315 N 
ATOM     12  C   UNL A   1      33.295  21.231  24.146  1.00  0.00     0.072 A 
ATOM     13  N   UNL A   1      31.568  21.653  22.743  1.00  0.00    -0.221 NA
ATOM     14  C   UNL A   1      32.330  20.676  23.313  1.00  0.00     0.108 A 
ATOM     15  C   UNL A   1      34.130  20.422  24.922  1.00  0.00     0.049 A 
ATOM     16  C   UNL A   1      32.228  19.285  23.202  1.00  0.00     0.141 A 
ATOM     17  C   UNL A   1      33.939  19.053  24.765  1.00  0.00     0.113 A 
ATOM     18  N   UNL A   1      33.042  18.479  23.930  1.00  0.00    -0.262 NA
BRANCH  11  19
ATOM     19  C   UNL A   1      33.930  23.540  24.776  1.00  0.00     0.102 C 
ATOM     20  C   UNL A   1      36.246  23.754  25.933  1.00  0.00     0.014 C 
ATOM     21  C   UNL A   1      35.430  23.776  24.651  1.00  0.00    -0.007 C 
ATOM     22  C   UNL A   1      36.216  23.291  23.457  1.00  0.00     0.014 C 
ATOM     23  C   UNL A   1      34.434  24.944  24.443  1.00  0.00    -0.007 C 
ATOM     24  C   UNL A   1      34.396  26.014  25.531  1.00  0.00     0.014 C 
ATOM     25  C   UNL A   1      34.266  25.524  23.048  1.00  0.00     0.014 C 
ENDBRANCH  11  19
ENDBRANCH   9  10
ENDBRANCH   8   9
ENDBRANCH   5   8
ENDBRANCH   3   4
ENDBRANCH   2   3
ENDBRANCH   1   2
BRANCH   1  26
ATOM     26  C   UNL A   1      31.815  29.780  27.016  1.00  0.00     0.002 C 
BRANCH  26  27
ATOM     27  C   UNL A   1      33.337  29.849  27.197  1.00  0.00     0.021 C 
BRANCH  27  28
ATOM     28  C   UNL A   1      33.874  31.280  27.199  1.00  0.00     0.116 C 
BRANCH  28  29
ATOM     29  N   UNL A   1      34.030  31.803  28.532  1.00  0.00    -0.352 N 
ATOM     30  C   UNL A   1      35.048  31.773  29.440  1.00  0.00     0.251 C 
ATOM     31  H   UNL A   1      33.235  32.284  28.858  1.00  0.00     0.163 HD
ATOM     32  O   UNL A   1      34.827  32.335  30.515  1.00  0.00    -0.269 OA
BRANCH  30  33
ATOM     33  C   UNL A   1      36.334  31.057  29.235  1.00  0.00     0.039 A 
ATOM     34  C   UNL A   1      36.477  29.690  28.980  1.00  0.00     0.014 A 
ATOM     35  C   UNL A   1      37.491  31.838  29.390  1.00  0.00     0.014 A 
ATOM     36  C   UNL A   1      37.722  29.090  29.036  1.00  0.00     0.010 A 
ATOM     37  C   UNL A   1      38.746  31.251  29.401  1.00  0.00     0.010 A 
ATOM     38  C   UNL A   1      38.844  29.869  29.304  1.00  0.00    -0.014 A 
BRANCH  38  39
ATOM     39  C   UNL A   1      40.111  29.176  29.457  1.00  0.00     0.031 A 
ATOM     40  C   UNL A   1      40.448  28.763  30.850  1.00  0.00     0.074 A 
ATOM     41  C   UNL A   1      40.871  28.870  28.390  1.00  0.00     0.049 A 
ATOM     42  N   UNL A   1      41.455  29.127  31.577  1.00  0.00    -0.248 NA
ATOM     43  C   UNL A   1      39.456  27.949  31.568  1.00  0.00     0.031 C 
ATOM     44  C   UNL A   1      40.530  28.961  26.967  1.00  0.00     0.029 A 
ATOM     45  N   UNL A   1      42.093  28.283  28.365  1.00  0.00    -0.354 N 
ATOM     46  C   UNL A   1      41.321  28.450  32.791  1.00  0.00     0.074 A 
ATOM     47  C   UNL A   1      40.006  27.861  32.779  1.00  0.00     0.031 C 
ATOM     48  C   UNL A   1      41.388  28.196  26.258  1.00  0.00     0.029 A 
ATOM     49  C   UNL A   1      42.413  27.692  27.155  1.00  0.00     0.049 A 
ATOM     50  H   UNL A   1      42.699  28.279  29.141  1.00  0.00     0.167 HD
ATOM     51  C   UNL A   1      42.364  28.281  33.655  1.00  0.00     0.034 A 
ATOM     52  C   UNL A   1      43.353  26.732  26.969  1.00  0.00     0.034 A 
ATOM     53  C   UNL A   1      43.454  29.163  33.344  1.00  0.00     0.049 A 
ATOM     54  C   UNL A   1      44.292  26.802  28.123  1.00  0.00     0.074 A 
ATOM     55  C   UNL A   1      43.614  30.533  33.348  1.00  0.00     0.029 A 
ATOM     56  N   UNL A   1      44.499  28.663  32.604  1.00  0.00    -0.354 N 
ATOM     57  N   UNL A   1      45.090  27.812  28.348  1.00  0.00    -0.248 NA
ATOM     58  C   UNL A   1      43.986  25.976  29.286  1.00  0.00     0.031 C 
ATOM     59  C   UNL A   1      44.423  30.806  32.210  1.00  0.00     0.029 A 
ATOM     60  C   UNL A   1      44.763  29.585  31.623  1.00  0.00     0.049 A 
ATOM     61  H   UNL A   1      44.968  27.810  32.751  1.00  0.00     0.167 HD
ATOM     62  C   UNL A   1      45.027  28.010  29.721  1.00  0.00     0.074 A 
ATOM     63  C   UNL A   1      44.391  26.805  30.253  1.00  0.00     0.031 C 
ATOM     64  C   UNL A   1      45.210  29.241  30.287  1.00  0.00     0.034 A 
BRANCH  51  65
ATOM     65  C   UNL A   1      42.512  27.118  34.605  1.00  0.00     0.023 A 
ATOM     66  C   UNL A   1      43.295  25.988  34.306  1.00  0.00     0.031 A 
ATOM     67  C   UNL A   1      42.057  27.214  35.937  1.00  0.00     0.131 A 
ATOM     68  C   UNL A   1      43.591  25.019  35.273  1.00  0.00     0.055 A 
ATOM     69  C   UNL A   1      42.406  26.280  36.922  1.00  0.00     0.041 A 
ATOM     70  F   UNL A   1      41.305  28.251  36.339  1.00  0.00    -0.206 F 
ATOM     71  C   UNL A   1      43.179  25.175  36.593  1.00  0.00     0.022 A 
BRANCH  68  72
ATOM     72  S   UNL A   1      44.534  23.537  34.828  1.00  0.00     0.124 S 
ATOM     73  O   UNL A   1      43.556  22.781  34.051  1.00  0.00    -0.237 OA
ATOM     74  O   UNL A   1      45.642  24.107  34.068  1.00  0.00    -0.237 OA
ATOM     75  O   UNL A   1      44.901  22.966  36.120  1.00  0.00    -0.744 OA
ENDBRANCH  68  72
ENDBRANCH  51  65
BRANCH  52  76
ATOM     76  C   UNL A   1      43.066  25.460  26.250  1.00  0.00     0.023 A 
ATOM     77  C   UNL A   1      42.075  24.584  26.738  1.00  0.00     0.031 A 
ATOM     78  C   UNL A   1      43.926  24.960  25.261  1.00  0.00     0.131 A 
ATOM     79  C   UNL A   1      41.980  23.267  26.278  1.00  0.00     0.055 A 
ATOM     80  C   UNL A   1      43.823  23.643  24.787  1.00  0.00     0.041 A 
ATOM     81  F   UNL A   1      44.923  25.719  24.778  1.00  0.00    -0.206 F 
ATOM     82  C   UNL A   1      42.851  22.786  25.303  1.00  0.00     0.022 A 
BRANCH  79  83
ATOM     83  S   UNL A   1      40.755  22.143  27.004  1.00  0.00     0.124 S 
ATOM     84  O   UNL A   1      39.948  23.047  27.819  1.00  0.00    -0.237 OA
ATOM     85  O   UNL A   1      40.100  21.612  25.815  1.00  0.00    -0.237 OA
ATOM     86  O   UNL A   1      41.568  21.195  27.760  1.00  0.00    -0.744 OA
ENDBRANCH  79  83
ENDBRANCH  52  76
BRANCH  64  87
ATOM     87  C   UNL A   1      45.638  30.413  29.425  1.00  0.00     0.023 A 
ATOM     88  C   UNL A   1      46.982  30.814  29.507  1.00  0.00     0.031 A 
ATOM     89  C   UNL A   1      44.739  31.295  28.795  1.00  0.00     0.131 A 
ATOM     90  C   UNL A   1      47.375  32.073  29.038  1.00  0.00     0.055 A 
ATOM     91  C   UNL A   1      45.150  32.521  28.260  1.00  0.00     0.041 A 
ATOM     92  F   UNL A   1      43.424  31.056  28.767  1.00  0.00    -0.206 F 
ATOM     93  C   UNL A   1      46.471  32.926  28.400  1.00  0.00     0.022 A 
BRANCH  90  94
ATOM     94  S   UNL A   1      49.029  32.712  29.413  1.00  0.00     0.124 S 
ATOM     95  O   UNL A   1      49.521  31.740  30.383  1.00  0.00    -0.237 OA
ATOM     96  O   UNL A   1      49.678  32.673  28.103  1.00  0.00    -0.237 OA
ATOM     97  O   UNL A   1      48.780  34.050  29.939  1.00  0.00    -0.744 OA
ENDBRANCH  90  94
ENDBRANCH  64  87
ENDBRANCH  38  39
ENDBRANCH  30  33
ENDBRANCH  28  29
ENDBRANCH  27  28
ENDBRANCH  26  27
ENDBRANCH   1  26
TORSDOF 19
ENDMDL
MODEL 2
REMARK VINA RESULT:     -11.1      3.287      8.722
REMARK SMILES CC1(C)C(n2c(SCC(=O)NCCCCCCNC(=O)c3ccc(-c4c5nc(c(-c6cc(S(=O)(=O)[O-])ccc6F)c6ccc([nH]6)c(-c6cc(S(=O)(=O)[O-])ccc6F)c6nc(c(-c7cc(S(=O)(=O)[O-])ccc7F)c7ccc4[nH]7)C=C6)C=C5)cc3)nc3cnccc32)C1(C)C
REMARK SMILES IDX 14 1 13 2 12 3 11 4 9 5 10 6 8 8 7 9 6 10 5 11 90 12 84 13
REMARK SMILES IDX 85 14 89 15 86 16 88 17 87 18 4 19 1 20 2 21 3 22 91 23
REMARK SMILES IDX 92 24 93 25 15 26 16 27 17 28 18 29 19 30 20 32 21 33 22 34
REMARK SMILES IDX 83 35 23 36 82 37 24 38 25 39 26 40 76 41 27 42 81 43 75 44
REMARK SMILES IDX 77 45 28 46 80 47 74 48 73 49 29 51 61 52 41 53 60 54 42 55
REMARK SMILES IDX 45 56 59 57 78 58 43 59 44 60 58 62 79 63 46 64 30 65 31 66
REMARK SMILES IDX 39 67 32 68 38 69 40 70 37 71 33 72 34 73 35 74 36 75 62 76
REMARK SMILES IDX 63 77 71 78 64 79 70 80 72 81 69 82 65 83 66 84 67 85 68 86
REMARK SMILES IDX 47 87 48 88 56 89 49 90 55 91 57 92 54 93 50 94 51 95 52 96
REMARK SMILES IDX 53 97
REMARK H PARENT 11 7 18 31 77 50 45 61
REMARK Flexibility Score: inf
ROOT
ATOM      1  C   UNL A   1      35.077  23.163  26.055  1.00  0.00     0.002 C 
ENDROOT
BRANCH   1   2
ATOM      2  C   UNL A   1      33.661  23.730  25.880  1.00  0.00     0.021 C 
BRANCH   2   3
ATOM      3  C   UNL A   1      32.855  23.002  24.809  1.00  0.00     0.116 C 
BRANCH   3   4
ATOM      4  N   UNL A   1      33.471  23.248  23.530  1.00  0.00    -0.355 N 
ATOM      5  C   UNL A   1      32.892  23.924  22.509  1.00  0.00     0.230 C 
ATOM      6  O   UNL A   1      33.258  23.634  21.363  1.00  0.00    -0.274 OA
ATOM      7  H   UNL A   1      34.381  22.901  23.388  1.00  0.00     0.163 HD
BRANCH   5   8
ATOM      8  C   UNL A   1      31.934  25.043  22.829  1.00  0.00     0.178 C 
BRANCH   8   9
ATOM      9  S   UNL A   1      32.453  26.690  22.423  1.00  0.00    -0.078 SA
BRANCH   9  10
ATOM     10  C   UNL A   1      31.256  27.872  22.811  1.00  0.00     0.169 A 
ATOM     11  N   UNL A   1      31.019  28.635  23.941  1.00  0.00    -0.315 N 
ATOM     12  C   UNL A   1      30.096  29.607  23.572  1.00  0.00     0.072 A 
ATOM     13  N   UNL A   1      30.350  28.120  21.883  1.00  0.00    -0.221 NA
ATOM     14  C   UNL A   1      29.662  29.216  22.310  1.00  0.00     0.108 A 
ATOM     15  C   UNL A   1      29.608  30.771  24.174  1.00  0.00     0.049 A 
ATOM     16  C   UNL A   1      28.679  29.966  21.654  1.00  0.00     0.141 A 
ATOM     17  C   UNL A   1      28.654  31.463  23.436  1.00  0.00     0.113 A 
ATOM     18  N   UNL A   1      28.176  31.088  22.227  1.00  0.00    -0.262 NA
BRANCH  11  19
ATOM     19  C   UNL A   1      31.775  28.749  25.177  1.00  0.00     0.102 C 
ATOM     20  C   UNL A   1      31.544  28.302  27.725  1.00  0.00     0.014 C 
ATOM     21  C   UNL A   1      31.757  27.749  26.325  1.00  0.00    -0.007 C 
ATOM     22  C   UNL A   1      31.196  26.357  26.161  1.00  0.00     0.014 C 
ATOM     23  C   UNL A   1      33.085  28.089  25.604  1.00  0.00    -0.007 C 
ATOM     24  C   UNL A   1      34.100  28.915  26.390  1.00  0.00     0.014 C 
ATOM     25  C   UNL A   1      33.743  27.026  24.739  1.00  0.00     0.014 C 
ENDBRANCH  11  19
ENDBRANCH   9  10
ENDBRANCH   8   9
ENDBRANCH   5   8
ENDBRANCH   3   4
ENDBRANCH   2   3
ENDBRANCH   1   2
BRANCH   1  26
ATOM     26  C   UNL A   1      36.173  24.010  25.402  1.00  0.00     0.002 C 
BRANCH  26  27
ATOM     27  C   UNL A   1      37.358  23.191  24.875  1.00  0.00     0.021 C 
BRANCH  27  28
ATOM     28  C   UNL A   1      37.950  22.253  25.927  1.00  0.00     0.116 C 
BRANCH  28  29
ATOM     29  N   UNL A   1      39.377  22.108  25.790  1.00  0.00    -0.352 N 
ATOM     30  C   UNL A   1      40.444  22.770  26.321  1.00  0.00     0.251 C 
ATOM     31  H   UNL A   1      39.637  21.376  25.185  1.00  0.00     0.163 HD
ATOM     32  O   UNL A   1      41.556  22.370  25.969  1.00  0.00    -0.269 OA
BRANCH  30  33
ATOM     33  C   UNL A   1      40.337  23.957  27.209  1.00  0.00     0.039 A 
ATOM     34  C   UNL A   1      39.282  24.874  27.225  1.00  0.00     0.014 A 
ATOM     35  C   UNL A   1      41.444  24.189  28.042  1.00  0.00     0.014 A 
ATOM     36  C   UNL A   1      39.394  26.063  27.923  1.00  0.00     0.010 A 
ATOM     37  C   UNL A   1      41.543  25.356  28.781  1.00  0.00     0.010 A 
ATOM     38  C   UNL A   1      40.551  26.321  28.652  1.00  0.00    -0.014 A 
BRANCH  38  39
ATOM     39  C   UNL A   1      40.662  27.626  29.281  1.00  0.00     0.031 A 
ATOM     40  C   UNL A   1      41.699  28.527  28.700  1.00  0.00     0.074 A 
ATOM     41  C   UNL A   1      39.823  28.000  30.263  1.00  0.00     0.049 A 
ATOM     42  N   UNL A   1      42.743  29.031  29.276  1.00  0.00    -0.248 NA
ATOM     43  C   UNL A   1      41.634  28.782  27.253  1.00  0.00     0.031 C 
ATOM     44  C   UNL A   1      38.600  27.335  30.725  1.00  0.00     0.029 A 
ATOM     45  N   UNL A   1      39.828  29.147  30.985  1.00  0.00    -0.354 N 
ATOM     46  C   UNL A   1      43.379  29.813  28.309  1.00  0.00     0.074 A 
ATOM     47  C   UNL A   1      42.736  29.505  27.057  1.00  0.00     0.031 C 
ATOM     48  C   UNL A   1      37.855  28.219  31.424  1.00  0.00     0.029 A 
ATOM     49  C   UNL A   1      38.615  29.447  31.580  1.00  0.00     0.049 A 
ATOM     50  H   UNL A   1      40.625  29.717  31.077  1.00  0.00     0.167 HD
ATOM     51  C   UNL A   1      44.281  30.785  28.631  1.00  0.00     0.034 A 
ATOM     52  C   UNL A   1      38.227  30.674  32.010  1.00  0.00     0.034 A 
ATOM     53  C   UNL A   1      44.743  30.649  29.983  1.00  0.00     0.049 A 
ATOM     54  C   UNL A   1      39.462  31.484  32.208  1.00  0.00     0.074 A 
ATOM     55  C   UNL A   1      45.468  29.690  30.661  1.00  0.00     0.029 A 
ATOM     56  N   UNL A   1      44.153  31.428  30.950  1.00  0.00    -0.354 N 
ATOM     57  N   UNL A   1      40.356  31.230  33.126  1.00  0.00    -0.248 NA
ATOM     58  C   UNL A   1      39.937  32.267  31.072  1.00  0.00     0.031 C 
ATOM     59  C   UNL A   1      44.869  29.628  31.950  1.00  0.00     0.029 A 
ATOM     60  C   UNL A   1      43.865  30.597  32.004  1.00  0.00     0.049 A 
ATOM     61  H   UNL A   1      43.972  32.393  30.897  1.00  0.00     0.167 HD
ATOM     62  C   UNL A   1      41.576  31.426  32.492  1.00  0.00     0.074 A 
ATOM     63  C   UNL A   1      41.254  32.135  31.253  1.00  0.00     0.031 C 
ATOM     64  C   UNL A   1      42.703  30.744  32.858  1.00  0.00     0.034 A 
BRANCH  51  65
ATOM     65  C   UNL A   1      44.530  32.030  27.814  1.00  0.00     0.023 A 
ATOM     66  C   UNL A   1      43.812  33.224  28.012  1.00  0.00     0.031 A 
ATOM     67  C   UNL A   1      45.656  32.123  26.969  1.00  0.00     0.131 A 
ATOM     68  C   UNL A   1      44.193  34.423  27.396  1.00  0.00     0.055 A 
ATOM     69  C   UNL A   1      46.076  33.335  26.405  1.00  0.00     0.041 A 
ATOM     70  F   UNL A   1      46.418  31.049  26.710  1.00  0.00    -0.206 F 
ATOM     71  C   UNL A   1      45.344  34.495  26.618  1.00  0.00     0.022 A 
BRANCH  68  72
ATOM     72  S   UNL A   1      43.196  35.921  27.611  1.00  0.00     0.124 S 
ATOM     73  O   UNL A   1      44.194  36.972  27.445  1.00  0.00    -0.237 OA
ATOM     74  O   UNL A   1      42.227  35.790  26.526  1.00  0.00    -0.237 OA
ATOM     75  O   UNL A   1      42.643  35.771  28.953  1.00  0.00    -0.744 OA
ENDBRANCH  68  72
ENDBRANCH  51  65
BRANCH  52  76
ATOM     76  C   UNL A   1      36.927  31.285  31.622  1.00  0.00     0.023 A 
ATOM     77  C   UNL A   1      36.561  31.354  30.262  1.00  0.00     0.031 A 
ATOM     78  C   UNL A   1      36.166  32.043  32.524  1.00  0.00     0.131 A 
ATOM     79  C   UNL A   1      35.509  32.170  29.834  1.00  0.00     0.055 A 
ATOM     80  C   UNL A   1      35.102  32.851  32.099  1.00  0.00     0.041 A 
ATOM     81  F   UNL A   1      36.481  32.064  33.829  1.00  0.00    -0.206 F 
ATOM     82  C   UNL A   1      34.774  32.925  30.746  1.00  0.00     0.022 A 
BRANCH  79  83
ATOM     83  S   UNL A   1      35.134  32.308  28.064  1.00  0.00     0.124 S 
ATOM     84  O   UNL A   1      35.990  31.276  27.484  1.00  0.00    -0.237 OA
ATOM     85  O   UNL A   1      33.704  32.026  28.042  1.00  0.00    -0.237 OA
ATOM     86  O   UNL A   1      35.518  33.678  27.739  1.00  0.00    -0.744 OA
ENDBRANCH  79  83
ENDBRANCH  52  76
BRANCH  64  87
ATOM     87  C   UNL A   1      42.681  29.850  34.082  1.00  0.00     0.023 A 
ATOM     88  C   UNL A   1      43.234  30.366  35.266  1.00  0.00     0.031 A 
ATOM     89  C   UNL A   1      42.427  28.465  34.039  1.00  0.00     0.131 A 
ATOM     90  C   UNL A   1      43.577  29.510  36.320  1.00  0.00     0.055 A 
ATOM     91  C   UNL A   1      42.701  27.624  35.123  1.00  0.00     0.041 A 
ATOM     92  F   UNL A   1      42.008  27.863  32.922  1.00  0.00    -0.206 F 
ATOM     93  C   UNL A   1      43.300  28.142  36.264  1.00  0.00     0.022 A 
BRANCH  90  94
ATOM     94  S   UNL A   1      44.561  30.124  37.712  1.00  0.00     0.124 S 
ATOM     95  O   UNL A   1      43.597  30.954  38.427  1.00  0.00    -0.237 OA
ATOM     96  O   UNL A   1      44.942  28.885  38.388  1.00  0.00    -0.237 OA
ATOM     97  O   UNL A   1      45.659  30.845  37.078  1.00  0.00    -0.744 OA
ENDBRANCH  90  94
ENDBRANCH  64  87
ENDBRANCH  38  39
ENDBRANCH  30  33
ENDBRANCH  28  29
ENDBRANCH  27  28
ENDBRANCH  26  27
ENDBRANCH   1  26
TORSDOF 19
ENDMDL
MODEL 3
REMARK VINA RESULT:     -11.0      2.131      2.990
REMARK SMILES CC1(C)C(n2c(SCC(=O)NCCCCCCNC(=O)c3ccc(-c4c5nc(c(-c6cc(S(=O)(=O)[O-])ccc6F)c6ccc([nH]6)c(-c6cc(S(=O)(=O)[O-])ccc6F)c6nc(c(-c7cc(S(=O)(=O)[O-])ccc7F)c7ccc4[nH]7)C=C6)C=C5)cc3)nc3cnccc32)C1(C)C
REMARK SMILES IDX 14 1 13 2 12 3 11 4 9 5 10 6 8 8 7 9 6 10 5 11 90 12 84 13
REMARK SMILES IDX 85 14 89 15 86 16 88 17 87 18 4 19 1 20 2 21 3 22 91 23
REMARK SMILES IDX 92 24 93 25 15 26 16 27 17 28 18 29 19 30 20 32 21 33 22 34
REMARK SMILES IDX 83 35 23 36 82 37 24 38 25 39 26 40 76 41 27 42 81 43 75 44
REMARK SMILES IDX 77 45 28 46 80 47 74 48 73 49 29 51 61 52 41 53 60 54 42 55
REMARK SMILES IDX 45 56 59 57 78 58 43 59 44 60 58 62 79 63 46 64 30 65 31 66
REMARK SMILES IDX 39 67 32 68 38 69 40 70 37 71 33 72 34 73 35 74 36 75 62 76
REMARK SMILES IDX 63 77 71 78 64 79 70 80 72 81 69 82 65 83 66 84 67 85 68 86
REMARK SMILES IDX 47 87 48 88 56 89 49 90 55 91 57 92 54 93 50 94 51 95 52 96
REMARK SMILES IDX 53 97
REMARK H PARENT 11 7 18 31 77 50 45 61
REMARK Flexibility Score: inf
ROOT
ATOM      1  C   UNL A   1      30.890  28.970  24.203  1.00  0.00     0.002 C 
ENDROOT
BRANCH   1   2
ATOM      2  C   UNL A   1      30.899  27.436  24.281  1.00  0.00     0.021 C 
BRANCH   2   3
ATOM      3  C   UNL A   1      30.806  26.769  22.912  1.00  0.00     0.116 C 
BRANCH   3   4
ATOM      4  N   UNL A   1      31.898  27.243  22.100  1.00  0.00    -0.355 N 
ATOM      5  C   UNL A   1      33.202  26.936  22.301  1.00  0.00     0.230 C 
ATOM      6  O   UNL A   1      34.040  27.760  21.915  1.00  0.00    -0.274 OA
ATOM      7  H   UNL A   1      31.680  27.833  21.343  1.00  0.00     0.163 HD
BRANCH   5   8
ATOM      8  C   UNL A   1      33.550  25.585  22.874  1.00  0.00     0.178 C 
BRANCH   8   9
ATOM      9  S   UNL A   1      34.089  25.540  24.563  1.00  0.00    -0.078 SA
BRANCH   9  10
ATOM     10  C   UNL A   1      35.036  24.141  24.915  1.00  0.00     0.169 A 
ATOM     11  N   UNL A   1      34.838  22.790  24.691  1.00  0.00    -0.315 N 
ATOM     12  C   UNL A   1      36.059  22.169  24.930  1.00  0.00     0.072 A 
ATOM     13  N   UNL A   1      36.182  24.347  25.538  1.00  0.00    -0.221 NA
ATOM     14  C   UNL A   1      36.847  23.157  25.511  1.00  0.00     0.108 A 
ATOM     15  C   UNL A   1      36.566  20.887  24.698  1.00  0.00     0.049 A 
ATOM     16  C   UNL A   1      38.148  22.851  25.923  1.00  0.00     0.141 A 
ATOM     17  C   UNL A   1      37.876  20.684  25.118  1.00  0.00     0.113 A 
ATOM     18  N   UNL A   1      38.655  21.607  25.726  1.00  0.00    -0.262 NA
BRANCH  11  19
ATOM     19  C   UNL A   1      33.768  22.097  23.993  1.00  0.00     0.102 C 
ATOM     20  C   UNL A   1      32.833  19.704  23.615  1.00  0.00     0.014 C 
ATOM     21  C   UNL A   1      32.981  20.909  24.529  1.00  0.00    -0.007 C 
ATOM     22  C   UNL A   1      33.010  20.527  25.989  1.00  0.00     0.014 C 
ATOM     23  C   UNL A   1      32.252  22.216  24.132  1.00  0.00    -0.007 C 
ATOM     24  C   UNL A   1      31.393  22.167  22.871  1.00  0.00     0.014 C 
ATOM     25  C   UNL A   1      31.632  23.071  25.226  1.00  0.00     0.014 C 
ENDBRANCH  11  19
ENDBRANCH   9  10
ENDBRANCH   8   9
ENDBRANCH   5   8
ENDBRANCH   3   4
ENDBRANCH   2   3
ENDBRANCH   1   2
BRANCH   1  26
ATOM     26  C   UNL A   1      32.077  29.636  24.906  1.00  0.00     0.002 C 
BRANCH  26  27
ATOM     27  C   UNL A   1      32.131  29.372  26.416  1.00  0.00     0.021 C 
BRANCH  27  28
ATOM     28  C   UNL A   1      33.554  29.392  26.974  1.00  0.00     0.116 C 
BRANCH  28  29
ATOM     29  N   UNL A   1      33.794  30.535  27.818  1.00  0.00    -0.352 N 
ATOM     30  C   UNL A   1      34.853  30.935  28.579  1.00  0.00     0.251 C 
ATOM     31  H   UNL A   1      33.034  31.160  27.853  1.00  0.00     0.163 HD
ATOM     32  O   UNL A   1      34.706  31.994  29.193  1.00  0.00    -0.269 OA
BRANCH  30  33
ATOM     33  C   UNL A   1      36.101  30.148  28.760  1.00  0.00     0.039 A 
ATOM     34  C   UNL A   1      36.456  29.430  29.906  1.00  0.00     0.014 A 
ATOM     35  C   UNL A   1      37.015  30.212  27.695  1.00  0.00     0.014 A 
ATOM     36  C   UNL A   1      37.737  28.928  30.053  1.00  0.00     0.010 A 
ATOM     37  C   UNL A   1      38.284  29.672  27.817  1.00  0.00     0.010 A 
ATOM     38  C   UNL A   1      38.661  29.103  29.028  1.00  0.00    -0.014 A 
BRANCH  38  39
ATOM     39  C   UNL A   1      40.019  28.652  29.275  1.00  0.00     0.031 A 
ATOM     40  C   UNL A   1      40.504  28.825  30.674  1.00  0.00     0.074 A 
ATOM     41  C   UNL A   1      40.740  28.050  28.311  1.00  0.00     0.049 A 
ATOM     42  N   UNL A   1      41.499  29.536  31.101  1.00  0.00    -0.248 NA
ATOM     43  C   UNL A   1      39.685  28.241  31.747  1.00  0.00     0.031 C 
ATOM     44  C   UNL A   1      40.292  27.568  27.001  1.00  0.00     0.029 A 
ATOM     45  N   UNL A   1      42.026  27.625  28.361  1.00  0.00    -0.354 N 
ATOM     46  C   UNL A   1      41.543  29.351  32.484  1.00  0.00     0.074 A 
ATOM     47  C   UNL A   1      40.324  28.668  32.836  1.00  0.00     0.031 C 
ATOM     48  C   UNL A   1      41.197  26.686  26.523  1.00  0.00     0.029 A 
ATOM     49  C   UNL A   1      42.341  26.661  27.419  1.00  0.00     0.049 A 
ATOM     50  H   UNL A   1      42.678  27.972  29.011  1.00  0.00     0.167 HD
ATOM     51  C   UNL A   1      42.655  29.625  33.225  1.00  0.00     0.034 A 
ATOM     52  C   UNL A   1      43.389  25.803  27.486  1.00  0.00     0.034 A 
ATOM     53  C   UNL A   1      43.589  30.433  32.494  1.00  0.00     0.049 A 
ATOM     54  C   UNL A   1      44.386  26.395  28.421  1.00  0.00     0.074 A 
ATOM     55  C   UNL A   1      43.559  31.715  31.984  1.00  0.00     0.029 A 
ATOM     56  N   UNL A   1      44.641  29.804  31.871  1.00  0.00    -0.354 N 
ATOM     57  N   UNL A   1      45.051  27.492  28.173  1.00  0.00    -0.248 NA
ATOM     58  C   UNL A   1      44.277  26.036  29.831  1.00  0.00     0.031 C 
ATOM     59  C   UNL A   1      44.244  31.625  30.740  1.00  0.00     0.029 A 
ATOM     60  C   UNL A   1      44.707  30.315  30.599  1.00  0.00     0.049 A 
ATOM     61  H   UNL A   1      45.231  29.121  32.261  1.00  0.00     0.167 HD
ATOM     62  C   UNL A   1      45.055  28.181  29.379  1.00  0.00     0.074 A 
ATOM     63  C   UNL A   1      44.629  27.202  30.380  1.00  0.00     0.031 C 
ATOM     64  C   UNL A   1      45.105  29.546  29.436  1.00  0.00     0.034 A 
BRANCH  51  65
ATOM     65  C   UNL A   1      43.027  28.922  34.508  1.00  0.00     0.023 A 
ATOM     66  C   UNL A   1      43.373  27.559  34.554  1.00  0.00     0.031 A 
ATOM     67  C   UNL A   1      43.270  29.657  35.688  1.00  0.00     0.131 A 
ATOM     68  C   UNL A   1      43.914  26.975  35.707  1.00  0.00     0.055 A 
ATOM     69  C   UNL A   1      43.871  29.090  36.819  1.00  0.00     0.041 A 
ATOM     70  F   UNL A   1      42.982  30.966  35.759  1.00  0.00    -0.206 F 
ATOM     71  C   UNL A   1      44.199  27.741  36.833  1.00  0.00     0.022 A 
BRANCH  68  72
ATOM     72  S   UNL A   1      44.270  25.198  35.754  1.00  0.00     0.124 S 
ATOM     73  O   UNL A   1      44.437  24.888  34.338  1.00  0.00    -0.237 OA
ATOM     74  O   UNL A   1      45.489  25.161  36.558  1.00  0.00    -0.237 OA
ATOM     75  O   UNL A   1      43.089  24.632  36.398  1.00  0.00    -0.744 OA
ENDBRANCH  68  72
ENDBRANCH  51  65
BRANCH  52  76
ATOM     76  C   UNL A   1      43.232  24.333  27.313  1.00  0.00     0.023 A 
ATOM     77  C   UNL A   1      44.029  23.647  26.373  1.00  0.00     0.031 A 
ATOM     78  C   UNL A   1      42.136  23.638  27.846  1.00  0.00     0.131 A 
ATOM     79  C   UNL A   1      43.715  22.345  25.970  1.00  0.00     0.055 A 
ATOM     80  C   UNL A   1      41.829  22.327  27.454  1.00  0.00     0.041 A 
ATOM     81  F   UNL A   1      41.306  24.240  28.713  1.00  0.00    -0.206 F 
ATOM     82  C   UNL A   1      42.616  21.676  26.503  1.00  0.00     0.022 A 
BRANCH  79  83
ATOM     83  S   UNL A   1      44.707  21.534  24.685  1.00  0.00     0.124 S 
ATOM     84  O   UNL A   1      44.475  22.392  23.525  1.00  0.00    -0.237 OA
ATOM     85  O   UNL A   1      46.046  21.599  25.259  1.00  0.00    -0.237 OA
ATOM     86  O   UNL A   1      44.119  20.201  24.590  1.00  0.00    -0.744 OA
ENDBRANCH  79  83
ENDBRANCH  52  76
BRANCH  64  87
ATOM     87  C   UNL A   1      45.307  30.349  28.166  1.00  0.00     0.023 A 
ATOM     88  C   UNL A   1      46.594  30.861  27.928  1.00  0.00     0.031 A 
ATOM     89  C   UNL A   1      44.255  30.860  27.383  1.00  0.00     0.131 A 
ATOM     90  C   UNL A   1      46.786  31.887  26.995  1.00  0.00     0.055 A 
ATOM     91  C   UNL A   1      44.462  31.831  26.398  1.00  0.00     0.041 A 
ATOM     92  F   UNL A   1      42.982  30.519  27.609  1.00  0.00    -0.206 F 
ATOM     93  C   UNL A   1      45.731  32.367  26.215  1.00  0.00     0.022 A 
BRANCH  90  94
ATOM     94  S   UNL A   1      48.375  32.753  26.903  1.00  0.00     0.124 S 
ATOM     95  O   UNL A   1      48.115  33.765  25.885  1.00  0.00    -0.237 OA
ATOM     96  O   UNL A   1      48.527  33.261  28.266  1.00  0.00    -0.237 OA
ATOM     97  O   UNL A   1      49.324  31.712  26.523  1.00  0.00    -0.744 OA
ENDBRANCH  90  94
ENDBRANCH  64  87
ENDBRANCH  38  39
ENDBRANCH  30  33
ENDBRANCH  28  29
ENDBRANCH  27  28
ENDBRANCH  26  27
ENDBRANCH   1  26
TORSDOF 19
ENDMDL
