MODEL 1
REMARK VINA RESULT:     -12.0      0.000      0.000
REMARK SMILES CCc1cccc2c3c([nH]c12)[C@](CC)(CC(=O)NCCCCCCNC(=O)c1ccc(-c2c4nc(c(-c5cc(S(=O)(=O)[O-])ccc5F)c5ccc([nH]5)c(-c5cc(S(=O)(=O)[O-])ccc5F)c5nc(c(-c6cc(S(=O)(=O)[O-])ccc6F)c6ccc2[nH]6)C=C5)C=C4)cc1)OCC3
REMARK SMILES IDX 22 1 21 2 20 3 19 4 18 5 16 6 17 7 15 9 12 10 3 11 4 12
REMARK SMILES IDX 11 13 5 14 7 15 10 16 6 17 8 18 9 19 93 21 92 22 91 23 2 24
REMARK SMILES IDX 1 25 13 26 14 27 23 28 24 29 25 30 26 31 27 33 28 34 29 35
REMARK SMILES IDX 90 36 30 37 89 38 31 39 32 40 33 41 83 42 34 43 88 44 82 45
REMARK SMILES IDX 84 46 35 47 87 48 81 49 80 50 36 52 68 53 48 54 67 55 49 56
REMARK SMILES IDX 52 57 66 58 85 59 50 60 51 61 65 63 86 64 53 65 37 66 38 67
REMARK SMILES IDX 46 68 39 69 45 70 47 71 44 72 40 73 41 74 42 75 43 76 69 77
REMARK SMILES IDX 70 78 78 79 71 80 77 81 79 82 76 83 72 84 73 85 74 86 75 87
REMARK SMILES IDX 54 88 55 89 63 90 56 91 62 92 64 93 61 94 57 95 58 96 59 97
REMARK SMILES IDX 60 98
REMARK H PARENT 18 8 10 20 25 32 84 51 52 62
REMARK Flexibility Score: inf
ROOT
ATOM      1  C   UNL A   1      36.085  22.589  23.662  1.00  0.00     0.002 C 
ENDROOT
BRANCH   1   2
ATOM      2  C   UNL A   1      34.654  23.097  23.770  1.00  0.00     0.002 C 
BRANCH   2   3
ATOM      3  C   UNL A   1      34.035  23.575  22.444  1.00  0.00     0.021 C 
BRANCH   3   4
ATOM      4  C   UNL A   1      32.912  24.616  22.568  1.00  0.00     0.116 C 
BRANCH   4   5
ATOM      5  N   UNL A   1      33.218  25.915  21.976  1.00  0.00    -0.356 N 
ATOM      6  C   UNL A   1      33.588  27.109  22.524  1.00  0.00     0.223 C 
ATOM      7  O   UNL A   1      33.681  28.087  21.779  1.00  0.00    -0.275 OA
ATOM      8  H   UNL A   1      33.142  25.932  20.994  1.00  0.00     0.163 HD
BRANCH   6   9
ATOM      9  C   UNL A   1      33.939  27.207  23.988  1.00  0.00     0.142 C 
BRANCH   9  10
ATOM     10  C   UNL A   1      32.842  27.604  25.003  1.00  0.00     0.117 C 
ATOM     11  C   UNL A   1      28.942  30.369  23.282  1.00  0.00    -0.024 A 
ATOM     12  C   UNL A   1      27.605  30.001  22.978  1.00  0.00     0.006 A 
ATOM     13  C   UNL A   1      29.808  29.304  23.616  1.00  0.00     0.049 A 
ATOM     14  C   UNL A   1      27.149  28.687  23.029  1.00  0.00     0.001 A 
ATOM     15  C   UNL A   1      29.343  27.990  23.739  1.00  0.00     0.003 A 
ATOM     16  N   UNL A   1      31.163  29.257  23.915  1.00  0.00    -0.356 N 
ATOM     17  C   UNL A   1      28.009  27.675  23.429  1.00  0.00     0.010 A 
ATOM     18  C   UNL A   1      30.391  27.233  24.304  1.00  0.00    -0.014 A 
ATOM     19  C   UNL A   1      31.523  28.012  24.377  1.00  0.00     0.052 A 
ATOM     20  H   UNL A   1      31.784  30.013  23.809  1.00  0.00     0.166 HD
ATOM     21  C   UNL A   1      30.318  25.891  24.897  1.00  0.00     0.066 C 
ATOM     22  C   UNL A   1      31.659  25.500  25.497  1.00  0.00     0.166 C 
ATOM     23  O   UNL A   1      32.515  26.564  25.953  1.00  0.00    -0.368 OA
BRANCH  11  24
ATOM     24  C   UNL A   1      29.238  31.854  23.267  1.00  0.00     0.034 C 
ATOM     25  C   UNL A   1      28.719  32.682  22.106  1.00  0.00     0.009 C 
ENDBRANCH  11  24
BRANCH  10  26
ATOM     26  C   UNL A   1      33.386  28.786  25.874  1.00  0.00     0.039 C 
ATOM     27  C   UNL A   1      32.644  29.036  27.189  1.00  0.00     0.007 C 
ENDBRANCH  10  26
ENDBRANCH   9  10
ENDBRANCH   6   9
ENDBRANCH   4   5
ENDBRANCH   3   4
ENDBRANCH   2   3
ENDBRANCH   1   2
BRANCH   1  28
ATOM     28  C   UNL A   1      37.055  23.212  24.665  1.00  0.00     0.021 C 
BRANCH  28  29
ATOM     29  C   UNL A   1      37.620  22.239  25.708  1.00  0.00     0.116 C 
BRANCH  29  30
ATOM     30  N   UNL A   1      39.036  21.962  25.563  1.00  0.00    -0.352 N 
ATOM     31  C   UNL A   1      40.152  22.472  26.178  1.00  0.00     0.251 C 
ATOM     32  H   UNL A   1      39.235  21.271  24.891  1.00  0.00     0.163 HD
ATOM     33  O   UNL A   1      41.229  21.937  25.912  1.00  0.00    -0.269 OA
BRANCH  31  34
ATOM     34  C   UNL A   1      40.131  23.675  27.056  1.00  0.00     0.039 A 
ATOM     35  C   UNL A   1      39.124  24.639  27.055  1.00  0.00     0.014 A 
ATOM     36  C   UNL A   1      41.246  23.873  27.887  1.00  0.00     0.014 A 
ATOM     37  C   UNL A   1      39.314  25.854  27.692  1.00  0.00     0.010 A 
ATOM     38  C   UNL A   1      41.402  25.061  28.599  1.00  0.00     0.010 A 
ATOM     39  C   UNL A   1      40.470  26.082  28.437  1.00  0.00    -0.014 A 
BRANCH  39  40
ATOM     40  C   UNL A   1      40.593  27.401  29.051  1.00  0.00     0.031 A 
ATOM     41  C   UNL A   1      41.658  28.282  28.488  1.00  0.00     0.074 A 
ATOM     42  C   UNL A   1      39.801  27.841  30.045  1.00  0.00     0.049 A 
ATOM     43  N   UNL A   1      42.712  28.747  29.079  1.00  0.00    -0.248 NA
ATOM     44  C   UNL A   1      41.598  28.575  27.051  1.00  0.00     0.031 C 
ATOM     45  C   UNL A   1      38.558  27.259  30.553  1.00  0.00     0.029 A 
ATOM     46  N   UNL A   1      39.911  29.002  30.748  1.00  0.00    -0.354 N 
ATOM     47  C   UNL A   1      43.387  29.516  28.130  1.00  0.00     0.074 A 
ATOM     48  C   UNL A   1      42.717  29.278  26.874  1.00  0.00     0.031 C 
ATOM     49  C   UNL A   1      37.907  28.186  31.289  1.00  0.00     0.029 A 
ATOM     50  C   UNL A   1      38.759  29.356  31.426  1.00  0.00     0.049 A 
ATOM     51  H   UNL A   1      40.735  29.540  30.771  1.00  0.00     0.167 HD
ATOM     52  C   UNL A   1      44.374  30.400  28.462  1.00  0.00     0.034 A 
ATOM     53  C   UNL A   1      38.485  30.566  31.970  1.00  0.00     0.034 A 
ATOM     54  C   UNL A   1      44.852  30.182  29.799  1.00  0.00     0.049 A 
ATOM     55  C   UNL A   1      39.763  31.288  32.183  1.00  0.00     0.074 A 
ATOM     56  C   UNL A   1      45.528  29.159  30.431  1.00  0.00     0.029 A 
ATOM     57  N   UNL A   1      44.371  30.989  30.800  1.00  0.00    -0.354 N 
ATOM     58  N   UNL A   1      40.648  30.959  33.083  1.00  0.00    -0.248 NA
ATOM     59  C   UNL A   1      40.259  32.127  31.102  1.00  0.00     0.031 C 
ATOM     60  C   UNL A   1      45.012  29.140  31.756  1.00  0.00     0.029 A 
ATOM     61  C   UNL A   1      44.080  30.176  31.866  1.00  0.00     0.049 A 
ATOM     62  H   UNL A   1      44.256  31.966  30.760  1.00  0.00     0.167 HD
ATOM     63  C   UNL A   1      41.870  31.143  32.454  1.00  0.00     0.074 A 
ATOM     64  C   UNL A   1      41.574  31.975  31.289  1.00  0.00     0.031 C 
ATOM     65  C   UNL A   1      42.960  30.378  32.764  1.00  0.00     0.034 A 
BRANCH  52  66
ATOM     66  C   UNL A   1      44.738  31.629  27.667  1.00  0.00     0.023 A 
ATOM     67  C   UNL A   1      43.973  32.809  27.703  1.00  0.00     0.031 A 
ATOM     68  C   UNL A   1      45.989  31.729  27.020  1.00  0.00     0.131 A 
ATOM     69  C   UNL A   1      44.427  34.000  27.120  1.00  0.00     0.055 A 
ATOM     70  C   UNL A   1      46.471  32.935  26.492  1.00  0.00     0.041 A 
ATOM     71  F   UNL A   1      46.808  30.671  26.928  1.00  0.00    -0.206 F 
ATOM     72  C   UNL A   1      45.688  34.080  26.540  1.00  0.00     0.022 A 
BRANCH  69  73
ATOM     73  S   UNL A   1      43.373  35.474  27.119  1.00  0.00     0.124 S 
ATOM     74  O   UNL A   1      42.573  35.270  28.322  1.00  0.00    -0.237 OA
ATOM     75  O   UNL A   1      44.361  36.548  27.190  1.00  0.00    -0.237 OA
ATOM     76  O   UNL A   1      42.655  35.380  25.851  1.00  0.00    -0.744 OA
ENDBRANCH  69  73
ENDBRANCH  52  66
BRANCH  53  77
ATOM     77  C   UNL A   1      37.183  31.260  31.855  1.00  0.00     0.023 A 
ATOM     78  C   UNL A   1      36.667  31.566  30.580  1.00  0.00     0.031 A 
ATOM     79  C   UNL A   1      36.572  31.868  32.961  1.00  0.00     0.131 A 
ATOM     80  C   UNL A   1      35.609  32.469  30.432  1.00  0.00     0.055 A 
ATOM     81  C   UNL A   1      35.505  32.762  32.814  1.00  0.00     0.041 A 
ATOM     82  F   UNL A   1      37.039  31.652  34.200  1.00  0.00    -0.206 F 
ATOM     83  C   UNL A   1      35.024  33.074  31.544  1.00  0.00     0.022 A 
BRANCH  80  84
ATOM     84  S   UNL A   1      35.023  32.918  28.776  1.00  0.00     0.124 S 
ATOM     85  O   UNL A   1      33.766  33.603  29.066  1.00  0.00    -0.237 OA
ATOM     86  O   UNL A   1      36.108  33.768  28.298  1.00  0.00    -0.237 OA
ATOM     87  O   UNL A   1      34.880  31.630  28.102  1.00  0.00    -0.744 OA
ENDBRANCH  80  84
ENDBRANCH  53  77
BRANCH  65  88
ATOM     88  C   UNL A   1      42.895  29.448  33.961  1.00  0.00     0.023 A 
ATOM     89  C   UNL A   1      43.520  29.865  35.152  1.00  0.00     0.031 A 
ATOM     90  C   UNL A   1      42.468  28.107  33.895  1.00  0.00     0.131 A 
ATOM     91  C   UNL A   1      43.732  28.955  36.198  1.00  0.00     0.055 A 
ATOM     92  C   UNL A   1      42.613  27.224  34.970  1.00  0.00     0.041 A 
ATOM     93  F   UNL A   1      41.985  27.579  32.764  1.00  0.00    -0.206 F 
ATOM     94  C   UNL A   1      43.264  27.642  36.123  1.00  0.00     0.022 A 
BRANCH  91  95
ATOM     95  S   UNL A   1      44.779  29.407  37.607  1.00  0.00     0.124 S 
ATOM     96  O   UNL A   1      46.041  29.754  36.953  1.00  0.00    -0.237 OA
ATOM     97  O   UNL A   1      44.048  30.537  38.186  1.00  0.00    -0.237 OA
ATOM     98  O   UNL A   1      44.808  28.208  38.430  1.00  0.00    -0.744 OA
ENDBRANCH  91  95
ENDBRANCH  65  88
ENDBRANCH  39  40
ENDBRANCH  31  34
ENDBRANCH  29  30
ENDBRANCH  28  29
ENDBRANCH   1  28
TORSDOF 19
ENDMDL
MODEL 2
REMARK VINA RESULT:     -12.0      1.343      2.368
REMARK SMILES CCc1cccc2c3c([nH]c12)[C@](CC)(CC(=O)NCCCCCCNC(=O)c1ccc(-c2c4nc(c(-c5cc(S(=O)(=O)[O-])ccc5F)c5ccc([nH]5)c(-c5cc(S(=O)(=O)[O-])ccc5F)c5nc(c(-c6cc(S(=O)(=O)[O-])ccc6F)c6ccc2[nH]6)C=C5)C=C4)cc1)OCC3
REMARK SMILES IDX 22 1 21 2 20 3 19 4 18 5 16 6 17 7 15 9 12 10 3 11 4 12
REMARK SMILES IDX 11 13 5 14 7 15 10 16 6 17 8 18 9 19 93 21 92 22 91 23 2 24
REMARK SMILES IDX 1 25 13 26 14 27 23 28 24 29 25 30 26 31 27 33 28 34 29 35
REMARK SMILES IDX 90 36 30 37 89 38 31 39 32 40 33 41 83 42 34 43 88 44 82 45
REMARK SMILES IDX 84 46 35 47 87 48 81 49 80 50 36 52 68 53 48 54 67 55 49 56
REMARK SMILES IDX 52 57 66 58 85 59 50 60 51 61 65 63 86 64 53 65 37 66 38 67
REMARK SMILES IDX 46 68 39 69 45 70 47 71 44 72 40 73 41 74 42 75 43 76 69 77
REMARK SMILES IDX 70 78 78 79 71 80 77 81 79 82 76 83 72 84 73 85 74 86 75 87
REMARK SMILES IDX 54 88 55 89 63 90 56 91 62 92 64 93 61 94 57 95 58 96 59 97
REMARK SMILES IDX 60 98
REMARK H PARENT 18 8 10 20 25 32 84 51 52 62
REMARK Flexibility Score: inf
ROOT
ATOM      1  C   UNL A   1      35.714  21.424  24.898  1.00  0.00     0.002 C 
ENDROOT
BRANCH   1   2
ATOM      2  C   UNL A   1      35.266  19.971  24.835  1.00  0.00     0.002 C 
BRANCH   2   3
ATOM      3  C   UNL A   1      33.782  19.736  25.172  1.00  0.00     0.021 C 
BRANCH   3   4
ATOM      4  C   UNL A   1      32.831  20.896  24.842  1.00  0.00     0.116 C 
BRANCH   4   5
ATOM      5  N   UNL A   1      32.220  21.531  26.006  1.00  0.00    -0.356 N 
ATOM      6  C   UNL A   1      31.486  22.673  26.150  1.00  0.00     0.223 C 
ATOM      7  O   UNL A   1      31.182  23.029  27.290  1.00  0.00    -0.275 OA
ATOM      8  H   UNL A   1      32.365  21.041  26.849  1.00  0.00     0.163 HD
BRANCH   6   9
ATOM      9  C   UNL A   1      31.006  23.436  24.940  1.00  0.00     0.142 C 
BRANCH   9  10
ATOM     10  C   UNL A   1      31.955  24.451  24.262  1.00  0.00     0.117 C 
ATOM     11  C   UNL A   1      30.364  29.261  23.886  1.00  0.00    -0.024 A 
ATOM     12  C   UNL A   1      30.722  30.419  24.626  1.00  0.00     0.006 A 
ATOM     13  C   UNL A   1      30.910  28.045  24.352  1.00  0.00     0.049 A 
ATOM     14  C   UNL A   1      31.576  30.383  25.725  1.00  0.00     0.001 A 
ATOM     15  C   UNL A   1      31.824  28.008  25.411  1.00  0.00     0.003 A 
ATOM     16  N   UNL A   1      30.755  26.729  23.938  1.00  0.00    -0.356 N 
ATOM     17  C   UNL A   1      32.149  29.182  26.113  1.00  0.00     0.010 A 
ATOM     18  C   UNL A   1      32.341  26.696  25.463  1.00  0.00    -0.014 A 
ATOM     19  C   UNL A   1      31.651  25.903  24.575  1.00  0.00     0.052 A 
ATOM     20  H   UNL A   1      30.091  26.427  23.277  1.00  0.00     0.166 HD
ATOM     21  C   UNL A   1      33.527  26.221  26.190  1.00  0.00     0.066 C 
ATOM     22  C   UNL A   1      33.794  24.758  25.873  1.00  0.00     0.166 C 
ATOM     23  O   UNL A   1      33.350  24.265  24.595  1.00  0.00    -0.368 OA
BRANCH  11  24
ATOM     24  C   UNL A   1      29.500  29.500  22.665  1.00  0.00     0.034 C 
ATOM     25  C   UNL A   1      28.084  28.956  22.665  1.00  0.00     0.009 C 
ENDBRANCH  11  24
BRANCH  10  26
ATOM     26  C   UNL A   1      31.880  24.231  22.714  1.00  0.00     0.039 C 
ATOM     27  C   UNL A   1      32.902  23.250  22.134  1.00  0.00     0.007 C 
ENDBRANCH  10  26
ENDBRANCH   9  10
ENDBRANCH   6   9
ENDBRANCH   4   5
ENDBRANCH   3   4
ENDBRANCH   2   3
ENDBRANCH   1   2
BRANCH   1  28
ATOM     28  C   UNL A   1      37.201  21.641  24.619  1.00  0.00     0.021 C 
BRANCH  28  29
ATOM     29  C   UNL A   1      38.020  22.123  25.823  1.00  0.00     0.116 C 
BRANCH  29  30
ATOM     30  N   UNL A   1      39.453  21.958  25.677  1.00  0.00    -0.352 N 
ATOM     31  C   UNL A   1      40.527  22.575  26.270  1.00  0.00     0.251 C 
ATOM     32  H   UNL A   1      39.706  21.267  25.023  1.00  0.00     0.163 HD
ATOM     33  O   UNL A   1      41.643  22.122  26.012  1.00  0.00    -0.269 OA
BRANCH  31  34
ATOM     34  C   UNL A   1      40.412  23.797  27.114  1.00  0.00     0.039 A 
ATOM     35  C   UNL A   1      39.335  24.681  27.085  1.00  0.00     0.014 A 
ATOM     36  C   UNL A   1      41.505  24.101  27.941  1.00  0.00     0.014 A 
ATOM     37  C   UNL A   1      39.429  25.924  27.688  1.00  0.00     0.010 A 
ATOM     38  C   UNL A   1      41.569  25.317  28.619  1.00  0.00     0.010 A 
ATOM     39  C   UNL A   1      40.563  26.259  28.428  1.00  0.00    -0.014 A 
BRANCH  39  40
ATOM     40  C   UNL A   1      40.583  27.600  29.005  1.00  0.00     0.031 A 
ATOM     41  C   UNL A   1      41.600  28.535  28.439  1.00  0.00     0.074 A 
ATOM     42  C   UNL A   1      39.740  28.014  29.969  1.00  0.00     0.049 A 
ATOM     43  N   UNL A   1      42.606  29.086  29.039  1.00  0.00    -0.248 NA
ATOM     44  C   UNL A   1      41.555  28.783  26.993  1.00  0.00     0.031 C 
ATOM     45  C   UNL A   1      38.527  27.364  30.467  1.00  0.00     0.029 A 
ATOM     46  N   UNL A   1      39.756  29.199  30.639  1.00  0.00    -0.354 N 
ATOM     47  C   UNL A   1      43.251  29.872  28.082  1.00  0.00     0.074 A 
ATOM     48  C   UNL A   1      42.628  29.554  26.820  1.00  0.00     0.031 C 
ATOM     49  C   UNL A   1      37.799  28.266  31.161  1.00  0.00     0.029 A 
ATOM     50  C   UNL A   1      38.568  29.494  31.282  1.00  0.00     0.049 A 
ATOM     51  H   UNL A   1      40.542  29.791  30.664  1.00  0.00     0.167 HD
ATOM     52  C   UNL A   1      44.169  30.829  28.410  1.00  0.00     0.034 A 
ATOM     53  C   UNL A   1      38.201  30.697  31.784  1.00  0.00     0.034 A 
ATOM     54  C   UNL A   1      44.629  30.681  29.762  1.00  0.00     0.049 A 
ATOM     55  C   UNL A   1      39.423  31.510  32.003  1.00  0.00     0.074 A 
ATOM     56  C   UNL A   1      45.357  29.724  30.439  1.00  0.00     0.029 A 
ATOM     57  N   UNL A   1      44.071  31.482  30.728  1.00  0.00    -0.354 N 
ATOM     58  N   UNL A   1      40.306  31.266  32.931  1.00  0.00    -0.248 NA
ATOM     59  C   UNL A   1      39.888  32.349  30.908  1.00  0.00     0.031 C 
ATOM     60  C   UNL A   1      44.812  29.708  31.753  1.00  0.00     0.029 A 
ATOM     61  C   UNL A   1      43.811  30.681  31.812  1.00  0.00     0.049 A 
ATOM     62  H   UNL A   1      43.893  32.447  30.657  1.00  0.00     0.167 HD
ATOM     63  C   UNL A   1      41.528  31.513  32.323  1.00  0.00     0.074 A 
ATOM     64  C   UNL A   1      41.204  32.291  31.128  1.00  0.00     0.031 C 
ATOM     65  C   UNL A   1      42.659  30.832  32.679  1.00  0.00     0.034 A 
BRANCH  52  66
ATOM     66  C   UNL A   1      44.469  32.057  27.586  1.00  0.00     0.023 A 
ATOM     67  C   UNL A   1      43.860  33.301  27.832  1.00  0.00     0.031 A 
ATOM     68  C   UNL A   1      45.543  32.071  26.670  1.00  0.00     0.131 A 
ATOM     69  C   UNL A   1      44.291  34.472  27.193  1.00  0.00     0.055 A 
ATOM     70  C   UNL A   1      46.015  33.250  26.079  1.00  0.00     0.041 A 
ATOM     71  F   UNL A   1      46.204  30.945  26.361  1.00  0.00    -0.206 F 
ATOM     72  C   UNL A   1      45.388  34.461  26.340  1.00  0.00     0.022 A 
BRANCH  69  73
ATOM     73  S   UNL A   1      43.426  36.038  27.479  1.00  0.00     0.124 S 
ATOM     74  O   UNL A   1      42.503  35.679  28.550  1.00  0.00    -0.237 OA
ATOM     75  O   UNL A   1      44.525  36.922  27.860  1.00  0.00    -0.237 OA
ATOM     76  O   UNL A   1      42.818  36.332  26.184  1.00  0.00    -0.744 OA
ENDBRANCH  69  73
ENDBRANCH  52  66
BRANCH  53  77
ATOM     77  C   UNL A   1      36.859  31.299  31.620  1.00  0.00     0.023 A 
ATOM     78  C   UNL A   1      36.334  31.490  30.327  1.00  0.00     0.031 A 
ATOM     79  C   UNL A   1      36.203  31.935  32.683  1.00  0.00     0.131 A 
ATOM     80  C   UNL A   1      35.223  32.313  30.118  1.00  0.00     0.055 A 
ATOM     81  C   UNL A   1      35.082  32.749  32.476  1.00  0.00     0.041 A 
ATOM     82  F   UNL A   1      36.673  31.828  33.936  1.00  0.00    -0.206 F 
ATOM     83  C   UNL A   1      34.593  32.949  31.187  1.00  0.00     0.022 A 
BRANCH  80  84
ATOM     84  S   UNL A   1      34.622  32.619  28.434  1.00  0.00     0.124 S 
ATOM     85  O   UNL A   1      34.031  31.332  28.077  1.00  0.00    -0.237 OA
ATOM     86  O   UNL A   1      33.677  33.708  28.650  1.00  0.00    -0.237 OA
ATOM     87  O   UNL A   1      35.834  32.965  27.697  1.00  0.00    -0.744 OA
ENDBRANCH  80  84
ENDBRANCH  53  77
BRANCH  65  88
ATOM     88  C   UNL A   1      42.628  29.934  33.901  1.00  0.00     0.023 A 
ATOM     89  C   UNL A   1      43.197  30.425  35.092  1.00  0.00     0.031 A 
ATOM     90  C   UNL A   1      42.293  28.566  33.865  1.00  0.00     0.131 A 
ATOM     91  C   UNL A   1      43.444  29.561  36.169  1.00  0.00     0.055 A 
ATOM     92  C   UNL A   1      42.471  27.726  34.969  1.00  0.00     0.041 A 
ATOM     93  F   UNL A   1      41.872  27.976  32.740  1.00  0.00    -0.206 F 
ATOM     94  C   UNL A   1      43.066  28.218  36.123  1.00  0.00     0.022 A 
BRANCH  91  95
ATOM     95  S   UNL A   1      44.426  30.122  37.586  1.00  0.00     0.124 S 
ATOM     96  O   UNL A   1      43.477  30.978  38.297  1.00  0.00    -0.237 OA
ATOM     97  O   UNL A   1      44.750  28.861  38.257  1.00  0.00    -0.237 OA
ATOM     98  O   UNL A   1      45.560  30.807  36.986  1.00  0.00    -0.744 OA
ENDBRANCH  91  95
ENDBRANCH  65  88
ENDBRANCH  39  40
ENDBRANCH  31  34
ENDBRANCH  29  30
ENDBRANCH  28  29
ENDBRANCH   1  28
TORSDOF 19
ENDMDL
MODEL 3
REMARK VINA RESULT:     -11.9      1.852      2.992
REMARK SMILES CCc1cccc2c3c([nH]c12)[C@](CC)(CC(=O)NCCCCCCNC(=O)c1ccc(-c2c4nc(c(-c5cc(S(=O)(=O)[O-])ccc5F)c5ccc([nH]5)c(-c5cc(S(=O)(=O)[O-])ccc5F)c5nc(c(-c6cc(S(=O)(=O)[O-])ccc6F)c6ccc2[nH]6)C=C5)C=C4)cc1)OCC3
REMARK SMILES IDX 22 1 21 2 20 3 19 4 18 5 16 6 17 7 15 9 12 10 3 11 4 12
REMARK SMILES IDX 11 13 5 14 7 15 10 16 6 17 8 18 9 19 93 21 92 22 91 23 2 24
REMARK SMILES IDX 1 25 13 26 14 27 23 28 24 29 25 30 26 31 27 33 28 34 29 35
REMARK SMILES IDX 90 36 30 37 89 38 31 39 32 40 33 41 83 42 34 43 88 44 82 45
REMARK SMILES IDX 84 46 35 47 87 48 81 49 80 50 36 52 68 53 48 54 67 55 49 56
REMARK SMILES IDX 52 57 66 58 85 59 50 60 51 61 65 63 86 64 53 65 37 66 38 67
REMARK SMILES IDX 46 68 39 69 45 70 47 71 44 72 40 73 41 74 42 75 43 76 69 77
REMARK SMILES IDX 70 78 78 79 71 80 77 81 79 82 76 83 72 84 73 85 74 86 75 87
REMARK SMILES IDX 54 88 55 89 63 90 56 91 62 92 64 93 61 94 57 95 58 96 59 97
REMARK SMILES IDX 60 98
REMARK H PARENT 18 8 10 20 25 32 84 51 52 62
REMARK Flexibility Score: inf
ROOT
ATOM      1  C   UNL A   1      35.064  22.862  25.602  1.00  0.00     0.002 C 
ENDROOT
BRANCH   1   2
ATOM      2  C   UNL A   1      34.378  23.150  26.929  1.00  0.00     0.002 C 
BRANCH   2   3
ATOM      3  C   UNL A   1      32.964  22.556  27.070  1.00  0.00     0.021 C 
BRANCH   3   4
ATOM      4  C   UNL A   1      31.922  23.069  26.064  1.00  0.00     0.116 C 
BRANCH   4   5
ATOM      5  N   UNL A   1      31.006  24.073  26.597  1.00  0.00    -0.356 N 
ATOM      6  C   UNL A   1      30.335  25.107  26.011  1.00  0.00     0.223 C 
ATOM      7  O   UNL A   1      29.699  25.874  26.737  1.00  0.00    -0.275 OA
ATOM      8  H   UNL A   1      30.841  23.988  27.564  1.00  0.00     0.163 HD
BRANCH   6   9
ATOM      9  C   UNL A   1      30.319  25.261  24.509  1.00  0.00     0.142 C 
BRANCH   9  10
ATOM     10  C   UNL A   1      31.199  26.350  23.853  1.00  0.00     0.117 C 
ATOM     11  C   UNL A   1      32.437  30.386  26.678  1.00  0.00    -0.024 A 
ATOM     12  C   UNL A   1      33.653  30.728  27.328  1.00  0.00     0.006 A 
ATOM     13  C   UNL A   1      32.402  29.106  26.082  1.00  0.00     0.049 A 
ATOM     14  C   UNL A   1      34.758  29.883  27.362  1.00  0.00     0.001 A 
ATOM     15  C   UNL A   1      33.530  28.279  26.050  1.00  0.00     0.003 A 
ATOM     16  N   UNL A   1      31.402  28.409  25.418  1.00  0.00    -0.356 N 
ATOM     17  C   UNL A   1      34.713  28.662  26.707  1.00  0.00     0.010 A 
ATOM     18  C   UNL A   1      33.227  27.201  25.191  1.00  0.00    -0.014 A 
ATOM     19  C   UNL A   1      31.900  27.269  24.833  1.00  0.00     0.052 A 
ATOM     20  H   UNL A   1      30.460  28.693  25.372  1.00  0.00     0.166 HD
ATOM     21  C   UNL A   1      34.157  26.230  24.598  1.00  0.00     0.066 C 
ATOM     22  C   UNL A   1      33.422  25.309  23.637  1.00  0.00     0.166 C 
ATOM     23  O   UNL A   1      32.241  25.827  22.997  1.00  0.00    -0.368 OA
BRANCH  11  24
ATOM     24  C   UNL A   1      31.374  31.464  26.659  1.00  0.00     0.034 C 
ATOM     25  C   UNL A   1      31.791  32.896  26.937  1.00  0.00     0.009 C 
ENDBRANCH  11  24
BRANCH  10  26
ATOM     26  C   UNL A   1      30.292  27.203  22.904  1.00  0.00     0.039 C 
ATOM     27  C   UNL A   1      30.931  28.478  22.347  1.00  0.00     0.007 C 
ENDBRANCH  10  26
ENDBRANCH   9  10
ENDBRANCH   6   9
ENDBRANCH   4   5
ENDBRANCH   3   4
ENDBRANCH   2   3
ENDBRANCH   1   2
BRANCH   1  28
ATOM     28  C   UNL A   1      36.315  21.992  25.711  1.00  0.00     0.021 C 
BRANCH  28  29
ATOM     29  C   UNL A   1      37.639  22.766  25.761  1.00  0.00     0.116 C 
BRANCH  29  30
ATOM     30  N   UNL A   1      38.741  22.029  26.348  1.00  0.00    -0.352 N 
ATOM     31  C   UNL A   1      39.789  22.405  27.151  1.00  0.00     0.251 C 
ATOM     32  H   UNL A   1      38.737  21.070  26.126  1.00  0.00     0.163 HD
ATOM     33  O   UNL A   1      40.510  21.506  27.585  1.00  0.00    -0.269 OA
BRANCH  31  34
ATOM     34  C   UNL A   1      40.142  23.825  27.435  1.00  0.00     0.039 A 
ATOM     35  C   UNL A   1      41.293  24.236  28.105  1.00  0.00     0.014 A 
ATOM     36  C   UNL A   1      39.204  24.799  27.056  1.00  0.00     0.014 A 
ATOM     37  C   UNL A   1      41.409  25.535  28.570  1.00  0.00     0.010 A 
ATOM     38  C   UNL A   1      39.358  26.127  27.448  1.00  0.00     0.010 A 
ATOM     39  C   UNL A   1      40.424  26.476  28.272  1.00  0.00    -0.014 A 
BRANCH  39  40
ATOM     40  C   UNL A   1      40.621  27.813  28.826  1.00  0.00     0.031 A 
ATOM     41  C   UNL A   1      41.808  28.559  28.315  1.00  0.00     0.074 A 
ATOM     42  C   UNL A   1      39.793  28.382  29.722  1.00  0.00     0.049 A 
ATOM     43  N   UNL A   1      42.848  28.961  28.974  1.00  0.00    -0.248 NA
ATOM     44  C   UNL A   1      41.897  28.771  26.866  1.00  0.00     0.031 C 
ATOM     45  C   UNL A   1      38.462  27.946  30.146  1.00  0.00     0.029 A 
ATOM     46  N   UNL A   1      39.955  29.567  30.372  1.00  0.00    -0.354 N 
ATOM     47  C   UNL A   1      43.671  29.608  28.050  1.00  0.00     0.074 A 
ATOM     48  C   UNL A   1      43.089  29.357  26.754  1.00  0.00     0.031 C 
ATOM     49  C   UNL A   1      37.844  28.970  30.773  1.00  0.00     0.029 A 
ATOM     50  C   UNL A   1      38.789  30.064  30.926  1.00  0.00     0.049 A 
ATOM     51  H   UNL A   1      40.822  30.028  30.441  1.00  0.00     0.167 HD
ATOM     52  C   UNL A   1      44.707  30.416  28.424  1.00  0.00     0.034 A 
ATOM     53  C   UNL A   1      38.587  31.324  31.381  1.00  0.00     0.034 A 
ATOM     54  C   UNL A   1      45.048  30.235  29.807  1.00  0.00     0.049 A 
ATOM     55  C   UNL A   1      39.906  31.938  31.670  1.00  0.00     0.074 A 
ATOM     56  C   UNL A   1      45.568  29.194  30.549  1.00  0.00     0.029 A 
ATOM     57  N   UNL A   1      44.564  31.140  30.719  1.00  0.00    -0.354 N 
ATOM     58  N   UNL A   1      40.677  31.584  32.660  1.00  0.00    -0.248 NA
ATOM     59  C   UNL A   1      40.569  32.663  30.596  1.00  0.00     0.031 C 
ATOM     60  C   UNL A   1      44.943  29.300  31.822  1.00  0.00     0.029 A 
ATOM     61  C   UNL A   1      44.109  30.421  31.795  1.00  0.00     0.049 A 
ATOM     62  H   UNL A   1      44.547  32.119  30.620  1.00  0.00     0.167 HD
ATOM     63  C   UNL A   1      41.960  31.618  32.134  1.00  0.00     0.074 A 
ATOM     64  C   UNL A   1      41.843  32.404  30.907  1.00  0.00     0.031 C 
ATOM     65  C   UNL A   1      42.942  30.777  32.579  1.00  0.00     0.034 A 
BRANCH  52  66
ATOM     66  C   UNL A   1      45.252  31.558  27.602  1.00  0.00     0.023 A 
ATOM     67  C   UNL A   1      44.616  32.810  27.529  1.00  0.00     0.031 A 
ATOM     68  C   UNL A   1      46.548  31.495  27.044  1.00  0.00     0.131 A 
ATOM     69  C   UNL A   1      45.232  33.916  26.928  1.00  0.00     0.055 A 
ATOM     70  C   UNL A   1      47.189  32.616  26.499  1.00  0.00     0.041 A 
ATOM     71  F   UNL A   1      47.254  30.355  27.060  1.00  0.00    -0.206 F 
ATOM     72  C   UNL A   1      46.530  33.836  26.438  1.00  0.00     0.022 A 
BRANCH  69  73
ATOM     73  S   UNL A   1      44.343  35.489  26.784  1.00  0.00     0.124 S 
ATOM     74  O   UNL A   1      43.435  35.219  25.675  1.00  0.00    -0.237 OA
ATOM     75  O   UNL A   1      43.719  35.601  28.100  1.00  0.00    -0.237 OA
ATOM     76  O   UNL A   1      45.404  36.457  26.520  1.00  0.00    -0.744 OA
ENDBRANCH  69  73
ENDBRANCH  52  66
BRANCH  53  77
ATOM     77  C   UNL A   1      37.372  32.125  31.115  1.00  0.00     0.023 A 
ATOM     78  C   UNL A   1      36.636  32.652  32.195  1.00  0.00     0.031 A 
ATOM     79  C   UNL A   1      36.771  32.155  29.850  1.00  0.00     0.131 A 
ATOM     80  C   UNL A   1      35.343  33.150  32.007  1.00  0.00     0.055 A 
ATOM     81  C   UNL A   1      35.481  32.665  29.658  1.00  0.00     0.041 A 
ATOM     82  F   UNL A   1      37.400  31.634  28.785  1.00  0.00    -0.206 F 
ATOM     83  C   UNL A   1      34.757  33.157  30.741  1.00  0.00     0.022 A 
BRANCH  80  84
ATOM     84  S   UNL A   1      34.379  33.737  33.426  1.00  0.00     0.124 S 
ATOM     85  O   UNL A   1      33.106  33.042  33.246  1.00  0.00    -0.237 OA
ATOM     86  O   UNL A   1      35.193  33.279  34.547  1.00  0.00    -0.237 OA
ATOM     87  O   UNL A   1      34.324  35.183  33.229  1.00  0.00    -0.744 OA
ENDBRANCH  80  84
ENDBRANCH  53  77
BRANCH  65  88
ATOM     88  C   UNL A   1      42.688  29.929  33.811  1.00  0.00     0.023 A 
ATOM     89  C   UNL A   1      43.318  30.310  35.011  1.00  0.00     0.031 A 
ATOM     90  C   UNL A   1      42.069  28.663  33.783  1.00  0.00     0.131 A 
ATOM     91  C   UNL A   1      43.347  29.433  36.106  1.00  0.00     0.055 A 
ATOM     92  C   UNL A   1      42.035  27.825  34.902  1.00  0.00     0.041 A 
ATOM     93  F   UNL A   1      41.561  28.155  32.654  1.00  0.00    -0.206 F 
ATOM     94  C   UNL A   1      42.691  28.202  36.066  1.00  0.00     0.022 A 
BRANCH  91  95
ATOM     95  S   UNL A   1      44.388  29.798  37.544  1.00  0.00     0.124 S 
ATOM     96  O   UNL A   1      44.583  28.470  38.126  1.00  0.00    -0.237 OA
ATOM     97  O   UNL A   1      45.579  30.385  36.923  1.00  0.00    -0.237 OA
ATOM     98  O   UNL A   1      43.591  30.721  38.338  1.00  0.00    -0.744 OA
ENDBRANCH  91  95
ENDBRANCH  65  88
ENDBRANCH  39  40
ENDBRANCH  31  34
ENDBRANCH  29  30
ENDBRANCH  28  29
ENDBRANCH   1  28
TORSDOF 19
ENDMDL
