MODEL 1
REMARK VINA RESULT:     -11.1      0.000      0.000
REMARK SMILES CC(C)[C@@H](NC(=O)[C@@H]1CC[C@H]2CCCC[C@@H]2[NH2+]1)C(=O)NCCCCCCNC(=O)c1ccc(-c2c3nc(c(-c4cc(S(=O)(=O)[O-])ccc4F)c4ccc([nH]4)c(-c4cc(S(=O)(=O)[O-])ccc4F)c4nc(c(-c5cc(S(=O)(=O)[O-])ccc5F)c5ccc2[nH]5)C=C4)C=C3)cc1
REMARK SMILES IDX 24 1 23 2 22 3 21 4 20 5 18 6 19 7 4 9 2 10 1 11 3 12 5 13
REMARK SMILES IDX 6 14 7 16 8 17 9 18 17 19 10 20 16 21 11 24 15 25 12 26
REMARK SMILES IDX 14 27 13 28 25 29 26 30 27 31 28 32 29 34 30 35 31 36 92 37
REMARK SMILES IDX 32 38 91 39 33 40 34 41 35 42 85 43 36 44 90 45 84 46 86 47
REMARK SMILES IDX 37 48 89 49 83 50 82 51 38 53 70 54 50 55 69 56 51 57 54 58
REMARK SMILES IDX 68 59 87 60 52 61 53 62 67 64 88 65 55 66 39 67 40 68 48 69
REMARK SMILES IDX 41 70 47 71 49 72 46 73 42 74 43 75 44 76 45 77 71 78 72 79
REMARK SMILES IDX 80 80 73 81 79 82 81 83 78 84 74 85 75 86 76 87 77 88 56 89
REMARK SMILES IDX 57 90 65 91 58 92 64 93 66 94 63 95 59 96 60 97 61 98 62 99
REMARK H PARENT 20 8 5 15 17 22 17 23 27 33 86 52 54 63
REMARK Flexibility Score: inf
ROOT
ATOM      1  C   UNL A   1      31.662  30.658  26.291  1.00  0.00     0.002 C 
ENDROOT
BRANCH   1   2
ATOM      2  C   UNL A   1      31.908  29.463  27.217  1.00  0.00     0.002 C 
BRANCH   2   3
ATOM      3  C   UNL A   1      33.345  28.926  27.223  1.00  0.00     0.021 C 
BRANCH   3   4
ATOM      4  C   UNL A   1      33.595  27.888  26.144  1.00  0.00     0.116 C 
BRANCH   4   5
ATOM      5  N   UNL A   1      34.071  28.577  24.967  1.00  0.00    -0.354 N 
ATOM      6  C   UNL A   1      33.674  28.457  23.669  1.00  0.00     0.242 C 
ATOM      7  O   UNL A   1      34.384  28.910  22.775  1.00  0.00    -0.273 OA
ATOM      8  H   UNL A   1      34.789  29.231  25.126  1.00  0.00     0.163 HD
BRANCH   6   9
ATOM      9  C   UNL A   1      32.505  27.573  23.317  1.00  0.00     0.174 C 
BRANCH   9  10
ATOM     10  C   UNL A   1      31.184  28.423  23.487  1.00  0.00     0.015 C 
ATOM     11  C   UNL A   1      30.892  29.249  22.229  1.00  0.00     0.010 C 
ATOM     12  C   UNL A   1      29.903  27.591  23.759  1.00  0.00     0.010 C 
ENDBRANCH   9  10
BRANCH   9  13
ATOM     13  N   UNL A   1      32.664  26.940  21.992  1.00  0.00    -0.339 N 
ATOM     14  C   UNL A   1      31.990  25.844  21.508  1.00  0.00     0.278 C 
ATOM     15  H   UNL A   1      33.327  27.347  21.390  1.00  0.00     0.164 HD
ATOM     16  O   UNL A   1      31.498  26.024  20.381  1.00  0.00    -0.268 OA
BRANCH  14  17
ATOM     17  C   UNL A   1      31.988  24.373  22.095  1.00  0.00     0.272 C 
ATOM     18  C   UNL A   1      31.106  24.243  23.363  1.00  0.00     0.076 C 
ATOM     19  N   UNL A   1      33.263  23.626  22.145  1.00  0.00    -0.333 N 
ATOM     20  C   UNL A   1      31.861  24.179  24.697  1.00  0.00     0.016 C 
ATOM     21  C   UNL A   1      33.763  23.239  23.476  1.00  0.00     0.186 C 
ATOM     22  H   UNL A   1      33.977  24.209  21.707  1.00  0.00     0.347 HD
ATOM     23  H   UNL A   1      33.073  22.746  21.668  1.00  0.00     0.347 HD
ATOM     24  C   UNL A   1      33.366  24.305  24.491  1.00  0.00     0.048 C 
ATOM     25  C   UNL A   1      35.253  22.809  23.501  1.00  0.00     0.065 C 
ATOM     26  C   UNL A   1      34.164  24.168  25.781  1.00  0.00     0.010 C 
ATOM     27  C   UNL A   1      36.222  23.502  24.478  1.00  0.00     0.006 C 
ATOM     28  C   UNL A   1      35.615  24.492  25.465  1.00  0.00     0.001 C 
ENDBRANCH  14  17
ENDBRANCH   9  13
ENDBRANCH   6   9
ENDBRANCH   4   5
ENDBRANCH   3   4
ENDBRANCH   2   3
ENDBRANCH   1   2
BRANCH   1  29
ATOM     29  C   UNL A   1      31.476  32.004  26.993  1.00  0.00     0.021 C 
BRANCH  29  30
ATOM     30  C   UNL A   1      32.667  32.950  26.915  1.00  0.00     0.116 C 
BRANCH  30  31
ATOM     31  N   UNL A   1      32.456  34.204  27.607  1.00  0.00    -0.352 N 
ATOM     32  C   UNL A   1      33.184  34.706  28.668  1.00  0.00     0.251 C 
ATOM     33  H   UNL A   1      31.711  34.762  27.284  1.00  0.00     0.163 HD
ATOM     34  O   UNL A   1      32.856  35.739  29.213  1.00  0.00    -0.269 OA
BRANCH  32  35
ATOM     35  C   UNL A   1      34.342  33.916  29.156  1.00  0.00     0.039 A 
ATOM     36  C   UNL A   1      35.627  34.343  28.823  1.00  0.00     0.014 A 
ATOM     37  C   UNL A   1      34.156  32.810  29.994  1.00  0.00     0.014 A 
ATOM     38  C   UNL A   1      36.733  33.698  29.382  1.00  0.00     0.010 A 
ATOM     39  C   UNL A   1      35.258  32.211  30.600  1.00  0.00     0.010 A 
ATOM     40  C   UNL A   1      36.559  32.650  30.301  1.00  0.00    -0.014 A 
BRANCH  40  41
ATOM     41  C   UNL A   1      37.726  31.996  30.950  1.00  0.00     0.031 A 
ATOM     42  C   UNL A   1      38.507  30.948  30.206  1.00  0.00     0.074 A 
ATOM     43  C   UNL A   1      38.048  32.304  32.223  1.00  0.00     0.049 A 
ATOM     44  N   UNL A   1      39.511  30.216  30.616  1.00  0.00    -0.248 NA
ATOM     45  C   UNL A   1      38.081  30.666  28.827  1.00  0.00     0.031 C 
ATOM     46  C   UNL A   1      37.342  33.276  33.060  1.00  0.00     0.029 A 
ATOM     47  N   UNL A   1      39.046  31.829  33.036  1.00  0.00    -0.354 N 
ATOM     48  C   UNL A   1      39.830  29.379  29.551  1.00  0.00     0.074 A 
ATOM     49  C   UNL A   1      38.870  29.654  28.502  1.00  0.00     0.031 C 
ATOM     50  C   UNL A   1      37.942  33.339  34.261  1.00  0.00     0.029 A 
ATOM     51  C   UNL A   1      39.047  32.386  34.295  1.00  0.00     0.049 A 
ATOM     52  H   UNL A   1      39.700  31.153  32.747  1.00  0.00     0.167 HD
ATOM     53  C   UNL A   1      40.843  28.484  29.449  1.00  0.00     0.034 A 
ATOM     54  C   UNL A   1      39.840  32.147  35.359  1.00  0.00     0.034 A 
ATOM     55  C   UNL A   1      41.801  28.232  30.498  1.00  0.00     0.049 A 
ATOM     56  C   UNL A   1      40.948  31.130  35.229  1.00  0.00     0.074 A 
ATOM     57  C   UNL A   1      42.899  27.390  30.478  1.00  0.00     0.029 A 
ATOM     58  N   UNL A   1      41.771  28.815  31.758  1.00  0.00    -0.354 N 
ATOM     59  N   UNL A   1      41.267  30.385  34.196  1.00  0.00    -0.248 NA
ATOM     60  C   UNL A   1      41.805  30.931  36.404  1.00  0.00     0.031 C 
ATOM     61  C   UNL A   1      43.494  27.415  31.745  1.00  0.00     0.029 A 
ATOM     62  C   UNL A   1      42.811  28.328  32.534  1.00  0.00     0.049 A 
ATOM     63  H   UNL A   1      41.106  29.477  32.057  1.00  0.00     0.167 HD
ATOM     64  C   UNL A   1      42.381  29.649  34.590  1.00  0.00     0.074 A 
ATOM     65  C   UNL A   1      42.684  30.051  35.949  1.00  0.00     0.031 C 
ATOM     66  C   UNL A   1      43.093  28.729  33.892  1.00  0.00     0.034 A 
BRANCH  53  67
ATOM     67  C   UNL A   1      40.944  27.697  28.163  1.00  0.00     0.023 A 
ATOM     68  C   UNL A   1      40.485  26.372  28.071  1.00  0.00     0.031 A 
ATOM     69  C   UNL A   1      41.536  28.269  27.022  1.00  0.00     0.131 A 
ATOM     70  C   UNL A   1      40.698  25.636  26.895  1.00  0.00     0.055 A 
ATOM     71  C   UNL A   1      41.670  27.557  25.828  1.00  0.00     0.041 A 
ATOM     72  F   UNL A   1      42.011  29.524  27.054  1.00  0.00    -0.206 F 
ATOM     73  C   UNL A   1      41.266  26.228  25.765  1.00  0.00     0.022 A 
BRANCH  70  74
ATOM     74  S   UNL A   1      40.361  23.854  26.917  1.00  0.00     0.124 S 
ATOM     75  O   UNL A   1      39.026  23.800  26.325  1.00  0.00    -0.237 OA
ATOM     76  O   UNL A   1      41.445  23.318  26.100  1.00  0.00    -0.237 OA
ATOM     77  O   UNL A   1      40.420  23.511  28.336  1.00  0.00    -0.744 OA
ENDBRANCH  70  74
ENDBRANCH  53  67
BRANCH  54  78
ATOM     78  C   UNL A   1      39.619  32.868  36.645  1.00  0.00     0.023 A 
ATOM     79  C   UNL A   1      38.720  32.377  37.605  1.00  0.00     0.031 A 
ATOM     80  C   UNL A   1      40.274  34.083  36.915  1.00  0.00     0.131 A 
ATOM     81  C   UNL A   1      38.466  33.119  38.770  1.00  0.00     0.055 A 
ATOM     82  C   UNL A   1      40.055  34.792  38.097  1.00  0.00     0.041 A 
ATOM     83  F   UNL A   1      41.148  34.594  36.032  1.00  0.00    -0.206 F 
ATOM     84  C   UNL A   1      39.136  34.318  39.026  1.00  0.00     0.022 A 
BRANCH  81  85
ATOM     85  S   UNL A   1      37.181  32.534  39.909  1.00  0.00     0.124 S 
ATOM     86  O   UNL A   1      36.026  32.429  39.027  1.00  0.00    -0.237 OA
ATOM     87  O   UNL A   1      37.747  31.275  40.379  1.00  0.00    -0.237 OA
ATOM     88  O   UNL A   1      37.108  33.595  40.912  1.00  0.00    -0.744 OA
ENDBRANCH  81  85
ENDBRANCH  54  78
BRANCH  66  89
ATOM     89  C   UNL A   1      44.295  28.128  34.578  1.00  0.00     0.023 A 
ATOM     90  C   UNL A   1      44.194  26.969  35.367  1.00  0.00     0.031 A 
ATOM     91  C   UNL A   1      45.558  28.730  34.442  1.00  0.00     0.131 A 
ATOM     92  C   UNL A   1      45.327  26.477  36.031  1.00  0.00     0.055 A 
ATOM     93  C   UNL A   1      46.693  28.203  35.060  1.00  0.00     0.041 A 
ATOM     94  F   UNL A   1      45.711  29.839  33.701  1.00  0.00    -0.206 F 
ATOM     95  C   UNL A   1      46.579  27.077  35.870  1.00  0.00     0.022 A 
BRANCH  92  96
ATOM     96  S   UNL A   1      45.130  25.083  37.175  1.00  0.00     0.124 S 
ATOM     97  O   UNL A   1      46.434  25.039  37.828  1.00  0.00    -0.237 OA
ATOM     98  O   UNL A   1      44.013  25.518  38.009  1.00  0.00    -0.237 OA
ATOM     99  O   UNL A   1      44.839  23.954  36.294  1.00  0.00    -0.744 OA
ENDBRANCH  92  96
ENDBRANCH  66  89
ENDBRANCH  40  41
ENDBRANCH  32  35
ENDBRANCH  30  31
ENDBRANCH  29  30
ENDBRANCH   1  29
TORSDOF 19
ENDMDL
MODEL 2
REMARK VINA RESULT:     -11.0      5.107      8.590
REMARK SMILES CC(C)[C@@H](NC(=O)[C@@H]1CC[C@H]2CCCC[C@@H]2[NH2+]1)C(=O)NCCCCCCNC(=O)c1ccc(-c2c3nc(c(-c4cc(S(=O)(=O)[O-])ccc4F)c4ccc([nH]4)c(-c4cc(S(=O)(=O)[O-])ccc4F)c4nc(c(-c5cc(S(=O)(=O)[O-])ccc5F)c5ccc2[nH]5)C=C4)C=C3)cc1
REMARK SMILES IDX 24 1 23 2 22 3 21 4 20 5 18 6 19 7 4 9 2 10 1 11 3 12 5 13
REMARK SMILES IDX 6 14 7 16 8 17 9 18 17 19 10 20 16 21 11 24 15 25 12 26
REMARK SMILES IDX 14 27 13 28 25 29 26 30 27 31 28 32 29 34 30 35 31 36 92 37
REMARK SMILES IDX 32 38 91 39 33 40 34 41 35 42 85 43 36 44 90 45 84 46 86 47
REMARK SMILES IDX 37 48 89 49 83 50 82 51 38 53 70 54 50 55 69 56 51 57 54 58
REMARK SMILES IDX 68 59 87 60 52 61 53 62 67 64 88 65 55 66 39 67 40 68 48 69
REMARK SMILES IDX 41 70 47 71 49 72 46 73 42 74 43 75 44 76 45 77 71 78 72 79
REMARK SMILES IDX 80 80 73 81 79 82 81 83 78 84 74 85 75 86 76 87 77 88 56 89
REMARK SMILES IDX 57 90 65 91 58 92 64 93 66 94 63 95 59 96 60 97 61 98 62 99
REMARK H PARENT 20 8 5 15 17 22 17 23 27 33 86 52 54 63
REMARK Flexibility Score: inf
ROOT
ATOM      1  C   UNL A   1      35.657  20.375  24.930  1.00  0.00     0.002 C 
ENDROOT
BRANCH   1   2
ATOM      2  C   UNL A   1      34.191  20.041  25.224  1.00  0.00     0.002 C 
BRANCH   2   3
ATOM      3  C   UNL A   1      33.427  21.102  26.027  1.00  0.00     0.021 C 
BRANCH   3   4
ATOM      4  C   UNL A   1      32.216  21.644  25.290  1.00  0.00     0.116 C 
BRANCH   4   5
ATOM      5  N   UNL A   1      32.473  21.535  23.872  1.00  0.00    -0.354 N 
ATOM      6  C   UNL A   1      32.524  22.508  22.920  1.00  0.00     0.242 C 
ATOM      7  O   UNL A   1      32.469  22.196  21.733  1.00  0.00    -0.273 OA
ATOM      8  H   UNL A   1      32.636  20.621  23.546  1.00  0.00     0.163 HD
BRANCH   6   9
ATOM      9  C   UNL A   1      32.405  23.957  23.316  1.00  0.00     0.174 C 
BRANCH   9  10
ATOM     10  C   UNL A   1      33.865  24.542  23.465  1.00  0.00     0.015 C 
ATOM     11  C   UNL A   1      34.112  25.055  24.889  1.00  0.00     0.010 C 
ATOM     12  C   UNL A   1      35.006  23.533  23.171  1.00  0.00     0.010 C 
ENDBRANCH   9  10
BRANCH   9  13
ATOM     13  N   UNL A   1      31.527  24.715  22.400  1.00  0.00    -0.339 N 
ATOM     14  C   UNL A   1      31.146  26.031  22.514  1.00  0.00     0.278 C 
ATOM     15  H   UNL A   1      31.177  24.222  21.623  1.00  0.00     0.164 HD
ATOM     16  O   UNL A   1      31.317  26.687  21.472  1.00  0.00    -0.268 OA
BRANCH  14  17
ATOM     17  C   UNL A   1      30.322  26.700  23.689  1.00  0.00     0.272 C 
ATOM     18  C   UNL A   1      29.799  28.111  23.317  1.00  0.00     0.076 C 
ATOM     19  N   UNL A   1      30.822  26.566  25.074  1.00  0.00    -0.333 N 
ATOM     20  C   UNL A   1      30.568  29.290  23.930  1.00  0.00     0.016 C 
ATOM     21  C   UNL A   1      31.193  27.808  25.775  1.00  0.00     0.186 C 
ATOM     22  H   UNL A   1      31.651  25.972  25.044  1.00  0.00     0.347 HD
ATOM     23  H   UNL A   1      30.038  26.188  25.603  1.00  0.00     0.347 HD
ATOM     24  C   UNL A   1      31.747  28.809  24.767  1.00  0.00     0.048 C 
ATOM     25  C   UNL A   1      32.052  27.592  27.049  1.00  0.00     0.065 C 
ATOM     26  C   UNL A   1      32.493  29.941  25.462  1.00  0.00     0.010 C 
ATOM     27  C   UNL A   1      33.395  28.334  27.188  1.00  0.00     0.006 C 
ATOM     28  C   UNL A   1      33.737  29.349  26.105  1.00  0.00     0.001 C 
ENDBRANCH  14  17
ENDBRANCH   9  13
ENDBRANCH   6   9
ENDBRANCH   4   5
ENDBRANCH   3   4
ENDBRANCH   2   3
ENDBRANCH   1   2
BRANCH   1  29
ATOM     29  C   UNL A   1      36.263  21.484  25.792  1.00  0.00     0.021 C 
BRANCH  29  30
ATOM     30  C   UNL A   1      37.689  21.882  25.435  1.00  0.00     0.116 C 
BRANCH  30  31
ATOM     31  N   UNL A   1      38.677  20.889  25.803  1.00  0.00    -0.352 N 
ATOM     32  C   UNL A   1      39.863  21.101  26.478  1.00  0.00     0.251 C 
ATOM     33  H   UNL A   1      38.480  19.960  25.544  1.00  0.00     0.163 HD
ATOM     34  O   UNL A   1      40.646  20.192  26.658  1.00  0.00    -0.269 OA
BRANCH  32  35
ATOM     35  C   UNL A   1      40.175  22.482  26.924  1.00  0.00     0.039 A 
ATOM     36  C   UNL A   1      41.087  22.655  27.965  1.00  0.00     0.014 A 
ATOM     37  C   UNL A   1      39.629  23.590  26.268  1.00  0.00     0.014 A 
ATOM     38  C   UNL A   1      41.501  23.943  28.311  1.00  0.00     0.010 A 
ATOM     39  C   UNL A   1      40.092  24.869  26.570  1.00  0.00     0.010 A 
ATOM     40  C   UNL A   1      41.034  25.059  27.595  1.00  0.00    -0.014 A 
BRANCH  40  41
ATOM     41  C   UNL A   1      41.513  26.430  27.912  1.00  0.00     0.031 A 
ATOM     42  C   UNL A   1      42.907  26.845  27.526  1.00  0.00     0.074 A 
ATOM     43  C   UNL A   1      40.718  27.279  28.593  1.00  0.00     0.049 A 
ATOM     44  N   UNL A   1      43.534  27.967  27.769  1.00  0.00    -0.248 NA
ATOM     45  C   UNL A   1      43.709  25.853  26.796  1.00  0.00     0.031 C 
ATOM     46  C   UNL A   1      39.362  26.979  29.056  1.00  0.00     0.029 A 
ATOM     47  N   UNL A   1      40.936  28.565  29.020  1.00  0.00    -0.354 N 
ATOM     48  C   UNL A   1      44.808  27.813  27.232  1.00  0.00     0.074 A 
ATOM     49  C   UNL A   1      44.880  26.465  26.708  1.00  0.00     0.031 C 
ATOM     50  C   UNL A   1      38.862  28.056  29.684  1.00  0.00     0.029 A 
ATOM     51  C   UNL A   1      39.873  29.109  29.706  1.00  0.00     0.049 A 
ATOM     52  H   UNL A   1      41.774  29.053  28.852  1.00  0.00     0.167 HD
ATOM     53  C   UNL A   1      45.815  28.718  27.161  1.00  0.00     0.034 A 
ATOM     54  C   UNL A   1      39.734  30.314  30.295  1.00  0.00     0.034 A 
ATOM     55  C   UNL A   1      45.723  30.063  27.675  1.00  0.00     0.049 A 
ATOM     56  C   UNL A   1      40.876  31.298  30.223  1.00  0.00     0.074 A 
ATOM     57  C   UNL A   1      46.661  31.078  27.605  1.00  0.00     0.029 A 
ATOM     58  N   UNL A   1      44.632  30.578  28.363  1.00  0.00    -0.354 N 
ATOM     59  N   UNL A   1      42.056  31.153  29.665  1.00  0.00    -0.248 NA
ATOM     60  C   UNL A   1      40.662  32.608  30.850  1.00  0.00     0.031 C 
ATOM     61  C   UNL A   1      46.163  32.185  28.304  1.00  0.00     0.029 A 
ATOM     62  C   UNL A   1      44.885  31.885  28.749  1.00  0.00     0.049 A 
ATOM     63  H   UNL A   1      43.800  30.085  28.549  1.00  0.00     0.167 HD
ATOM     64  C   UNL A   1      42.713  32.365  29.851  1.00  0.00     0.074 A 
ATOM     65  C   UNL A   1      41.794  33.232  30.559  1.00  0.00     0.031 C 
ATOM     66  C   UNL A   1      43.962  32.732  29.467  1.00  0.00     0.034 A 
BRANCH  53  67
ATOM     67  C   UNL A   1      47.108  28.266  26.524  1.00  0.00     0.023 A 
ATOM     68  C   UNL A   1      47.292  28.289  25.130  1.00  0.00     0.031 A 
ATOM     69  C   UNL A   1      48.160  27.774  27.318  1.00  0.00     0.131 A 
ATOM     70  C   UNL A   1      48.461  27.755  24.568  1.00  0.00     0.055 A 
ATOM     71  C   UNL A   1      49.356  27.321  26.756  1.00  0.00     0.041 A 
ATOM     72  F   UNL A   1      48.037  27.709  28.653  1.00  0.00    -0.206 F 
ATOM     73  C   UNL A   1      49.505  27.294  25.373  1.00  0.00     0.022 A 
BRANCH  70  74
ATOM     74  S   UNL A   1      48.534  27.534  22.770  1.00  0.00     0.124 S 
ATOM     75  O   UNL A   1      47.333  28.246  22.337  1.00  0.00    -0.237 OA
ATOM     76  O   UNL A   1      49.806  28.159  22.426  1.00  0.00    -0.237 OA
ATOM     77  O   UNL A   1      48.484  26.084  22.599  1.00  0.00    -0.744 OA
ENDBRANCH  70  74
ENDBRANCH  53  67
BRANCH  54  78
ATOM     78  C   UNL A   1      38.476  30.663  31.016  1.00  0.00     0.023 A 
ATOM     79  C   UNL A   1      37.439  31.354  30.370  1.00  0.00     0.031 A 
ATOM     80  C   UNL A   1      38.311  30.346  32.376  1.00  0.00     0.131 A 
ATOM     81  C   UNL A   1      36.302  31.746  31.095  1.00  0.00     0.055 A 
ATOM     82  C   UNL A   1      37.156  30.694  33.079  1.00  0.00     0.041 A 
ATOM     83  F   UNL A   1      39.270  29.680  33.040  1.00  0.00    -0.206 F 
ATOM     84  C   UNL A   1      36.149  31.410  32.442  1.00  0.00     0.022 A 
BRANCH  81  85
ATOM     85  S   UNL A   1      35.057  32.776  30.268  1.00  0.00     0.124 S 
ATOM     86  O   UNL A   1      34.107  33.017  31.347  1.00  0.00    -0.237 OA
ATOM     87  O   UNL A   1      35.851  33.923  29.843  1.00  0.00    -0.237 OA
ATOM     88  O   UNL A   1      34.572  31.921  29.187  1.00  0.00    -0.744 OA
ENDBRANCH  81  85
ENDBRANCH  54  78
BRANCH  66  89
ATOM     89  C   UNL A   1      44.384  34.149  29.771  1.00  0.00     0.023 A 
ATOM     90  C   UNL A   1      44.239  35.182  28.831  1.00  0.00     0.031 A 
ATOM     91  C   UNL A   1      44.943  34.463  31.023  1.00  0.00     0.131 A 
ATOM     92  C   UNL A   1      44.696  36.473  29.137  1.00  0.00     0.055 A 
ATOM     93  C   UNL A   1      45.345  35.761  31.342  1.00  0.00     0.041 A 
ATOM     94  F   UNL A   1      45.105  33.513  31.958  1.00  0.00    -0.206 F 
ATOM     95  C   UNL A   1      45.233  36.773  30.392  1.00  0.00     0.022 A 
BRANCH  92  96
ATOM     96  S   UNL A   1      44.652  37.743  27.843  1.00  0.00     0.124 S 
ATOM     97  O   UNL A   1      45.290  37.058  26.723  1.00  0.00    -0.237 OA
ATOM     98  O   UNL A   1      43.222  37.998  27.703  1.00  0.00    -0.237 OA
ATOM     99  O   UNL A   1      45.423  38.845  28.417  1.00  0.00    -0.744 OA
ENDBRANCH  92  96
ENDBRANCH  66  89
ENDBRANCH  40  41
ENDBRANCH  32  35
ENDBRANCH  30  31
ENDBRANCH  29  30
ENDBRANCH   1  29
TORSDOF 19
ENDMDL
MODEL 3
REMARK VINA RESULT:     -11.0      1.692      2.271
REMARK SMILES CC(C)[C@@H](NC(=O)[C@@H]1CC[C@H]2CCCC[C@@H]2[NH2+]1)C(=O)NCCCCCCNC(=O)c1ccc(-c2c3nc(c(-c4cc(S(=O)(=O)[O-])ccc4F)c4ccc([nH]4)c(-c4cc(S(=O)(=O)[O-])ccc4F)c4nc(c(-c5cc(S(=O)(=O)[O-])ccc5F)c5ccc2[nH]5)C=C4)C=C3)cc1
REMARK SMILES IDX 24 1 23 2 22 3 21 4 20 5 18 6 19 7 4 9 2 10 1 11 3 12 5 13
REMARK SMILES IDX 6 14 7 16 8 17 9 18 17 19 10 20 16 21 11 24 15 25 12 26
REMARK SMILES IDX 14 27 13 28 25 29 26 30 27 31 28 32 29 34 30 35 31 36 92 37
REMARK SMILES IDX 32 38 91 39 33 40 34 41 35 42 85 43 36 44 90 45 84 46 86 47
REMARK SMILES IDX 37 48 89 49 83 50 82 51 38 53 70 54 50 55 69 56 51 57 54 58
REMARK SMILES IDX 68 59 87 60 52 61 53 62 67 64 88 65 55 66 39 67 40 68 48 69
REMARK SMILES IDX 41 70 47 71 49 72 46 73 42 74 43 75 44 76 45 77 71 78 72 79
REMARK SMILES IDX 80 80 73 81 79 82 81 83 78 84 74 85 75 86 76 87 77 88 56 89
REMARK SMILES IDX 57 90 65 91 58 92 64 93 66 94 63 95 59 96 60 97 61 98 62 99
REMARK H PARENT 20 8 5 15 17 22 17 23 27 33 86 52 54 63
REMARK Flexibility Score: inf
ROOT
ATOM      1  C   UNL A   1      32.170  29.371  27.090  1.00  0.00     0.002 C 
ENDROOT
BRANCH   1   2
ATOM      2  C   UNL A   1      33.547  28.715  26.955  1.00  0.00     0.002 C 
BRANCH   2   3
ATOM      3  C   UNL A   1      34.001  28.438  25.516  1.00  0.00     0.021 C 
BRANCH   3   4
ATOM      4  C   UNL A   1      33.767  27.001  25.088  1.00  0.00     0.116 C 
BRANCH   4   5
ATOM      5  N   UNL A   1      33.875  26.942  23.649  1.00  0.00    -0.354 N 
ATOM      6  C   UNL A   1      33.357  26.037  22.773  1.00  0.00     0.242 C 
ATOM      7  O   UNL A   1      33.791  25.988  21.625  1.00  0.00    -0.273 OA
ATOM      8  H   UNL A   1      34.402  27.666  23.239  1.00  0.00     0.163 HD
BRANCH   6   9
ATOM      9  C   UNL A   1      32.438  24.950  23.269  1.00  0.00     0.174 C 
BRANCH   9  10
ATOM     10  C   UNL A   1      30.950  25.441  23.066  1.00  0.00     0.015 C 
ATOM     11  C   UNL A   1      30.123  25.242  24.341  1.00  0.00     0.010 C 
ATOM     12  C   UNL A   1      30.802  26.939  22.690  1.00  0.00     0.010 C 
ENDBRANCH   9  10
BRANCH   9  13
ATOM     13  N   UNL A   1      32.744  23.640  22.660  1.00  0.00    -0.339 N 
ATOM     14  C   UNL A   1      32.390  22.399  23.134  1.00  0.00     0.278 C 
ATOM     15  H   UNL A   1      33.258  23.657  21.821  1.00  0.00     0.164 HD
ATOM     16  O   UNL A   1      31.849  21.677  22.279  1.00  0.00    -0.268 OA
BRANCH  14  17
ATOM     17  C   UNL A   1      32.805  21.737  24.512  1.00  0.00     0.272 C 
ATOM     18  C   UNL A   1      32.506  22.656  25.724  1.00  0.00     0.076 C 
ATOM     19  N   UNL A   1      34.084  21.000  24.590  1.00  0.00    -0.333 N 
ATOM     20  C   UNL A   1      33.720  23.369  26.336  1.00  0.00     0.016 C 
ATOM     21  C   UNL A   1      35.105  21.525  25.515  1.00  0.00     0.186 C 
ATOM     22  H   UNL A   1      34.492  20.994  23.655  1.00  0.00     0.347 HD
ATOM     23  H   UNL A   1      33.839  20.084  24.961  1.00  0.00     0.347 HD
ATOM     24  C   UNL A   1      34.998  23.045  25.572  1.00  0.00     0.048 C 
ATOM     25  C   UNL A   1      36.531  20.960  25.282  1.00  0.00     0.065 C 
ATOM     26  C   UNL A   1      36.244  23.666  26.191  1.00  0.00     0.010 C 
ATOM     27  C   UNL A   1      37.704  21.936  25.073  1.00  0.00     0.006 C 
ATOM     28  C   UNL A   1      37.405  23.420  25.241  1.00  0.00     0.001 C 
ENDBRANCH  14  17
ENDBRANCH   9  13
ENDBRANCH   6   9
ENDBRANCH   4   5
ENDBRANCH   3   4
ENDBRANCH   2   3
ENDBRANCH   1   2
BRANCH   1  29
ATOM     29  C   UNL A   1      32.106  30.850  26.707  1.00  0.00     0.021 C 
BRANCH  29  30
ATOM     30  C   UNL A   1      33.183  31.731  27.325  1.00  0.00     0.116 C 
BRANCH  30  31
ATOM     31  N   UNL A   1      32.780  33.112  27.484  1.00  0.00    -0.352 N 
ATOM     32  C   UNL A   1      33.321  34.046  28.346  1.00  0.00     0.251 C 
ATOM     33  H   UNL A   1      32.040  33.420  26.914  1.00  0.00     0.163 HD
ATOM     34  O   UNL A   1      32.840  35.156  28.441  1.00  0.00    -0.269 OA
BRANCH  32  35
ATOM     35  C   UNL A   1      34.468  33.634  29.192  1.00  0.00     0.039 A 
ATOM     36  C   UNL A   1      34.241  32.724  30.225  1.00  0.00     0.014 A 
ATOM     37  C   UNL A   1      35.764  34.085  28.916  1.00  0.00     0.014 A 
ATOM     38  C   UNL A   1      35.324  32.216  30.946  1.00  0.00     0.010 A 
ATOM     39  C   UNL A   1      36.847  33.528  29.593  1.00  0.00     0.010 A 
ATOM     40  C   UNL A   1      36.639  32.586  30.614  1.00  0.00    -0.014 A 
BRANCH  40  41
ATOM     41  C   UNL A   1      37.804  32.006  31.333  1.00  0.00     0.031 A 
ATOM     42  C   UNL A   1      38.618  30.918  30.687  1.00  0.00     0.074 A 
ATOM     43  C   UNL A   1      38.096  32.418  32.583  1.00  0.00     0.049 A 
ATOM     44  N   UNL A   1      39.626  30.239  31.171  1.00  0.00    -0.248 NA
ATOM     45  C   UNL A   1      38.223  30.522  29.327  1.00  0.00     0.031 C 
ATOM     46  C   UNL A   1      37.358  33.439  33.330  1.00  0.00     0.029 A 
ATOM     47  N   UNL A   1      39.086  32.027  33.449  1.00  0.00    -0.354 N 
ATOM     48  C   UNL A   1      39.979  29.329  30.180  1.00  0.00     0.074 A 
ATOM     49  C   UNL A   1      39.035  29.503  29.096  1.00  0.00     0.031 C 
ATOM     50  C   UNL A   1      37.933  33.606  34.532  1.00  0.00     0.029 A 
ATOM     51  C   UNL A   1      39.053  32.679  34.661  1.00  0.00     0.049 A 
ATOM     52  H   UNL A   1      39.757  31.342  33.225  1.00  0.00     0.167 HD
ATOM     53  C   UNL A   1      41.009  28.447  30.166  1.00  0.00     0.034 A 
ATOM     54  C   UNL A   1      39.830  32.538  35.754  1.00  0.00     0.034 A 
ATOM     55  C   UNL A   1      41.951  28.295  31.248  1.00  0.00     0.049 A 
ATOM     56  C   UNL A   1      40.957  31.535  35.724  1.00  0.00     0.074 A 
ATOM     57  C   UNL A   1      43.063  27.475  31.314  1.00  0.00     0.029 A 
ATOM     58  N   UNL A   1      41.886  28.973  32.459  1.00  0.00    -0.354 N 
ATOM     59  N   UNL A   1      41.309  30.718  34.758  1.00  0.00    -0.248 NA
ATOM     60  C   UNL A   1      41.795  31.443  36.926  1.00  0.00     0.031 C 
ATOM     61  C   UNL A   1      43.633  27.609  32.586  1.00  0.00     0.029 A 
ATOM     62  C   UNL A   1      42.919  28.567  33.289  1.00  0.00     0.049 A 
ATOM     63  H   UNL A   1      41.205  29.644  32.693  1.00  0.00     0.167 HD
ATOM     64  C   UNL A   1      42.427  30.036  35.228  1.00  0.00     0.074 A 
ATOM     65  C   UNL A   1      42.698  30.547  36.556  1.00  0.00     0.031 C 
ATOM     66  C   UNL A   1      43.168  29.078  34.616  1.00  0.00     0.034 A 
BRANCH  53  67
ATOM     67  C   UNL A   1      41.148  27.565  28.947  1.00  0.00     0.023 A 
ATOM     68  C   UNL A   1      42.159  27.778  27.994  1.00  0.00     0.031 A 
ATOM     69  C   UNL A   1      40.238  26.518  28.717  1.00  0.00     0.131 A 
ATOM     70  C   UNL A   1      42.188  27.012  26.819  1.00  0.00     0.055 A 
ATOM     71  C   UNL A   1      40.322  25.705  27.585  1.00  0.00     0.041 A 
ATOM     72  F   UNL A   1      39.238  26.278  29.581  1.00  0.00    -0.206 F 
ATOM     73  C   UNL A   1      41.291  25.960  26.620  1.00  0.00     0.022 A 
BRANCH  70  74
ATOM     74  S   UNL A   1      43.318  27.508  25.490  1.00  0.00     0.124 S 
ATOM     75  O   UNL A   1      44.076  26.278  25.274  1.00  0.00    -0.237 OA
ATOM     76  O   UNL A   1      42.400  27.888  24.421  1.00  0.00    -0.237 OA
ATOM     77  O   UNL A   1      44.080  28.606  26.079  1.00  0.00    -0.744 OA
ENDBRANCH  70  74
ENDBRANCH  53  67
BRANCH  54  78
ATOM     78  C   UNL A   1      39.571  33.353  36.976  1.00  0.00     0.023 A 
ATOM     79  C   UNL A   1      38.853  32.824  38.060  1.00  0.00     0.031 A 
ATOM     80  C   UNL A   1      40.004  34.689  37.059  1.00  0.00     0.131 A 
ATOM     81  C   UNL A   1      38.550  33.639  39.162  1.00  0.00     0.055 A 
ATOM     82  C   UNL A   1      39.743  35.480  38.179  1.00  0.00     0.041 A 
ATOM     83  F   UNL A   1      40.699  35.242  36.052  1.00  0.00    -0.206 F 
ATOM     84  C   UNL A   1      39.000  34.959  39.233  1.00  0.00     0.022 A 
BRANCH  81  85
ATOM     85  S   UNL A   1      37.485  32.970  40.470  1.00  0.00     0.124 S 
ATOM     86  O   UNL A   1      38.198  31.754  40.841  1.00  0.00    -0.237 OA
ATOM     87  O   UNL A   1      37.501  34.048  41.452  1.00  0.00    -0.237 OA
ATOM     88  O   UNL A   1      36.206  32.763  39.794  1.00  0.00    -0.744 OA
ENDBRANCH  81  85
ENDBRANCH  54  78
BRANCH  66  89
ATOM     89  C   UNL A   1      44.367  28.554  35.369  1.00  0.00     0.023 A 
ATOM     90  C   UNL A   1      44.252  27.528  36.321  1.00  0.00     0.031 A 
ATOM     91  C   UNL A   1      45.642  29.097  35.128  1.00  0.00     0.131 A 
ATOM     92  C   UNL A   1      45.384  27.110  37.037  1.00  0.00     0.055 A 
ATOM     93  C   UNL A   1      46.774  28.639  35.804  1.00  0.00     0.041 A 
ATOM     94  F   UNL A   1      45.808  30.080  34.229  1.00  0.00    -0.206 F 
ATOM     95  C   UNL A   1      46.647  27.648  36.773  1.00  0.00     0.022 A 
BRANCH  92  96
ATOM     96  S   UNL A   1      45.172  25.907  38.378  1.00  0.00     0.124 S 
ATOM     97  O   UNL A   1      44.243  26.599  39.264  1.00  0.00    -0.237 OA
ATOM     98  O   UNL A   1      44.637  24.745  37.674  1.00  0.00    -0.237 OA
ATOM     99  O   UNL A   1      46.526  25.740  38.906  1.00  0.00    -0.744 OA
ENDBRANCH  92  96
ENDBRANCH  66  89
ENDBRANCH  40  41
ENDBRANCH  32  35
ENDBRANCH  30  31
ENDBRANCH  29  30
ENDBRANCH   1  29
TORSDOF 19
ENDMDL
