MODEL 1
REMARK VINA RESULT:     -10.6      0.000      0.000
REMARK SMILES C[C@@H]1[C@@H](C(=O)NCCCCCCNC(=O)c2ccc(-c3c4nc(c(-c5cc(S(=O)(=O)[O-])ccc5F)c5ccc([nH]5)c(-c5cc(S(=O)(=O)[O-])ccc5F)c5nc(c(-c6cc(S(=O)(=O)[O-])ccc6F)c6ccc3[nH]6)C=C5)C=C4)cc2)CCN1C(=O)N(C)Cc1ccsc1
REMARK SMILES IDX 9 1 8 2 7 3 6 4 4 5 5 6 3 8 1 9 2 10 81 11 79 12 80 13 82 14
REMARK SMILES IDX 83 15 84 16 85 17 86 18 87 19 88 20 91 21 89 22 90 23 10 24
REMARK SMILES IDX 11 25 12 26 13 27 14 28 15 30 16 31 17 32 78 33 18 34 77 35
REMARK SMILES IDX 19 36 20 37 21 38 71 39 22 40 76 41 70 42 72 43 23 44 75 45
REMARK SMILES IDX 69 46 68 47 24 49 56 50 36 51 55 52 37 53 40 54 54 55 73 56
REMARK SMILES IDX 38 57 39 58 53 60 74 61 41 62 25 63 26 64 34 65 27 66 33 67
REMARK SMILES IDX 35 68 32 69 28 70 29 71 30 72 31 73 57 74 58 75 66 76 59 77
REMARK SMILES IDX 65 78 67 79 64 80 60 81 61 82 62 83 63 84 42 85 43 86 51 87
REMARK SMILES IDX 44 88 50 89 52 90 49 91 45 92 46 93 47 94 48 95
REMARK H PARENT 6 7 13 29 72 48 40 59
REMARK Flexibility Score: inf
ROOT
ATOM      1  C   UNL A   1      31.664  29.027  25.882  1.00  0.00     0.002 C 
ENDROOT
BRANCH   1   2
ATOM      2  C   UNL A   1      31.799  29.691  24.507  1.00  0.00     0.021 C 
BRANCH   2   3
ATOM      3  C   UNL A   1      31.542  28.777  23.315  1.00  0.00     0.116 C 
BRANCH   3   4
ATOM      4  N   UNL A   1      30.616  27.711  23.629  1.00  0.00    -0.356 N 
ATOM      5  C   UNL A   1      30.823  26.367  23.682  1.00  0.00     0.225 C 
ATOM      6  O   UNL A   1      29.849  25.657  23.933  1.00  0.00    -0.275 OA
ATOM      7  H   UNL A   1      29.698  28.001  23.838  1.00  0.00     0.163 HD
BRANCH   5   8
ATOM      8  C   UNL A   1      32.205  25.799  23.354  1.00  0.00     0.102 C 
ATOM      9  C   UNL A   1      33.263  23.668  22.482  1.00  0.00     0.032 C 
ATOM     10  C   UNL A   1      32.180  24.251  23.401  1.00  0.00     0.096 C 
ATOM     11  N   UNL A   1      32.440  23.932  24.812  1.00  0.00    -0.321 N 
ATOM     12  C   UNL A   1      33.267  26.122  24.404  1.00  0.00     0.037 C 
ATOM     13  C   UNL A   1      32.994  25.101  25.487  1.00  0.00     0.122 C 
BRANCH  11  14
ATOM     14  C   UNL A   1      32.139  22.871  25.619  1.00  0.00     0.320 C 
ATOM     15  O   UNL A   1      30.946  22.554  25.735  1.00  0.00    -0.248 OA
BRANCH  14  16
ATOM     16  N   UNL A   1      33.082  22.186  26.352  1.00  0.00    -0.323 N 
ATOM     17  C   UNL A   1      33.387  22.190  27.771  1.00  0.00     0.149 C 
BRANCH  16  18
ATOM     18  C   UNL A   1      33.958  21.313  25.567  1.00  0.00     0.157 C 
BRANCH  18  19
ATOM     19  C   UNL A   1      35.400  21.767  25.602  1.00  0.00    -0.018 A 
ATOM     20  C   UNL A   1      35.783  23.127  25.871  1.00  0.00     0.017 A 
ATOM     21  C   UNL A   1      36.526  21.001  25.344  1.00  0.00     0.070 A 
ATOM     22  C   UNL A   1      37.143  23.330  25.788  1.00  0.00     0.065 A 
ATOM     23  S   UNL A   1      37.983  21.893  25.412  1.00  0.00    -0.152 S 
ENDBRANCH  18  19
ENDBRANCH  16  18
ENDBRANCH  14  16
ENDBRANCH  11  14
ENDBRANCH   5   8
ENDBRANCH   3   4
ENDBRANCH   2   3
ENDBRANCH   1   2
BRANCH   1  24
ATOM     24  C   UNL A   1      31.811  29.952  27.092  1.00  0.00     0.002 C 
BRANCH  24  25
ATOM     25  C   UNL A   1      31.642  31.448  26.814  1.00  0.00     0.021 C 
BRANCH  25  26
ATOM     26  C   UNL A   1      32.899  32.293  26.984  1.00  0.00     0.116 C 
BRANCH  26  27
ATOM     27  N   UNL A   1      32.614  33.633  27.459  1.00  0.00    -0.352 N 
ATOM     28  C   UNL A   1      33.174  34.330  28.501  1.00  0.00     0.251 C 
ATOM     29  H   UNL A   1      31.915  34.115  26.961  1.00  0.00     0.163 HD
ATOM     30  O   UNL A   1      32.687  35.404  28.837  1.00  0.00    -0.269 OA
BRANCH  28  31
ATOM     31  C   UNL A   1      34.337  33.776  29.233  1.00  0.00     0.039 A 
ATOM     32  C   UNL A   1      34.106  32.815  30.220  1.00  0.00     0.014 A 
ATOM     33  C   UNL A   1      35.642  34.208  28.974  1.00  0.00     0.014 A 
ATOM     34  C   UNL A   1      35.183  32.253  30.911  1.00  0.00     0.010 A 
ATOM     35  C   UNL A   1      36.720  33.593  29.610  1.00  0.00     0.010 A 
ATOM     36  C   UNL A   1      36.501  32.616  30.594  1.00  0.00    -0.014 A 
BRANCH  36  37
ATOM     37  C   UNL A   1      37.652  31.993  31.300  1.00  0.00     0.031 A 
ATOM     38  C   UNL A   1      38.430  30.880  30.649  1.00  0.00     0.074 A 
ATOM     39  C   UNL A   1      37.978  32.410  32.540  1.00  0.00     0.049 A 
ATOM     40  N   UNL A   1      39.447  30.200  31.112  1.00  0.00    -0.248 NA
ATOM     41  C   UNL A   1      37.988  30.461  29.311  1.00  0.00     0.031 C 
ATOM     42  C   UNL A   1      37.276  33.453  33.291  1.00  0.00     0.029 A 
ATOM     43  N   UNL A   1      38.981  32.012  33.388  1.00  0.00    -0.354 N 
ATOM     44  C   UNL A   1      39.763  29.270  30.127  1.00  0.00     0.074 A 
ATOM     45  C   UNL A   1      38.785  29.430  29.073  1.00  0.00     0.031 C 
ATOM     46  C   UNL A   1      37.890  33.635  34.471  1.00  0.00     0.029 A 
ATOM     47  C   UNL A   1      38.999  32.694  34.583  1.00  0.00     0.049 A 
ATOM     48  H   UNL A   1      39.628  31.304  33.162  1.00  0.00     0.167 HD
ATOM     49  C   UNL A   1      40.790  28.382  30.092  1.00  0.00     0.034 A 
ATOM     50  C   UNL A   1      39.814  32.572  35.651  1.00  0.00     0.034 A 
ATOM     51  C   UNL A   1      41.763  28.242  31.148  1.00  0.00     0.049 A 
ATOM     52  C   UNL A   1      40.929  31.557  35.601  1.00  0.00     0.074 A 
ATOM     53  C   UNL A   1      42.871  27.414  31.195  1.00  0.00     0.029 A 
ATOM     54  N   UNL A   1      41.740  28.939  32.350  1.00  0.00    -0.354 N 
ATOM     55  N   UNL A   1      41.247  30.724  34.638  1.00  0.00    -0.248 NA
ATOM     56  C   UNL A   1      41.802  31.477  36.779  1.00  0.00     0.031 C 
ATOM     57  C   UNL A   1      43.475  27.556  32.448  1.00  0.00     0.029 A 
ATOM     58  C   UNL A   1      42.793  28.533  33.157  1.00  0.00     0.049 A 
ATOM     59  H   UNL A   1      41.074  29.621  32.594  1.00  0.00     0.167 HD
ATOM     60  C   UNL A   1      42.376  30.042  35.083  1.00  0.00     0.074 A 
ATOM     61  C   UNL A   1      42.693  30.576  36.393  1.00  0.00     0.031 C 
ATOM     62  C   UNL A   1      43.089  29.063  34.468  1.00  0.00     0.034 A 
BRANCH  49  63
ATOM     63  C   UNL A   1      40.892  27.483  28.882  1.00  0.00     0.023 A 
ATOM     64  C   UNL A   1      41.874  27.682  27.894  1.00  0.00     0.031 A 
ATOM     65  C   UNL A   1      39.983  26.427  28.699  1.00  0.00     0.131 A 
ATOM     66  C   UNL A   1      41.875  26.890  26.736  1.00  0.00     0.055 A 
ATOM     67  C   UNL A   1      40.042  25.588  27.583  1.00  0.00     0.041 A 
ATOM     68  F   UNL A   1      39.009  26.199  29.595  1.00  0.00    -0.206 F 
ATOM     69  C   UNL A   1      40.982  25.827  26.586  1.00  0.00     0.022 A 
BRANCH  66  70
ATOM     70  S   UNL A   1      42.960  27.366  25.362  1.00  0.00     0.124 S 
ATOM     71  O   UNL A   1      43.108  26.099  24.652  1.00  0.00    -0.237 OA
ATOM     72  O   UNL A   1      42.178  28.393  24.684  1.00  0.00    -0.237 OA
ATOM     73  O   UNL A   1      44.169  27.843  26.031  1.00  0.00    -0.744 OA
ENDBRANCH  66  70
ENDBRANCH  49  63
BRANCH  50  74
ATOM     74  C   UNL A   1      39.609  33.419  36.862  1.00  0.00     0.023 A 
ATOM     75  C   UNL A   1      39.005  32.897  38.016  1.00  0.00     0.031 A 
ATOM     76  C   UNL A   1      39.969  34.779  36.863  1.00  0.00     0.131 A 
ATOM     77  C   UNL A   1      38.731  33.741  39.105  1.00  0.00     0.055 A 
ATOM     78  C   UNL A   1      39.747  35.600  37.970  1.00  0.00     0.041 A 
ATOM     79  F   UNL A   1      40.552  35.328  35.785  1.00  0.00    -0.206 F 
ATOM     80  C   UNL A   1      39.111  35.084  39.095  1.00  0.00     0.022 A 
BRANCH  77  81
ATOM     81  S   UNL A   1      37.784  33.076  40.501  1.00  0.00     0.124 S 
ATOM     82  O   UNL A   1      38.085  34.043  41.551  1.00  0.00    -0.237 OA
ATOM     83  O   UNL A   1      36.422  33.096  39.980  1.00  0.00    -0.237 OA
ATOM     84  O   UNL A   1      38.354  31.744  40.696  1.00  0.00    -0.744 OA
ENDBRANCH  77  81
ENDBRANCH  50  74
BRANCH  62  85
ATOM     85  C   UNL A   1      44.303  28.539  35.198  1.00  0.00     0.023 A 
ATOM     86  C   UNL A   1      44.250  27.372  35.980  1.00  0.00     0.031 A 
ATOM     87  C   UNL A   1      45.527  29.228  35.121  1.00  0.00     0.131 A 
ATOM     88  C   UNL A   1      45.380  26.966  36.705  1.00  0.00     0.055 A 
ATOM     89  C   UNL A   1      46.666  28.781  35.793  1.00  0.00     0.041 A 
ATOM     90  F   UNL A   1      45.636  30.350  34.391  1.00  0.00    -0.206 F 
ATOM     91  C   UNL A   1      46.592  27.652  36.602  1.00  0.00     0.022 A 
BRANCH  88  92
ATOM     92  S   UNL A   1      45.215  25.582  37.867  1.00  0.00     0.124 S 
ATOM     93  O   UNL A   1      46.376  24.764  37.532  1.00  0.00    -0.237 OA
ATOM     94  O   UNL A   1      45.262  26.254  39.162  1.00  0.00    -0.237 OA
ATOM     95  O   UNL A   1      43.922  24.995  37.521  1.00  0.00    -0.744 OA
ENDBRANCH  88  92
ENDBRANCH  62  85
ENDBRANCH  36  37
ENDBRANCH  28  31
ENDBRANCH  26  27
ENDBRANCH  25  26
ENDBRANCH  24  25
ENDBRANCH   1  24
TORSDOF 20
ENDMDL
MODEL 2
REMARK VINA RESULT:     -10.4      1.628      2.052
REMARK SMILES C[C@@H]1[C@@H](C(=O)NCCCCCCNC(=O)c2ccc(-c3c4nc(c(-c5cc(S(=O)(=O)[O-])ccc5F)c5ccc([nH]5)c(-c5cc(S(=O)(=O)[O-])ccc5F)c5nc(c(-c6cc(S(=O)(=O)[O-])ccc6F)c6ccc3[nH]6)C=C5)C=C4)cc2)CCN1C(=O)N(C)Cc1ccsc1
REMARK SMILES IDX 9 1 8 2 7 3 6 4 4 5 5 6 3 8 1 9 2 10 81 11 79 12 80 13 82 14
REMARK SMILES IDX 83 15 84 16 85 17 86 18 87 19 88 20 91 21 89 22 90 23 10 24
REMARK SMILES IDX 11 25 12 26 13 27 14 28 15 30 16 31 17 32 78 33 18 34 77 35
REMARK SMILES IDX 19 36 20 37 21 38 71 39 22 40 76 41 70 42 72 43 23 44 75 45
REMARK SMILES IDX 69 46 68 47 24 49 56 50 36 51 55 52 37 53 40 54 54 55 73 56
REMARK SMILES IDX 38 57 39 58 53 60 74 61 41 62 25 63 26 64 34 65 27 66 33 67
REMARK SMILES IDX 35 68 32 69 28 70 29 71 30 72 31 73 57 74 58 75 66 76 59 77
REMARK SMILES IDX 65 78 67 79 64 80 60 81 61 82 62 83 63 84 42 85 43 86 51 87
REMARK SMILES IDX 44 88 50 89 52 90 49 91 45 92 46 93 47 94 48 95
REMARK H PARENT 6 7 13 29 72 48 40 59
REMARK Flexibility Score: inf
ROOT
ATOM      1  C   UNL A   1      31.534  28.984  25.951  1.00  0.00     0.002 C 
ENDROOT
BRANCH   1   2
ATOM      2  C   UNL A   1      31.526  29.601  24.548  1.00  0.00     0.021 C 
BRANCH   2   3
ATOM      3  C   UNL A   1      31.116  28.658  23.424  1.00  0.00     0.116 C 
BRANCH   3   4
ATOM      4  N   UNL A   1      30.426  27.485  23.915  1.00  0.00    -0.356 N 
ATOM      5  C   UNL A   1      30.813  26.181  23.905  1.00  0.00     0.225 C 
ATOM      6  O   UNL A   1      30.017  25.354  24.349  1.00  0.00    -0.275 OA
ATOM      7  H   UNL A   1      29.543  27.656  24.319  1.00  0.00     0.163 HD
BRANCH   5   8
ATOM      8  C   UNL A   1      32.155  25.793  23.282  1.00  0.00     0.102 C 
ATOM      9  C   UNL A   1      33.326  23.763  22.318  1.00  0.00     0.032 C 
ATOM     10  C   UNL A   1      32.406  24.272  23.436  1.00  0.00     0.096 C 
ATOM     11  N   UNL A   1      33.040  24.147  24.757  1.00  0.00    -0.321 N 
ATOM     12  C   UNL A   1      33.363  26.380  24.011  1.00  0.00     0.037 C 
ATOM     13  C   UNL A   1      33.529  25.449  25.193  1.00  0.00     0.122 C 
BRANCH  11  14
ATOM     14  C   UNL A   1      33.121  23.144  25.682  1.00  0.00     0.320 C 
ATOM     15  O   UNL A   1      32.384  23.215  26.676  1.00  0.00    -0.248 OA
BRANCH  14  16
ATOM     16  N   UNL A   1      34.020  22.105  25.594  1.00  0.00    -0.323 N 
ATOM     17  C   UNL A   1      35.379  22.048  25.086  1.00  0.00     0.149 C 
BRANCH  16  18
ATOM     18  C   UNL A   1      33.518  20.814  26.072  1.00  0.00     0.157 C 
BRANCH  18  19
ATOM     19  C   UNL A   1      33.113  19.901  24.937  1.00  0.00    -0.018 A 
ATOM     20  C   UNL A   1      32.472  20.380  23.742  1.00  0.00     0.017 A 
ATOM     21  C   UNL A   1      33.238  18.521  24.886  1.00  0.00     0.070 A 
ATOM     22  C   UNL A   1      32.132  19.369  22.871  1.00  0.00     0.065 A 
ATOM     23  S   UNL A   1      32.595  17.835  23.458  1.00  0.00    -0.152 S 
ENDBRANCH  18  19
ENDBRANCH  16  18
ENDBRANCH  14  16
ENDBRANCH  11  14
ENDBRANCH   5   8
ENDBRANCH   3   4
ENDBRANCH   2   3
ENDBRANCH   1   2
BRANCH   1  24
ATOM     24  C   UNL A   1      31.853  29.938  27.104  1.00  0.00     0.002 C 
BRANCH  24  25
ATOM     25  C   UNL A   1      31.697  31.430  26.798  1.00  0.00     0.021 C 
BRANCH  25  26
ATOM     26  C   UNL A   1      32.950  32.275  26.997  1.00  0.00     0.116 C 
BRANCH  26  27
ATOM     27  N   UNL A   1      32.652  33.620  27.452  1.00  0.00    -0.352 N 
ATOM     28  C   UNL A   1      33.197  34.333  28.491  1.00  0.00     0.251 C 
ATOM     29  H   UNL A   1      31.958  34.092  26.939  1.00  0.00     0.163 HD
ATOM     30  O   UNL A   1      32.700  35.409  28.808  1.00  0.00    -0.269 OA
BRANCH  28  31
ATOM     31  C   UNL A   1      34.353  33.794  29.244  1.00  0.00     0.039 A 
ATOM     32  C   UNL A   1      34.113  32.849  30.245  1.00  0.00     0.014 A 
ATOM     33  C   UNL A   1      35.659  34.225  28.992  1.00  0.00     0.014 A 
ATOM     34  C   UNL A   1      35.184  32.301  30.956  1.00  0.00     0.010 A 
ATOM     35  C   UNL A   1      36.732  33.623  29.650  1.00  0.00     0.010 A 
ATOM     36  C   UNL A   1      36.505  32.662  30.647  1.00  0.00    -0.014 A 
BRANCH  36  37
ATOM     37  C   UNL A   1      37.650  32.053  31.376  1.00  0.00     0.031 A 
ATOM     38  C   UNL A   1      38.446  30.941  30.746  1.00  0.00     0.074 A 
ATOM     39  C   UNL A   1      37.954  32.482  32.617  1.00  0.00     0.049 A 
ATOM     40  N   UNL A   1      39.461  30.273  31.229  1.00  0.00    -0.248 NA
ATOM     41  C   UNL A   1      38.028  30.509  29.404  1.00  0.00     0.031 C 
ATOM     42  C   UNL A   1      37.231  33.526  33.349  1.00  0.00     0.029 A 
ATOM     43  N   UNL A   1      38.946  32.099  33.484  1.00  0.00    -0.354 N 
ATOM     44  C   UNL A   1      39.800  29.338  30.256  1.00  0.00     0.074 A 
ATOM     45  C   UNL A   1      38.836  29.482  29.186  1.00  0.00     0.031 C 
ATOM     46  C   UNL A   1      37.826  33.721  34.537  1.00  0.00     0.029 A 
ATOM     47  C   UNL A   1      38.941  32.790  34.674  1.00  0.00     0.049 A 
ATOM     48  H   UNL A   1      39.602  31.395  33.273  1.00  0.00     0.167 HD
ATOM     49  C   UNL A   1      40.834  28.458  30.244  1.00  0.00     0.034 A 
ATOM     50  C   UNL A   1      39.741  32.682  35.755  1.00  0.00     0.034 A 
ATOM     51  C   UNL A   1      41.791  28.333  31.316  1.00  0.00     0.049 A 
ATOM     52  C   UNL A   1      40.864  31.676  35.730  1.00  0.00     0.074 A 
ATOM     53  C   UNL A   1      42.905  27.515  31.386  1.00  0.00     0.029 A 
ATOM     54  N   UNL A   1      41.745  29.039  32.512  1.00  0.00    -0.354 N 
ATOM     55  N   UNL A   1      41.203  30.838  34.778  1.00  0.00    -0.248 NA
ATOM     56  C   UNL A   1      41.719  31.612  36.922  1.00  0.00     0.031 C 
ATOM     57  C   UNL A   1      43.488  27.672  32.648  1.00  0.00     0.029 A 
ATOM     58  C   UNL A   1      42.789  28.649  33.338  1.00  0.00     0.049 A 
ATOM     59  H   UNL A   1      41.070  29.719  32.740  1.00  0.00     0.167 HD
ATOM     60  C   UNL A   1      42.330  30.168  35.246  1.00  0.00     0.074 A 
ATOM     61  C   UNL A   1      42.623  30.716  36.556  1.00  0.00     0.031 C 
ATOM     62  C   UNL A   1      43.060  29.191  34.649  1.00  0.00     0.034 A 
BRANCH  49  63
ATOM     63  C   UNL A   1      40.961  27.550  29.043  1.00  0.00     0.023 A 
ATOM     64  C   UNL A   1      41.886  27.811  28.014  1.00  0.00     0.031 A 
ATOM     65  C   UNL A   1      40.134  26.422  28.909  1.00  0.00     0.131 A 
ATOM     66  C   UNL A   1      41.905  27.003  26.867  1.00  0.00     0.055 A 
ATOM     67  C   UNL A   1      40.217  25.573  27.804  1.00  0.00     0.041 A 
ATOM     68  F   UNL A   1      39.217  26.132  29.846  1.00  0.00    -0.206 F 
ATOM     69  C   UNL A   1      41.096  25.870  26.767  1.00  0.00     0.022 A 
BRANCH  66  70
ATOM     70  S   UNL A   1      42.896  27.542  25.446  1.00  0.00     0.124 S 
ATOM     71  O   UNL A   1      44.213  27.710  26.052  1.00  0.00    -0.237 OA
ATOM     72  O   UNL A   1      42.754  26.424  24.522  1.00  0.00    -0.237 OA
ATOM     73  O   UNL A   1      42.247  28.784  25.028  1.00  0.00    -0.744 OA
ENDBRANCH  66  70
ENDBRANCH  49  63
BRANCH  50  74
ATOM     74  C   UNL A   1      39.510  33.538  36.955  1.00  0.00     0.023 A 
ATOM     75  C   UNL A   1      40.269  34.698  37.174  1.00  0.00     0.031 A 
ATOM     76  C   UNL A   1      38.560  33.179  37.928  1.00  0.00     0.131 A 
ATOM     77  C   UNL A   1      40.103  35.430  38.361  1.00  0.00     0.055 A 
ATOM     78  C   UNL A   1      38.358  33.942  39.079  1.00  0.00     0.041 A 
ATOM     79  F   UNL A   1      37.805  32.080  37.768  1.00  0.00    -0.206 F 
ATOM     80  C   UNL A   1      39.142  35.068  39.307  1.00  0.00     0.022 A 
BRANCH  77  81
ATOM     81  S   UNL A   1      41.228  36.813  38.692  1.00  0.00     0.124 S 
ATOM     82  O   UNL A   1      41.937  36.928  37.423  1.00  0.00    -0.237 OA
ATOM     83  O   UNL A   1      40.298  37.891  39.009  1.00  0.00    -0.237 OA
ATOM     84  O   UNL A   1      42.032  36.336  39.816  1.00  0.00    -0.744 OA
ENDBRANCH  77  81
ENDBRANCH  50  74
BRANCH  62  85
ATOM     85  C   UNL A   1      44.267  28.682  35.401  1.00  0.00     0.023 A 
ATOM     86  C   UNL A   1      44.167  27.648  36.348  1.00  0.00     0.031 A 
ATOM     87  C   UNL A   1      45.533  29.254  35.178  1.00  0.00     0.131 A 
ATOM     88  C   UNL A   1      45.298  27.261  37.082  1.00  0.00     0.055 A 
ATOM     89  C   UNL A   1      46.667  28.818  35.865  1.00  0.00     0.041 A 
ATOM     90  F   UNL A   1      45.688  30.246  34.288  1.00  0.00    -0.206 F 
ATOM     91  C   UNL A   1      46.551  27.827  36.834  1.00  0.00     0.022 A 
BRANCH  88  92
ATOM     92  S   UNL A   1      45.090  26.076  38.440  1.00  0.00     0.124 S 
ATOM     93  O   UNL A   1      46.263  26.348  39.264  1.00  0.00    -0.237 OA
ATOM     94  O   UNL A   1      43.806  26.475  39.008  1.00  0.00    -0.237 OA
ATOM     95  O   UNL A   1      45.092  24.778  37.767  1.00  0.00    -0.744 OA
ENDBRANCH  88  92
ENDBRANCH  62  85
ENDBRANCH  36  37
ENDBRANCH  28  31
ENDBRANCH  26  27
ENDBRANCH  25  26
ENDBRANCH  24  25
ENDBRANCH   1  24
TORSDOF 20
ENDMDL
MODEL 3
REMARK VINA RESULT:     -10.4      5.985     11.285
REMARK SMILES C[C@@H]1[C@@H](C(=O)NCCCCCCNC(=O)c2ccc(-c3c4nc(c(-c5cc(S(=O)(=O)[O-])ccc5F)c5ccc([nH]5)c(-c5cc(S(=O)(=O)[O-])ccc5F)c5nc(c(-c6cc(S(=O)(=O)[O-])ccc6F)c6ccc3[nH]6)C=C5)C=C4)cc2)CCN1C(=O)N(C)Cc1ccsc1
REMARK SMILES IDX 9 1 8 2 7 3 6 4 4 5 5 6 3 8 1 9 2 10 81 11 79 12 80 13 82 14
REMARK SMILES IDX 83 15 84 16 85 17 86 18 87 19 88 20 91 21 89 22 90 23 10 24
REMARK SMILES IDX 11 25 12 26 13 27 14 28 15 30 16 31 17 32 78 33 18 34 77 35
REMARK SMILES IDX 19 36 20 37 21 38 71 39 22 40 76 41 70 42 72 43 23 44 75 45
REMARK SMILES IDX 69 46 68 47 24 49 56 50 36 51 55 52 37 53 40 54 54 55 73 56
REMARK SMILES IDX 38 57 39 58 53 60 74 61 41 62 25 63 26 64 34 65 27 66 33 67
REMARK SMILES IDX 35 68 32 69 28 70 29 71 30 72 31 73 57 74 58 75 66 76 59 77
REMARK SMILES IDX 65 78 67 79 64 80 60 81 61 82 62 83 63 84 42 85 43 86 51 87
REMARK SMILES IDX 44 88 50 89 52 90 49 91 45 92 46 93 47 94 48 95
REMARK H PARENT 6 7 13 29 72 48 40 59
REMARK Flexibility Score: inf
ROOT
ATOM      1  C   UNL A   1      35.502  19.823  25.066  1.00  0.00     0.002 C 
ENDROOT
BRANCH   1   2
ATOM      2  C   UNL A   1      34.306  18.989  24.593  1.00  0.00     0.021 C 
BRANCH   2   3
ATOM      3  C   UNL A   1      32.940  19.628  24.813  1.00  0.00     0.116 C 
BRANCH   3   4
ATOM      4  N   UNL A   1      32.501  20.394  23.668  1.00  0.00    -0.356 N 
ATOM      5  C   UNL A   1      32.541  21.738  23.455  1.00  0.00     0.225 C 
ATOM      6  O   UNL A   1      32.057  22.155  22.402  1.00  0.00    -0.275 OA
ATOM      7  H   UNL A   1      32.116  19.865  22.932  1.00  0.00     0.163 HD
BRANCH   5   8
ATOM      8  C   UNL A   1      33.098  22.662  24.539  1.00  0.00     0.102 C 
ATOM      9  C   UNL A   1      32.448  24.747  25.823  1.00  0.00     0.032 C 
ATOM     10  C   UNL A   1      32.439  24.061  24.450  1.00  0.00     0.096 C 
ATOM     11  N   UNL A   1      33.270  24.785  23.478  1.00  0.00    -0.321 N 
ATOM     12  C   UNL A   1      34.575  23.005  24.355  1.00  0.00     0.037 C 
ATOM     13  C   UNL A   1      34.541  24.093  23.304  1.00  0.00     0.122 C 
BRANCH  11  14
ATOM     14  C   UNL A   1      33.045  25.833  22.629  1.00  0.00     0.320 C 
ATOM     15  O   UNL A   1      33.733  25.898  21.599  1.00  0.00    -0.248 OA
BRANCH  14  16
ATOM     16  N   UNL A   1      32.149  26.842  22.893  1.00  0.00    -0.323 N 
ATOM     17  C   UNL A   1      30.697  26.869  22.880  1.00  0.00     0.149 C 
BRANCH  16  18
ATOM     18  C   UNL A   1      32.754  28.135  23.223  1.00  0.00     0.157 C 
BRANCH  18  19
ATOM     19  C   UNL A   1      32.727  28.419  24.708  1.00  0.00    -0.018 A 
ATOM     20  C   UNL A   1      31.633  29.094  25.352  1.00  0.00     0.017 A 
ATOM     21  C   UNL A   1      33.720  28.137  25.633  1.00  0.00     0.070 A 
ATOM     22  C   UNL A   1      31.847  29.305  26.696  1.00  0.00     0.065 A 
ATOM     23  S   UNL A   1      33.348  28.678  27.211  1.00  0.00    -0.152 S 
ENDBRANCH  18  19
ENDBRANCH  16  18
ENDBRANCH  14  16
ENDBRANCH  11  14
ENDBRANCH   5   8
ENDBRANCH   3   4
ENDBRANCH   2   3
ENDBRANCH   1   2
BRANCH   1  24
ATOM     24  C   UNL A   1      36.879  19.172  24.911  1.00  0.00     0.002 C 
BRANCH  24  25
ATOM     25  C   UNL A   1      38.051  20.132  24.691  1.00  0.00     0.021 C 
BRANCH  25  26
ATOM     26  C   UNL A   1      38.973  20.326  25.889  1.00  0.00     0.116 C 
BRANCH  26  27
ATOM     27  N   UNL A   1      40.053  19.358  25.928  1.00  0.00    -0.352 N 
ATOM     28  C   UNL A   1      41.400  19.556  26.105  1.00  0.00     0.251 C 
ATOM     29  H   UNL A   1      39.779  18.420  25.811  1.00  0.00     0.163 HD
ATOM     30  O   UNL A   1      42.171  18.614  25.956  1.00  0.00    -0.269 OA
BRANCH  28  31
ATOM     31  C   UNL A   1      41.921  20.902  26.441  1.00  0.00     0.039 A 
ATOM     32  C   UNL A   1      42.198  21.788  25.397  1.00  0.00     0.014 A 
ATOM     33  C   UNL A   1      42.160  21.287  27.763  1.00  0.00     0.014 A 
ATOM     34  C   UNL A   1      42.666  23.073  25.681  1.00  0.00     0.010 A 
ATOM     35  C   UNL A   1      42.555  22.595  28.049  1.00  0.00     0.010 A 
ATOM     36  C   UNL A   1      42.823  23.498  27.010  1.00  0.00    -0.014 A 
BRANCH  36  37
ATOM     37  C   UNL A   1      43.284  24.879  27.317  1.00  0.00     0.031 A 
ATOM     38  C   UNL A   1      42.341  25.873  27.940  1.00  0.00     0.074 A 
ATOM     39  C   UNL A   1      44.544  25.244  27.008  1.00  0.00     0.049 A 
ATOM     40  N   UNL A   1      42.551  27.124  28.262  1.00  0.00    -0.248 NA
ATOM     41  C   UNL A   1      40.975  25.405  28.214  1.00  0.00     0.031 C 
ATOM     42  C   UNL A   1      45.539  24.381  26.366  1.00  0.00     0.029 A 
ATOM     43  N   UNL A   1      45.207  26.432  27.191  1.00  0.00    -0.354 N 
ATOM     44  C   UNL A   1      41.344  27.594  28.770  1.00  0.00     0.074 A 
ATOM     45  C   UNL A   1      40.391  26.512  28.648  1.00  0.00     0.031 C 
ATOM     46  C   UNL A   1      46.692  25.058  26.240  1.00  0.00     0.029 A 
ATOM     47  C   UNL A   1      46.510  26.413  26.749  1.00  0.00     0.049 A 
ATOM     48  H   UNL A   1      44.789  27.224  27.600  1.00  0.00     0.167 HD
ATOM     49  C   UNL A   1      41.063  28.806  29.312  1.00  0.00     0.034 A 
ATOM     50  C   UNL A   1      47.451  27.380  26.749  1.00  0.00     0.034 A 
ATOM     51  C   UNL A   1      42.029  29.872  29.435  1.00  0.00     0.049 A 
ATOM     52  C   UNL A   1      47.106  28.729  27.329  1.00  0.00     0.074 A 
ATOM     53  C   UNL A   1      41.868  31.119  30.013  1.00  0.00     0.029 A 
ATOM     54  N   UNL A   1      43.334  29.821  28.963  1.00  0.00    -0.354 N 
ATOM     55  N   UNL A   1      45.975  29.138  27.856  1.00  0.00    -0.248 NA
ATOM     56  C   UNL A   1      48.169  29.741  27.325  1.00  0.00     0.031 C 
ATOM     57  C   UNL A   1      43.048  31.846  29.828  1.00  0.00     0.029 A 
ATOM     58  C   UNL A   1      43.977  31.027  29.205  1.00  0.00     0.049 A 
ATOM     59  H   UNL A   1      43.745  29.044  28.521  1.00  0.00     0.167 HD
ATOM     60  C   UNL A   1      46.202  30.447  28.273  1.00  0.00     0.074 A 
ATOM     61  C   UNL A   1      47.584  30.749  27.954  1.00  0.00     0.031 C 
ATOM     62  C   UNL A   1      45.350  31.321  28.867  1.00  0.00     0.034 A 
BRANCH  49  63
ATOM     63  C   UNL A   1      39.649  29.045  29.789  1.00  0.00     0.023 A 
ATOM     64  C   UNL A   1      38.737  29.812  29.041  1.00  0.00     0.031 A 
ATOM     65  C   UNL A   1      39.211  28.519  31.017  1.00  0.00     0.131 A 
ATOM     66  C   UNL A   1      37.466  30.096  29.562  1.00  0.00     0.055 A 
ATOM     67  C   UNL A   1      37.915  28.735  31.491  1.00  0.00     0.041 A 
ATOM     68  F   UNL A   1      40.041  27.797  31.786  1.00  0.00    -0.206 F 
ATOM     69  C   UNL A   1      37.039  29.541  30.770  1.00  0.00     0.022 A 
BRANCH  66  70
ATOM     70  S   UNL A   1      36.436  31.324  28.712  1.00  0.00     0.124 S 
ATOM     71  O   UNL A   1      37.309  32.494  28.717  1.00  0.00    -0.237 OA
ATOM     72  O   UNL A   1      36.209  30.700  27.414  1.00  0.00    -0.237 OA
ATOM     73  O   UNL A   1      35.256  31.432  29.568  1.00  0.00    -0.744 OA
ENDBRANCH  66  70
ENDBRANCH  49  63
BRANCH  50  74
ATOM     74  C   UNL A   1      48.804  27.121  26.176  1.00  0.00     0.023 A 
ATOM     75  C   UNL A   1      49.102  27.453  24.846  1.00  0.00     0.031 A 
ATOM     76  C   UNL A   1      49.803  26.489  26.938  1.00  0.00     0.131 A 
ATOM     77  C   UNL A   1      50.349  27.107  24.301  1.00  0.00     0.055 A 
ATOM     78  C   UNL A   1      51.062  26.199  26.409  1.00  0.00     0.041 A 
ATOM     79  F   UNL A   1      49.571  26.151  28.217  1.00  0.00    -0.206 F 
ATOM     80  C   UNL A   1      51.335  26.496  25.077  1.00  0.00     0.022 A 
BRANCH  77  81
ATOM     81  S   UNL A   1      50.630  27.385  22.531  1.00  0.00     0.124 S 
ATOM     82  O   UNL A   1      49.515  26.658  21.936  1.00  0.00    -0.237 OA
ATOM     83  O   UNL A   1      50.570  28.840  22.440  1.00  0.00    -0.237 OA
ATOM     84  O   UNL A   1      51.950  26.803  22.300  1.00  0.00    -0.744 OA
ENDBRANCH  77  81
ENDBRANCH  50  74
BRANCH  62  85
ATOM     85  C   UNL A   1      45.908  32.674  29.241  1.00  0.00     0.023 A 
ATOM     86  C   UNL A   1      45.799  33.782  28.383  1.00  0.00     0.031 A 
ATOM     87  C   UNL A   1      46.573  32.851  30.468  1.00  0.00     0.131 A 
ATOM     88  C   UNL A   1      46.402  34.999  28.734  1.00  0.00     0.055 A 
ATOM     89  C   UNL A   1      47.112  34.083  30.840  1.00  0.00     0.041 A 
ATOM     90  F   UNL A   1      46.709  31.828  31.326  1.00  0.00    -0.206 F 
ATOM     91  C   UNL A   1      47.042  35.162  29.965  1.00  0.00     0.022 A 
BRANCH  88  92
ATOM     92  S   UNL A   1      46.426  36.341  27.514  1.00  0.00     0.124 S 
ATOM     93  O   UNL A   1      47.413  35.861  26.553  1.00  0.00    -0.237 OA
ATOM     94  O   UNL A   1      45.043  36.365  27.048  1.00  0.00    -0.237 OA
ATOM     95  O   UNL A   1      46.836  37.508  28.294  1.00  0.00    -0.744 OA
ENDBRANCH  88  92
ENDBRANCH  62  85
ENDBRANCH  36  37
ENDBRANCH  28  31
ENDBRANCH  26  27
ENDBRANCH  25  26
ENDBRANCH  24  25
ENDBRANCH   1  24
TORSDOF 20
ENDMDL
