MODEL 1
REMARK VINA RESULT:     -12.6      0.000      0.000
REMARK SMILES Cc1ccc(CNc2ccc(C(=O)NCCCCCCNC(=O)c3ccc(-c4c5nc(c(-c6cc(S(=O)(=O)[O-])ccc6F)c6ccc([nH]6)c(-c6cc(S(=O)(=O)[O-])ccc6F)c6nc(c(-c7cc(S(=O)(=O)[O-])ccc7F)c7ccc4[nH]7)C=C6)C=C5)cc3)cc2Br)cc1
REMARK SMILES IDX 17 1 16 2 15 3 14 4 12 5 13 6 11 8 8 9 9 10 88 11 10 12
REMARK SMILES IDX 87 13 89 14 7 15 6 17 5 18 1 19 2 20 3 21 91 22 4 23 90 24
REMARK SMILES IDX 18 25 19 26 20 27 21 28 22 29 23 31 24 32 25 33 86 34 26 35
REMARK SMILES IDX 85 36 27 37 28 38 29 39 79 40 30 41 84 42 78 43 80 44 31 45
REMARK SMILES IDX 83 46 77 47 76 48 32 50 64 51 44 52 63 53 45 54 48 55 62 56
REMARK SMILES IDX 81 57 46 58 47 59 61 61 82 62 49 63 33 64 34 65 42 66 35 67
REMARK SMILES IDX 41 68 43 69 40 70 36 71 37 72 38 73 39 74 65 75 66 76 74 77
REMARK SMILES IDX 67 78 73 79 75 80 72 81 68 82 69 83 70 84 71 85 50 86 51 87
REMARK SMILES IDX 59 88 52 89 58 90 60 91 57 92 53 93 54 94 55 95 56 96
REMARK H PARENT 14 7 7 16 21 30 80 49 48 60
REMARK Flexibility Score: inf
ROOT
ATOM      1  C   UNL A   1      36.440  23.148  25.092  1.00  0.00     0.002 C 
ENDROOT
BRANCH   1   2
ATOM      2  C   UNL A   1      36.178  21.707  24.645  1.00  0.00     0.021 C 
BRANCH   2   3
ATOM      3  C   UNL A   1      35.367  20.815  25.579  1.00  0.00     0.116 C 
BRANCH   3   4
ATOM      4  N   UNL A   1      34.571  19.800  24.916  1.00  0.00    -0.352 N 
ATOM      5  C   UNL A   1      33.340  19.891  24.314  1.00  0.00     0.251 C 
ATOM      6  O   UNL A   1      32.842  18.891  23.796  1.00  0.00    -0.269 OA
ATOM      7  H   UNL A   1      34.976  18.903  24.896  1.00  0.00     0.163 HD
BRANCH   5   8
ATOM      8  C   UNL A   1      32.562  21.159  24.288  1.00  0.00     0.041 A 
ATOM      9  C   UNL A   1      31.027  23.556  24.357  1.00  0.00     0.049 A 
ATOM     10  C   UNL A   1      31.813  23.221  23.249  1.00  0.00     0.028 A 
ATOM     11  C   UNL A   1      31.010  22.637  25.427  1.00  0.00     0.041 A 
ATOM     12  C   UNL A   1      32.544  22.028  23.198  1.00  0.00     0.016 A 
ATOM     13  C   UNL A   1      31.764  21.457  25.398  1.00  0.00     0.031 A 
ATOM     14  Br  UNL A   1      29.919  22.947  26.958  1.00  0.00    -0.049 Br
BRANCH   9  15
ATOM     15  N   UNL A   1      30.277  24.716  24.413  1.00  0.00    -0.380 N 
ATOM     16  H   UNL A   1      29.330  24.645  24.149  1.00  0.00     0.160 HD
BRANCH  15  17
ATOM     17  C   UNL A   1      30.744  26.026  24.821  1.00  0.00     0.148 C 
BRANCH  17  18
ATOM     18  C   UNL A   1      30.055  27.098  24.005  1.00  0.00    -0.029 A 
ATOM     19  C   UNL A   1      28.095  30.201  21.729  1.00  0.00     0.044 C 
ATOM     20  C   UNL A   1      28.763  29.127  22.534  1.00  0.00    -0.051 A 
ATOM     21  C   UNL A   1      30.145  29.174  22.740  1.00  0.00     0.004 A 
ATOM     22  C   UNL A   1      28.030  28.066  23.075  1.00  0.00     0.004 A 
ATOM     23  C   UNL A   1      30.783  28.174  23.476  1.00  0.00     0.006 A 
ATOM     24  C   UNL A   1      28.669  27.062  23.808  1.00  0.00     0.006 A 
ENDBRANCH  17  18
ENDBRANCH  15  17
ENDBRANCH   9  15
ENDBRANCH   5   8
ENDBRANCH   3   4
ENDBRANCH   2   3
ENDBRANCH   1   2
BRANCH   1  25
ATOM     25  C   UNL A   1      37.774  23.461  25.780  1.00  0.00     0.002 C 
BRANCH  25  26
ATOM     26  C   UNL A   1      38.725  22.289  26.021  1.00  0.00     0.021 C 
BRANCH  26  27
ATOM     27  C   UNL A   1      39.856  22.554  27.010  1.00  0.00     0.116 C 
BRANCH  27  28
ATOM     28  N   UNL A   1      41.107  22.994  26.410  1.00  0.00    -0.352 N 
ATOM     29  C   UNL A   1      41.566  24.298  26.247  1.00  0.00     0.251 C 
ATOM     30  H   UNL A   1      41.701  22.283  26.076  1.00  0.00     0.163 HD
ATOM     31  O   UNL A   1      42.630  24.544  25.723  1.00  0.00    -0.269 OA
BRANCH  29  32
ATOM     32  C   UNL A   1      40.754  25.395  26.838  1.00  0.00     0.039 A 
ATOM     33  C   UNL A   1      40.816  26.650  26.225  1.00  0.00     0.014 A 
ATOM     34  C   UNL A   1      40.131  25.244  28.074  1.00  0.00     0.014 A 
ATOM     35  C   UNL A   1      40.455  27.783  26.952  1.00  0.00     0.010 A 
ATOM     36  C   UNL A   1      39.858  26.373  28.831  1.00  0.00     0.010 A 
ATOM     37  C   UNL A   1      40.084  27.645  28.295  1.00  0.00    -0.014 A 
BRANCH  37  38
ATOM     38  C   UNL A   1      40.090  28.777  29.223  1.00  0.00     0.031 A 
ATOM     39  C   UNL A   1      39.010  29.788  29.224  1.00  0.00     0.074 A 
ATOM     40  C   UNL A   1      41.131  28.973  30.065  1.00  0.00     0.049 A 
ATOM     41  N   UNL A   1      39.215  31.052  29.401  1.00  0.00    -0.248 NA
ATOM     42  C   UNL A   1      37.609  29.448  29.010  1.00  0.00     0.031 C 
ATOM     43  C   UNL A   1      41.223  29.979  31.121  1.00  0.00     0.029 A 
ATOM     44  N   UNL A   1      42.426  28.466  29.976  1.00  0.00    -0.354 N 
ATOM     45  C   UNL A   1      37.990  31.639  29.612  1.00  0.00     0.074 A 
ATOM     46  C   UNL A   1      37.019  30.619  29.277  1.00  0.00     0.031 C 
ATOM     47  C   UNL A   1      42.518  30.256  31.331  1.00  0.00     0.029 A 
ATOM     48  C   UNL A   1      43.285  29.509  30.349  1.00  0.00     0.049 A 
ATOM     49  H   UNL A   1      42.685  27.556  29.706  1.00  0.00     0.167 HD
ATOM     50  C   UNL A   1      37.896  32.868  30.194  1.00  0.00     0.034 A 
ATOM     51  C   UNL A   1      44.290  30.005  29.574  1.00  0.00     0.034 A 
ATOM     52  C   UNL A   1      39.192  33.398  30.605  1.00  0.00     0.049 A 
ATOM     53  C   UNL A   1      44.242  31.508  29.408  1.00  0.00     0.074 A 
ATOM     54  C   UNL A   1      39.821  33.472  31.838  1.00  0.00     0.029 A 
ATOM     55  N   UNL A   1      40.142  33.754  29.659  1.00  0.00    -0.354 N 
ATOM     56  N   UNL A   1      43.201  32.243  29.683  1.00  0.00    -0.248 NA
ATOM     57  C   UNL A   1      45.342  32.289  28.855  1.00  0.00     0.031 C 
ATOM     58  C   UNL A   1      41.158  33.888  31.629  1.00  0.00     0.029 A 
ATOM     59  C   UNL A   1      41.341  34.072  30.271  1.00  0.00     0.049 A 
ATOM     60  H   UNL A   1      39.986  33.777  28.687  1.00  0.00     0.167 HD
ATOM     61  C   UNL A   1      43.451  33.552  29.337  1.00  0.00     0.074 A 
ATOM     62  C   UNL A   1      44.813  33.525  28.837  1.00  0.00     0.031 C 
ATOM     63  C   UNL A   1      42.489  34.516  29.489  1.00  0.00     0.034 A 
BRANCH  50  64
ATOM     64  C   UNL A   1      36.587  33.453  30.674  1.00  0.00     0.023 A 
ATOM     65  C   UNL A   1      35.688  34.021  29.749  1.00  0.00     0.031 A 
ATOM     66  C   UNL A   1      36.179  33.484  32.020  1.00  0.00     0.131 A 
ATOM     67  C   UNL A   1      34.518  34.678  30.170  1.00  0.00     0.055 A 
ATOM     68  C   UNL A   1      35.042  34.184  32.448  1.00  0.00     0.041 A 
ATOM     69  F   UNL A   1      36.855  32.816  32.968  1.00  0.00    -0.206 F 
ATOM     70  C   UNL A   1      34.213  34.802  31.521  1.00  0.00     0.022 A 
BRANCH  67  71
ATOM     71  S   UNL A   1      33.402  35.375  28.920  1.00  0.00     0.124 S 
ATOM     72  O   UNL A   1      32.497  36.186  29.728  1.00  0.00    -0.237 OA
ATOM     73  O   UNL A   1      34.325  36.104  28.057  1.00  0.00    -0.237 OA
ATOM     74  O   UNL A   1      32.793  34.193  28.313  1.00  0.00    -0.744 OA
ENDBRANCH  67  71
ENDBRANCH  50  64
BRANCH  51  75
ATOM     75  C   UNL A   1      44.816  29.068  28.548  1.00  0.00     0.023 A 
ATOM     76  C   UNL A   1      45.740  28.085  28.960  1.00  0.00     0.031 A 
ATOM     77  C   UNL A   1      44.182  28.903  27.309  1.00  0.00     0.131 A 
ATOM     78  C   UNL A   1      45.906  26.918  28.204  1.00  0.00     0.055 A 
ATOM     79  C   UNL A   1      44.385  27.755  26.535  1.00  0.00     0.041 A 
ATOM     80  F   UNL A   1      43.262  29.783  26.890  1.00  0.00    -0.206 F 
ATOM     81  C   UNL A   1      45.221  26.740  26.999  1.00  0.00     0.022 A 
BRANCH  78  82
ATOM     82  S   UNL A   1      46.844  25.519  28.888  1.00  0.00     0.124 S 
ATOM     83  O   UNL A   1      47.915  25.366  27.909  1.00  0.00    -0.237 OA
ATOM     84  O   UNL A   1      47.257  25.997  30.204  1.00  0.00    -0.237 OA
ATOM     85  O   UNL A   1      45.848  24.451  28.911  1.00  0.00    -0.744 OA
ENDBRANCH  78  82
ENDBRANCH  51  75
BRANCH  63  86
ATOM     86  C   UNL A   1      42.532  35.967  29.021  1.00  0.00     0.023 A 
ATOM     87  C   UNL A   1      43.276  36.981  29.641  1.00  0.00     0.031 A 
ATOM     88  C   UNL A   1      41.814  36.379  27.865  1.00  0.00     0.131 A 
ATOM     89  C   UNL A   1      43.267  38.308  29.162  1.00  0.00     0.055 A 
ATOM     90  C   UNL A   1      41.833  37.688  27.367  1.00  0.00     0.041 A 
ATOM     91  F   UNL A   1      41.070  35.527  27.148  1.00  0.00    -0.206 F 
ATOM     92  C   UNL A   1      42.558  38.667  28.020  1.00  0.00     0.022 A 
BRANCH  89  93
ATOM     93  S   UNL A   1      44.193  39.564  30.086  1.00  0.00     0.124 S 
ATOM     94  O   UNL A   1      44.211  40.681  29.145  1.00  0.00    -0.237 OA
ATOM     95  O   UNL A   1      43.363  39.750  31.272  1.00  0.00    -0.237 OA
ATOM     96  O   UNL A   1      45.489  38.933  30.328  1.00  0.00    -0.744 OA
ENDBRANCH  89  93
ENDBRANCH  63  86
ENDBRANCH  37  38
ENDBRANCH  29  32
ENDBRANCH  27  28
ENDBRANCH  26  27
ENDBRANCH  25  26
ENDBRANCH   1  25
TORSDOF 19
ENDMDL
MODEL 2
REMARK VINA RESULT:     -11.7      4.129      6.376
REMARK SMILES Cc1ccc(CNc2ccc(C(=O)NCCCCCCNC(=O)c3ccc(-c4c5nc(c(-c6cc(S(=O)(=O)[O-])ccc6F)c6ccc([nH]6)c(-c6cc(S(=O)(=O)[O-])ccc6F)c6nc(c(-c7cc(S(=O)(=O)[O-])ccc7F)c7ccc4[nH]7)C=C6)C=C5)cc3)cc2Br)cc1
REMARK SMILES IDX 17 1 16 2 15 3 14 4 12 5 13 6 11 8 8 9 9 10 88 11 10 12
REMARK SMILES IDX 87 13 89 14 7 15 6 17 5 18 1 19 2 20 3 21 91 22 4 23 90 24
REMARK SMILES IDX 18 25 19 26 20 27 21 28 22 29 23 31 24 32 25 33 86 34 26 35
REMARK SMILES IDX 85 36 27 37 28 38 29 39 79 40 30 41 84 42 78 43 80 44 31 45
REMARK SMILES IDX 83 46 77 47 76 48 32 50 64 51 44 52 63 53 45 54 48 55 62 56
REMARK SMILES IDX 81 57 46 58 47 59 61 61 82 62 49 63 33 64 34 65 42 66 35 67
REMARK SMILES IDX 41 68 43 69 40 70 36 71 37 72 38 73 39 74 65 75 66 76 74 77
REMARK SMILES IDX 67 78 73 79 75 80 72 81 68 82 69 83 70 84 71 85 50 86 51 87
REMARK SMILES IDX 59 88 52 89 58 90 60 91 57 92 53 93 54 94 55 95 56 96
REMARK H PARENT 14 7 7 16 21 30 80 49 48 60
REMARK Flexibility Score: inf
ROOT
ATOM      1  C   UNL A   1      32.328  23.201  25.050  1.00  0.00     0.002 C 
ENDROOT
BRANCH   1   2
ATOM      2  C   UNL A   1      32.397  22.791  23.577  1.00  0.00     0.021 C 
BRANCH   2   3
ATOM      3  C   UNL A   1      33.662  23.149  22.804  1.00  0.00     0.116 C 
BRANCH   3   4
ATOM      4  N   UNL A   1      33.437  23.685  21.475  1.00  0.00    -0.352 N 
ATOM      5  C   UNL A   1      33.059  24.944  21.078  1.00  0.00     0.251 C 
ATOM      6  O   UNL A   1      32.932  25.191  19.879  1.00  0.00    -0.269 OA
ATOM      7  H   UNL A   1      33.576  23.044  20.741  1.00  0.00     0.163 HD
BRANCH   5   8
ATOM      8  C   UNL A   1      32.763  26.027  22.055  1.00  0.00     0.041 A 
ATOM      9  C   UNL A   1      32.072  28.074  23.910  1.00  0.00     0.049 A 
ATOM     10  C   UNL A   1      33.404  27.817  23.566  1.00  0.00     0.028 A 
ATOM     11  C   UNL A   1      31.087  27.290  23.273  1.00  0.00     0.041 A 
ATOM     12  C   UNL A   1      33.745  26.833  22.630  1.00  0.00     0.016 A 
ATOM     13  C   UNL A   1      31.422  26.281  22.362  1.00  0.00     0.031 A 
ATOM     14  Br  UNL A   1      29.235  27.599  23.603  1.00  0.00    -0.049 Br
BRANCH   9  15
ATOM     15  N   UNL A   1      31.714  29.061  24.810  1.00  0.00    -0.380 N 
ATOM     16  H   UNL A   1      31.421  29.922  24.431  1.00  0.00     0.160 HD
BRANCH  15  17
ATOM     17  C   UNL A   1      31.728  28.956  26.255  1.00  0.00     0.148 C 
BRANCH  17  18
ATOM     18  C   UNL A   1      32.990  29.578  26.808  1.00  0.00    -0.029 A 
ATOM     19  C   UNL A   1      36.584  31.326  28.446  1.00  0.00     0.044 C 
ATOM     20  C   UNL A   1      35.327  30.725  27.893  1.00  0.00    -0.051 A 
ATOM     21  C   UNL A   1      35.302  29.373  27.538  1.00  0.00     0.004 A 
ATOM     22  C   UNL A   1      34.175  31.498  27.712  1.00  0.00     0.004 A 
ATOM     23  C   UNL A   1      34.142  28.804  27.009  1.00  0.00     0.006 A 
ATOM     24  C   UNL A   1      33.015  30.929  27.178  1.00  0.00     0.006 A 
ENDBRANCH  17  18
ENDBRANCH  15  17
ENDBRANCH   9  15
ENDBRANCH   5   8
ENDBRANCH   3   4
ENDBRANCH   2   3
ENDBRANCH   1   2
BRANCH   1  25
ATOM     25  C   UNL A   1      33.317  22.555  26.029  1.00  0.00     0.002 C 
BRANCH  25  26
ATOM     26  C   UNL A   1      34.393  23.459  26.629  1.00  0.00     0.021 C 
BRANCH  26  27
ATOM     27  C   UNL A   1      35.803  23.250  26.088  1.00  0.00     0.116 C 
BRANCH  27  28
ATOM     28  N   UNL A   1      36.114  21.883  25.694  1.00  0.00    -0.352 N 
ATOM     29  C   UNL A   1      37.366  21.329  25.445  1.00  0.00     0.251 C 
ATOM     30  H   UNL A   1      35.345  21.278  25.590  1.00  0.00     0.163 HD
ATOM     31  O   UNL A   1      37.503  20.171  25.116  1.00  0.00    -0.269 OA
BRANCH  29  32
ATOM     32  C   UNL A   1      38.561  22.177  25.702  1.00  0.00     0.039 A 
ATOM     33  C   UNL A   1      39.723  21.541  26.149  1.00  0.00     0.014 A 
ATOM     34  C   UNL A   1      38.471  23.567  25.709  1.00  0.00     0.014 A 
ATOM     35  C   UNL A   1      40.697  22.287  26.811  1.00  0.00     0.010 A 
ATOM     36  C   UNL A   1      39.392  24.296  26.445  1.00  0.00     0.010 A 
ATOM     37  C   UNL A   1      40.470  23.647  27.054  1.00  0.00    -0.014 A 
BRANCH  37  38
ATOM     38  C   UNL A   1      41.219  24.390  28.068  1.00  0.00     0.031 A 
ATOM     39  C   UNL A   1      40.749  25.695  28.582  1.00  0.00     0.074 A 
ATOM     40  C   UNL A   1      42.413  23.936  28.515  1.00  0.00     0.049 A 
ATOM     41  N   UNL A   1      41.537  26.685  28.849  1.00  0.00    -0.248 NA
ATOM     42  C   UNL A   1      39.341  25.988  28.823  1.00  0.00     0.031 C 
ATOM     43  C   UNL A   1      43.212  24.501  29.601  1.00  0.00     0.029 A 
ATOM     44  N   UNL A   1      43.272  23.018  27.914  1.00  0.00    -0.354 N 
ATOM     45  C   UNL A   1      40.805  27.613  29.549  1.00  0.00     0.074 A 
ATOM     46  C   UNL A   1      39.430  27.175  29.436  1.00  0.00     0.031 C 
ATOM     47  C   UNL A   1      44.500  24.193  29.385  1.00  0.00     0.029 A 
ATOM     48  C   UNL A   1      44.571  23.509  28.104  1.00  0.00     0.049 A 
ATOM     49  H   UNL A   1      43.017  22.189  27.449  1.00  0.00     0.167 HD
ATOM     50  C   UNL A   1      41.424  28.576  30.291  1.00  0.00     0.034 A 
ATOM     51  C   UNL A   1      45.458  23.775  27.105  1.00  0.00     0.034 A 
ATOM     52  C   UNL A   1      42.877  28.436  30.295  1.00  0.00     0.049 A 
ATOM     53  C   UNL A   1      46.050  25.166  27.174  1.00  0.00     0.074 A 
ATOM     54  C   UNL A   1      43.762  27.924  31.231  1.00  0.00     0.029 A 
ATOM     55  N   UNL A   1      43.610  28.646  29.136  1.00  0.00    -0.354 N 
ATOM     56  N   UNL A   1      45.558  26.137  27.890  1.00  0.00    -0.248 NA
ATOM     57  C   UNL A   1      47.202  25.586  26.386  1.00  0.00     0.031 C 
ATOM     58  C   UNL A   1      45.041  27.839  30.630  1.00  0.00     0.029 A 
ATOM     59  C   UNL A   1      44.935  28.302  29.331  1.00  0.00     0.049 A 
ATOM     60  H   UNL A   1      43.239  28.992  28.292  1.00  0.00     0.167 HD
ATOM     61  C   UNL A   1      46.272  27.292  27.662  1.00  0.00     0.074 A 
ATOM     62  C   UNL A   1      47.299  26.885  26.721  1.00  0.00     0.031 C 
ATOM     63  C   UNL A   1      45.920  28.469  28.268  1.00  0.00     0.034 A 
BRANCH  50  64
ATOM     64  C   UNL A   1      40.687  29.460  31.270  1.00  0.00     0.023 A 
ATOM     65  C   UNL A   1      40.437  30.810  30.950  1.00  0.00     0.031 A 
ATOM     66  C   UNL A   1      40.219  29.034  32.526  1.00  0.00     0.131 A 
ATOM     67  C   UNL A   1      39.860  31.692  31.881  1.00  0.00     0.055 A 
ATOM     68  C   UNL A   1      39.693  29.921  33.477  1.00  0.00     0.041 A 
ATOM     69  F   UNL A   1      40.230  27.736  32.870  1.00  0.00    -0.206 F 
ATOM     70  C   UNL A   1      39.528  31.263  33.162  1.00  0.00     0.022 A 
BRANCH  67  71
ATOM     71  S   UNL A   1      39.558  33.413  31.393  1.00  0.00     0.124 S 
ATOM     72  O   UNL A   1      38.560  33.843  32.369  1.00  0.00    -0.237 OA
ATOM     73  O   UNL A   1      40.884  34.007  31.522  1.00  0.00    -0.237 OA
ATOM     74  O   UNL A   1      39.064  33.294  30.022  1.00  0.00    -0.744 OA
ENDBRANCH  67  71
ENDBRANCH  50  64
BRANCH  51  75
ATOM     75  C   UNL A   1      45.228  23.027  25.842  1.00  0.00     0.023 A 
ATOM     76  C   UNL A   1      45.771  21.730  25.732  1.00  0.00     0.031 A 
ATOM     77  C   UNL A   1      44.228  23.405  24.935  1.00  0.00     0.131 A 
ATOM     78  C   UNL A   1      45.222  20.815  24.824  1.00  0.00     0.055 A 
ATOM     79  C   UNL A   1      43.713  22.501  24.000  1.00  0.00     0.041 A 
ATOM     80  F   UNL A   1      43.645  24.609  25.025  1.00  0.00    -0.206 F 
ATOM     81  C   UNL A   1      44.184  21.189  23.967  1.00  0.00     0.022 A 
BRANCH  78  82
ATOM     82  S   UNL A   1      45.701  19.063  24.901  1.00  0.00     0.124 S 
ATOM     83  O   UNL A   1      46.806  19.092  25.853  1.00  0.00    -0.237 OA
ATOM     84  O   UNL A   1      44.486  18.398  25.366  1.00  0.00    -0.237 OA
ATOM     85  O   UNL A   1      46.062  18.773  23.516  1.00  0.00    -0.744 OA
ENDBRANCH  78  82
ENDBRANCH  51  75
BRANCH  63  86
ATOM     86  C   UNL A   1      46.489  29.862  28.018  1.00  0.00     0.023 A 
ATOM     87  C   UNL A   1      45.826  30.879  27.318  1.00  0.00     0.031 A 
ATOM     88  C   UNL A   1      47.765  30.227  28.530  1.00  0.00     0.131 A 
ATOM     89  C   UNL A   1      46.413  32.145  27.115  1.00  0.00     0.055 A 
ATOM     90  C   UNL A   1      48.334  31.495  28.361  1.00  0.00     0.041 A 
ATOM     91  F   UNL A   1      48.519  29.375  29.239  1.00  0.00    -0.206 F 
ATOM     92  C   UNL A   1      47.660  32.466  27.642  1.00  0.00     0.022 A 
BRANCH  89  93
ATOM     93  S   UNL A   1      45.510  33.364  26.120  1.00  0.00     0.124 S 
ATOM     94  O   UNL A   1      44.692  32.510  25.264  1.00  0.00    -0.237 OA
ATOM     95  O   UNL A   1      44.787  34.119  27.138  1.00  0.00    -0.237 OA
ATOM     96  O   UNL A   1      46.567  34.103  25.433  1.00  0.00    -0.744 OA
ENDBRANCH  89  93
ENDBRANCH  63  86
ENDBRANCH  37  38
ENDBRANCH  29  32
ENDBRANCH  27  28
ENDBRANCH  26  27
ENDBRANCH  25  26
ENDBRANCH   1  25
TORSDOF 19
ENDMDL
MODEL 3
REMARK VINA RESULT:     -11.6      2.064      2.370
REMARK SMILES Cc1ccc(CNc2ccc(C(=O)NCCCCCCNC(=O)c3ccc(-c4c5nc(c(-c6cc(S(=O)(=O)[O-])ccc6F)c6ccc([nH]6)c(-c6cc(S(=O)(=O)[O-])ccc6F)c6nc(c(-c7cc(S(=O)(=O)[O-])ccc7F)c7ccc4[nH]7)C=C6)C=C5)cc3)cc2Br)cc1
REMARK SMILES IDX 17 1 16 2 15 3 14 4 12 5 13 6 11 8 8 9 9 10 88 11 10 12
REMARK SMILES IDX 87 13 89 14 7 15 6 17 5 18 1 19 2 20 3 21 91 22 4 23 90 24
REMARK SMILES IDX 18 25 19 26 20 27 21 28 22 29 23 31 24 32 25 33 86 34 26 35
REMARK SMILES IDX 85 36 27 37 28 38 29 39 79 40 30 41 84 42 78 43 80 44 31 45
REMARK SMILES IDX 83 46 77 47 76 48 32 50 64 51 44 52 63 53 45 54 48 55 62 56
REMARK SMILES IDX 81 57 46 58 47 59 61 61 82 62 49 63 33 64 34 65 42 66 35 67
REMARK SMILES IDX 41 68 43 69 40 70 36 71 37 72 38 73 39 74 65 75 66 76 74 77
REMARK SMILES IDX 67 78 73 79 75 80 72 81 68 82 69 83 70 84 71 85 50 86 51 87
REMARK SMILES IDX 59 88 52 89 58 90 60 91 57 92 53 93 54 94 55 95 56 96
REMARK H PARENT 14 7 7 16 21 30 80 49 48 60
REMARK Flexibility Score: inf
ROOT
ATOM      1  C   UNL A   1      36.634  23.280  25.493  1.00  0.00     0.002 C 
ENDROOT
BRANCH   1   2
ATOM      2  C   UNL A   1      36.166  21.963  24.866  1.00  0.00     0.021 C 
BRANCH   2   3
ATOM      3  C   UNL A   1      35.395  20.994  25.755  1.00  0.00     0.116 C 
BRANCH   3   4
ATOM      4  N   UNL A   1      34.625  19.992  25.044  1.00  0.00    -0.352 N 
ATOM      5  C   UNL A   1      33.407  20.089  24.415  1.00  0.00     0.251 C 
ATOM      6  O   UNL A   1      32.932  19.101  23.856  1.00  0.00    -0.269 OA
ATOM      7  H   UNL A   1      35.040  19.100  25.006  1.00  0.00     0.163 HD
BRANCH   5   8
ATOM      8  C   UNL A   1      32.616  21.349  24.410  1.00  0.00     0.041 A 
ATOM      9  C   UNL A   1      31.050  23.725  24.513  1.00  0.00     0.049 A 
ATOM     10  C   UNL A   1      31.908  23.459  23.439  1.00  0.00     0.028 A 
ATOM     11  C   UNL A   1      30.978  22.748  25.527  1.00  0.00     0.041 A 
ATOM     12  C   UNL A   1      32.655  22.277  23.370  1.00  0.00     0.016 A 
ATOM     13  C   UNL A   1      31.747  21.578  25.482  1.00  0.00     0.031 A 
ATOM     14  Br  UNL A   1      29.788  22.962  27.001  1.00  0.00    -0.049 Br
BRANCH   9  15
ATOM     15  N   UNL A   1      30.284  24.874  24.584  1.00  0.00    -0.380 N 
ATOM     16  H   UNL A   1      29.328  24.783  24.364  1.00  0.00     0.160 HD
BRANCH  15  17
ATOM     17  C   UNL A   1      30.745  26.197  24.951  1.00  0.00     0.148 C 
BRANCH  17  18
ATOM     18  C   UNL A   1      30.083  27.237  24.075  1.00  0.00    -0.029 A 
ATOM     19  C   UNL A   1      28.191  30.251  21.627  1.00  0.00     0.044 C 
ATOM     20  C   UNL A   1      28.835  29.208  22.491  1.00  0.00    -0.051 A 
ATOM     21  C   UNL A   1      30.197  29.300  22.791  1.00  0.00     0.004 A 
ATOM     22  C   UNL A   1      28.098  28.131  22.995  1.00  0.00     0.004 A 
ATOM     23  C   UNL A   1      30.813  28.329  23.582  1.00  0.00     0.006 A 
ATOM     24  C   UNL A   1      28.716  27.156  23.784  1.00  0.00     0.006 A 
ENDBRANCH  17  18
ENDBRANCH  15  17
ENDBRANCH   9  15
ENDBRANCH   5   8
ENDBRANCH   3   4
ENDBRANCH   2   3
ENDBRANCH   1   2
BRANCH   1  25
ATOM     25  C   UNL A   1      38.135  23.468  25.744  1.00  0.00     0.002 C 
BRANCH  25  26
ATOM     26  C   UNL A   1      38.931  22.233  26.163  1.00  0.00     0.021 C 
BRANCH  26  27
ATOM     27  C   UNL A   1      40.234  22.512  26.906  1.00  0.00     0.116 C 
BRANCH  27  28
ATOM     28  N   UNL A   1      41.317  23.022  26.077  1.00  0.00    -0.352 N 
ATOM     29  C   UNL A   1      41.753  24.338  25.956  1.00  0.00     0.251 C 
ATOM     30  H   UNL A   1      41.798  22.355  25.536  1.00  0.00     0.163 HD
ATOM     31  O   UNL A   1      42.669  24.646  25.224  1.00  0.00    -0.269 OA
BRANCH  29  32
ATOM     32  C   UNL A   1      41.129  25.358  26.840  1.00  0.00     0.039 A 
ATOM     33  C   UNL A   1      40.856  26.614  26.289  1.00  0.00     0.014 A 
ATOM     34  C   UNL A   1      41.021  25.152  28.213  1.00  0.00     0.014 A 
ATOM     35  C   UNL A   1      40.697  27.710  27.135  1.00  0.00     0.010 A 
ATOM     36  C   UNL A   1      40.955  26.252  29.054  1.00  0.00     0.010 A 
ATOM     37  C   UNL A   1      40.861  27.539  28.515  1.00  0.00    -0.014 A 
BRANCH  37  38
ATOM     38  C   UNL A   1      41.116  28.666  29.413  1.00  0.00     0.031 A 
ATOM     39  C   UNL A   1      40.057  29.639  29.759  1.00  0.00     0.074 A 
ATOM     40  C   UNL A   1      42.358  28.895  29.898  1.00  0.00     0.049 A 
ATOM     41  N   UNL A   1      40.266  30.910  29.884  1.00  0.00    -0.248 NA
ATOM     42  C   UNL A   1      38.669  29.252  29.980  1.00  0.00     0.031 C 
ATOM     43  C   UNL A   1      42.738  29.899  30.890  1.00  0.00     0.029 A 
ATOM     44  N   UNL A   1      43.579  28.433  29.410  1.00  0.00    -0.354 N 
ATOM     45  C   UNL A   1      39.148  31.452  30.468  1.00  0.00     0.074 A 
ATOM     46  C   UNL A   1      38.153  30.401  30.432  1.00  0.00     0.031 C 
ATOM     47  C   UNL A   1      44.026  30.219  30.697  1.00  0.00     0.029 A 
ATOM     48  C   UNL A   1      44.477  29.503  29.516  1.00  0.00     0.049 A 
ATOM     49  H   UNL A   1      43.772  27.533  29.060  1.00  0.00     0.167 HD
ATOM     50  C   UNL A   1      39.198  32.676  31.069  1.00  0.00     0.034 A 
ATOM     51  C   UNL A   1      45.180  30.036  28.478  1.00  0.00     0.034 A 
ATOM     52  C   UNL A   1      40.540  33.248  31.070  1.00  0.00     0.049 A 
ATOM     53  C   UNL A   1      45.036  31.538  28.357  1.00  0.00     0.074 A 
ATOM     54  C   UNL A   1      41.515  33.338  32.053  1.00  0.00     0.029 A 
ATOM     55  N   UNL A   1      41.142  33.640  29.884  1.00  0.00    -0.354 N 
ATOM     56  N   UNL A   1      44.107  32.235  28.948  1.00  0.00    -0.248 NA
ATOM     57  C   UNL A   1      45.888  32.358  27.504  1.00  0.00     0.031 C 
ATOM     58  C   UNL A   1      42.709  33.801  31.450  1.00  0.00     0.029 A 
ATOM     59  C   UNL A   1      42.460  33.997  30.104  1.00  0.00     0.049 A 
ATOM     60  H   UNL A   1      40.695  33.662  29.007  1.00  0.00     0.167 HD
ATOM     61  C   UNL A   1      44.198  33.554  28.561  1.00  0.00     0.074 A 
ATOM     62  C   UNL A   1      45.341  33.576  27.667  1.00  0.00     0.031 C 
ATOM     63  C   UNL A   1      43.299  34.484  29.014  1.00  0.00     0.034 A 
BRANCH  50  64
ATOM     64  C   UNL A   1      38.082  33.212  31.935  1.00  0.00     0.023 A 
ATOM     65  C   UNL A   1      38.151  33.079  33.337  1.00  0.00     0.031 A 
ATOM     66  C   UNL A   1      36.931  33.852  31.440  1.00  0.00     0.131 A 
ATOM     67  C   UNL A   1      37.081  33.459  34.166  1.00  0.00     0.055 A 
ATOM     68  C   UNL A   1      35.840  34.183  32.256  1.00  0.00     0.041 A 
ATOM     69  F   UNL A   1      36.831  34.203  30.148  1.00  0.00    -0.206 F 
ATOM     70  C   UNL A   1      35.904  33.970  33.627  1.00  0.00     0.022 A 
BRANCH  67  71
ATOM     71  S   UNL A   1      37.248  33.269  35.962  1.00  0.00     0.124 S 
ATOM     72  O   UNL A   1      37.485  31.835  36.103  1.00  0.00    -0.237 OA
ATOM     73  O   UNL A   1      38.378  34.142  36.261  1.00  0.00    -0.237 OA
ATOM     74  O   UNL A   1      35.958  33.731  36.473  1.00  0.00    -0.744 OA
ENDBRANCH  67  71
ENDBRANCH  50  64
BRANCH  51  75
ATOM     75  C   UNL A   1      45.396  29.123  27.326  1.00  0.00     0.023 A 
ATOM     76  C   UNL A   1      46.521  28.274  27.356  1.00  0.00     0.031 A 
ATOM     77  C   UNL A   1      44.369  28.829  26.418  1.00  0.00     0.131 A 
ATOM     78  C   UNL A   1      46.536  27.101  26.590  1.00  0.00     0.055 A 
ATOM     79  C   UNL A   1      44.408  27.680  25.622  1.00  0.00     0.041 A 
ATOM     80  F   UNL A   1      43.256  29.576  26.381  1.00  0.00    -0.206 F 
ATOM     81  C   UNL A   1      45.477  26.791  25.733  1.00  0.00     0.022 A 
BRANCH  78  82
ATOM     82  S   UNL A   1      47.830  25.854  26.864  1.00  0.00     0.124 S 
ATOM     83  O   UNL A   1      47.505  25.370  28.201  1.00  0.00    -0.237 OA
ATOM     84  O   UNL A   1      47.618  24.900  25.779  1.00  0.00    -0.237 OA
ATOM     85  O   UNL A   1      49.055  26.641  26.753  1.00  0.00    -0.744 OA
ENDBRANCH  78  82
ENDBRANCH  51  75
BRANCH  63  86
ATOM     86  C   UNL A   1      43.151  35.937  28.577  1.00  0.00     0.023 A 
ATOM     87  C   UNL A   1      43.695  37.033  29.262  1.00  0.00     0.031 A 
ATOM     88  C   UNL A   1      42.450  36.269  27.386  1.00  0.00     0.131 A 
ATOM     89  C   UNL A   1      43.514  38.356  28.807  1.00  0.00     0.055 A 
ATOM     90  C   UNL A   1      42.301  37.579  26.913  1.00  0.00     0.041 A 
ATOM     91  F   UNL A   1      41.887  35.335  26.606  1.00  0.00    -0.206 F 
ATOM     92  C   UNL A   1      42.830  38.638  27.630  1.00  0.00     0.022 A 
BRANCH  89  93
ATOM     93  S   UNL A   1      44.183  39.711  29.811  1.00  0.00     0.124 S 
ATOM     94  O   UNL A   1      43.047  40.043  30.667  1.00  0.00    -0.237 OA
ATOM     95  O   UNL A   1      45.312  39.072  30.479  1.00  0.00    -0.237 OA
ATOM     96  O   UNL A   1      44.540  40.730  28.826  1.00  0.00    -0.744 OA
ENDBRANCH  89  93
ENDBRANCH  63  86
ENDBRANCH  37  38
ENDBRANCH  29  32
ENDBRANCH  27  28
ENDBRANCH  26  27
ENDBRANCH  25  26
ENDBRANCH   1  25
TORSDOF 19
ENDMDL
