MODEL 1
REMARK VINA RESULT:     -11.6      0.000      0.000
REMARK SMILES C[C@H](C(=O)NC1CCCC1)[N@H+]1CCn2nc(CCC(=O)NCCCCCCNC(=O)c3ccc(-c4c5nc(c(-c6cc(S(=O)(=O)[O-])ccc6F)c6ccc([nH]6)c(-c6cc(S(=O)(=O)[O-])ccc6F)c6nc(c(-c7cc(S(=O)(=O)[O-])ccc7F)c7ccc4[nH]7)C=C6)C=C5)cc3)cc2C1
REMARK SMILES IDX 23 1 22 2 21 3 19 4 20 5 18 7 17 8 16 9 11 10 12 11 96 12
REMARK SMILES IDX 13 14 95 15 14 16 94 17 15 18 2 19 1 20 3 21 4 22 5 23 6 25
REMARK SMILES IDX 7 26 10 27 8 28 9 29 24 30 25 31 26 32 27 33 28 34 29 35
REMARK SMILES IDX 30 37 31 38 32 39 93 40 33 41 92 42 34 43 35 44 36 45 86 46
REMARK SMILES IDX 37 47 91 48 85 49 87 50 38 51 90 52 84 53 83 54 39 56 71 57
REMARK SMILES IDX 51 58 70 59 52 60 55 61 69 62 88 63 53 64 54 65 68 67 89 68
REMARK SMILES IDX 56 69 40 70 41 71 49 72 42 73 48 74 50 75 47 76 43 77 44 78
REMARK SMILES IDX 45 79 46 80 72 81 73 82 81 83 74 84 80 85 82 86 79 87 75 88
REMARK SMILES IDX 76 89 77 90 78 91 57 92 58 93 66 94 59 95 65 96 67 97 64 98
REMARK SMILES IDX 60 99 61 100 62 101 63 102
REMARK H PARENT 21 6 11 13 5 24 28 36 87 55 55 66
REMARK Flexibility Score: inf
ROOT
ATOM      1  C   UNL A   1      34.097  25.264  25.773  1.00  0.00     0.021 C 
ENDROOT
BRANCH   1   2
ATOM      2  C   UNL A   1      33.118  24.312  26.453  1.00  0.00     0.116 C 
BRANCH   2   3
ATOM      3  N   UNL A   1      33.683  22.987  26.634  1.00  0.00    -0.356 N 
ATOM      4  C   UNL A   1      33.317  21.776  26.122  1.00  0.00     0.220 C 
ATOM      5  O   UNL A   1      33.901  20.775  26.547  1.00  0.00    -0.275 OA
ATOM      6  H   UNL A   1      34.467  22.957  27.230  1.00  0.00     0.163 HD
BRANCH   4   7
ATOM      7  C   UNL A   1      32.299  21.638  25.006  1.00  0.00     0.106 C 
BRANCH   7   8
ATOM      8  C   UNL A   1      32.865  22.005  23.631  1.00  0.00     0.068 C 
BRANCH   8   9
ATOM      9  C   UNL A   1      32.186  23.209  23.096  1.00  0.00     0.063 A 
ATOM     10  N   UNL A   1      31.225  27.470  23.050  1.00  0.00    -0.318 N 
ATOM     11  C   UNL A   1      29.999  26.970  23.683  1.00  0.00     0.287 C 
ATOM     12  C   UNL A   1      31.879  26.678  22.013  1.00  0.00     0.319 C 
ATOM     13  H   UNL A   1      31.780  27.240  23.874  1.00  0.00     0.349 HD
ATOM     14  C   UNL A   1      29.596  25.516  23.380  1.00  0.00     0.206 C 
ATOM     15  C   UNL A   1      31.845  25.258  22.387  1.00  0.00     0.093 A 
ATOM     16  N   UNL A   1      30.753  24.737  23.010  1.00  0.00    -0.258 N 
ATOM     17  C   UNL A   1      32.766  24.246  22.327  1.00  0.00     0.055 A 
ATOM     18  N   UNL A   1      30.926  23.485  23.445  1.00  0.00    -0.177 NA
BRANCH  10  19
ATOM     19  C   UNL A   1      31.431  28.919  22.924  1.00  0.00     0.271 C 
ATOM     20  C   UNL A   1      32.945  29.172  22.946  1.00  0.00     0.086 C 
BRANCH  19  21
ATOM     21  C   UNL A   1      30.697  29.798  23.960  1.00  0.00     0.278 C 
ATOM     22  O   UNL A   1      30.883  29.645  25.173  1.00  0.00    -0.268 OA
ATOM     23  N   UNL A   1      29.882  30.827  23.585  1.00  0.00    -0.348 N 
ATOM     24  H   UNL A   1      29.557  31.380  24.332  1.00  0.00     0.163 HD
BRANCH  23  25
ATOM     25  C   UNL A   1      29.408  31.250  22.278  1.00  0.00     0.082 C 
ATOM     26  C   UNL A   1      28.421  30.308  21.619  1.00  0.00     0.025 C 
ATOM     27  C   UNL A   1      28.698  32.578  22.271  1.00  0.00     0.025 C 
ATOM     28  C   UNL A   1      27.773  31.120  20.519  1.00  0.00     0.002 C 
ATOM     29  C   UNL A   1      27.935  32.576  20.944  1.00  0.00     0.002 C 
ENDBRANCH  23  25
ENDBRANCH  19  21
ENDBRANCH  10  19
ENDBRANCH   8   9
ENDBRANCH   7   8
ENDBRANCH   4   7
ENDBRANCH   2   3
ENDBRANCH   1   2
BRANCH   1  30
ATOM     30  C   UNL A   1      33.656  26.668  25.334  1.00  0.00     0.002 C 
BRANCH  30  31
ATOM     31  C   UNL A   1      32.931  27.570  26.356  1.00  0.00     0.002 C 
BRANCH  31  32
ATOM     32  C   UNL A   1      33.760  28.346  27.406  1.00  0.00     0.021 C 
BRANCH  32  33
ATOM     33  C   UNL A   1      34.804  29.340  26.875  1.00  0.00     0.116 C 
BRANCH  33  34
ATOM     34  N   UNL A   1      34.844  30.647  27.536  1.00  0.00    -0.352 N 
ATOM     35  C   UNL A   1      35.629  31.096  28.607  1.00  0.00     0.251 C 
ATOM     36  H   UNL A   1      34.220  31.315  27.172  1.00  0.00     0.163 HD
ATOM     37  O   UNL A   1      35.306  32.122  29.185  1.00  0.00    -0.269 OA
BRANCH  35  38
ATOM     38  C   UNL A   1      36.863  30.361  29.039  1.00  0.00     0.039 A 
ATOM     39  C   UNL A   1      36.841  29.216  29.860  1.00  0.00     0.014 A 
ATOM     40  C   UNL A   1      38.096  30.864  28.682  1.00  0.00     0.014 A 
ATOM     41  C   UNL A   1      38.052  28.589  30.262  1.00  0.00     0.010 A 
ATOM     42  C   UNL A   1      39.254  30.172  28.948  1.00  0.00     0.010 A 
ATOM     43  C   UNL A   1      39.285  29.071  29.797  1.00  0.00    -0.014 A 
BRANCH  43  44
ATOM     44  C   UNL A   1      40.627  28.449  30.017  1.00  0.00     0.031 A 
ATOM     45  C   UNL A   1      41.102  28.343  31.461  1.00  0.00     0.074 A 
ATOM     46  C   UNL A   1      41.191  27.645  29.052  1.00  0.00     0.049 A 
ATOM     47  N   UNL A   1      42.309  28.196  31.895  1.00  0.00    -0.248 NA
ATOM     48  C   UNL A   1      40.119  28.299  32.569  1.00  0.00     0.031 C 
ATOM     49  C   UNL A   1      40.688  27.390  27.685  1.00  0.00     0.029 A 
ATOM     50  N   UNL A   1      42.240  26.754  29.108  1.00  0.00    -0.354 N 
ATOM     51  C   UNL A   1      42.242  27.885  33.257  1.00  0.00     0.074 A 
ATOM     52  C   UNL A   1      40.851  27.883  33.608  1.00  0.00     0.031 C 
ATOM     53  C   UNL A   1      41.262  26.284  27.158  1.00  0.00     0.029 A 
ATOM     54  C   UNL A   1      42.309  25.818  28.049  1.00  0.00     0.049 A 
ATOM     55  H   UNL A   1      42.900  26.768  29.838  1.00  0.00     0.167 HD
ATOM     56  C   UNL A   1      43.362  27.626  33.988  1.00  0.00     0.034 A 
ATOM     57  C   UNL A   1      43.152  24.748  27.885  1.00  0.00     0.034 A 
ATOM     58  C   UNL A   1      44.482  28.334  33.429  1.00  0.00     0.049 A 
ATOM     59  C   UNL A   1      44.287  24.975  28.803  1.00  0.00     0.074 A 
ATOM     60  C   UNL A   1      44.681  29.676  33.159  1.00  0.00     0.029 A 
ATOM     61  N   UNL A   1      45.393  27.660  32.653  1.00  0.00    -0.354 N 
ATOM     62  N   UNL A   1      45.140  25.945  28.659  1.00  0.00    -0.248 NA
ATOM     63  C   UNL A   1      44.195  24.399  30.132  1.00  0.00     0.031 C 
ATOM     64  C   UNL A   1      45.199  29.676  31.836  1.00  0.00     0.029 A 
ATOM     65  C   UNL A   1      45.446  28.352  31.466  1.00  0.00     0.049 A 
ATOM     66  H   UNL A   1      45.901  26.853  32.896  1.00  0.00     0.167 HD
ATOM     67  C   UNL A   1      45.340  26.414  29.942  1.00  0.00     0.074 A 
ATOM     68  C   UNL A   1      44.806  25.367  30.819  1.00  0.00     0.031 C 
ATOM     69  C   UNL A   1      45.644  27.724  30.177  1.00  0.00     0.034 A 
BRANCH  56  70
ATOM     70  C   UNL A   1      43.545  26.542  35.017  1.00  0.00     0.023 A 
ATOM     71  C   UNL A   1      43.830  26.941  36.334  1.00  0.00     0.031 A 
ATOM     72  C   UNL A   1      43.828  25.202  34.705  1.00  0.00     0.131 A 
ATOM     73  C   UNL A   1      44.522  26.091  37.213  1.00  0.00     0.055 A 
ATOM     74  C   UNL A   1      44.481  24.338  35.595  1.00  0.00     0.041 A 
ATOM     75  F   UNL A   1      43.544  24.700  33.502  1.00  0.00    -0.206 F 
ATOM     76  C   UNL A   1      44.871  24.796  36.846  1.00  0.00     0.022 A 
BRANCH  73  77
ATOM     77  S   UNL A   1      45.126  26.801  38.767  1.00  0.00     0.124 S 
ATOM     78  O   UNL A   1      46.570  26.653  38.611  1.00  0.00    -0.237 OA
ATOM     79  O   UNL A   1      44.609  28.163  38.692  1.00  0.00    -0.237 OA
ATOM     80  O   UNL A   1      44.514  25.955  39.787  1.00  0.00    -0.744 OA
ENDBRANCH  73  77
ENDBRANCH  56  70
BRANCH  57  81
ATOM     81  C   UNL A   1      43.044  23.440  27.143  1.00  0.00     0.023 A 
ATOM     82  C   UNL A   1      43.999  23.006  26.177  1.00  0.00     0.031 A 
ATOM     83  C   UNL A   1      42.144  22.458  27.601  1.00  0.00     0.131 A 
ATOM     84  C   UNL A   1      44.032  21.655  25.732  1.00  0.00     0.055 A 
ATOM     85  C   UNL A   1      42.186  21.125  27.165  1.00  0.00     0.041 A 
ATOM     86  F   UNL A   1      41.254  22.738  28.565  1.00  0.00    -0.206 F 
ATOM     87  C   UNL A   1      43.137  20.715  26.241  1.00  0.00     0.022 A 
BRANCH  84  88
ATOM     88  S   UNL A   1      45.317  21.051  24.572  1.00  0.00     0.124 S 
ATOM     89  O   UNL A   1      45.863  22.291  24.032  1.00  0.00    -0.237 OA
ATOM     90  O   UNL A   1      46.197  20.277  25.440  1.00  0.00    -0.237 OA
ATOM     91  O   UNL A   1      44.560  20.248  23.609  1.00  0.00    -0.744 OA
ENDBRANCH  84  88
ENDBRANCH  57  81
BRANCH  69  92
ATOM     92  C   UNL A   1      45.980  28.644  29.012  1.00  0.00     0.023 A 
ATOM     93  C   UNL A   1      45.095  29.570  28.409  1.00  0.00     0.031 A 
ATOM     94  C   UNL A   1      47.325  28.679  28.598  1.00  0.00     0.131 A 
ATOM     95  C   UNL A   1      45.571  30.473  27.436  1.00  0.00     0.055 A 
ATOM     96  C   UNL A   1      47.800  29.603  27.671  1.00  0.00     0.041 A 
ATOM     97  F   UNL A   1      48.226  27.835  29.129  1.00  0.00    -0.206 F 
ATOM     98  C   UNL A   1      46.922  30.500  27.080  1.00  0.00     0.022 A 
BRANCH  95  99
ATOM     99  S   UNL A   1      44.437  31.609  26.570  1.00  0.00     0.124 S 
ATOM    100  O   UNL A   1      43.996  32.524  27.615  1.00  0.00    -0.237 OA
ATOM    101  O   UNL A   1      45.294  32.184  25.536  1.00  0.00    -0.237 OA
ATOM    102  O   UNL A   1      43.393  30.716  26.063  1.00  0.00    -0.744 OA
ENDBRANCH  95  99
ENDBRANCH  69  92
ENDBRANCH  43  44
ENDBRANCH  35  38
ENDBRANCH  33  34
ENDBRANCH  32  33
ENDBRANCH  31  32
ENDBRANCH  30  31
ENDBRANCH   1  30
TORSDOF 21
ENDMDL
MODEL 2
REMARK VINA RESULT:     -11.5      2.460      8.493
REMARK SMILES C[C@H](C(=O)NC1CCCC1)[N@H+]1CCn2nc(CCC(=O)NCCCCCCNC(=O)c3ccc(-c4c5nc(c(-c6cc(S(=O)(=O)[O-])ccc6F)c6ccc([nH]6)c(-c6cc(S(=O)(=O)[O-])ccc6F)c6nc(c(-c7cc(S(=O)(=O)[O-])ccc7F)c7ccc4[nH]7)C=C6)C=C5)cc3)cc2C1
REMARK SMILES IDX 23 1 22 2 21 3 19 4 20 5 18 7 17 8 16 9 11 10 12 11 96 12
REMARK SMILES IDX 13 14 95 15 14 16 94 17 15 18 2 19 1 20 3 21 4 22 5 23 6 25
REMARK SMILES IDX 7 26 10 27 8 28 9 29 24 30 25 31 26 32 27 33 28 34 29 35
REMARK SMILES IDX 30 37 31 38 32 39 93 40 33 41 92 42 34 43 35 44 36 45 86 46
REMARK SMILES IDX 37 47 91 48 85 49 87 50 38 51 90 52 84 53 83 54 39 56 71 57
REMARK SMILES IDX 51 58 70 59 52 60 55 61 69 62 88 63 53 64 54 65 68 67 89 68
REMARK SMILES IDX 56 69 40 70 41 71 49 72 42 73 48 74 50 75 47 76 43 77 44 78
REMARK SMILES IDX 45 79 46 80 72 81 73 82 81 83 74 84 80 85 82 86 79 87 75 88
REMARK SMILES IDX 76 89 77 90 78 91 57 92 58 93 66 94 59 95 65 96 67 97 64 98
REMARK SMILES IDX 60 99 61 100 62 101 63 102
REMARK H PARENT 21 6 11 13 5 24 28 36 87 55 55 66
REMARK Flexibility Score: inf
ROOT
ATOM      1  C   UNL A   1      39.969  22.421  26.906  1.00  0.00     0.021 C 
ENDROOT
BRANCH   1   2
ATOM      2  C   UNL A   1      38.667  22.658  26.147  1.00  0.00     0.116 C 
BRANCH   2   3
ATOM      3  N   UNL A   1      37.985  21.414  25.834  1.00  0.00    -0.356 N 
ATOM      4  C   UNL A   1      36.893  21.160  25.056  1.00  0.00     0.220 C 
ATOM      5  O   UNL A   1      36.439  20.012  25.065  1.00  0.00    -0.275 OA
ATOM      6  H   UNL A   1      38.380  20.617  26.256  1.00  0.00     0.163 HD
BRANCH   4   7
ATOM      7  C   UNL A   1      36.289  22.202  24.134  1.00  0.00     0.106 C 
BRANCH   7   8
ATOM      8  C   UNL A   1      34.861  22.591  24.525  1.00  0.00     0.068 C 
BRANCH   8   9
ATOM      9  C   UNL A   1      34.494  23.895  23.921  1.00  0.00     0.063 A 
ATOM     10  N   UNL A   1      31.756  27.194  23.086  1.00  0.00    -0.318 N 
ATOM     11  C   UNL A   1      31.656  26.488  21.804  1.00  0.00     0.287 C 
ATOM     12  C   UNL A   1      33.033  27.233  23.792  1.00  0.00     0.319 C 
ATOM     13  H   UNL A   1      31.269  26.442  23.572  1.00  0.00     0.349 HD
ATOM     14  C   UNL A   1      32.856  25.622  21.383  1.00  0.00     0.206 C 
ATOM     15  C   UNL A   1      33.689  25.923  23.691  1.00  0.00     0.093 A 
ATOM     16  N   UNL A   1      33.605  25.199  22.542  1.00  0.00    -0.258 N 
ATOM     17  C   UNL A   1      34.368  25.138  24.585  1.00  0.00     0.055 A 
ATOM     18  N   UNL A   1      34.097  23.960  22.647  1.00  0.00    -0.177 NA
BRANCH  10  19
ATOM     19  C   UNL A   1      30.889  28.352  23.341  1.00  0.00     0.271 C 
ATOM     20  C   UNL A   1      31.266  28.914  24.720  1.00  0.00     0.086 C 
BRANCH  19  21
ATOM     21  C   UNL A   1      29.370  28.094  23.234  1.00  0.00     0.278 C 
ATOM     22  O   UNL A   1      28.883  27.006  23.562  1.00  0.00    -0.268 OA
ATOM     23  N   UNL A   1      28.497  29.074  22.855  1.00  0.00    -0.348 N 
ATOM     24  H   UNL A   1      27.549  28.821  22.928  1.00  0.00     0.163 HD
BRANCH  23  25
ATOM     25  C   UNL A   1      28.721  30.422  22.362  1.00  0.00     0.082 C 
ATOM     26  C   UNL A   1      28.078  30.730  21.026  1.00  0.00     0.025 C 
ATOM     27  C   UNL A   1      28.210  31.510  23.267  1.00  0.00     0.025 C 
ATOM     28  C   UNL A   1      28.084  32.239  20.922  1.00  0.00     0.002 C 
ATOM     29  C   UNL A   1      28.153  32.741  22.360  1.00  0.00     0.002 C 
ENDBRANCH  23  25
ENDBRANCH  19  21
ENDBRANCH  10  19
ENDBRANCH   8   9
ENDBRANCH   7   8
ENDBRANCH   4   7
ENDBRANCH   2   3
ENDBRANCH   1   2
BRANCH   1  30
ATOM     30  C   UNL A   1      41.046  21.478  26.351  1.00  0.00     0.002 C 
BRANCH  30  31
ATOM     31  C   UNL A   1      40.764  19.961  26.334  1.00  0.00     0.002 C 
BRANCH  31  32
ATOM     32  C   UNL A   1      41.906  18.981  25.977  1.00  0.00     0.021 C 
BRANCH  32  33
ATOM     33  C   UNL A   1      43.344  19.468  26.215  1.00  0.00     0.116 C 
BRANCH  33  34
ATOM     34  N   UNL A   1      44.132  19.763  25.015  1.00  0.00    -0.352 N 
ATOM     35  C   UNL A   1      44.486  20.993  24.444  1.00  0.00     0.251 C 
ATOM     36  H   UNL A   1      44.465  18.972  24.533  1.00  0.00     0.163 HD
ATOM     37  O   UNL A   1      44.901  21.013  23.296  1.00  0.00    -0.269 OA
BRANCH  35  38
ATOM     38  C   UNL A   1      44.389  22.274  25.217  1.00  0.00     0.039 A 
ATOM     39  C   UNL A   1      43.629  23.384  24.796  1.00  0.00     0.014 A 
ATOM     40  C   UNL A   1      45.136  22.416  26.366  1.00  0.00     0.014 A 
ATOM     41  C   UNL A   1      43.610  24.582  25.560  1.00  0.00     0.010 A 
ATOM     42  C   UNL A   1      45.000  23.518  27.177  1.00  0.00     0.010 A 
ATOM     43  C   UNL A   1      44.305  24.655  26.777  1.00  0.00    -0.014 A 
BRANCH  43  44
ATOM     44  C   UNL A   1      44.277  25.785  27.755  1.00  0.00     0.031 A 
ATOM     45  C   UNL A   1      45.428  26.781  27.680  1.00  0.00     0.074 A 
ATOM     46  C   UNL A   1      43.100  26.147  28.372  1.00  0.00     0.049 A 
ATOM     47  N   UNL A   1      45.834  27.601  28.592  1.00  0.00    -0.248 NA
ATOM     48  C   UNL A   1      46.171  26.970  26.413  1.00  0.00     0.031 C 
ATOM     49  C   UNL A   1      41.796  25.454  28.299  1.00  0.00     0.029 A 
ATOM     50  N   UNL A   1      42.748  27.282  29.067  1.00  0.00    -0.354 N 
ATOM     51  C   UNL A   1      46.734  28.492  27.999  1.00  0.00     0.074 A 
ATOM     52  C   UNL A   1      46.847  28.105  26.622  1.00  0.00     0.031 C 
ATOM     53  C   UNL A   1      40.794  26.271  28.700  1.00  0.00     0.029 A 
ATOM     54  C   UNL A   1      41.359  27.497  29.231  1.00  0.00     0.049 A 
ATOM     55  H   UNL A   1      43.420  27.905  29.427  1.00  0.00     0.167 HD
ATOM     56  C   UNL A   1      47.302  29.511  28.704  1.00  0.00     0.034 A 
ATOM     57  C   UNL A   1      40.700  28.576  29.766  1.00  0.00     0.034 A 
ATOM     58  C   UNL A   1      47.404  29.144  30.091  1.00  0.00     0.049 A 
ATOM     59  C   UNL A   1      41.705  29.322  30.550  1.00  0.00     0.074 A 
ATOM     60  C   UNL A   1      47.999  28.064  30.715  1.00  0.00     0.029 A 
ATOM     61  N   UNL A   1      46.497  29.642  30.993  1.00  0.00    -0.354 N 
ATOM     62  N   UNL A   1      42.262  28.854  31.628  1.00  0.00    -0.248 NA
ATOM     63  C   UNL A   1      42.421  30.390  29.876  1.00  0.00     0.031 C 
ATOM     64  C   UNL A   1      47.002  27.613  31.622  1.00  0.00     0.029 A 
ATOM     65  C   UNL A   1      45.959  28.541  31.617  1.00  0.00     0.049 A 
ATOM     66  H   UNL A   1      46.278  30.587  31.159  1.00  0.00     0.167 HD
ATOM     67  C   UNL A   1      43.589  29.218  31.510  1.00  0.00     0.074 A 
ATOM     68  C   UNL A   1      43.612  30.241  30.459  1.00  0.00     0.031 C 
ATOM     69  C   UNL A   1      44.582  28.457  32.055  1.00  0.00     0.034 A 
BRANCH  56  70
ATOM     70  C   UNL A   1      47.511  30.928  28.242  1.00  0.00     0.023 A 
ATOM     71  C   UNL A   1      46.372  31.658  27.855  1.00  0.00     0.031 A 
ATOM     72  C   UNL A   1      48.745  31.442  27.812  1.00  0.00     0.131 A 
ATOM     73  C   UNL A   1      46.471  32.723  26.944  1.00  0.00     0.055 A 
ATOM     74  C   UNL A   1      48.850  32.532  26.937  1.00  0.00     0.041 A 
ATOM     75  F   UNL A   1      49.893  30.863  28.169  1.00  0.00    -0.206 F 
ATOM     76  C   UNL A   1      47.703  33.154  26.463  1.00  0.00     0.022 A 
BRANCH  73  77
ATOM     77  S   UNL A   1      44.932  33.388  26.259  1.00  0.00     0.124 S 
ATOM     78  O   UNL A   1      45.314  34.768  25.976  1.00  0.00    -0.237 OA
ATOM     79  O   UNL A   1      44.726  32.528  25.100  1.00  0.00    -0.237 OA
ATOM     80  O   UNL A   1      43.973  33.212  27.347  1.00  0.00    -0.744 OA
ENDBRANCH  73  77
ENDBRANCH  56  70
BRANCH  57  81
ATOM     81  C   UNL A   1      39.326  29.161  29.565  1.00  0.00     0.023 A 
ATOM     82  C   UNL A   1      38.603  29.833  30.595  1.00  0.00     0.031 A 
ATOM     83  C   UNL A   1      38.829  29.327  28.258  1.00  0.00     0.131 A 
ATOM     84  C   UNL A   1      37.464  30.629  30.293  1.00  0.00     0.055 A 
ATOM     85  C   UNL A   1      37.709  30.121  27.965  1.00  0.00     0.041 A 
ATOM     86  F   UNL A   1      39.476  28.803  27.206  1.00  0.00    -0.206 F 
ATOM     87  C   UNL A   1      37.032  30.785  28.977  1.00  0.00     0.022 A 
BRANCH  84  88
ATOM     88  S   UNL A   1      36.583  31.587  31.586  1.00  0.00     0.124 S 
ATOM     89  O   UNL A   1      36.493  30.628  32.681  1.00  0.00    -0.237 OA
ATOM     90  O   UNL A   1      37.462  32.731  31.795  1.00  0.00    -0.237 OA
ATOM     91  O   UNL A   1      35.302  31.915  30.957  1.00  0.00    -0.744 OA
ENDBRANCH  84  88
ENDBRANCH  57  81
BRANCH  69  92
ATOM     92  C   UNL A   1      44.230  27.307  32.988  1.00  0.00     0.023 A 
ATOM     93  C   UNL A   1      43.733  27.435  34.307  1.00  0.00     0.031 A 
ATOM     94  C   UNL A   1      44.264  26.011  32.439  1.00  0.00     0.131 A 
ATOM     95  C   UNL A   1      43.302  26.295  35.016  1.00  0.00     0.055 A 
ATOM     96  C   UNL A   1      43.794  24.895  33.124  1.00  0.00     0.041 A 
ATOM     97  F   UNL A   1      44.716  25.809  31.189  1.00  0.00    -0.206 F 
ATOM     98  C   UNL A   1      43.317  25.031  34.420  1.00  0.00     0.022 A 
BRANCH  95  99
ATOM     99  S   UNL A   1      42.751  26.416  36.750  1.00  0.00     0.124 S 
ATOM    100  O   UNL A   1      41.305  26.254  36.668  1.00  0.00    -0.237 OA
ATOM    101  O   UNL A   1      43.482  25.325  37.390  1.00  0.00    -0.237 OA
ATOM    102  O   UNL A   1      43.192  27.755  37.148  1.00  0.00    -0.744 OA
ENDBRANCH  95  99
ENDBRANCH  69  92
ENDBRANCH  43  44
ENDBRANCH  35  38
ENDBRANCH  33  34
ENDBRANCH  32  33
ENDBRANCH  31  32
ENDBRANCH  30  31
ENDBRANCH   1  30
TORSDOF 21
ENDMDL
MODEL 3
REMARK VINA RESULT:     -11.2      1.606      4.736
REMARK SMILES C[C@H](C(=O)NC1CCCC1)[N@H+]1CCn2nc(CCC(=O)NCCCCCCNC(=O)c3ccc(-c4c5nc(c(-c6cc(S(=O)(=O)[O-])ccc6F)c6ccc([nH]6)c(-c6cc(S(=O)(=O)[O-])ccc6F)c6nc(c(-c7cc(S(=O)(=O)[O-])ccc7F)c7ccc4[nH]7)C=C6)C=C5)cc3)cc2C1
REMARK SMILES IDX 23 1 22 2 21 3 19 4 20 5 18 7 17 8 16 9 11 10 12 11 96 12
REMARK SMILES IDX 13 14 95 15 14 16 94 17 15 18 2 19 1 20 3 21 4 22 5 23 6 25
REMARK SMILES IDX 7 26 10 27 8 28 9 29 24 30 25 31 26 32 27 33 28 34 29 35
REMARK SMILES IDX 30 37 31 38 32 39 93 40 33 41 92 42 34 43 35 44 36 45 86 46
REMARK SMILES IDX 37 47 91 48 85 49 87 50 38 51 90 52 84 53 83 54 39 56 71 57
REMARK SMILES IDX 51 58 70 59 52 60 55 61 69 62 88 63 53 64 54 65 68 67 89 68
REMARK SMILES IDX 56 69 40 70 41 71 49 72 42 73 48 74 50 75 47 76 43 77 44 78
REMARK SMILES IDX 45 79 46 80 72 81 73 82 81 83 74 84 80 85 82 86 79 87 75 88
REMARK SMILES IDX 76 89 77 90 78 91 57 92 58 93 66 94 59 95 65 96 67 97 64 98
REMARK SMILES IDX 60 99 61 100 62 101 63 102
REMARK H PARENT 21 6 11 13 5 24 28 36 87 55 55 66
REMARK Flexibility Score: inf
ROOT
ATOM      1  C   UNL A   1      32.083  29.970  26.783  1.00  0.00     0.021 C 
ENDROOT
BRANCH   1   2
ATOM      2  C   UNL A   1      31.913  30.084  25.271  1.00  0.00     0.116 C 
BRANCH   2   3
ATOM      3  N   UNL A   1      30.642  30.687  24.910  1.00  0.00    -0.356 N 
ATOM      4  C   UNL A   1      29.844  30.511  23.817  1.00  0.00     0.220 C 
ATOM      5  O   UNL A   1      28.866  31.256  23.698  1.00  0.00    -0.275 OA
ATOM      6  H   UNL A   1      30.298  31.334  25.566  1.00  0.00     0.163 HD
BRANCH   4   7
ATOM      7  C   UNL A   1      30.066  29.394  22.815  1.00  0.00     0.106 C 
BRANCH   7   8
ATOM      8  C   UNL A   1      29.466  28.059  23.265  1.00  0.00     0.068 C 
BRANCH   8   9
ATOM      9  C   UNL A   1      30.541  27.094  23.600  1.00  0.00     0.063 A 
ATOM     10  N   UNL A   1      32.285  23.095  23.824  1.00  0.00    -0.318 N 
ATOM     11  C   UNL A   1      31.880  23.243  25.226  1.00  0.00     0.287 C 
ATOM     12  C   UNL A   1      32.773  24.256  23.086  1.00  0.00     0.319 C 
ATOM     13  H   UNL A   1      31.314  23.043  23.517  1.00  0.00     0.349 HD
ATOM     14  C   UNL A   1      31.770  24.675  25.778  1.00  0.00     0.206 C 
ATOM     15  C   UNL A   1      31.965  25.433  23.434  1.00  0.00     0.093 A 
ATOM     16  N   UNL A   1      31.526  25.611  24.709  1.00  0.00    -0.258 N 
ATOM     17  C   UNL A   1      31.426  26.456  22.699  1.00  0.00     0.055 A 
ATOM     18  N   UNL A   1      30.662  26.624  24.844  1.00  0.00    -0.177 NA
BRANCH  10  19
ATOM     19  C   UNL A   1      32.833  21.813  23.363  1.00  0.00     0.271 C 
ATOM     20  C   UNL A   1      31.872  21.255  22.302  1.00  0.00     0.086 C 
BRANCH  19  21
ATOM     21  C   UNL A   1      33.123  20.769  24.464  1.00  0.00     0.278 C 
ATOM     22  O   UNL A   1      32.223  20.053  24.918  1.00  0.00    -0.268 OA
ATOM     23  N   UNL A   1      34.389  20.535  24.921  1.00  0.00    -0.348 N 
ATOM     24  H   UNL A   1      34.462  19.776  25.542  1.00  0.00     0.163 HD
BRANCH  23  25
ATOM     25  C   UNL A   1      35.647  21.211  24.653  1.00  0.00     0.082 C 
ATOM     26  C   UNL A   1      35.725  22.640  25.149  1.00  0.00     0.025 C 
ATOM     27  C   UNL A   1      36.853  20.550  25.266  1.00  0.00     0.025 C 
ATOM     28  C   UNL A   1      37.199  22.982  25.140  1.00  0.00     0.002 C 
ATOM     29  C   UNL A   1      37.924  21.643  25.231  1.00  0.00     0.002 C 
ENDBRANCH  23  25
ENDBRANCH  19  21
ENDBRANCH  10  19
ENDBRANCH   8   9
ENDBRANCH   7   8
ENDBRANCH   4   7
ENDBRANCH   2   3
ENDBRANCH   1   2
BRANCH   1  30
ATOM     30  C   UNL A   1      33.035  30.906  27.542  1.00  0.00     0.002 C 
BRANCH  30  31
ATOM     31  C   UNL A   1      34.495  30.456  27.765  1.00  0.00     0.002 C 
BRANCH  31  32
ATOM     32  C   UNL A   1      35.650  31.359  27.273  1.00  0.00     0.021 C 
BRANCH  32  33
ATOM     33  C   UNL A   1      36.397  32.178  28.337  1.00  0.00     0.116 C 
BRANCH  33  34
ATOM     34  N   UNL A   1      35.895  32.064  29.708  1.00  0.00    -0.352 N 
ATOM     35  C   UNL A   1      36.340  31.267  30.772  1.00  0.00     0.251 C 
ATOM     36  H   UNL A   1      35.122  32.636  29.916  1.00  0.00     0.163 HD
ATOM     37  O   UNL A   1      35.610  31.112  31.739  1.00  0.00    -0.269 OA
BRANCH  35  38
ATOM     38  C   UNL A   1      37.695  30.624  30.759  1.00  0.00     0.039 A 
ATOM     39  C   UNL A   1      38.903  31.349  30.801  1.00  0.00     0.014 A 
ATOM     40  C   UNL A   1      37.780  29.256  30.623  1.00  0.00     0.014 A 
ATOM     41  C   UNL A   1      40.154  30.677  30.748  1.00  0.00     0.010 A 
ATOM     42  C   UNL A   1      38.985  28.601  30.721  1.00  0.00     0.010 A 
ATOM     43  C   UNL A   1      40.202  29.275  30.710  1.00  0.00    -0.014 A 
BRANCH  43  44
ATOM     44  C   UNL A   1      41.427  28.421  30.785  1.00  0.00     0.031 A 
ATOM     45  C   UNL A   1      41.927  28.069  32.181  1.00  0.00     0.074 A 
ATOM     46  C   UNL A   1      41.814  27.657  29.707  1.00  0.00     0.049 A 
ATOM     47  N   UNL A   1      43.107  27.676  32.529  1.00  0.00    -0.248 NA
ATOM     48  C   UNL A   1      40.991  28.053  33.328  1.00  0.00     0.031 C 
ATOM     49  C   UNL A   1      41.228  27.652  28.350  1.00  0.00     0.029 A 
ATOM     50  N   UNL A   1      42.700  26.607  29.607  1.00  0.00    -0.354 N 
ATOM     51  C   UNL A   1      43.037  27.221  33.850  1.00  0.00     0.074 A 
ATOM     52  C   UNL A   1      41.678  27.403  34.274  1.00  0.00     0.031 C 
ATOM     53  C   UNL A   1      41.589  26.538  27.673  1.00  0.00     0.029 A 
ATOM     54  C   UNL A   1      42.573  25.805  28.448  1.00  0.00     0.049 A 
ATOM     55  H   UNL A   1      43.378  26.426  30.297  1.00  0.00     0.167 HD
ATOM     56  C   UNL A   1      44.122  26.697  34.486  1.00  0.00     0.034 A 
ATOM     57  C   UNL A   1      43.219  24.639  28.120  1.00  0.00     0.034 A 
ATOM     58  C   UNL A   1      45.325  27.275  33.949  1.00  0.00     0.049 A 
ATOM     59  C   UNL A   1      44.406  24.568  28.995  1.00  0.00     0.074 A 
ATOM     60  C   UNL A   1      45.736  28.589  33.820  1.00  0.00     0.029 A 
ATOM     61  N   UNL A   1      46.082  26.559  33.055  1.00  0.00    -0.354 N 
ATOM     62  N   UNL A   1      45.405  25.396  28.914  1.00  0.00    -0.248 NA
ATOM     63  C   UNL A   1      44.266  23.860  30.255  1.00  0.00     0.031 C 
ATOM     64  C   UNL A   1      46.201  28.662  32.479  1.00  0.00     0.029 A 
ATOM     65  C   UNL A   1      46.209  27.369  31.951  1.00  0.00     0.049 A 
ATOM     66  H   UNL A   1      46.455  25.656  33.178  1.00  0.00     0.167 HD
ATOM     67  C   UNL A   1      45.726  25.670  30.229  1.00  0.00     0.074 A 
ATOM     68  C   UNL A   1      45.054  24.627  31.011  1.00  0.00     0.031 C 
ATOM     69  C   UNL A   1      46.253  26.876  30.591  1.00  0.00     0.034 A 
BRANCH  56  70
ATOM     70  C   UNL A   1      44.155  25.483  35.375  1.00  0.00     0.023 A 
ATOM     71  C   UNL A   1      44.726  25.631  36.652  1.00  0.00     0.031 A 
ATOM     72  C   UNL A   1      44.021  24.164  34.912  1.00  0.00     0.131 A 
ATOM     73  C   UNL A   1      45.287  24.533  37.326  1.00  0.00     0.055 A 
ATOM     74  C   UNL A   1      44.541  23.061  35.602  1.00  0.00     0.041 A 
ATOM     75  F   UNL A   1      43.441  23.903  33.739  1.00  0.00    -0.206 F 
ATOM     76  C   UNL A   1      45.218  23.247  36.799  1.00  0.00     0.022 A 
BRANCH  73  77
ATOM     77  S   UNL A   1      46.279  24.871  38.803  1.00  0.00     0.124 S 
ATOM     78  O   UNL A   1      47.621  24.546  38.331  1.00  0.00    -0.237 OA
ATOM     79  O   UNL A   1      46.002  26.285  39.030  1.00  0.00    -0.237 OA
ATOM     80  O   UNL A   1      45.724  23.958  39.799  1.00  0.00    -0.744 OA
ENDBRANCH  73  77
ENDBRANCH  56  70
BRANCH  57  81
ATOM     81  C   UNL A   1      42.866  23.464  27.243  1.00  0.00     0.023 A 
ATOM     82  C   UNL A   1      43.822  22.766  26.447  1.00  0.00     0.031 A 
ATOM     83  C   UNL A   1      41.623  22.824  27.414  1.00  0.00     0.131 A 
ATOM     84  C   UNL A   1      43.520  21.495  25.885  1.00  0.00     0.055 A 
ATOM     85  C   UNL A   1      41.334  21.566  26.863  1.00  0.00     0.041 A 
ATOM     86  F   UNL A   1      40.680  23.354  28.206  1.00  0.00    -0.206 F 
ATOM     87  C   UNL A   1      42.284  20.891  26.109  1.00  0.00     0.022 A 
BRANCH  84  88
ATOM     88  S   UNL A   1      44.769  20.533  24.947  1.00  0.00     0.124 S 
ATOM     89  O   UNL A   1      44.562  20.996  23.579  1.00  0.00    -0.237 OA
ATOM     90  O   UNL A   1      46.022  20.924  25.583  1.00  0.00    -0.237 OA
ATOM     91  O   UNL A   1      44.379  19.142  25.184  1.00  0.00    -0.744 OA
ENDBRANCH  84  88
ENDBRANCH  57  81
BRANCH  69  92
ATOM     92  C   UNL A   1      46.698  27.861  29.520  1.00  0.00     0.023 A 
ATOM     93  C   UNL A   1      45.860  28.777  28.841  1.00  0.00     0.031 A 
ATOM     94  C   UNL A   1      48.083  27.968  29.292  1.00  0.00     0.131 A 
ATOM     95  C   UNL A   1      46.419  29.742  27.977  1.00  0.00     0.055 A 
ATOM     96  C   UNL A   1      48.634  28.952  28.476  1.00  0.00     0.041 A 
ATOM     97  F   UNL A   1      48.944  27.138  29.906  1.00  0.00    -0.206 F 
ATOM     98  C   UNL A   1      47.803  29.839  27.808  1.00  0.00     0.022 A 
BRANCH  95  99
ATOM     99  S   UNL A   1      45.359  30.870  27.013  1.00  0.00     0.124 S 
ATOM    100  O   UNL A   1      44.528  29.973  26.219  1.00  0.00    -0.237 OA
ATOM    101  O   UNL A   1      44.669  31.625  28.057  1.00  0.00    -0.237 OA
ATOM    102  O   UNL A   1      46.322  31.652  26.236  1.00  0.00    -0.744 OA
ENDBRANCH  95  99
ENDBRANCH  69  92
ENDBRANCH  43  44
ENDBRANCH  35  38
ENDBRANCH  33  34
ENDBRANCH  32  33
ENDBRANCH  31  32
ENDBRANCH  30  31
ENDBRANCH   1  30
TORSDOF 21
ENDMDL
