MODEL 1
REMARK VINA RESULT:     -10.8      0.000      0.000
REMARK SMILES CCN(CC)C(=O)[C@@H]1CC=CC[C@H]1C(=O)Nc1ccc(C(=O)NCCCCCCNC(=O)c2ccc(-c3c4nc(c(-c5cc(S(=O)(=O)[O-])ccc5F)c5ccc([nH]5)c(-c5cc(S(=O)(=O)[O-])ccc5F)c5nc(c(-c6cc(S(=O)(=O)[O-])ccc6F)c6ccc3[nH]6)C=C5)C=C4)cc2)cc1
REMARK SMILES IDX 26 1 25 2 24 3 23 4 21 5 22 6 20 8 17 9 18 10 97 11 19 12
REMARK SMILES IDX 96 13 16 14 14 15 15 16 13 18 8 19 9 20 10 21 12 22 11 23
REMARK SMILES IDX 6 24 3 25 7 26 2 27 1 28 4 29 5 30 27 31 28 32 29 33 30 34
REMARK SMILES IDX 31 35 32 37 33 38 34 39 95 40 35 41 94 42 36 43 37 44 38 45
REMARK SMILES IDX 88 46 39 47 93 48 87 49 89 50 40 51 92 52 86 53 85 54 41 56
REMARK SMILES IDX 73 57 53 58 72 59 54 60 57 61 71 62 90 63 55 64 56 65 70 67
REMARK SMILES IDX 91 68 58 69 42 70 43 71 51 72 44 73 50 74 52 75 49 76 45 77
REMARK SMILES IDX 46 78 47 79 48 80 74 81 75 82 83 83 76 84 82 85 84 86 81 87
REMARK SMILES IDX 77 88 78 89 79 90 80 91 59 92 60 93 68 94 61 95 67 96 69 97
REMARK SMILES IDX 66 98 62 99 63 100 64 101 65 102
REMARK H PARENT 23 7 16 17 30 36 89 55 57 66
REMARK Flexibility Score: inf
ROOT
ATOM      1  C   UNL A   1      40.242  22.711  26.761  1.00  0.00     0.002 C 
ENDROOT
BRANCH   1   2
ATOM      2  C   UNL A   1      39.262  23.780  27.265  1.00  0.00     0.021 C 
BRANCH   2   3
ATOM      3  C   UNL A   1      37.983  23.881  26.430  1.00  0.00     0.116 C 
BRANCH   3   4
ATOM      4  N   UNL A   1      37.540  22.558  26.014  1.00  0.00    -0.352 N 
ATOM      5  C   UNL A   1      36.291  22.055  25.749  1.00  0.00     0.251 C 
ATOM      6  O   UNL A   1      36.184  20.897  25.352  1.00  0.00    -0.269 OA
ATOM      7  H   UNL A   1      38.270  21.907  25.902  1.00  0.00     0.163 HD
BRANCH   5   8
ATOM      8  C   UNL A   1      35.081  22.908  25.828  1.00  0.00     0.039 A 
ATOM      9  C   UNL A   1      32.564  24.076  25.951  1.00  0.00     0.041 A 
ATOM     10  C   UNL A   1      33.107  23.506  27.101  1.00  0.00     0.027 A 
ATOM     11  C   UNL A   1      33.357  24.263  24.822  1.00  0.00     0.027 A 
ATOM     12  C   UNL A   1      34.359  22.894  27.028  1.00  0.00     0.016 A 
ATOM     13  C   UNL A   1      34.625  23.684  24.761  1.00  0.00     0.016 A 
BRANCH   9  14
ATOM     14  N   UNL A   1      31.215  24.424  25.942  1.00  0.00    -0.326 N 
ATOM     15  C   UNL A   1      30.656  25.674  25.926  1.00  0.00     0.228 C 
ATOM     16  O   UNL A   1      29.422  25.726  25.831  1.00  0.00    -0.274 OA
ATOM     17  H   UNL A   1      30.579  23.672  25.948  1.00  0.00     0.169 HD
BRANCH  15  18
ATOM     18  C   UNL A   1      31.460  26.991  25.934  1.00  0.00     0.095 C 
ATOM     19  C   UNL A   1      31.071  27.983  24.834  1.00  0.00     0.095 C 
ATOM     20  C   UNL A   1      31.758  29.353  24.866  1.00  0.00     0.041 C 
ATOM     21  C   UNL A   1      32.259  29.764  26.219  1.00  0.00    -0.030 C 
ATOM     22  C   UNL A   1      31.560  27.630  27.325  1.00  0.00     0.041 C 
ATOM     23  C   UNL A   1      32.168  29.000  27.316  1.00  0.00    -0.030 C 
BRANCH  19  24
ATOM     24  C   UNL A   1      31.000  27.416  23.418  1.00  0.00     0.226 C 
ATOM     25  N   UNL A   1      32.113  27.049  22.673  1.00  0.00    -0.343 N 
ATOM     26  O   UNL A   1      29.860  27.290  22.945  1.00  0.00    -0.275 OA
BRANCH  25  27
ATOM     27  C   UNL A   1      31.821  26.251  21.470  1.00  0.00     0.116 C 
ATOM     28  C   UNL A   1      32.789  25.081  21.318  1.00  0.00     0.027 C 
ENDBRANCH  25  27
BRANCH  25  29
ATOM     29  C   UNL A   1      33.545  27.185  22.995  1.00  0.00     0.116 C 
ATOM     30  C   UNL A   1      34.225  28.435  22.462  1.00  0.00     0.027 C 
ENDBRANCH  25  29
ENDBRANCH  19  24
ENDBRANCH  15  18
ENDBRANCH   9  14
ENDBRANCH   5   8
ENDBRANCH   3   4
ENDBRANCH   2   3
ENDBRANCH   1   2
BRANCH   1  31
ATOM     31  C   UNL A   1      40.912  21.876  27.857  1.00  0.00     0.002 C 
BRANCH  31  32
ATOM     32  C   UNL A   1      41.258  20.437  27.462  1.00  0.00     0.021 C 
BRANCH  32  33
ATOM     33  C   UNL A   1      41.233  20.161  25.961  1.00  0.00     0.116 C 
BRANCH  33  34
ATOM     34  N   UNL A   1      42.482  19.587  25.495  1.00  0.00    -0.352 N 
ATOM     35  C   UNL A   1      43.682  20.200  25.229  1.00  0.00     0.251 C 
ATOM     36  H   UNL A   1      42.467  18.613  25.349  1.00  0.00     0.163 HD
ATOM     37  O   UNL A   1      44.555  19.576  24.632  1.00  0.00    -0.269 OA
BRANCH  35  38
ATOM     38  C   UNL A   1      43.918  21.603  25.641  1.00  0.00     0.039 A 
ATOM     39  C   UNL A   1      44.442  21.851  26.913  1.00  0.00     0.014 A 
ATOM     40  C   UNL A   1      43.574  22.674  24.809  1.00  0.00     0.014 A 
ATOM     41  C   UNL A   1      44.649  23.166  27.338  1.00  0.00     0.010 A 
ATOM     42  C   UNL A   1      43.844  23.984  25.209  1.00  0.00     0.010 A 
ATOM     43  C   UNL A   1      44.366  24.244  26.485  1.00  0.00    -0.014 A 
BRANCH  43  44
ATOM     44  C   UNL A   1      44.551  25.649  26.939  1.00  0.00     0.031 A 
ATOM     45  C   UNL A   1      45.918  26.280  26.876  1.00  0.00     0.074 A 
ATOM     46  C   UNL A   1      43.505  26.344  27.428  1.00  0.00     0.049 A 
ATOM     47  N   UNL A   1      46.304  27.466  27.277  1.00  0.00    -0.248 NA
ATOM     48  C   UNL A   1      47.000  25.458  26.314  1.00  0.00     0.031 C 
ATOM     49  C   UNL A   1      42.140  25.831  27.566  1.00  0.00     0.029 A 
ATOM     50  N   UNL A   1      43.425  27.629  27.905  1.00  0.00    -0.354 N 
ATOM     51  C   UNL A   1      47.670  27.528  27.021  1.00  0.00     0.074 A 
ATOM     52  C   UNL A   1      48.057  26.236  26.494  1.00  0.00     0.031 C 
ATOM     53  C   UNL A   1      41.356  26.798  28.071  1.00  0.00     0.029 A 
ATOM     54  C   UNL A   1      42.166  27.985  28.331  1.00  0.00     0.049 A 
ATOM     55  H   UNL A   1      44.197  28.239  27.939  1.00  0.00     0.167 HD
ATOM     56  C   UNL A   1      48.520  28.572  27.184  1.00  0.00     0.034 A 
ATOM     57  C   UNL A   1      41.719  29.134  28.875  1.00  0.00     0.034 A 
ATOM     58  C   UNL A   1      48.120  29.860  27.695  1.00  0.00     0.049 A 
ATOM     59  C   UNL A   1      42.688  30.278  29.057  1.00  0.00     0.074 A 
ATOM     60  C   UNL A   1      48.893  30.994  27.881  1.00  0.00     0.029 A 
ATOM     61  N   UNL A   1      46.832  30.190  28.099  1.00  0.00    -0.354 N 
ATOM     62  N   UNL A   1      43.972  30.327  28.778  1.00  0.00    -0.248 NA
ATOM     63  C   UNL A   1      42.144  31.526  29.605  1.00  0.00     0.031 C 
ATOM     64  C   UNL A   1      48.086  31.989  28.443  1.00  0.00     0.029 A 
ATOM     65  C   UNL A   1      46.793  31.501  28.544  1.00  0.00     0.049 A 
ATOM     66  H   UNL A   1      46.060  29.579  28.071  1.00  0.00     0.167 HD
ATOM     67  C   UNL A   1      44.375  31.625  29.086  1.00  0.00     0.074 A 
ATOM     68  C   UNL A   1      43.196  32.327  29.546  1.00  0.00     0.031 C 
ATOM     69  C   UNL A   1      45.607  32.187  28.999  1.00  0.00     0.034 A 
BRANCH  56  70
ATOM     70  C   UNL A   1      49.968  28.354  26.816  1.00  0.00     0.023 A 
ATOM     71  C   UNL A   1      50.449  28.634  25.524  1.00  0.00     0.031 A 
ATOM     72  C   UNL A   1      50.878  27.846  27.760  1.00  0.00     0.131 A 
ATOM     73  C   UNL A   1      51.780  28.342  25.193  1.00  0.00     0.055 A 
ATOM     74  C   UNL A   1      52.222  27.631  27.445  1.00  0.00     0.041 A 
ATOM     75  F   UNL A   1      50.474  27.540  29.003  1.00  0.00    -0.206 F 
ATOM     76  C   UNL A   1      52.677  27.868  26.152  1.00  0.00     0.022 A 
BRANCH  73  77
ATOM     77  S   UNL A   1      52.291  28.477  23.458  1.00  0.00     0.124 S 
ATOM     78  O   UNL A   1      51.124  29.117  22.857  1.00  0.00    -0.237 OA
ATOM     79  O   UNL A   1      53.495  29.296  23.545  1.00  0.00    -0.237 OA
ATOM     80  O   UNL A   1      52.509  27.089  23.056  1.00  0.00    -0.744 OA
ENDBRANCH  73  77
ENDBRANCH  56  70
BRANCH  57  81
ATOM     81  C   UNL A   1      40.296  29.277  29.301  1.00  0.00     0.023 A 
ATOM     82  C   UNL A   1      39.930  29.173  30.654  1.00  0.00     0.031 A 
ATOM     83  C   UNL A   1      39.269  29.440  28.355  1.00  0.00     0.131 A 
ATOM     84  C   UNL A   1      38.575  29.161  31.014  1.00  0.00     0.055 A 
ATOM     85  C   UNL A   1      37.924  29.491  28.725  1.00  0.00     0.041 A 
ATOM     86  F   UNL A   1      39.560  29.551  27.048  1.00  0.00    -0.206 F 
ATOM     87  C   UNL A   1      37.569  29.330  30.061  1.00  0.00     0.022 A 
BRANCH  84  88
ATOM     88  S   UNL A   1      38.140  28.795  32.738  1.00  0.00     0.124 S 
ATOM     89  O   UNL A   1      39.286  29.339  33.456  1.00  0.00    -0.237 OA
ATOM     90  O   UNL A   1      36.883  29.520  32.891  1.00  0.00    -0.237 OA
ATOM     91  O   UNL A   1      38.024  27.338  32.757  1.00  0.00    -0.744 OA
ENDBRANCH  84  88
ENDBRANCH  57  81
BRANCH  69  92
ATOM     92  C   UNL A   1      45.718  33.650  29.357  1.00  0.00     0.023 A 
ATOM     93  C   UNL A   1      45.927  34.073  30.681  1.00  0.00     0.031 A 
ATOM     94  C   UNL A   1      45.578  34.633  28.363  1.00  0.00     0.131 A 
ATOM     95  C   UNL A   1      45.920  35.442  30.986  1.00  0.00     0.055 A 
ATOM     96  C   UNL A   1      45.637  35.995  28.662  1.00  0.00     0.041 A 
ATOM     97  F   UNL A   1      45.377  34.287  27.081  1.00  0.00    -0.206 F 
ATOM     98  C   UNL A   1      45.791  36.406  29.983  1.00  0.00     0.022 A 
BRANCH  95  99
ATOM     99  S   UNL A   1      45.966  35.944  32.728  1.00  0.00     0.124 S 
ATOM    100  O   UNL A   1      45.640  34.698  33.414  1.00  0.00    -0.237 OA
ATOM    101  O   UNL A   1      47.339  36.413  32.880  1.00  0.00    -0.237 OA
ATOM    102  O   UNL A   1      44.944  36.985  32.813  1.00  0.00    -0.744 OA
ENDBRANCH  95  99
ENDBRANCH  69  92
ENDBRANCH  43  44
ENDBRANCH  35  38
ENDBRANCH  33  34
ENDBRANCH  32  33
ENDBRANCH  31  32
ENDBRANCH   1  31
TORSDOF 21
ENDMDL
MODEL 2
REMARK VINA RESULT:     -10.7      1.450      7.585
REMARK SMILES CCN(CC)C(=O)[C@@H]1CC=CC[C@H]1C(=O)Nc1ccc(C(=O)NCCCCCCNC(=O)c2ccc(-c3c4nc(c(-c5cc(S(=O)(=O)[O-])ccc5F)c5ccc([nH]5)c(-c5cc(S(=O)(=O)[O-])ccc5F)c5nc(c(-c6cc(S(=O)(=O)[O-])ccc6F)c6ccc3[nH]6)C=C5)C=C4)cc2)cc1
REMARK SMILES IDX 26 1 25 2 24 3 23 4 21 5 22 6 20 8 17 9 18 10 97 11 19 12
REMARK SMILES IDX 96 13 16 14 14 15 15 16 13 18 8 19 9 20 10 21 12 22 11 23
REMARK SMILES IDX 6 24 3 25 7 26 2 27 1 28 4 29 5 30 27 31 28 32 29 33 30 34
REMARK SMILES IDX 31 35 32 37 33 38 34 39 95 40 35 41 94 42 36 43 37 44 38 45
REMARK SMILES IDX 88 46 39 47 93 48 87 49 89 50 40 51 92 52 86 53 85 54 41 56
REMARK SMILES IDX 73 57 53 58 72 59 54 60 57 61 71 62 90 63 55 64 56 65 70 67
REMARK SMILES IDX 91 68 58 69 42 70 43 71 51 72 44 73 50 74 52 75 49 76 45 77
REMARK SMILES IDX 46 78 47 79 48 80 74 81 75 82 83 83 76 84 82 85 84 86 81 87
REMARK SMILES IDX 77 88 78 89 79 90 80 91 59 92 60 93 68 94 61 95 67 96 69 97
REMARK SMILES IDX 66 98 62 99 63 100 64 101 65 102
REMARK H PARENT 23 7 16 17 30 36 89 55 57 66
REMARK Flexibility Score: inf
ROOT
ATOM      1  C   UNL A   1      40.013  22.576  26.618  1.00  0.00     0.002 C 
ENDROOT
BRANCH   1   2
ATOM      2  C   UNL A   1      39.138  23.770  27.024  1.00  0.00     0.021 C 
BRANCH   2   3
ATOM      3  C   UNL A   1      37.795  23.823  26.291  1.00  0.00     0.116 C 
BRANCH   3   4
ATOM      4  N   UNL A   1      37.344  22.480  25.956  1.00  0.00    -0.352 N 
ATOM      5  C   UNL A   1      36.097  21.977  25.684  1.00  0.00     0.251 C 
ATOM      6  O   UNL A   1      35.983  20.795  25.369  1.00  0.00    -0.269 OA
ATOM      7  H   UNL A   1      38.066  21.811  25.916  1.00  0.00     0.163 HD
BRANCH   5   8
ATOM      8  C   UNL A   1      34.899  22.851  25.660  1.00  0.00     0.039 A 
ATOM      9  C   UNL A   1      32.405  24.073  25.724  1.00  0.00     0.041 A 
ATOM     10  C   UNL A   1      33.062  23.801  26.924  1.00  0.00     0.027 A 
ATOM     11  C   UNL A   1      33.080  23.946  24.513  1.00  0.00     0.027 A 
ATOM     12  C   UNL A   1      34.301  23.161  26.889  1.00  0.00     0.016 A 
ATOM     13  C   UNL A   1      34.338  23.341  24.480  1.00  0.00     0.016 A 
BRANCH   9  14
ATOM     14  N   UNL A   1      31.061  24.439  25.759  1.00  0.00    -0.326 N 
ATOM     15  C   UNL A   1      30.521  25.697  25.813  1.00  0.00     0.228 C 
ATOM     16  O   UNL A   1      29.287  25.771  25.745  1.00  0.00    -0.274 OA
ATOM     17  H   UNL A   1      30.415  23.697  25.741  1.00  0.00     0.169 HD
BRANCH  15  18
ATOM     18  C   UNL A   1      31.345  27.001  25.868  1.00  0.00     0.095 C 
ATOM     19  C   UNL A   1      30.982  28.031  24.796  1.00  0.00     0.095 C 
ATOM     20  C   UNL A   1      31.689  29.389  24.876  1.00  0.00     0.041 C 
ATOM     21  C   UNL A   1      32.184  29.750  26.245  1.00  0.00    -0.030 C 
ATOM     22  C   UNL A   1      31.442  27.595  27.280  1.00  0.00     0.041 C 
ATOM     23  C   UNL A   1      32.071  28.955  27.318  1.00  0.00    -0.030 C 
BRANCH  19  24
ATOM     24  C   UNL A   1      30.915  27.509  23.363  1.00  0.00     0.226 C 
ATOM     25  N   UNL A   1      32.029  27.128  22.623  1.00  0.00    -0.343 N 
ATOM     26  O   UNL A   1      29.780  27.433  22.869  1.00  0.00    -0.275 OA
BRANCH  25  27
ATOM     27  C   UNL A   1      31.731  26.377  21.393  1.00  0.00     0.116 C 
ATOM     28  C   UNL A   1      32.807  25.338  21.090  1.00  0.00     0.027 C 
ENDBRANCH  25  27
BRANCH  25  29
ATOM     29  C   UNL A   1      33.459  27.210  22.971  1.00  0.00     0.116 C 
ATOM     30  C   UNL A   1      34.161  28.499  22.576  1.00  0.00     0.027 C 
ENDBRANCH  25  29
ENDBRANCH  19  24
ENDBRANCH  15  18
ENDBRANCH   9  14
ENDBRANCH   5   8
ENDBRANCH   3   4
ENDBRANCH   2   3
ENDBRANCH   1   2
BRANCH   1  31
ATOM     31  C   UNL A   1      40.790  21.920  27.765  1.00  0.00     0.002 C 
BRANCH  31  32
ATOM     32  C   UNL A   1      41.121  20.437  27.565  1.00  0.00     0.021 C 
BRANCH  32  33
ATOM     33  C   UNL A   1      40.916  19.921  26.144  1.00  0.00     0.116 C 
BRANCH  33  34
ATOM     34  N   UNL A   1      42.116  19.297  25.615  1.00  0.00    -0.352 N 
ATOM     35  C   UNL A   1      43.325  19.861  25.291  1.00  0.00     0.251 C 
ATOM     36  H   UNL A   1      42.053  18.325  25.469  1.00  0.00     0.163 HD
ATOM     37  O   UNL A   1      44.141  19.203  24.651  1.00  0.00    -0.269 OA
BRANCH  35  38
ATOM     38  C   UNL A   1      43.639  21.252  25.692  1.00  0.00     0.039 A 
ATOM     39  C   UNL A   1      43.292  22.294  24.827  1.00  0.00     0.014 A 
ATOM     40  C   UNL A   1      44.323  21.532  26.880  1.00  0.00     0.014 A 
ATOM     41  C   UNL A   1      43.601  23.614  25.167  1.00  0.00     0.010 A 
ATOM     42  C   UNL A   1      44.570  22.854  27.249  1.00  0.00     0.010 A 
ATOM     43  C   UNL A   1      44.230  23.908  26.387  1.00  0.00    -0.014 A 
BRANCH  43  44
ATOM     44  C   UNL A   1      44.594  25.306  26.744  1.00  0.00     0.031 A 
ATOM     45  C   UNL A   1      43.559  26.215  27.355  1.00  0.00     0.074 A 
ATOM     46  C   UNL A   1      45.838  25.764  26.497  1.00  0.00     0.049 A 
ATOM     47  N   UNL A   1      43.654  27.479  27.682  1.00  0.00    -0.248 NA
ATOM     48  C   UNL A   1      42.233  25.630  27.606  1.00  0.00     0.031 C 
ATOM     49  C   UNL A   1      46.918  24.988  25.882  1.00  0.00     0.029 A 
ATOM     50  N   UNL A   1      46.403  26.993  26.727  1.00  0.00    -0.354 N 
ATOM     51  C   UNL A   1      42.401  27.841  28.169  1.00  0.00     0.074 A 
ATOM     52  C   UNL A   1      41.547  26.680  28.032  1.00  0.00     0.031 C 
ATOM     53  C   UNL A   1      48.019  25.753  25.805  1.00  0.00     0.029 A 
ATOM     54  C   UNL A   1      47.717  27.084  26.325  1.00  0.00     0.049 A 
ATOM     55  H   UNL A   1      45.915  27.741  27.142  1.00  0.00     0.167 HD
ATOM     56  C   UNL A   1      42.006  29.021  28.706  1.00  0.00     0.034 A 
ATOM     57  C   UNL A   1      48.574  28.123  26.366  1.00  0.00     0.034 A 
ATOM     58  C   UNL A   1      42.872  30.166  28.854  1.00  0.00     0.049 A 
ATOM     59  C   UNL A   1      48.106  29.429  26.960  1.00  0.00     0.074 A 
ATOM     60  C   UNL A   1      42.581  31.403  29.404  1.00  0.00     0.029 A 
ATOM     61  N   UNL A   1      44.200  30.214  28.453  1.00  0.00    -0.354 N 
ATOM     62  N   UNL A   1      46.925  29.742  27.445  1.00  0.00    -0.248 NA
ATOM     63  C   UNL A   1      49.091  30.516  27.029  1.00  0.00     0.031 C 
ATOM     64  C   UNL A   1      43.716  32.213  29.289  1.00  0.00     0.029 A 
ATOM     65  C   UNL A   1      44.737  31.461  28.730  1.00  0.00     0.049 A 
ATOM     66  H   UNL A   1      44.689  29.469  28.032  1.00  0.00     0.167 HD
ATOM     67  C   UNL A   1      47.043  31.050  27.910  1.00  0.00     0.074 A 
ATOM     68  C   UNL A   1      48.411  31.455  27.668  1.00  0.00     0.031 C 
ATOM     69  C   UNL A   1      46.106  31.847  28.484  1.00  0.00     0.034 A 
BRANCH  56  70
ATOM     70  C   UNL A   1      40.571  29.131  29.162  1.00  0.00     0.023 A 
ATOM     71  C   UNL A   1      40.225  29.081  30.525  1.00  0.00     0.031 A 
ATOM     72  C   UNL A   1      39.532  29.274  28.226  1.00  0.00     0.131 A 
ATOM     73  C   UNL A   1      38.877  29.103  30.908  1.00  0.00     0.055 A 
ATOM     74  C   UNL A   1      38.195  29.375  28.619  1.00  0.00     0.041 A 
ATOM     75  F   UNL A   1      39.796  29.308  26.911  1.00  0.00    -0.206 F 
ATOM     76  C   UNL A   1      37.860  29.277  29.966  1.00  0.00     0.022 A 
BRANCH  73  77
ATOM     77  S   UNL A   1      38.462  28.781  32.644  1.00  0.00     0.124 S 
ATOM     78  O   UNL A   1      39.209  27.552  32.899  1.00  0.00    -0.237 OA
ATOM     79  O   UNL A   1      38.954  29.978  33.315  1.00  0.00    -0.237 OA
ATOM     80  O   UNL A   1      37.009  28.628  32.627  1.00  0.00    -0.744 OA
ENDBRANCH  73  77
ENDBRANCH  56  70
BRANCH  57  81
ATOM     81  C   UNL A   1      49.960  27.993  25.828  1.00  0.00     0.023 A 
ATOM     82  C   UNL A   1      50.256  28.332  24.498  1.00  0.00     0.031 A 
ATOM     83  C   UNL A   1      50.994  27.451  26.613  1.00  0.00     0.131 A 
ATOM     84  C   UNL A   1      51.528  28.062  23.971  1.00  0.00     0.055 A 
ATOM     85  C   UNL A   1      52.277  27.242  26.102  1.00  0.00     0.041 A 
ATOM     86  F   UNL A   1      50.771  27.113  27.893  1.00  0.00    -0.206 F 
ATOM     87  C   UNL A   1      52.544  27.529  24.767  1.00  0.00     0.022 A 
BRANCH  84  88
ATOM     88  S   UNL A   1      51.799  28.301  22.193  1.00  0.00     0.124 S 
ATOM     89  O   UNL A   1      51.930  26.927  21.724  1.00  0.00    -0.237 OA
ATOM     90  O   UNL A   1      50.583  29.003  21.796  1.00  0.00    -0.237 OA
ATOM     91  O   UNL A   1      53.022  29.099  22.140  1.00  0.00    -0.744 OA
ENDBRANCH  84  88
ENDBRANCH  57  81
BRANCH  69  92
ATOM     92  C   UNL A   1      46.558  33.215  28.938  1.00  0.00     0.023 A 
ATOM     93  C   UNL A   1      46.455  34.342  28.104  1.00  0.00     0.031 A 
ATOM     94  C   UNL A   1      47.129  33.384  30.211  1.00  0.00     0.131 A 
ATOM     95  C   UNL A   1      46.982  35.572  28.524  1.00  0.00     0.055 A 
ATOM     96  C   UNL A   1      47.592  34.625  30.650  1.00  0.00     0.041 A 
ATOM     97  F   UNL A   1      47.251  32.342  31.050  1.00  0.00    -0.206 F 
ATOM     98  C   UNL A   1      47.537  35.724  29.798  1.00  0.00     0.022 A 
BRANCH  95  99
ATOM     99  S   UNL A   1      47.036  36.945  27.340  1.00  0.00     0.124 S 
ATOM    100  O   UNL A   1      47.993  36.457  26.352  1.00  0.00    -0.237 OA
ATOM    101  O   UNL A   1      45.649  37.028  26.896  1.00  0.00    -0.237 OA
ATOM    102  O   UNL A   1      47.497  38.075  28.145  1.00  0.00    -0.744 OA
ENDBRANCH  95  99
ENDBRANCH  69  92
ENDBRANCH  43  44
ENDBRANCH  35  38
ENDBRANCH  33  34
ENDBRANCH  32  33
ENDBRANCH  31  32
ENDBRANCH   1  31
TORSDOF 21
ENDMDL
MODEL 3
REMARK VINA RESULT:     -10.1      1.150      2.041
REMARK SMILES CCN(CC)C(=O)[C@@H]1CC=CC[C@H]1C(=O)Nc1ccc(C(=O)NCCCCCCNC(=O)c2ccc(-c3c4nc(c(-c5cc(S(=O)(=O)[O-])ccc5F)c5ccc([nH]5)c(-c5cc(S(=O)(=O)[O-])ccc5F)c5nc(c(-c6cc(S(=O)(=O)[O-])ccc6F)c6ccc3[nH]6)C=C5)C=C4)cc2)cc1
REMARK SMILES IDX 26 1 25 2 24 3 23 4 21 5 22 6 20 8 17 9 18 10 97 11 19 12
REMARK SMILES IDX 96 13 16 14 14 15 15 16 13 18 8 19 9 20 10 21 12 22 11 23
REMARK SMILES IDX 6 24 3 25 7 26 2 27 1 28 4 29 5 30 27 31 28 32 29 33 30 34
REMARK SMILES IDX 31 35 32 37 33 38 34 39 95 40 35 41 94 42 36 43 37 44 38 45
REMARK SMILES IDX 88 46 39 47 93 48 87 49 89 50 40 51 92 52 86 53 85 54 41 56
REMARK SMILES IDX 73 57 53 58 72 59 54 60 57 61 71 62 90 63 55 64 56 65 70 67
REMARK SMILES IDX 91 68 58 69 42 70 43 71 51 72 44 73 50 74 52 75 49 76 45 77
REMARK SMILES IDX 46 78 47 79 48 80 74 81 75 82 83 83 76 84 82 85 84 86 81 87
REMARK SMILES IDX 77 88 78 89 79 90 80 91 59 92 60 93 68 94 61 95 67 96 69 97
REMARK SMILES IDX 66 98 62 99 63 100 64 101 65 102
REMARK H PARENT 23 7 16 17 30 36 89 55 57 66
REMARK Flexibility Score: inf
ROOT
ATOM      1  C   UNL A   1      40.116  22.795  26.314  1.00  0.00     0.002 C 
ENDROOT
BRANCH   1   2
ATOM      2  C   UNL A   1      38.658  23.263  26.196  1.00  0.00     0.021 C 
BRANCH   2   3
ATOM      3  C   UNL A   1      37.693  22.159  25.758  1.00  0.00     0.116 C 
BRANCH   3   4
ATOM      4  N   UNL A   1      37.397  22.276  24.337  1.00  0.00    -0.352 N 
ATOM      5  C   UNL A   1      36.379  22.907  23.666  1.00  0.00     0.251 C 
ATOM      6  O   UNL A   1      36.381  22.906  22.437  1.00  0.00    -0.269 OA
ATOM      7  H   UNL A   1      38.043  21.819  23.752  1.00  0.00     0.163 HD
BRANCH   5   8
ATOM      8  C   UNL A   1      35.339  23.679  24.388  1.00  0.00     0.039 A 
ATOM      9  C   UNL A   1      33.759  25.445  25.838  1.00  0.00     0.041 A 
ATOM     10  C   UNL A   1      34.072  25.742  24.511  1.00  0.00     0.027 A 
ATOM     11  C   UNL A   1      34.038  24.184  26.356  1.00  0.00     0.027 A 
ATOM     12  C   UNL A   1      34.890  24.867  23.795  1.00  0.00     0.016 A 
ATOM     13  C   UNL A   1      34.825  23.291  25.626  1.00  0.00     0.016 A 
BRANCH   9  14
ATOM     14  N   UNL A   1      33.196  26.438  26.636  1.00  0.00    -0.326 N 
ATOM     15  C   UNL A   1      32.140  27.264  26.354  1.00  0.00     0.228 C 
ATOM     16  O   UNL A   1      31.765  28.012  27.266  1.00  0.00    -0.274 OA
ATOM     17  H   UNL A   1      33.612  26.563  27.520  1.00  0.00     0.169 HD
BRANCH  15  18
ATOM     18  C   UNL A   1      31.355  27.255  25.025  1.00  0.00     0.095 C 
ATOM     19  C   UNL A   1      30.029  26.492  25.073  1.00  0.00     0.095 C 
ATOM     20  C   UNL A   1      29.154  26.549  23.815  1.00  0.00     0.041 C 
ATOM     21  C   UNL A   1      29.395  27.748  22.947  1.00  0.00    -0.030 C 
ATOM     22  C   UNL A   1      31.239  28.644  24.383  1.00  0.00     0.041 C 
ATOM     23  C   UNL A   1      30.319  28.684  23.200  1.00  0.00    -0.030 C 
BRANCH  19  24
ATOM     24  C   UNL A   1      30.088  25.084  25.661  1.00  0.00     0.226 C 
ATOM     25  N   UNL A   1      30.593  23.981  24.982  1.00  0.00    -0.343 N 
ATOM     26  O   UNL A   1      29.653  24.963  26.816  1.00  0.00    -0.275 OA
BRANCH  25  27
ATOM     27  C   UNL A   1      30.841  22.796  25.818  1.00  0.00     0.116 C 
ATOM     28  C   UNL A   1      29.692  22.536  26.788  1.00  0.00     0.027 C 
ENDBRANCH  25  27
BRANCH  25  29
ATOM     29  C   UNL A   1      31.079  23.875  23.594  1.00  0.00     0.116 C 
ATOM     30  C   UNL A   1      31.884  22.628  23.271  1.00  0.00     0.027 C 
ENDBRANCH  25  29
ENDBRANCH  19  24
ENDBRANCH  15  18
ENDBRANCH   9  14
ENDBRANCH   5   8
ENDBRANCH   3   4
ENDBRANCH   2   3
ENDBRANCH   1   2
BRANCH   1  31
ATOM     31  C   UNL A   1      40.443  22.007  27.587  1.00  0.00     0.002 C 
BRANCH  31  32
ATOM     32  C   UNL A   1      40.942  20.576  27.358  1.00  0.00     0.021 C 
BRANCH  32  33
ATOM     33  C   UNL A   1      40.957  20.129  25.899  1.00  0.00     0.116 C 
BRANCH  33  34
ATOM     34  N   UNL A   1      42.216  19.504  25.537  1.00  0.00    -0.352 N 
ATOM     35  C   UNL A   1      43.450  20.072  25.336  1.00  0.00     0.251 C 
ATOM     36  H   UNL A   1      42.180  18.527  25.419  1.00  0.00     0.163 HD
ATOM     37  O   UNL A   1      44.341  19.405  24.819  1.00  0.00    -0.269 OA
BRANCH  35  38
ATOM     38  C   UNL A   1      43.702  21.481  25.720  1.00  0.00     0.039 A 
ATOM     39  C   UNL A   1      44.111  21.757  27.028  1.00  0.00     0.014 A 
ATOM     40  C   UNL A   1      43.483  22.531  24.823  1.00  0.00     0.014 A 
ATOM     41  C   UNL A   1      44.329  23.079  27.426  1.00  0.00     0.010 A 
ATOM     42  C   UNL A   1      43.766  23.844  25.202  1.00  0.00     0.010 A 
ATOM     43  C   UNL A   1      44.172  24.133  26.513  1.00  0.00    -0.014 A 
BRANCH  43  44
ATOM     44  C   UNL A   1      44.370  25.547  26.935  1.00  0.00     0.031 A 
ATOM     45  C   UNL A   1      45.737  26.172  26.837  1.00  0.00     0.074 A 
ATOM     46  C   UNL A   1      43.334  26.256  27.426  1.00  0.00     0.049 A 
ATOM     47  N   UNL A   1      46.134  27.363  27.207  1.00  0.00    -0.248 NA
ATOM     48  C   UNL A   1      46.808  25.333  26.275  1.00  0.00     0.031 C 
ATOM     49  C   UNL A   1      41.969  25.751  27.595  1.00  0.00     0.029 A 
ATOM     50  N   UNL A   1      43.266  27.550  27.877  1.00  0.00    -0.354 N 
ATOM     51  C   UNL A   1      47.497  27.415  26.929  1.00  0.00     0.074 A 
ATOM     52  C   UNL A   1      47.870  26.111  26.423  1.00  0.00     0.031 C 
ATOM     53  C   UNL A   1      41.197  26.731  28.093  1.00  0.00     0.029 A 
ATOM     54  C   UNL A   1      42.015  27.920  28.316  1.00  0.00     0.049 A 
ATOM     55  H   UNL A   1      44.040  28.158  27.886  1.00  0.00     0.167 HD
ATOM     56  C   UNL A   1      48.352  28.459  27.057  1.00  0.00     0.034 A 
ATOM     57  C   UNL A   1      41.581  29.083  28.842  1.00  0.00     0.034 A 
ATOM     58  C   UNL A   1      47.964  29.759  27.547  1.00  0.00     0.049 A 
ATOM     59  C   UNL A   1      42.557  30.226  28.984  1.00  0.00     0.074 A 
ATOM     60  C   UNL A   1      48.744  30.893  27.697  1.00  0.00     0.029 A 
ATOM     61  N   UNL A   1      46.685  30.102  27.964  1.00  0.00    -0.354 N 
ATOM     62  N   UNL A   1      43.835  30.264  28.685  1.00  0.00    -0.248 NA
ATOM     63  C   UNL A   1      42.025  31.487  29.515  1.00  0.00     0.031 C 
ATOM     64  C   UNL A   1      47.950  31.903  28.251  1.00  0.00     0.029 A 
ATOM     65  C   UNL A   1      46.657  31.422  28.382  1.00  0.00     0.049 A 
ATOM     66  H   UNL A   1      45.910  29.494  27.961  1.00  0.00     0.167 HD
ATOM     67  C   UNL A   1      44.248  31.567  28.960  1.00  0.00     0.074 A 
ATOM     68  C   UNL A   1      43.079  32.283  29.423  1.00  0.00     0.031 C 
ATOM     69  C   UNL A   1      45.481  32.122  28.841  1.00  0.00     0.034 A 
BRANCH  56  70
ATOM     70  C   UNL A   1      49.793  28.228  26.670  1.00  0.00     0.023 A 
ATOM     71  C   UNL A   1      50.256  28.482  25.367  1.00  0.00     0.031 A 
ATOM     72  C   UNL A   1      50.715  27.733  27.610  1.00  0.00     0.131 A 
ATOM     73  C   UNL A   1      51.580  28.178  25.020  1.00  0.00     0.055 A 
ATOM     74  C   UNL A   1      52.054  27.507  27.279  1.00  0.00     0.041 A 
ATOM     75  F   UNL A   1      50.330  27.451  28.863  1.00  0.00    -0.206 F 
ATOM     76  C   UNL A   1      52.490  27.717  25.974  1.00  0.00     0.022 A 
BRANCH  73  77
ATOM     77  S   UNL A   1      52.066  28.280  23.275  1.00  0.00     0.124 S 
ATOM     78  O   UNL A   1      53.314  29.034  23.363  1.00  0.00    -0.237 OA
ATOM     79  O   UNL A   1      52.193  26.877  22.900  1.00  0.00    -0.237 OA
ATOM     80  O   UNL A   1      50.955  28.995  22.652  1.00  0.00    -0.744 OA
ENDBRANCH  73  77
ENDBRANCH  56  70
BRANCH  57  81
ATOM     81  C   UNL A   1      40.165  29.240  29.287  1.00  0.00     0.023 A 
ATOM     82  C   UNL A   1      39.815  29.129  30.643  1.00  0.00     0.031 A 
ATOM     83  C   UNL A   1      39.128  29.422  28.355  1.00  0.00     0.131 A 
ATOM     84  C   UNL A   1      38.464  29.131  31.021  1.00  0.00     0.055 A 
ATOM     85  C   UNL A   1      37.788  29.487  28.743  1.00  0.00     0.041 A 
ATOM     86  F   UNL A   1      39.403  29.540  27.046  1.00  0.00    -0.206 F 
ATOM     87  C   UNL A   1      37.449  29.320  30.082  1.00  0.00     0.022 A 
BRANCH  84  88
ATOM     88  S   UNL A   1      38.047  28.758  32.747  1.00  0.00     0.124 S 
ATOM     89  O   UNL A   1      36.700  29.308  32.854  1.00  0.00    -0.237 OA
ATOM     90  O   UNL A   1      38.149  27.303  32.773  1.00  0.00    -0.237 OA
ATOM     91  O   UNL A   1      39.074  29.468  33.507  1.00  0.00    -0.744 OA
ENDBRANCH  84  88
ENDBRANCH  57  81
BRANCH  69  92
ATOM     92  C   UNL A   1      45.602  33.592  29.166  1.00  0.00     0.023 A 
ATOM     93  C   UNL A   1      45.905  34.039  30.464  1.00  0.00     0.031 A 
ATOM     94  C   UNL A   1      45.379  34.557  28.170  1.00  0.00     0.131 A 
ATOM     95  C   UNL A   1      45.905  35.412  30.748  1.00  0.00     0.055 A 
ATOM     96  C   UNL A   1      45.445  35.924  28.443  1.00  0.00     0.041 A 
ATOM     97  F   UNL A   1      45.087  34.187  26.912  1.00  0.00    -0.206 F 
ATOM     98  C   UNL A   1      45.692  36.359  29.741  1.00  0.00     0.022 A 
BRANCH  95  99
ATOM     99  S   UNL A   1      46.075  35.944  32.474  1.00  0.00     0.124 S 
ATOM    100  O   UNL A   1      44.816  36.646  32.701  1.00  0.00    -0.237 OA
ATOM    101  O   UNL A   1      46.233  34.675  33.176  1.00  0.00    -0.237 OA
ATOM    102  O   UNL A   1      47.265  36.793  32.455  1.00  0.00    -0.744 OA
ENDBRANCH  95  99
ENDBRANCH  69  92
ENDBRANCH  43  44
ENDBRANCH  35  38
ENDBRANCH  33  34
ENDBRANCH  32  33
ENDBRANCH  31  32
ENDBRANCH   1  31
TORSDOF 21
ENDMDL
