MODEL 1
REMARK VINA RESULT:     -11.3      0.000      0.000
REMARK SMILES O=C(NCCCCCCNC(=O)c1cc(SCCn2cccn2)cs1)c1ccc(-c2c3nc(c(-c4cc(S(=O)(=O)[O-])ccc4F)c4ccc([nH]4)c(-c4cc(S(=O)(=O)[O-])ccc4F)c4nc(c(-c5cc(S(=O)(=O)[O-])ccc5F)c5ccc2[nH]5)C=C4)C=C3)cc1
REMARK SMILES IDX 7 1 6 2 5 3 4 4 3 5 1 6 2 7 26 9 27 10 88 11 28 12 87 13
REMARK SMILES IDX 29 14 30 15 31 16 81 17 32 18 86 19 80 20 82 21 33 22 85 23
REMARK SMILES IDX 79 24 78 25 34 27 66 28 46 29 65 30 47 31 50 32 64 33 83 34
REMARK SMILES IDX 48 35 49 36 63 38 84 39 51 40 35 41 36 42 44 43 37 44 43 45
REMARK SMILES IDX 45 46 42 47 38 48 39 49 40 50 41 51 67 52 68 53 76 54 69 55
REMARK SMILES IDX 75 56 77 57 74 58 70 59 71 60 72 61 73 62 52 63 53 64 61 65
REMARK SMILES IDX 54 66 60 67 62 68 59 69 55 70 56 71 57 72 58 73 8 74 9 75
REMARK SMILES IDX 10 76 11 77 12 79 13 80 14 81 25 82 15 83 24 84 16 85 17 86
REMARK SMILES IDX 18 87 19 88 20 89 23 90 21 91 22 92
REMARK H PARENT 3 8 82 26 50 37 10 78
REMARK Flexibility Score: inf
ROOT
ATOM      1  C   UNL A   1      34.031  28.538  24.316  1.00  0.00     0.002 C 
ENDROOT
BRANCH   1   2
ATOM      2  C   UNL A   1      33.086  29.254  25.297  1.00  0.00     0.002 C 
BRANCH   2   3
ATOM      3  C   UNL A   1      33.348  29.095  26.802  1.00  0.00     0.021 C 
BRANCH   3   4
ATOM      4  C   UNL A   1      34.805  28.931  27.232  1.00  0.00     0.116 C 
BRANCH   4   5
ATOM      5  N   UNL A   1      35.133  29.472  28.537  1.00  0.00    -0.352 N 
ATOM      6  O   UNL A   1      36.105  30.313  30.320  1.00  0.00    -0.269 OA
ATOM      7  C   UNL A   1      36.273  29.711  29.254  1.00  0.00     0.251 C 
ATOM      8  H   UNL A   1      34.325  29.735  29.036  1.00  0.00     0.163 HD
BRANCH   7   9
ATOM      9  C   UNL A   1      37.655  29.276  28.897  1.00  0.00     0.039 A 
ATOM     10  C   UNL A   1      38.368  29.645  27.758  1.00  0.00     0.014 A 
ATOM     11  C   UNL A   1      38.292  28.435  29.835  1.00  0.00     0.014 A 
ATOM     12  C   UNL A   1      39.662  29.145  27.545  1.00  0.00     0.010 A 
ATOM     13  C   UNL A   1      39.578  27.931  29.625  1.00  0.00     0.010 A 
ATOM     14  C   UNL A   1      40.266  28.272  28.467  1.00  0.00    -0.014 A 
BRANCH  14  15
ATOM     15  C   UNL A   1      41.694  27.949  28.318  1.00  0.00     0.031 A 
ATOM     16  C   UNL A   1      41.931  26.689  27.560  1.00  0.00     0.074 A 
ATOM     17  C   UNL A   1      42.749  28.720  28.667  1.00  0.00     0.049 A 
ATOM     18  N   UNL A   1      42.356  25.562  28.028  1.00  0.00    -0.248 NA
ATOM     19  C   UNL A   1      41.509  26.622  26.153  1.00  0.00     0.031 C 
ATOM     20  C   UNL A   1      42.736  30.092  29.172  1.00  0.00     0.029 A 
ATOM     21  N   UNL A   1      44.092  28.449  28.572  1.00  0.00    -0.354 N 
ATOM     22  C   UNL A   1      42.479  24.708  26.937  1.00  0.00     0.074 A 
ATOM     23  C   UNL A   1      41.772  25.347  25.858  1.00  0.00     0.031 C 
ATOM     24  C   UNL A   1      43.994  30.598  29.149  1.00  0.00     0.029 A 
ATOM     25  C   UNL A   1      44.929  29.553  28.753  1.00  0.00     0.049 A 
ATOM     26  H   UNL A   1      44.439  27.545  28.391  1.00  0.00     0.167 HD
ATOM     27  C   UNL A   1      43.341  23.652  26.961  1.00  0.00     0.034 A 
ATOM     28  C   UNL A   1      46.282  29.622  28.574  1.00  0.00     0.034 A 
ATOM     29  C   UNL A   1      43.766  23.364  28.314  1.00  0.00     0.049 A 
ATOM     30  C   UNL A   1      46.809  28.243  28.706  1.00  0.00     0.074 A 
ATOM     31  C   UNL A   1      43.115  23.040  29.489  1.00  0.00     0.029 A 
ATOM     32  N   UNL A   1      45.030  23.758  28.691  1.00  0.00    -0.354 N 
ATOM     33  N   UNL A   1      46.798  27.578  29.827  1.00  0.00    -0.248 NA
ATOM     34  C   UNL A   1      46.919  27.433  27.505  1.00  0.00     0.031 C 
ATOM     35  C   UNL A   1      43.825  23.747  30.504  1.00  0.00     0.029 A 
ATOM     36  C   UNL A   1      44.916  24.381  29.909  1.00  0.00     0.049 A 
ATOM     37  H   UNL A   1      45.861  23.619  28.183  1.00  0.00     0.167 HD
ATOM     38  C   UNL A   1      46.435  26.291  29.469  1.00  0.00     0.074 A 
ATOM     39  C   UNL A   1      46.620  26.236  28.020  1.00  0.00     0.031 C 
ATOM     40  C   UNL A   1      45.756  25.482  30.335  1.00  0.00     0.034 A 
BRANCH  27  41
ATOM     41  C   UNL A   1      44.098  23.112  25.766  1.00  0.00     0.023 A 
ATOM     42  C   UNL A   1      44.005  21.726  25.522  1.00  0.00     0.031 A 
ATOM     43  C   UNL A   1      45.119  23.790  25.065  1.00  0.00     0.131 A 
ATOM     44  C   UNL A   1      44.964  21.064  24.737  1.00  0.00     0.055 A 
ATOM     45  C   UNL A   1      46.026  23.135  24.225  1.00  0.00     0.041 A 
ATOM     46  F   UNL A   1      45.361  25.096  25.221  1.00  0.00    -0.206 F 
ATOM     47  C   UNL A   1      45.977  21.759  24.087  1.00  0.00     0.022 A 
BRANCH  44  48
ATOM     48  S   UNL A   1      44.971  19.252  24.744  1.00  0.00     0.124 S 
ATOM     49  O   UNL A   1      44.648  18.956  23.353  1.00  0.00    -0.237 OA
ATOM     50  O   UNL A   1      46.337  18.957  25.166  1.00  0.00    -0.237 OA
ATOM     51  O   UNL A   1      43.933  18.913  25.714  1.00  0.00    -0.744 OA
ENDBRANCH  44  48
ENDBRANCH  27  41
BRANCH  28  52
ATOM     52  C   UNL A   1      47.108  30.744  28.023  1.00  0.00     0.023 A 
ATOM     53  C   UNL A   1      46.584  31.784  27.215  1.00  0.00     0.031 A 
ATOM     54  C   UNL A   1      48.409  30.945  28.534  1.00  0.00     0.131 A 
ATOM     55  C   UNL A   1      47.350  32.952  26.957  1.00  0.00     0.055 A 
ATOM     56  C   UNL A   1      49.156  32.099  28.280  1.00  0.00     0.041 A 
ATOM     57  F   UNL A   1      48.966  30.065  29.379  1.00  0.00    -0.206 F 
ATOM     58  C   UNL A   1      48.626  33.112  27.499  1.00  0.00     0.022 A 
BRANCH  55  59
ATOM     59  S   UNL A   1      46.663  34.344  25.989  1.00  0.00     0.124 S 
ATOM     60  O   UNL A   1      45.494  33.734  25.354  1.00  0.00    -0.237 OA
ATOM     61  O   UNL A   1      46.402  35.345  27.007  1.00  0.00    -0.237 OA
ATOM     62  O   UNL A   1      47.747  34.683  25.060  1.00  0.00    -0.744 OA
ENDBRANCH  55  59
ENDBRANCH  28  52
BRANCH  40  63
ATOM     63  C   UNL A   1      45.705  25.861  31.802  1.00  0.00     0.023 A 
ATOM     64  C   UNL A   1      44.559  26.315  32.493  1.00  0.00     0.031 A 
ATOM     65  C   UNL A   1      46.875  25.645  32.554  1.00  0.00     0.131 A 
ATOM     66  C   UNL A   1      44.621  26.547  33.883  1.00  0.00     0.055 A 
ATOM     67  C   UNL A   1      46.924  25.850  33.931  1.00  0.00     0.041 A 
ATOM     68  F   UNL A   1      47.994  25.196  31.961  1.00  0.00    -0.206 F 
ATOM     69  C   UNL A   1      45.798  26.309  34.600  1.00  0.00     0.022 A 
BRANCH  66  70
ATOM     70  S   UNL A   1      43.175  27.191  34.788  1.00  0.00     0.124 S 
ATOM     71  O   UNL A   1      43.701  27.479  36.116  1.00  0.00    -0.237 OA
ATOM     72  O   UNL A   1      42.792  28.350  33.985  1.00  0.00    -0.237 OA
ATOM     73  O   UNL A   1      42.223  26.079  34.738  1.00  0.00    -0.744 OA
ENDBRANCH  66  70
ENDBRANCH  40  63
ENDBRANCH  14  15
ENDBRANCH   7   9
ENDBRANCH   4   5
ENDBRANCH   3   4
ENDBRANCH   2   3
ENDBRANCH   1   2
BRANCH   1  74
ATOM     74  C   UNL A   1      33.814  28.756  22.805  1.00  0.00     0.021 C 
BRANCH  74  75
ATOM     75  C   UNL A   1      33.607  27.469  21.994  1.00  0.00     0.116 C 
BRANCH  75  76
ATOM     76  N   UNL A   1      32.236  27.166  21.604  1.00  0.00    -0.351 N 
ATOM     77  C   UNL A   1      31.145  27.117  22.470  1.00  0.00     0.261 C 
ATOM     78  H   UNL A   1      32.067  26.982  20.651  1.00  0.00     0.163 HD
ATOM     79  O   UNL A   1      30.189  27.848  22.203  1.00  0.00    -0.268 OA
BRANCH  77  80
ATOM     80  C   UNL A   1      31.071  26.094  23.511  1.00  0.00     0.093 A 
ATOM     81  C   UNL A   1      31.997  25.151  23.966  1.00  0.00     0.040 A 
ATOM     82  S   UNL A   1      29.731  26.193  24.586  1.00  0.00    -0.137 S 
ATOM     83  C   UNL A   1      31.514  24.402  25.096  1.00  0.00     0.019 A 
ATOM     84  C   UNL A   1      30.342  24.947  25.579  1.00  0.00     0.080 A 
BRANCH  83  85
ATOM     85  S   UNL A   1      32.284  23.073  25.971  1.00  0.00    -0.123 SA
BRANCH  85  86
ATOM     86  C   UNL A   1      32.486  21.649  24.844  1.00  0.00     0.098 C 
BRANCH  86  87
ATOM     87  C   UNL A   1      33.155  20.385  25.413  1.00  0.00     0.155 C 
BRANCH  87  88
ATOM     88  N   UNL A   1      33.385  19.424  24.360  1.00  0.00    -0.272 N 
ATOM     89  C   UNL A   1      34.068  18.249  24.474  1.00  0.00     0.108 A 
ATOM     90  N   UNL A   1      32.530  19.450  23.332  1.00  0.00    -0.182 NA
ATOM     91  C   UNL A   1      33.363  17.368  23.688  1.00  0.00     0.042 A 
ATOM     92  C   UNL A   1      32.406  18.166  23.024  1.00  0.00     0.135 A 
ENDBRANCH  87  88
ENDBRANCH  86  87
ENDBRANCH  85  86
ENDBRANCH  83  85
ENDBRANCH  77  80
ENDBRANCH  75  76
ENDBRANCH  74  75
ENDBRANCH   1  74
TORSDOF 20
ENDMDL
MODEL 2
REMARK VINA RESULT:     -10.9      2.728      7.379
REMARK SMILES O=C(NCCCCCCNC(=O)c1cc(SCCn2cccn2)cs1)c1ccc(-c2c3nc(c(-c4cc(S(=O)(=O)[O-])ccc4F)c4ccc([nH]4)c(-c4cc(S(=O)(=O)[O-])ccc4F)c4nc(c(-c5cc(S(=O)(=O)[O-])ccc5F)c5ccc2[nH]5)C=C4)C=C3)cc1
REMARK SMILES IDX 7 1 6 2 5 3 4 4 3 5 1 6 2 7 26 9 27 10 88 11 28 12 87 13
REMARK SMILES IDX 29 14 30 15 31 16 81 17 32 18 86 19 80 20 82 21 33 22 85 23
REMARK SMILES IDX 79 24 78 25 34 27 66 28 46 29 65 30 47 31 50 32 64 33 83 34
REMARK SMILES IDX 48 35 49 36 63 38 84 39 51 40 35 41 36 42 44 43 37 44 43 45
REMARK SMILES IDX 45 46 42 47 38 48 39 49 40 50 41 51 67 52 68 53 76 54 69 55
REMARK SMILES IDX 75 56 77 57 74 58 70 59 71 60 72 61 73 62 52 63 53 64 61 65
REMARK SMILES IDX 54 66 60 67 62 68 59 69 55 70 56 71 57 72 58 73 8 74 9 75
REMARK SMILES IDX 10 76 11 77 12 79 13 80 14 81 25 82 15 83 24 84 16 85 17 86
REMARK SMILES IDX 18 87 19 88 20 89 23 90 21 91 22 92
REMARK H PARENT 3 8 82 26 50 37 10 78
REMARK Flexibility Score: inf
ROOT
ATOM      1  C   UNL A   1      31.972  27.904  26.072  1.00  0.00     0.002 C 
ENDROOT
BRANCH   1   2
ATOM      2  C   UNL A   1      33.417  28.366  26.326  1.00  0.00     0.002 C 
BRANCH   2   3
ATOM      3  C   UNL A   1      33.675  29.867  26.525  1.00  0.00     0.021 C 
BRANCH   3   4
ATOM      4  C   UNL A   1      33.872  30.344  27.963  1.00  0.00     0.116 C 
BRANCH   4   5
ATOM      5  N   UNL A   1      34.505  31.642  28.105  1.00  0.00    -0.352 N 
ATOM      6  O   UNL A   1      35.892  33.343  28.215  1.00  0.00    -0.269 OA
ATOM      7  C   UNL A   1      35.782  32.112  28.244  1.00  0.00     0.251 C 
ATOM      8  H   UNL A   1      33.844  32.372  28.101  1.00  0.00     0.163 HD
BRANCH   7   9
ATOM      9  C   UNL A   1      37.010  31.297  28.472  1.00  0.00     0.039 A 
ATOM     10  C   UNL A   1      38.158  31.704  29.148  1.00  0.00     0.014 A 
ATOM     11  C   UNL A   1      36.968  29.977  27.972  1.00  0.00     0.014 A 
ATOM     12  C   UNL A   1      39.248  30.829  29.274  1.00  0.00     0.010 A 
ATOM     13  C   UNL A   1      38.052  29.104  28.092  1.00  0.00     0.010 A 
ATOM     14  C   UNL A   1      39.209  29.533  28.732  1.00  0.00    -0.014 A 
BRANCH  14  15
ATOM     15  C   UNL A   1      40.276  28.580  29.074  1.00  0.00     0.031 A 
ATOM     16  C   UNL A   1      40.551  28.512  30.537  1.00  0.00     0.074 A 
ATOM     17  C   UNL A   1      40.898  27.712  28.243  1.00  0.00     0.049 A 
ATOM     18  N   UNL A   1      41.591  28.957  31.159  1.00  0.00    -0.248 NA
ATOM     19  C   UNL A   1      39.487  28.032  31.432  1.00  0.00     0.031 C 
ATOM     20  C   UNL A   1      40.594  27.430  26.841  1.00  0.00     0.029 A 
ATOM     21  N   UNL A   1      41.914  26.828  28.512  1.00  0.00    -0.354 N 
ATOM     22  C   UNL A   1      41.425  28.607  32.495  1.00  0.00     0.074 A 
ATOM     23  C   UNL A   1      40.046  28.217  32.630  1.00  0.00     0.031 C 
ATOM     24  C   UNL A   1      41.262  26.319  26.445  1.00  0.00     0.029 A 
ATOM     25  C   UNL A   1      42.145  25.876  27.516  1.00  0.00     0.049 A 
ATOM     26  H   UNL A   1      42.440  26.863  29.344  1.00  0.00     0.167 HD
ATOM     27  C   UNL A   1      42.497  28.461  33.325  1.00  0.00     0.034 A 
ATOM     28  C   UNL A   1      42.977  24.794  27.562  1.00  0.00     0.034 A 
ATOM     29  C   UNL A   1      43.681  29.058  32.747  1.00  0.00     0.049 A 
ATOM     30  C   UNL A   1      44.008  25.082  28.587  1.00  0.00     0.074 A 
ATOM     31  C   UNL A   1      44.016  30.325  32.308  1.00  0.00     0.029 A 
ATOM     32  N   UNL A   1      44.626  28.218  32.201  1.00  0.00    -0.354 N 
ATOM     33  N   UNL A   1      44.911  26.011  28.452  1.00  0.00    -0.248 NA
ATOM     34  C   UNL A   1      43.753  24.659  29.955  1.00  0.00     0.031 C 
ATOM     35  C   UNL A   1      44.794  30.108  31.132  1.00  0.00     0.029 A 
ATOM     36  C   UNL A   1      44.968  28.732  30.975  1.00  0.00     0.049 A 
ATOM     37  H   UNL A   1      44.990  27.402  32.613  1.00  0.00     0.167 HD
ATOM     38  C   UNL A   1      44.995  26.606  29.700  1.00  0.00     0.074 A 
ATOM     39  C   UNL A   1      44.334  25.670  30.608  1.00  0.00     0.031 C 
ATOM     40  C   UNL A   1      45.340  27.921  29.834  1.00  0.00     0.034 A 
BRANCH  27  41
ATOM     41  C   UNL A   1      42.591  27.474  34.469  1.00  0.00     0.023 A 
ATOM     42  C   UNL A   1      43.358  26.311  34.252  1.00  0.00     0.031 A 
ATOM     43  C   UNL A   1      41.749  27.449  35.603  1.00  0.00     0.131 A 
ATOM     44  C   UNL A   1      43.177  25.166  35.045  1.00  0.00     0.055 A 
ATOM     45  C   UNL A   1      41.629  26.330  36.434  1.00  0.00     0.041 A 
ATOM     46  F   UNL A   1      40.930  28.457  35.920  1.00  0.00    -0.206 F 
ATOM     47  C   UNL A   1      42.315  25.166  36.136  1.00  0.00     0.022 A 
BRANCH  44  48
ATOM     48  S   UNL A   1      43.947  23.618  34.501  1.00  0.00     0.124 S 
ATOM     49  O   UNL A   1      44.999  24.113  33.620  1.00  0.00    -0.237 OA
ATOM     50  O   UNL A   1      44.384  23.038  35.766  1.00  0.00    -0.237 OA
ATOM     51  O   UNL A   1      42.855  22.913  33.836  1.00  0.00    -0.744 OA
ENDBRANCH  44  48
ENDBRANCH  27  41
BRANCH  28  52
ATOM     52  C   UNL A   1      42.781  23.425  26.988  1.00  0.00     0.023 A 
ATOM     53  C   UNL A   1      43.731  22.775  26.159  1.00  0.00     0.031 A 
ATOM     54  C   UNL A   1      41.739  22.617  27.494  1.00  0.00     0.131 A 
ATOM     55  C   UNL A   1      43.612  21.388  25.877  1.00  0.00     0.055 A 
ATOM     56  C   UNL A   1      41.630  21.252  27.216  1.00  0.00     0.041 A 
ATOM     57  F   UNL A   1      40.836  23.110  28.356  1.00  0.00    -0.206 F 
ATOM     58  C   UNL A   1      42.572  20.629  26.415  1.00  0.00     0.022 A 
BRANCH  55  59
ATOM     59  S   UNL A   1      44.872  20.511  24.882  1.00  0.00     0.124 S 
ATOM     60  O   UNL A   1      44.560  19.107  25.154  1.00  0.00    -0.237 OA
ATOM     61  O   UNL A   1      44.607  20.987  23.536  1.00  0.00    -0.237 OA
ATOM     62  O   UNL A   1      46.141  20.969  25.455  1.00  0.00    -0.744 OA
ENDBRANCH  55  59
ENDBRANCH  28  52
BRANCH  40  63
ATOM     63  C   UNL A   1      45.969  28.635  28.654  1.00  0.00     0.023 A 
ATOM     64  C   UNL A   1      47.345  28.630  28.330  1.00  0.00     0.031 A 
ATOM     65  C   UNL A   1      45.092  29.269  27.755  1.00  0.00     0.131 A 
ATOM     66  C   UNL A   1      47.793  29.257  27.149  1.00  0.00     0.055 A 
ATOM     67  C   UNL A   1      45.535  29.865  26.576  1.00  0.00     0.041 A 
ATOM     68  F   UNL A   1      43.770  29.293  27.994  1.00  0.00    -0.206 F 
ATOM     69  C   UNL A   1      46.889  29.867  26.273  1.00  0.00     0.022 A 
BRANCH  66  70
ATOM     70  S   UNL A   1      49.568  29.319  26.739  1.00  0.00     0.124 S 
ATOM     71  O   UNL A   1      49.834  30.743  26.576  1.00  0.00    -0.237 OA
ATOM     72  O   UNL A   1      50.181  28.682  27.902  1.00  0.00    -0.237 OA
ATOM     73  O   UNL A   1      49.656  28.538  25.504  1.00  0.00    -0.744 OA
ENDBRANCH  66  70
ENDBRANCH  40  63
ENDBRANCH  14  15
ENDBRANCH   7   9
ENDBRANCH   4   5
ENDBRANCH   3   4
ENDBRANCH   2   3
ENDBRANCH   1   2
BRANCH   1  74
ATOM     74  C   UNL A   1      31.116  28.704  25.069  1.00  0.00     0.021 C 
BRANCH  74  75
ATOM     75  C   UNL A   1      31.414  28.409  23.592  1.00  0.00     0.116 C 
BRANCH  75  76
ATOM     76  N   UNL A   1      32.763  27.949  23.286  1.00  0.00    -0.351 N 
ATOM     77  C   UNL A   1      33.081  26.739  22.673  1.00  0.00     0.261 C 
ATOM     78  H   UNL A   1      33.510  28.542  23.534  1.00  0.00     0.163 HD
ATOM     79  O   UNL A   1      33.753  26.798  21.641  1.00  0.00    -0.268 OA
BRANCH  77  80
ATOM     80  C   UNL A   1      32.804  25.471  23.346  1.00  0.00     0.093 A 
ATOM     81  C   UNL A   1      33.521  24.738  24.294  1.00  0.00     0.040 A 
ATOM     82  S   UNL A   1      31.205  24.856  23.188  1.00  0.00    -0.137 S 
ATOM     83  C   UNL A   1      32.805  23.577  24.753  1.00  0.00     0.019 A 
ATOM     84  C   UNL A   1      31.503  23.595  24.298  1.00  0.00     0.080 A 
BRANCH  83  85
ATOM     85  S   UNL A   1      33.316  22.321  25.887  1.00  0.00    -0.123 SA
BRANCH  85  86
ATOM     86  C   UNL A   1      32.564  20.728  25.399  1.00  0.00     0.098 C 
BRANCH  86  87
ATOM     87  C   UNL A   1      33.297  19.897  24.331  1.00  0.00     0.155 C 
BRANCH  87  88
ATOM     88  N   UNL A   1      33.454  18.533  24.780  1.00  0.00    -0.272 N 
ATOM     89  C   UNL A   1      32.698  17.902  25.724  1.00  0.00     0.108 A 
ATOM     90  N   UNL A   1      34.074  17.696  23.941  1.00  0.00    -0.182 NA
ATOM     91  C   UNL A   1      32.559  16.620  25.246  1.00  0.00     0.042 A 
ATOM     92  C   UNL A   1      33.416  16.559  24.126  1.00  0.00     0.135 A 
ENDBRANCH  87  88
ENDBRANCH  86  87
ENDBRANCH  85  86
ENDBRANCH  83  85
ENDBRANCH  77  80
ENDBRANCH  75  76
ENDBRANCH  74  75
ENDBRANCH   1  74
TORSDOF 20
ENDMDL
MODEL 3
REMARK VINA RESULT:     -10.4      5.356     13.575
REMARK SMILES O=C(NCCCCCCNC(=O)c1cc(SCCn2cccn2)cs1)c1ccc(-c2c3nc(c(-c4cc(S(=O)(=O)[O-])ccc4F)c4ccc([nH]4)c(-c4cc(S(=O)(=O)[O-])ccc4F)c4nc(c(-c5cc(S(=O)(=O)[O-])ccc5F)c5ccc2[nH]5)C=C4)C=C3)cc1
REMARK SMILES IDX 7 1 6 2 5 3 4 4 3 5 1 6 2 7 26 9 27 10 88 11 28 12 87 13
REMARK SMILES IDX 29 14 30 15 31 16 81 17 32 18 86 19 80 20 82 21 33 22 85 23
REMARK SMILES IDX 79 24 78 25 34 27 66 28 46 29 65 30 47 31 50 32 64 33 83 34
REMARK SMILES IDX 48 35 49 36 63 38 84 39 51 40 35 41 36 42 44 43 37 44 43 45
REMARK SMILES IDX 45 46 42 47 38 48 39 49 40 50 41 51 67 52 68 53 76 54 69 55
REMARK SMILES IDX 75 56 77 57 74 58 70 59 71 60 72 61 73 62 52 63 53 64 61 65
REMARK SMILES IDX 54 66 60 67 62 68 59 69 55 70 56 71 57 72 58 73 8 74 9 75
REMARK SMILES IDX 10 76 11 77 12 79 13 80 14 81 25 82 15 83 24 84 16 85 17 86
REMARK SMILES IDX 18 87 19 88 20 89 23 90 21 91 22 92
REMARK H PARENT 3 8 82 26 50 37 10 78
REMARK Flexibility Score: inf
ROOT
ATOM      1  C   UNL A   1      47.058  20.274  35.759  1.00  0.00     0.002 C 
ENDROOT
BRANCH   1   2
ATOM      2  C   UNL A   1      45.827  20.947  36.391  1.00  0.00     0.002 C 
BRANCH   2   3
ATOM      3  C   UNL A   1      46.033  21.790  37.658  1.00  0.00     0.021 C 
BRANCH   3   4
ATOM      4  C   UNL A   1      46.710  23.147  37.477  1.00  0.00     0.116 C 
BRANCH   4   5
ATOM      5  N   UNL A   1      45.829  24.297  37.557  1.00  0.00    -0.352 N 
ATOM      6  O   UNL A   1      44.384  25.912  37.192  1.00  0.00    -0.269 OA
ATOM      7  C   UNL A   1      45.131  25.074  36.674  1.00  0.00     0.251 C 
ATOM      8  H   UNL A   1      45.702  24.595  38.487  1.00  0.00     0.163 HD
BRANCH   7   9
ATOM      9  C   UNL A   1      45.226  25.034  35.186  1.00  0.00     0.039 A 
ATOM     10  C   UNL A   1      45.311  23.891  34.394  1.00  0.00     0.014 A 
ATOM     11  C   UNL A   1      45.195  26.289  34.538  1.00  0.00     0.014 A 
ATOM     12  C   UNL A   1      45.410  24.007  32.999  1.00  0.00     0.010 A 
ATOM     13  C   UNL A   1      45.298  26.408  33.150  1.00  0.00     0.010 A 
ATOM     14  C   UNL A   1      45.423  25.265  32.371  1.00  0.00    -0.014 A 
BRANCH  14  15
ATOM     15  C   UNL A   1      45.306  25.335  30.906  1.00  0.00     0.031 A 
ATOM     16  C   UNL A   1      46.388  26.140  30.273  1.00  0.00     0.074 A 
ATOM     17  C   UNL A   1      44.435  24.662  30.120  1.00  0.00     0.049 A 
ATOM     18  N   UNL A   1      46.279  27.303  29.723  1.00  0.00    -0.248 NA
ATOM     19  C   UNL A   1      47.777  25.672  30.393  1.00  0.00     0.031 C 
ATOM     20  C   UNL A   1      43.479  23.627  30.513  1.00  0.00     0.029 A 
ATOM     21  N   UNL A   1      44.273  24.717  28.758  1.00  0.00    -0.354 N 
ATOM     22  C   UNL A   1      47.537  27.616  29.219  1.00  0.00     0.074 A 
ATOM     23  C   UNL A   1      48.445  26.676  29.821  1.00  0.00     0.031 C 
ATOM     24  C   UNL A   1      42.987  23.019  29.406  1.00  0.00     0.029 A 
ATOM     25  C   UNL A   1      43.486  23.697  28.217  1.00  0.00     0.049 A 
ATOM     26  H   UNL A   1      44.680  25.423  28.204  1.00  0.00     0.167 HD
ATOM     27  C   UNL A   1      47.684  28.485  28.179  1.00  0.00     0.034 A 
ATOM     28  C   UNL A   1      43.269  23.409  26.900  1.00  0.00     0.034 A 
ATOM     29  C   UNL A   1      46.475  29.252  27.973  1.00  0.00     0.049 A 
ATOM     30  C   UNL A   1      43.527  24.653  26.135  1.00  0.00     0.074 A 
ATOM     31  C   UNL A   1      45.715  30.100  28.757  1.00  0.00     0.029 A 
ATOM     32  N   UNL A   1      45.665  28.907  26.914  1.00  0.00    -0.354 N 
ATOM     33  N   UNL A   1      42.777  25.715  26.224  1.00  0.00    -0.248 NA
ATOM     34  C   UNL A   1      44.870  24.882  25.630  1.00  0.00     0.031 C 
ATOM     35  C   UNL A   1      44.364  29.796  28.417  1.00  0.00     0.029 A 
ATOM     36  C   UNL A   1      44.377  28.855  27.386  1.00  0.00     0.049 A 
ATOM     37  H   UNL A   1      45.955  28.732  25.990  1.00  0.00     0.167 HD
ATOM     38  C   UNL A   1      43.668  26.775  26.238  1.00  0.00     0.074 A 
ATOM     39  C   UNL A   1      44.933  26.211  25.770  1.00  0.00     0.031 C 
ATOM     40  C   UNL A   1      43.371  27.938  26.889  1.00  0.00     0.034 A 
BRANCH  27  41
ATOM     41  C   UNL A   1      48.755  28.400  27.112  1.00  0.00     0.023 A 
ATOM     42  C   UNL A   1      48.335  28.070  25.806  1.00  0.00     0.031 A 
ATOM     43  C   UNL A   1      50.145  28.314  27.348  1.00  0.00     0.131 A 
ATOM     44  C   UNL A   1      49.240  27.559  24.862  1.00  0.00     0.055 A 
ATOM     45  C   UNL A   1      51.053  27.875  26.378  1.00  0.00     0.041 A 
ATOM     46  F   UNL A   1      50.693  28.554  28.543  1.00  0.00    -0.206 F 
ATOM     47  C   UNL A   1      50.599  27.457  25.139  1.00  0.00     0.022 A 
BRANCH  44  48
ATOM     48  S   UNL A   1      48.574  26.849  23.334  1.00  0.00     0.124 S 
ATOM     49  O   UNL A   1      48.014  25.592  23.820  1.00  0.00    -0.237 OA
ATOM     50  O   UNL A   1      47.612  27.867  22.923  1.00  0.00    -0.237 OA
ATOM     51  O   UNL A   1      49.751  26.721  22.479  1.00  0.00    -0.744 OA
ENDBRANCH  44  48
ENDBRANCH  27  41
BRANCH  28  52
ATOM     52  C   UNL A   1      43.131  22.076  26.232  1.00  0.00     0.023 A 
ATOM     53  C   UNL A   1      44.205  21.390  25.611  1.00  0.00     0.031 A 
ATOM     54  C   UNL A   1      41.954  21.325  26.449  1.00  0.00     0.131 A 
ATOM     55  C   UNL A   1      44.073  20.024  25.245  1.00  0.00     0.055 A 
ATOM     56  C   UNL A   1      41.832  19.980  26.090  1.00  0.00     0.041 A 
ATOM     57  F   UNL A   1      40.908  21.850  27.106  1.00  0.00    -0.206 F 
ATOM     58  C   UNL A   1      42.894  19.321  25.495  1.00  0.00     0.022 A 
BRANCH  55  59
ATOM     59  S   UNL A   1      45.473  19.096  24.522  1.00  0.00     0.124 S 
ATOM     60  O   UNL A   1      46.562  20.071  24.590  1.00  0.00    -0.237 OA
ATOM     61  O   UNL A   1      45.579  17.941  25.396  1.00  0.00    -0.237 OA
ATOM     62  O   UNL A   1      45.018  18.794  23.161  1.00  0.00    -0.744 OA
ENDBRANCH  55  59
ENDBRANCH  28  52
BRANCH  40  63
ATOM     63  C   UNL A   1      41.936  28.201  27.299  1.00  0.00     0.023 A 
ATOM     64  C   UNL A   1      41.396  27.983  28.588  1.00  0.00     0.031 A 
ATOM     65  C   UNL A   1      41.103  28.805  26.339  1.00  0.00     0.131 A 
ATOM     66  C   UNL A   1      40.065  28.357  28.866  1.00  0.00     0.055 A 
ATOM     67  C   UNL A   1      39.797  29.197  26.626  1.00  0.00     0.041 A 
ATOM     68  F   UNL A   1      41.560  29.058  25.101  1.00  0.00    -0.206 F 
ATOM     69  C   UNL A   1      39.271  28.968  27.890  1.00  0.00     0.022 A 
BRANCH  66  70
ATOM     70  S   UNL A   1      39.327  28.032  30.500  1.00  0.00     0.124 S 
ATOM     71  O   UNL A   1      40.444  28.196  31.421  1.00  0.00    -0.237 OA
ATOM     72  O   UNL A   1      38.277  29.045  30.578  1.00  0.00    -0.237 OA
ATOM     73  O   UNL A   1      38.833  26.657  30.380  1.00  0.00    -0.744 OA
ENDBRANCH  66  70
ENDBRANCH  40  63
ENDBRANCH  14  15
ENDBRANCH   7   9
ENDBRANCH   4   5
ENDBRANCH   3   4
ENDBRANCH   2   3
ENDBRANCH   1   2
BRANCH   1  74
ATOM     74  C   UNL A   1      47.300  20.467  34.248  1.00  0.00     0.021 C 
BRANCH  74  75
ATOM     75  C   UNL A   1      48.427  19.605  33.663  1.00  0.00     0.116 C 
BRANCH  75  76
ATOM     76  N   UNL A   1      49.637  20.312  33.263  1.00  0.00    -0.351 N 
ATOM     77  C   UNL A   1      50.767  20.488  34.059  1.00  0.00     0.261 C 
ATOM     78  H   UNL A   1      49.657  20.697  32.356  1.00  0.00     0.163 HD
ATOM     79  O   UNL A   1      51.838  20.084  33.602  1.00  0.00    -0.268 OA
BRANCH  77  80
ATOM     80  C   UNL A   1      50.699  21.297  35.275  1.00  0.00     0.093 A 
ATOM     81  C   UNL A   1      51.202  21.098  36.562  1.00  0.00     0.040 A 
ATOM     82  S   UNL A   1      50.147  22.916  35.084  1.00  0.00    -0.137 S 
ATOM     83  C   UNL A   1      50.972  22.225  37.427  1.00  0.00     0.019 A 
ATOM     84  C   UNL A   1      50.499  23.304  36.708  1.00  0.00     0.080 A 
BRANCH  83  85
ATOM     85  S   UNL A   1      51.361  22.421  39.140  1.00  0.00    -0.123 SA
BRANCH  85  86
ATOM     86  C   UNL A   1      49.823  22.312  40.122  1.00  0.00     0.098 C 
BRANCH  86  87
ATOM     87  C   UNL A   1      48.828  21.196  39.757  1.00  0.00     0.155 C 
BRANCH  87  88
ATOM     88  N   UNL A   1      49.191  19.966  40.423  1.00  0.00    -0.272 N 
ATOM     89  C   UNL A   1      49.487  18.779  39.821  1.00  0.00     0.108 A 
ATOM     90  N   UNL A   1      49.692  20.082  41.658  1.00  0.00    -0.182 NA
ATOM     91  C   UNL A   1      50.512  18.260  40.578  1.00  0.00     0.042 A 
ATOM     92  C   UNL A   1      50.610  19.125  41.690  1.00  0.00     0.135 A 
ENDBRANCH  87  88
ENDBRANCH  86  87
ENDBRANCH  85  86
ENDBRANCH  83  85
ENDBRANCH  77  80
ENDBRANCH  75  76
ENDBRANCH  74  75
ENDBRANCH   1  74
TORSDOF 20
ENDMDL
