MODEL 1
REMARK VINA RESULT:     -11.9      0.000      0.000
REMARK SMILES O=C(NCCCCCCNC(=O)c1cc(-c2ccc(F)c(C(F)(F)F)c2)cnc1O)c1ccc(-c2c3nc(c(-c4cc(S(=O)(=O)[O-])ccc4F)c4ccc([nH]4)c(-c4cc(S(=O)(=O)[O-])ccc4F)c4nc(c(-c5cc(S(=O)(=O)[O-])ccc5F)c5ccc2[nH]5)C=C4)C=C3)cc1
REMARK SMILES IDX 6 1 5 2 4 3 3 4 1 5 2 6 31 8 32 9 93 10 33 11 92 12 34 13
REMARK SMILES IDX 35 14 36 15 86 16 37 17 91 18 85 19 87 20 38 21 90 22 84 23
REMARK SMILES IDX 83 24 39 26 71 27 51 28 70 29 52 30 55 31 69 32 88 33 53 34
REMARK SMILES IDX 54 35 68 37 89 38 56 39 40 40 41 41 49 42 42 43 48 44 50 45
REMARK SMILES IDX 47 46 43 47 44 48 45 49 46 50 72 51 73 52 81 53 74 54 80 55
REMARK SMILES IDX 82 56 79 57 75 58 76 59 77 60 78 61 57 62 58 63 66 64 59 65
REMARK SMILES IDX 65 66 67 67 64 68 60 69 61 70 62 71 63 72 7 73 8 74 9 75
REMARK SMILES IDX 10 76 11 77 12 79 13 80 14 81 29 82 15 83 28 84 27 85 30 86
REMARK SMILES IDX 16 88 17 89 26 90 18 91 21 92 19 93 20 94 22 95 23 96 24 97
REMARK SMILES IDX 25 98
REMARK H PARENT 3 7 87 25 55 36 10 78 30 87
REMARK Flexibility Score: inf
ROOT
ATOM      1  C   UNL A   1      33.358  26.565  26.502  1.00  0.00     0.002 C 
ENDROOT
BRANCH   1   2
ATOM      2  C   UNL A   1      32.966  28.026  26.738  1.00  0.00     0.021 C 
BRANCH   2   3
ATOM      3  C   UNL A   1      33.790  29.055  25.971  1.00  0.00     0.116 C 
BRANCH   3   4
ATOM      4  N   UNL A   1      33.700  30.379  26.559  1.00  0.00    -0.352 N 
ATOM      5  O   UNL A   1      34.124  32.023  28.029  1.00  0.00    -0.269 OA
ATOM      6  C   UNL A   1      34.473  30.953  27.537  1.00  0.00     0.251 C 
ATOM      7  H   UNL A   1      32.979  30.949  26.205  1.00  0.00     0.163 HD
BRANCH   6   8
ATOM      8  C   UNL A   1      35.716  30.296  28.001  1.00  0.00     0.039 A 
ATOM      9  C   UNL A   1      35.717  29.670  29.251  1.00  0.00     0.014 A 
ATOM     10  C   UNL A   1      36.894  30.351  27.248  1.00  0.00     0.014 A 
ATOM     11  C   UNL A   1      36.890  29.090  29.740  1.00  0.00     0.010 A 
ATOM     12  C   UNL A   1      38.045  29.713  27.706  1.00  0.00     0.010 A 
ATOM     13  C   UNL A   1      38.064  29.106  28.971  1.00  0.00    -0.014 A 
BRANCH  13  14
ATOM     14  C   UNL A   1      39.336  28.551  29.499  1.00  0.00     0.031 A 
ATOM     15  C   UNL A   1      39.954  29.144  30.736  1.00  0.00     0.074 A 
ATOM     16  C   UNL A   1      39.954  27.545  28.853  1.00  0.00     0.049 A 
ATOM     17  N   UNL A   1      41.073  28.829  31.332  1.00  0.00    -0.248 NA
ATOM     18  C   UNL A   1      39.228  30.255  31.373  1.00  0.00     0.031 C 
ATOM     19  C   UNL A   1      39.466  26.914  27.628  1.00  0.00     0.029 A 
ATOM     20  N   UNL A   1      41.124  26.882  29.129  1.00  0.00    -0.354 N 
ATOM     21  C   UNL A   1      41.194  29.709  32.402  1.00  0.00     0.074 A 
ATOM     22  C   UNL A   1      40.066  30.610  32.336  1.00  0.00     0.031 C 
ATOM     23  C   UNL A   1      40.316  25.940  27.271  1.00  0.00     0.029 A 
ATOM     24  C   UNL A   1      41.432  25.901  28.215  1.00  0.00     0.049 A 
ATOM     25  H   UNL A   1      41.690  27.089  29.908  1.00  0.00     0.167 HD
ATOM     26  C   UNL A   1      42.143  29.742  33.368  1.00  0.00     0.034 A 
ATOM     27  C   UNL A   1      42.492  25.068  28.142  1.00  0.00     0.034 A 
ATOM     28  C   UNL A   1      43.242  28.815  33.438  1.00  0.00     0.049 A 
ATOM     29  C   UNL A   1      43.540  25.121  29.225  1.00  0.00     0.074 A 
ATOM     30  C   UNL A   1      44.215  28.719  34.416  1.00  0.00     0.029 A 
ATOM     31  N   UNL A   1      43.518  27.829  32.500  1.00  0.00    -0.354 N 
ATOM     32  N   UNL A   1      43.594  25.899  30.282  1.00  0.00    -0.248 NA
ATOM     33  C   UNL A   1      44.666  24.183  29.119  1.00  0.00     0.031 C 
ATOM     34  C   UNL A   1      45.114  27.721  34.038  1.00  0.00     0.029 A 
ATOM     35  C   UNL A   1      44.664  27.141  32.862  1.00  0.00     0.049 A 
ATOM     36  H   UNL A   1      42.977  27.645  31.698  1.00  0.00     0.167 HD
ATOM     37  C   UNL A   1      44.744  25.531  30.975  1.00  0.00     0.074 A 
ATOM     38  C   UNL A   1      45.345  24.444  30.229  1.00  0.00     0.031 C 
ATOM     39  C   UNL A   1      45.255  26.050  32.120  1.00  0.00     0.034 A 
BRANCH  26  40
ATOM     40  C   UNL A   1      42.032  30.790  34.448  1.00  0.00     0.023 A 
ATOM     41  C   UNL A   1      42.607  32.062  34.257  1.00  0.00     0.031 A 
ATOM     42  C   UNL A   1      41.458  30.503  35.699  1.00  0.00     0.131 A 
ATOM     43  C   UNL A   1      42.611  32.988  35.307  1.00  0.00     0.055 A 
ATOM     44  C   UNL A   1      41.426  31.446  36.727  1.00  0.00     0.041 A 
ATOM     45  F   UNL A   1      40.901  29.303  35.935  1.00  0.00    -0.206 F 
ATOM     46  C   UNL A   1      42.015  32.690  36.537  1.00  0.00     0.022 A 
BRANCH  43  47
ATOM     47  S   UNL A   1      43.445  34.590  35.143  1.00  0.00     0.124 S 
ATOM     48  O   UNL A   1      43.526  34.735  33.691  1.00  0.00    -0.237 OA
ATOM     49  O   UNL A   1      42.509  35.492  35.808  1.00  0.00    -0.237 OA
ATOM     50  O   UNL A   1      44.722  34.394  35.819  1.00  0.00    -0.744 OA
ENDBRANCH  43  47
ENDBRANCH  26  40
BRANCH  27  51
ATOM     51  C   UNL A   1      42.546  24.072  27.033  1.00  0.00     0.023 A 
ATOM     52  C   UNL A   1      41.879  22.837  27.135  1.00  0.00     0.031 A 
ATOM     53  C   UNL A   1      43.378  24.284  25.921  1.00  0.00     0.131 A 
ATOM     54  C   UNL A   1      42.121  21.834  26.187  1.00  0.00     0.055 A 
ATOM     55  C   UNL A   1      43.559  23.307  24.939  1.00  0.00     0.041 A 
ATOM     56  F   UNL A   1      44.044  25.442  25.787  1.00  0.00    -0.206 F 
ATOM     57  C   UNL A   1      42.945  22.067  25.081  1.00  0.00     0.022 A 
BRANCH  54  58
ATOM     58  S   UNL A   1      41.493  20.150  26.434  1.00  0.00     0.124 S 
ATOM     59  O   UNL A   1      40.057  20.328  26.244  1.00  0.00    -0.237 OA
ATOM     60  O   UNL A   1      42.184  19.418  25.376  1.00  0.00    -0.237 OA
ATOM     61  O   UNL A   1      41.912  19.820  27.792  1.00  0.00    -0.744 OA
ENDBRANCH  54  58
ENDBRANCH  27  51
BRANCH  39  62
ATOM     62  C   UNL A   1      46.539  25.476  32.673  1.00  0.00     0.023 A 
ATOM     63  C   UNL A   1      46.494  24.519  33.705  1.00  0.00     0.031 A 
ATOM     64  C   UNL A   1      47.789  26.002  32.307  1.00  0.00     0.131 A 
ATOM     65  C   UNL A   1      47.671  24.158  34.372  1.00  0.00     0.055 A 
ATOM     66  C   UNL A   1      48.966  25.600  32.941  1.00  0.00     0.041 A 
ATOM     67  F   UNL A   1      47.883  26.925  31.336  1.00  0.00    -0.206 F 
ATOM     68  C   UNL A   1      48.908  24.688  33.990  1.00  0.00     0.022 A 
BRANCH  65  69
ATOM     69  S   UNL A   1      47.630  23.069  35.824  1.00  0.00     0.124 S 
ATOM     70  O   UNL A   1      46.458  22.240  35.546  1.00  0.00    -0.237 OA
ATOM     71  O   UNL A   1      48.915  22.383  35.731  1.00  0.00    -0.237 OA
ATOM     72  O   UNL A   1      47.488  23.987  36.949  1.00  0.00    -0.744 OA
ENDBRANCH  65  69
ENDBRANCH  39  62
ENDBRANCH  13  14
ENDBRANCH   6   8
ENDBRANCH   3   4
ENDBRANCH   2   3
ENDBRANCH   1   2
BRANCH   1  73
ATOM     73  C   UNL A   1      34.362  26.323  25.373  1.00  0.00     0.002 C 
BRANCH  73  74
ATOM     74  C   UNL A   1      34.686  24.854  25.076  1.00  0.00     0.021 C 
BRANCH  74  75
ATOM     75  C   UNL A   1      34.194  23.854  26.121  1.00  0.00     0.116 C 
BRANCH  75  76
ATOM     76  N   UNL A   1      33.533  22.707  25.511  1.00  0.00    -0.352 N 
ATOM     77  C   UNL A   1      32.193  22.476  25.356  1.00  0.00     0.256 C 
ATOM     78  H   UNL A   1      34.130  22.004  25.165  1.00  0.00     0.163 HD
ATOM     79  O   UNL A   1      31.784  21.364  25.011  1.00  0.00    -0.269 OA
BRANCH  77  80
ATOM     80  C   UNL A   1      31.233  23.560  25.578  1.00  0.00     0.102 A 
ATOM     81  C   UNL A   1      31.222  24.643  24.695  1.00  0.00     0.029 A 
ATOM     82  C   UNL A   1      30.367  23.574  26.665  1.00  0.00     0.223 A 
ATOM     83  C   UNL A   1      30.320  25.693  24.891  1.00  0.00     0.001 A 
ATOM     84  N   UNL A   1      29.469  24.554  26.874  1.00  0.00    -0.221 NA
ATOM     85  C   UNL A   1      29.461  25.578  25.988  1.00  0.00     0.124 A 
BRANCH  82  86
ATOM     86  O   UNL A   1      30.348  22.607  27.627  1.00  0.00    -0.493 OA
ATOM     87  H   UNL A   1      29.600  22.514  28.184  1.00  0.00     0.295 HD
ENDBRANCH  82  86
BRANCH  83  88
ATOM     88  C   UNL A   1      30.291  26.870  24.018  1.00  0.00    -0.016 A 
ATOM     89  C   UNL A   1      31.462  27.304  23.373  1.00  0.00     0.012 A 
ATOM     90  C   UNL A   1      29.104  27.596  23.806  1.00  0.00     0.025 A 
ATOM     91  C   UNL A   1      31.451  28.428  22.548  1.00  0.00     0.040 A 
ATOM     92  C   UNL A   1      29.087  28.733  22.977  1.00  0.00     0.092 A 
ATOM     93  C   UNL A   1      30.268  29.132  22.361  1.00  0.00     0.135 A 
ATOM     94  F   UNL A   1      30.281  30.214  21.571  1.00  0.00    -0.206 F 
BRANCH  92  95
ATOM     95  C   UNL A   1      27.841  29.536  22.752  1.00  0.00     0.419 C 
ATOM     96  F   UNL A   1      27.841  30.712  23.439  1.00  0.00    -0.166 F 
ATOM     97  F   UNL A   1      27.645  29.859  21.443  1.00  0.00    -0.166 F 
ATOM     98  F   UNL A   1      26.708  28.884  23.139  1.00  0.00    -0.166 F 
ENDBRANCH  92  95
ENDBRANCH  83  88
ENDBRANCH  77  80
ENDBRANCH  75  76
ENDBRANCH  74  75
ENDBRANCH  73  74
ENDBRANCH   1  73
TORSDOF 19
ENDMDL
MODEL 2
REMARK VINA RESULT:     -11.8      2.069      2.436
REMARK SMILES O=C(NCCCCCCNC(=O)c1cc(-c2ccc(F)c(C(F)(F)F)c2)cnc1O)c1ccc(-c2c3nc(c(-c4cc(S(=O)(=O)[O-])ccc4F)c4ccc([nH]4)c(-c4cc(S(=O)(=O)[O-])ccc4F)c4nc(c(-c5cc(S(=O)(=O)[O-])ccc5F)c5ccc2[nH]5)C=C4)C=C3)cc1
REMARK SMILES IDX 6 1 5 2 4 3 3 4 1 5 2 6 31 8 32 9 93 10 33 11 92 12 34 13
REMARK SMILES IDX 35 14 36 15 86 16 37 17 91 18 85 19 87 20 38 21 90 22 84 23
REMARK SMILES IDX 83 24 39 26 71 27 51 28 70 29 52 30 55 31 69 32 88 33 53 34
REMARK SMILES IDX 54 35 68 37 89 38 56 39 40 40 41 41 49 42 42 43 48 44 50 45
REMARK SMILES IDX 47 46 43 47 44 48 45 49 46 50 72 51 73 52 81 53 74 54 80 55
REMARK SMILES IDX 82 56 79 57 75 58 76 59 77 60 78 61 57 62 58 63 66 64 59 65
REMARK SMILES IDX 65 66 67 67 64 68 60 69 61 70 62 71 63 72 7 73 8 74 9 75
REMARK SMILES IDX 10 76 11 77 12 79 13 80 14 81 29 82 15 83 28 84 27 85 30 86
REMARK SMILES IDX 16 88 17 89 26 90 18 91 21 92 19 93 20 94 22 95 23 96 24 97
REMARK SMILES IDX 25 98
REMARK H PARENT 3 7 87 25 55 36 10 78 30 87
REMARK Flexibility Score: inf
ROOT
ATOM      1  C   UNL A   1      33.571  26.712  26.392  1.00  0.00     0.002 C 
ENDROOT
BRANCH   1   2
ATOM      2  C   UNL A   1      32.872  28.062  26.210  1.00  0.00     0.021 C 
BRANCH   2   3
ATOM      3  C   UNL A   1      33.760  29.192  25.700  1.00  0.00     0.116 C 
BRANCH   3   4
ATOM      4  N   UNL A   1      33.312  30.493  26.162  1.00  0.00    -0.352 N 
ATOM      5  O   UNL A   1      33.136  32.246  27.555  1.00  0.00    -0.269 OA
ATOM      6  C   UNL A   1      33.768  31.250  27.212  1.00  0.00     0.251 C 
ATOM      7  H   UNL A   1      32.572  30.891  25.648  1.00  0.00     0.163 HD
BRANCH   6   8
ATOM      8  C   UNL A   1      35.008  30.876  27.930  1.00  0.00     0.039 A 
ATOM      9  C   UNL A   1      36.126  31.708  27.814  1.00  0.00     0.014 A 
ATOM     10  C   UNL A   1      35.099  29.684  28.657  1.00  0.00     0.014 A 
ATOM     11  C   UNL A   1      37.326  31.354  28.435  1.00  0.00     0.010 A 
ATOM     12  C   UNL A   1      36.275  29.366  29.331  1.00  0.00     0.010 A 
ATOM     13  C   UNL A   1      37.410  30.180  29.199  1.00  0.00    -0.014 A 
BRANCH  13  14
ATOM     14  C   UNL A   1      38.693  29.754  29.814  1.00  0.00     0.031 A 
ATOM     15  C   UNL A   1      39.095  30.298  31.158  1.00  0.00     0.074 A 
ATOM     16  C   UNL A   1      39.512  28.914  29.155  1.00  0.00     0.049 A 
ATOM     17  N   UNL A   1      40.186  30.081  31.844  1.00  0.00    -0.248 NA
ATOM     18  C   UNL A   1      38.155  31.228  31.806  1.00  0.00     0.031 C 
ATOM     19  C   UNL A   1      39.243  28.349  27.834  1.00  0.00     0.029 A 
ATOM     20  N   UNL A   1      40.736  28.394  29.500  1.00  0.00    -0.354 N 
ATOM     21  C   UNL A   1      40.072  30.857  32.992  1.00  0.00     0.074 A 
ATOM     22  C   UNL A   1      38.835  31.596  32.882  1.00  0.00     0.031 C 
ATOM     23  C   UNL A   1      40.259  27.543  27.489  1.00  0.00     0.029 A 
ATOM     24  C   UNL A   1      41.271  27.563  28.544  1.00  0.00     0.049 A 
ATOM     25  H   UNL A   1      41.187  28.597  30.351  1.00  0.00     0.167 HD
ATOM     26  C   UNL A   1      40.908  30.922  34.057  1.00  0.00     0.034 A 
ATOM     27  C   UNL A   1      42.445  26.895  28.516  1.00  0.00     0.034 A 
ATOM     28  C   UNL A   1      42.120  30.153  34.166  1.00  0.00     0.049 A 
ATOM     29  C   UNL A   1      43.365  26.982  29.708  1.00  0.00     0.074 A 
ATOM     30  C   UNL A   1      42.998  30.093  35.233  1.00  0.00     0.029 A 
ATOM     31  N   UNL A   1      42.627  29.315  33.183  1.00  0.00    -0.354 N 
ATOM     32  N   UNL A   1      43.201  27.649  30.827  1.00  0.00    -0.248 NA
ATOM     33  C   UNL A   1      44.622  26.224  29.645  1.00  0.00     0.031 C 
ATOM     34  C   UNL A   1      44.066  29.272  34.872  1.00  0.00     0.029 A 
ATOM     35  C   UNL A   1      43.822  28.759  33.607  1.00  0.00     0.049 A 
ATOM     36  H   UNL A   1      42.200  29.141  32.313  1.00  0.00     0.167 HD
ATOM     37  C   UNL A   1      44.321  27.375  31.608  1.00  0.00     0.074 A 
ATOM     38  C   UNL A   1      45.144  26.462  30.841  1.00  0.00     0.031 C 
ATOM     39  C   UNL A   1      44.637  27.841  32.843  1.00  0.00     0.034 A 
BRANCH  26  40
ATOM     40  C   UNL A   1      40.540  31.830  35.204  1.00  0.00     0.023 A 
ATOM     41  C   UNL A   1      39.498  31.471  36.081  1.00  0.00     0.031 A 
ATOM     42  C   UNL A   1      41.139  33.091  35.368  1.00  0.00     0.131 A 
ATOM     43  C   UNL A   1      39.077  32.371  37.067  1.00  0.00     0.055 A 
ATOM     44  C   UNL A   1      40.745  33.967  36.381  1.00  0.00     0.041 A 
ATOM     45  F   UNL A   1      42.133  33.485  34.555  1.00  0.00    -0.206 F 
ATOM     46  C   UNL A   1      39.701  33.612  37.227  1.00  0.00     0.022 A 
BRANCH  43  47
ATOM     47  S   UNL A   1      37.661  31.996  38.138  1.00  0.00     0.124 S 
ATOM     48  O   UNL A   1      38.233  32.199  39.468  1.00  0.00    -0.237 OA
ATOM     49  O   UNL A   1      36.687  32.999  37.719  1.00  0.00    -0.237 OA
ATOM     50  O   UNL A   1      37.327  30.616  37.810  1.00  0.00    -0.744 OA
ENDBRANCH  43  47
ENDBRANCH  26  40
BRANCH  27  51
ATOM     51  C   UNL A   1      42.752  26.034  27.337  1.00  0.00     0.023 A 
ATOM     52  C   UNL A   1      42.406  24.670  27.327  1.00  0.00     0.031 A 
ATOM     53  C   UNL A   1      43.519  26.529  26.270  1.00  0.00     0.131 A 
ATOM     54  C   UNL A   1      42.895  23.834  26.314  1.00  0.00     0.055 A 
ATOM     55  C   UNL A   1      43.943  25.707  25.223  1.00  0.00     0.041 A 
ATOM     56  F   UNL A   1      43.884  27.821  26.242  1.00  0.00    -0.206 F 
ATOM     57  C   UNL A   1      43.648  24.348  25.254  1.00  0.00     0.022 A 
BRANCH  54  58
ATOM     58  S   UNL A   1      42.694  22.034  26.415  1.00  0.00     0.124 S 
ATOM     59  O   UNL A   1      43.950  21.553  25.850  1.00  0.00    -0.237 OA
ATOM     60  O   UNL A   1      42.531  21.835  27.853  1.00  0.00    -0.237 OA
ATOM     61  O   UNL A   1      41.502  21.775  25.614  1.00  0.00    -0.744 OA
ENDBRANCH  54  58
ENDBRANCH  27  51
BRANCH  39  62
ATOM     62  C   UNL A   1      45.932  27.395  33.481  1.00  0.00     0.023 A 
ATOM     63  C   UNL A   1      45.953  26.257  34.311  1.00  0.00     0.031 A 
ATOM     64  C   UNL A   1      47.088  28.191  33.415  1.00  0.00     0.131 A 
ATOM     65  C   UNL A   1      47.088  25.977  35.081  1.00  0.00     0.055 A 
ATOM     66  C   UNL A   1      48.235  27.878  34.145  1.00  0.00     0.041 A 
ATOM     67  F   UNL A   1      47.115  29.293  32.647  1.00  0.00    -0.206 F 
ATOM     68  C   UNL A   1      48.232  26.777  34.997  1.00  0.00     0.022 A 
BRANCH  65  69
ATOM     69  S   UNL A   1      47.087  24.627  36.295  1.00  0.00     0.124 S 
ATOM     70  O   UNL A   1      47.164  23.448  35.435  1.00  0.00    -0.237 OA
ATOM     71  O   UNL A   1      48.289  24.912  37.073  1.00  0.00    -0.237 OA
ATOM     72  O   UNL A   1      45.824  24.795  37.007  1.00  0.00    -0.744 OA
ENDBRANCH  65  69
ENDBRANCH  39  62
ENDBRANCH  13  14
ENDBRANCH   6   8
ENDBRANCH   3   4
ENDBRANCH   2   3
ENDBRANCH   1   2
BRANCH   1  73
ATOM     73  C   UNL A   1      34.067  26.044  25.108  1.00  0.00     0.002 C 
BRANCH  73  74
ATOM     74  C   UNL A   1      34.865  24.749  25.298  1.00  0.00     0.021 C 
BRANCH  74  75
ATOM     75  C   UNL A   1      34.225  23.720  26.230  1.00  0.00     0.116 C 
BRANCH  75  76
ATOM     76  N   UNL A   1      33.594  22.633  25.492  1.00  0.00    -0.352 N 
ATOM     77  C   UNL A   1      32.265  22.429  25.241  1.00  0.00     0.256 C 
ATOM     78  H   UNL A   1      34.207  21.954  25.126  1.00  0.00     0.163 HD
ATOM     79  O   UNL A   1      31.870  21.352  24.785  1.00  0.00    -0.269 OA
BRANCH  77  80
ATOM     80  C   UNL A   1      31.299  23.502  25.494  1.00  0.00     0.102 A 
ATOM     81  C   UNL A   1      31.227  24.570  24.595  1.00  0.00     0.029 A 
ATOM     82  C   UNL A   1      30.490  23.521  26.624  1.00  0.00     0.223 A 
ATOM     83  C   UNL A   1      30.319  25.609  24.820  1.00  0.00     0.001 A 
ATOM     84  N   UNL A   1      29.588  24.491  26.862  1.00  0.00    -0.221 NA
ATOM     85  C   UNL A   1      29.518  25.499  25.961  1.00  0.00     0.124 A 
BRANCH  82  86
ATOM     86  O   UNL A   1      30.534  22.570  27.600  1.00  0.00    -0.493 OA
ATOM     87  H   UNL A   1      30.414  21.667  27.382  1.00  0.00     0.295 HD
ENDBRANCH  82  86
BRANCH  83  88
ATOM     88  C   UNL A   1      30.227  26.770  23.930  1.00  0.00    -0.016 A 
ATOM     89  C   UNL A   1      31.341  27.177  23.177  1.00  0.00     0.012 A 
ATOM     90  C   UNL A   1      29.034  27.507  23.808  1.00  0.00     0.025 A 
ATOM     91  C   UNL A   1      31.271  28.286  22.335  1.00  0.00     0.040 A 
ATOM     92  C   UNL A   1      28.957  28.629  22.963  1.00  0.00     0.092 A 
ATOM     93  C   UNL A   1      30.084  29.002  22.239  1.00  0.00     0.135 A 
ATOM     94  F   UNL A   1      30.040  30.068  21.429  1.00  0.00    -0.206 F 
BRANCH  92  95
ATOM     95  C   UNL A   1      27.706  29.444  22.832  1.00  0.00     0.419 C 
ATOM     96  F   UNL A   1      27.756  30.605  23.541  1.00  0.00    -0.166 F 
ATOM     97  F   UNL A   1      27.431  29.795  21.545  1.00  0.00    -0.166 F 
ATOM     98  F   UNL A   1      26.594  28.790  23.275  1.00  0.00    -0.166 F 
ENDBRANCH  92  95
ENDBRANCH  83  88
ENDBRANCH  77  80
ENDBRANCH  75  76
ENDBRANCH  74  75
ENDBRANCH  73  74
ENDBRANCH   1  73
TORSDOF 19
ENDMDL
MODEL 3
REMARK VINA RESULT:     -11.8      2.082      7.671
REMARK SMILES O=C(NCCCCCCNC(=O)c1cc(-c2ccc(F)c(C(F)(F)F)c2)cnc1O)c1ccc(-c2c3nc(c(-c4cc(S(=O)(=O)[O-])ccc4F)c4ccc([nH]4)c(-c4cc(S(=O)(=O)[O-])ccc4F)c4nc(c(-c5cc(S(=O)(=O)[O-])ccc5F)c5ccc2[nH]5)C=C4)C=C3)cc1
REMARK SMILES IDX 6 1 5 2 4 3 3 4 1 5 2 6 31 8 32 9 93 10 33 11 92 12 34 13
REMARK SMILES IDX 35 14 36 15 86 16 37 17 91 18 85 19 87 20 38 21 90 22 84 23
REMARK SMILES IDX 83 24 39 26 71 27 51 28 70 29 52 30 55 31 69 32 88 33 53 34
REMARK SMILES IDX 54 35 68 37 89 38 56 39 40 40 41 41 49 42 42 43 48 44 50 45
REMARK SMILES IDX 47 46 43 47 44 48 45 49 46 50 72 51 73 52 81 53 74 54 80 55
REMARK SMILES IDX 82 56 79 57 75 58 76 59 77 60 78 61 57 62 58 63 66 64 59 65
REMARK SMILES IDX 65 66 67 67 64 68 60 69 61 70 62 71 63 72 7 73 8 74 9 75
REMARK SMILES IDX 10 76 11 77 12 79 13 80 14 81 29 82 15 83 28 84 27 85 30 86
REMARK SMILES IDX 16 88 17 89 26 90 18 91 21 92 19 93 20 94 22 95 23 96 24 97
REMARK SMILES IDX 25 98
REMARK H PARENT 3 7 87 25 55 36 10 78 30 87
REMARK Flexibility Score: inf
ROOT
ATOM      1  C   UNL A   1      33.662  26.321  26.240  1.00  0.00     0.002 C 
ENDROOT
BRANCH   1   2
ATOM      2  C   UNL A   1      33.096  27.741  26.318  1.00  0.00     0.021 C 
BRANCH   2   3
ATOM      3  C   UNL A   1      34.040  28.845  25.853  1.00  0.00     0.116 C 
BRANCH   3   4
ATOM      4  N   UNL A   1      33.604  30.159  26.289  1.00  0.00    -0.352 N 
ATOM      5  O   UNL A   1      33.450  31.944  27.644  1.00  0.00    -0.269 OA
ATOM      6  C   UNL A   1      34.073  30.936  27.319  1.00  0.00     0.251 C 
ATOM      7  H   UNL A   1      32.863  30.551  25.772  1.00  0.00     0.163 HD
BRANCH   6   8
ATOM      8  C   UNL A   1      35.315  30.570  28.037  1.00  0.00     0.039 A 
ATOM      9  C   UNL A   1      36.525  31.125  27.608  1.00  0.00     0.014 A 
ATOM     10  C   UNL A   1      35.306  29.637  29.079  1.00  0.00     0.014 A 
ATOM     11  C   UNL A   1      37.720  30.755  28.230  1.00  0.00     0.010 A 
ATOM     12  C   UNL A   1      36.489  29.322  29.743  1.00  0.00     0.010 A 
ATOM     13  C   UNL A   1      37.712  29.851  29.304  1.00  0.00    -0.014 A 
BRANCH  13  14
ATOM     14  C   UNL A   1      38.977  29.399  29.936  1.00  0.00     0.031 A 
ATOM     15  C   UNL A   1      39.774  28.290  29.304  1.00  0.00     0.074 A 
ATOM     16  C   UNL A   1      39.391  29.954  31.090  1.00  0.00     0.049 A 
ATOM     17  N   UNL A   1      40.880  27.729  29.718  1.00  0.00    -0.248 NA
ATOM     18  C   UNL A   1      39.245  27.721  28.054  1.00  0.00     0.031 C 
ATOM     19  C   UNL A   1      38.685  31.011  31.810  1.00  0.00     0.029 A 
ATOM     20  N   UNL A   1      40.498  29.702  31.864  1.00  0.00    -0.354 N 
ATOM     21  C   UNL A   1      41.169  26.734  28.791  1.00  0.00     0.074 A 
ATOM     22  C   UNL A   1      40.091  26.727  27.828  1.00  0.00     0.031 C 
ATOM     23  C   UNL A   1      39.386  31.336  32.907  1.00  0.00     0.029 A 
ATOM     24  C   UNL A   1      40.571  30.484  32.993  1.00  0.00     0.049 A 
ATOM     25  H   UNL A   1      41.176  29.027  31.631  1.00  0.00     0.167 HD
ATOM     26  C   UNL A   1      42.252  25.921  28.732  1.00  0.00     0.034 A 
ATOM     27  C   UNL A   1      41.484  30.511  33.987  1.00  0.00     0.034 A 
ATOM     28  C   UNL A   1      43.333  25.963  29.681  1.00  0.00     0.049 A 
ATOM     29  C   UNL A   1      42.681  29.596  33.906  1.00  0.00     0.074 A 
ATOM     30  C   UNL A   1      44.507  25.233  29.667  1.00  0.00     0.029 A 
ATOM     31  N   UNL A   1      43.377  26.773  30.807  1.00  0.00    -0.354 N 
ATOM     32  N   UNL A   1      42.988  28.723  32.975  1.00  0.00    -0.248 NA
ATOM     33  C   UNL A   1      43.661  29.672  34.999  1.00  0.00     0.031 C 
ATOM     34  C   UNL A   1      45.231  25.552  30.817  1.00  0.00     0.029 A 
ATOM     35  C   UNL A   1      44.545  26.536  31.512  1.00  0.00     0.049 A 
ATOM     36  H   UNL A   1      42.683  27.421  31.065  1.00  0.00     0.167 HD
ATOM     37  C   UNL A   1      44.203  28.161  33.357  1.00  0.00     0.074 A 
ATOM     38  C   UNL A   1      44.587  28.811  34.594  1.00  0.00     0.031 C 
ATOM     39  C   UNL A   1      44.930  27.194  32.741  1.00  0.00     0.034 A 
BRANCH  26  40
ATOM     40  C   UNL A   1      42.345  24.932  27.595  1.00  0.00     0.023 A 
ATOM     41  C   UNL A   1      41.659  23.705  27.671  1.00  0.00     0.031 A 
ATOM     42  C   UNL A   1      43.191  25.152  26.494  1.00  0.00     0.131 A 
ATOM     43  C   UNL A   1      41.848  22.739  26.675  1.00  0.00     0.055 A 
ATOM     44  C   UNL A   1      43.341  24.204  25.481  1.00  0.00     0.041 A 
ATOM     45  F   UNL A   1      43.873  26.304  26.377  1.00  0.00    -0.206 F 
ATOM     46  C   UNL A   1      42.677  22.987  25.576  1.00  0.00     0.022 A 
BRANCH  43  47
ATOM     47  S   UNL A   1      41.077  21.102  26.796  1.00  0.00     0.124 S 
ATOM     48  O   UNL A   1      42.138  20.236  26.284  1.00  0.00    -0.237 OA
ATOM     49  O   UNL A   1      40.818  20.991  28.228  1.00  0.00    -0.237 OA
ATOM     50  O   UNL A   1      39.896  21.204  25.946  1.00  0.00    -0.744 OA
ENDBRANCH  43  47
ENDBRANCH  26  40
BRANCH  27  51
ATOM     51  C   UNL A   1      41.314  31.500  35.091  1.00  0.00     0.023 A 
ATOM     52  C   UNL A   1      40.252  31.386  36.008  1.00  0.00     0.031 A 
ATOM     53  C   UNL A   1      42.123  32.646  35.156  1.00  0.00     0.131 A 
ATOM     54  C   UNL A   1      39.981  32.437  36.895  1.00  0.00     0.055 A 
ATOM     55  C   UNL A   1      41.894  33.658  36.091  1.00  0.00     0.041 A 
ATOM     56  F   UNL A   1      43.140  32.805  34.294  1.00  0.00    -0.206 F 
ATOM     57  C   UNL A   1      40.805  33.565  36.952  1.00  0.00     0.022 A 
BRANCH  54  58
ATOM     58  S   UNL A   1      38.470  32.440  37.899  1.00  0.00     0.124 S 
ATOM     59  O   UNL A   1      37.797  31.228  37.444  1.00  0.00    -0.237 OA
ATOM     60  O   UNL A   1      39.015  32.390  39.253  1.00  0.00    -0.237 OA
ATOM     61  O   UNL A   1      37.819  33.695  37.538  1.00  0.00    -0.744 OA
ENDBRANCH  54  58
ENDBRANCH  27  51
BRANCH  39  62
ATOM     62  C   UNL A   1      46.228  26.744  33.370  1.00  0.00     0.023 A 
ATOM     63  C   UNL A   1      47.447  27.312  32.951  1.00  0.00     0.031 A 
ATOM     64  C   UNL A   1      46.272  25.643  34.241  1.00  0.00     0.131 A 
ATOM     65  C   UNL A   1      48.658  26.742  33.361  1.00  0.00     0.055 A 
ATOM     66  C   UNL A   1      47.482  25.111  34.687  1.00  0.00     0.041 A 
ATOM     67  F   UNL A   1      45.138  25.059  34.661  1.00  0.00    -0.206 F 
ATOM     68  C   UNL A   1      48.683  25.649  34.233  1.00  0.00     0.022 A 
BRANCH  65  69
ATOM     69  S   UNL A   1      50.242  27.331  32.697  1.00  0.00     0.124 S 
ATOM     70  O   UNL A   1      49.881  27.688  31.326  1.00  0.00    -0.237 OA
ATOM     71  O   UNL A   1      50.545  28.456  33.576  1.00  0.00    -0.237 OA
ATOM     72  O   UNL A   1      51.128  26.179  32.826  1.00  0.00    -0.744 OA
ENDBRANCH  65  69
ENDBRANCH  39  62
ENDBRANCH  13  14
ENDBRANCH   6   8
ENDBRANCH   3   4
ENDBRANCH   2   3
ENDBRANCH   1   2
BRANCH   1  73
ATOM     73  C   UNL A   1      34.405  25.973  24.948  1.00  0.00     0.002 C 
BRANCH  73  74
ATOM     74  C   UNL A   1      34.857  24.515  24.813  1.00  0.00     0.021 C 
BRANCH  74  75
ATOM     75  C   UNL A   1      34.283  23.556  25.856  1.00  0.00     0.116 C 
BRANCH  75  76
ATOM     76  N   UNL A   1      33.551  22.455  25.241  1.00  0.00    -0.352 N 
ATOM     77  C   UNL A   1      32.199  22.279  25.141  1.00  0.00     0.256 C 
ATOM     78  H   UNL A   1      34.105  21.742  24.847  1.00  0.00     0.163 HD
ATOM     79  O   UNL A   1      31.731  21.194  24.781  1.00  0.00    -0.269 OA
BRANCH  77  80
ATOM     80  C   UNL A   1      31.291  23.390  25.441  1.00  0.00     0.102 A 
ATOM     81  C   UNL A   1      31.225  24.465  24.550  1.00  0.00     0.029 A 
ATOM     82  C   UNL A   1      30.534  23.436  26.605  1.00  0.00     0.223 A 
ATOM     83  C   UNL A   1      30.372  25.540  24.819  1.00  0.00     0.001 A 
ATOM     84  N   UNL A   1      29.685  24.441  26.887  1.00  0.00    -0.221 NA
ATOM     85  C   UNL A   1      29.618  25.457  25.994  1.00  0.00     0.124 A 
BRANCH  82  86
ATOM     86  O   UNL A   1      30.581  22.479  27.575  1.00  0.00    -0.493 OA
ATOM     87  H   UNL A   1      29.987  22.514  28.298  1.00  0.00     0.295 HD
ENDBRANCH  82  86
BRANCH  83  88
ATOM     88  C   UNL A   1      30.290  26.709  23.939  1.00  0.00    -0.016 A 
ATOM     89  C   UNL A   1      31.424  27.148  23.234  1.00  0.00     0.012 A 
ATOM     90  C   UNL A   1      29.088  27.423  23.779  1.00  0.00     0.025 A 
ATOM     91  C   UNL A   1      31.363  28.265  22.402  1.00  0.00     0.040 A 
ATOM     92  C   UNL A   1      29.020  28.553  22.943  1.00  0.00     0.092 A 
ATOM     93  C   UNL A   1      30.166  28.957  22.268  1.00  0.00     0.135 A 
ATOM     94  F   UNL A   1      30.131  30.032  21.469  1.00  0.00    -0.206 F 
BRANCH  92  95
ATOM     95  C   UNL A   1      27.758  29.343  22.773  1.00  0.00     0.419 C 
ATOM     96  F   UNL A   1      27.739  30.477  23.527  1.00  0.00    -0.166 F 
ATOM     97  F   UNL A   1      27.547  29.738  21.486  1.00  0.00    -0.166 F 
ATOM     98  F   UNL A   1      26.640  28.647  23.127  1.00  0.00    -0.166 F 
ENDBRANCH  92  95
ENDBRANCH  83  88
ENDBRANCH  77  80
ENDBRANCH  75  76
ENDBRANCH  74  75
ENDBRANCH  73  74
ENDBRANCH   1  73
TORSDOF 19
ENDMDL
