MODEL 1
REMARK VINA RESULT:     -11.5      0.000      0.000
REMARK SMILES Cc1noc(-c2ccc(CCl)cc2)c1C(=O)NCCCCCCNC(=O)c1ccc(-c2c3nc(c(-c4cc(S(=O)(=O)[O-])ccc4F)c4ccc([nH]4)c(-c4cc(S(=O)(=O)[O-])ccc4F)c4nc(c(-c5cc(S(=O)(=O)[O-])ccc5F)c5ccc2[nH]5)C=C4)C=C3)cc1
REMARK SMILES IDX 21 1 20 2 19 3 18 4 17 5 15 6 16 7 14 9 1 10 2 11 3 12 4 13
REMARK SMILES IDX 5 14 6 15 7 16 13 17 8 18 12 19 9 20 10 21 11 22 22 23 23 24
REMARK SMILES IDX 24 25 25 26 26 28 27 29 28 30 89 31 29 32 88 33 30 34 31 35
REMARK SMILES IDX 32 36 82 37 33 38 87 39 81 40 83 41 34 42 86 43 80 44 79 45
REMARK SMILES IDX 35 47 67 48 47 49 66 50 48 51 51 52 65 53 84 54 49 55 50 56
REMARK SMILES IDX 64 58 85 59 52 60 36 61 37 62 45 63 38 64 44 65 46 66 43 67
REMARK SMILES IDX 39 68 40 69 41 70 42 71 68 72 69 73 77 74 70 75 76 76 78 77
REMARK SMILES IDX 75 78 71 79 72 80 73 81 74 82 53 83 54 84 62 85 55 86 61 87
REMARK SMILES IDX 63 88 60 89 56 90 57 91 58 92 59 93
REMARK H PARENT 17 8 24 27 83 46 51 57
REMARK Flexibility Score: inf
ROOT
ATOM      1  C   UNL A   1      31.166  31.009  25.707  1.00  0.00     0.002 C 
ENDROOT
BRANCH   1   2
ATOM      2  C   UNL A   1      31.799  29.630  25.905  1.00  0.00     0.002 C 
BRANCH   2   3
ATOM      3  C   UNL A   1      33.309  29.531  25.689  1.00  0.00     0.021 C 
BRANCH   3   4
ATOM      4  C   UNL A   1      33.880  28.147  25.413  1.00  0.00     0.116 C 
BRANCH   4   5
ATOM      5  N   UNL A   1      33.051  27.058  25.855  1.00  0.00    -0.352 N 
ATOM      6  C   UNL A   1      32.530  25.975  25.192  1.00  0.00     0.257 C 
ATOM      7  O   UNL A   1      31.860  25.217  25.899  1.00  0.00    -0.269 OA
ATOM      8  H   UNL A   1      32.813  27.095  26.809  1.00  0.00     0.163 HD
BRANCH   6   9
ATOM      9  C   UNL A   1      32.693  25.731  23.761  1.00  0.00     0.110 A 
ATOM     10  C   UNL A   1      34.392  23.721  23.250  1.00  0.00     0.071 C 
ATOM     11  C   UNL A   1      33.451  24.826  22.939  1.00  0.00     0.094 A 
ATOM     12  N   UNL A   1      33.205  25.017  21.636  1.00  0.00    -0.084 NA
ATOM     13  O   UNL A   1      32.238  25.981  21.567  1.00  0.00    -0.355 OA
ATOM     14  C   UNL A   1      31.917  26.396  22.816  1.00  0.00     0.179 A 
BRANCH  14  15
ATOM     15  C   UNL A   1      30.856  27.390  22.842  1.00  0.00     0.021 A 
ATOM     16  C   UNL A   1      29.591  27.040  23.327  1.00  0.00     0.012 A 
ATOM     17  C   UNL A   1      31.072  28.694  22.384  1.00  0.00     0.012 A 
ATOM     18  C   UNL A   1      28.562  27.982  23.379  1.00  0.00     0.006 A 
ATOM     19  C   UNL A   1      30.039  29.636  22.425  1.00  0.00     0.006 A 
ATOM     20  C   UNL A   1      28.776  29.293  22.930  1.00  0.00    -0.033 A 
BRANCH  20  21
ATOM     21  C   UNL A   1      27.681  30.319  23.018  1.00  0.00     0.145 C 
ATOM     22  Cl  UNL A   1      28.277  31.939  22.598  1.00  0.00    -0.122 Cl
ENDBRANCH  20  21
ENDBRANCH  14  15
ENDBRANCH   6   9
ENDBRANCH   4   5
ENDBRANCH   3   4
ENDBRANCH   2   3
ENDBRANCH   1   2
BRANCH   1  23
ATOM     23  C   UNL A   1      31.281  31.985  26.881  1.00  0.00     0.021 C 
BRANCH  23  24
ATOM     24  C   UNL A   1      32.635  32.668  27.048  1.00  0.00     0.116 C 
BRANCH  24  25
ATOM     25  N   UNL A   1      32.519  34.012  27.584  1.00  0.00    -0.352 N 
ATOM     26  C   UNL A   1      33.192  34.595  28.628  1.00  0.00     0.251 C 
ATOM     27  H   UNL A   1      31.860  34.588  27.135  1.00  0.00     0.163 HD
ATOM     28  O   UNL A   1      32.818  35.688  29.054  1.00  0.00    -0.269 OA
BRANCH  26  29
ATOM     29  C   UNL A   1      34.340  33.904  29.255  1.00  0.00     0.039 A 
ATOM     30  C   UNL A   1      35.636  34.283  28.893  1.00  0.00     0.014 A 
ATOM     31  C   UNL A   1      34.147  32.879  30.186  1.00  0.00     0.014 A 
ATOM     32  C   UNL A   1      36.734  33.678  29.509  1.00  0.00     0.010 A 
ATOM     33  C   UNL A   1      35.240  32.331  30.854  1.00  0.00     0.010 A 
ATOM     34  C   UNL A   1      36.545  32.722  30.522  1.00  0.00    -0.014 A 
BRANCH  34  35
ATOM     35  C   UNL A   1      37.704  32.122  31.237  1.00  0.00     0.031 A 
ATOM     36  C   UNL A   1      38.473  30.988  30.615  1.00  0.00     0.074 A 
ATOM     37  C   UNL A   1      38.029  32.566  32.468  1.00  0.00     0.049 A 
ATOM     38  N   UNL A   1      39.468  30.295  31.106  1.00  0.00    -0.248 NA
ATOM     39  C   UNL A   1      38.046  30.559  29.274  1.00  0.00     0.031 C 
ATOM     40  C   UNL A   1      37.337  33.637  33.188  1.00  0.00     0.029 A 
ATOM     41  N   UNL A   1      39.018  32.171  33.334  1.00  0.00    -0.354 N 
ATOM     42  C   UNL A   1      39.783  29.343  30.141  1.00  0.00     0.074 A 
ATOM     43  C   UNL A   1      38.826  29.508  29.068  1.00  0.00     0.031 C 
ATOM     44  C   UNL A   1      37.940  33.833  34.371  1.00  0.00     0.029 A 
ATOM     45  C   UNL A   1      39.027  32.869  34.520  1.00  0.00     0.049 A 
ATOM     46  H   UNL A   1      39.661  31.455  33.126  1.00  0.00     0.167 HD
ATOM     47  C   UNL A   1      40.789  28.434  30.140  1.00  0.00     0.034 A 
ATOM     48  C   UNL A   1      39.810  32.740  35.609  1.00  0.00     0.034 A 
ATOM     49  C   UNL A   1      41.736  28.287  31.219  1.00  0.00     0.049 A 
ATOM     50  C   UNL A   1      40.894  31.692  35.604  1.00  0.00     0.074 A 
ATOM     51  C   UNL A   1      42.823  27.435  31.302  1.00  0.00     0.029 A 
ATOM     52  N   UNL A   1      41.703  29.001  32.413  1.00  0.00    -0.354 N 
ATOM     53  N   UNL A   1      41.210  30.833  34.662  1.00  0.00    -0.248 NA
ATOM     54  C   UNL A   1      41.733  31.602  36.805  1.00  0.00     0.031 C 
ATOM     55  C   UNL A   1      43.397  27.574  32.570  1.00  0.00     0.029 A 
ATOM     56  C   UNL A   1      42.726  28.579  33.249  1.00  0.00     0.049 A 
ATOM     57  H   UNL A   1      41.049  29.703  32.631  1.00  0.00     0.167 HD
ATOM     58  C   UNL A   1      42.305  30.124  35.146  1.00  0.00     0.074 A 
ATOM     59  C   UNL A   1      42.604  30.668  36.455  1.00  0.00     0.031 C 
ATOM     60  C   UNL A   1      43.005  29.118  34.561  1.00  0.00     0.034 A 
BRANCH  47  61
ATOM     61  C   UNL A   1      40.893  27.510  28.948  1.00  0.00     0.023 A 
ATOM     62  C   UNL A   1      41.862  27.702  27.947  1.00  0.00     0.031 A 
ATOM     63  C   UNL A   1      39.994  26.440  28.794  1.00  0.00     0.131 A 
ATOM     64  C   UNL A   1      41.857  26.892  26.801  1.00  0.00     0.055 A 
ATOM     65  C   UNL A   1      40.053  25.581  27.694  1.00  0.00     0.041 A 
ATOM     66  F   UNL A   1      39.032  26.217  29.702  1.00  0.00    -0.206 F 
ATOM     67  C   UNL A   1      40.977  25.815  26.680  1.00  0.00     0.022 A 
BRANCH  64  68
ATOM     68  S   UNL A   1      42.908  27.368  25.401  1.00  0.00     0.124 S 
ATOM     69  O   UNL A   1      43.057  26.097  24.698  1.00  0.00    -0.237 OA
ATOM     70  O   UNL A   1      42.099  28.379  24.729  1.00  0.00    -0.237 OA
ATOM     71  O   UNL A   1      44.125  27.865  26.039  1.00  0.00    -0.744 OA
ENDBRANCH  64  68
ENDBRANCH  47  61
BRANCH  48  72
ATOM     72  C   UNL A   1      39.595  33.610  36.803  1.00  0.00     0.023 A 
ATOM     73  C   UNL A   1      38.967  33.115  37.956  1.00  0.00     0.031 A 
ATOM     74  C   UNL A   1      39.977  34.964  36.790  1.00  0.00     0.131 A 
ATOM     75  C   UNL A   1      38.696  33.977  39.030  1.00  0.00     0.055 A 
ATOM     76  C   UNL A   1      39.759  35.803  37.885  1.00  0.00     0.041 A 
ATOM     77  F   UNL A   1      40.584  35.490  35.714  1.00  0.00    -0.206 F 
ATOM     78  C   UNL A   1      39.101  35.314  39.009  1.00  0.00     0.022 A 
BRANCH  75  79
ATOM     79  S   UNL A   1      37.718  33.348  40.423  1.00  0.00     0.124 S 
ATOM     80  O   UNL A   1      36.491  32.929  39.757  1.00  0.00    -0.237 OA
ATOM     81  O   UNL A   1      38.571  32.279  40.933  1.00  0.00    -0.237 OA
ATOM     82  O   UNL A   1      37.589  34.511  41.299  1.00  0.00    -0.744 OA
ENDBRANCH  75  79
ENDBRANCH  48  72
BRANCH  60  83
ATOM     83  C   UNL A   1      44.193  28.573  35.319  1.00  0.00     0.023 A 
ATOM     84  C   UNL A   1      44.059  27.549  36.273  1.00  0.00     0.031 A 
ATOM     85  C   UNL A   1      45.478  29.097  35.090  1.00  0.00     0.131 A 
ATOM     86  C   UNL A   1      45.178  27.123  37.003  1.00  0.00     0.055 A 
ATOM     87  C   UNL A   1      46.600  28.620  35.770  1.00  0.00     0.041 A 
ATOM     88  F   UNL A   1      45.667  30.080  34.195  1.00  0.00    -0.206 F 
ATOM     89  C   UNL A   1      46.450  27.637  36.744  1.00  0.00     0.022 A 
BRANCH  86  90
ATOM     90  S   UNL A   1      44.932  25.959  38.373  1.00  0.00     0.124 S 
ATOM     91  O   UNL A   1      44.496  24.756  37.673  1.00  0.00    -0.237 OA
ATOM     92  O   UNL A   1      46.260  25.901  38.976  1.00  0.00    -0.237 OA
ATOM     93  O   UNL A   1      43.908  26.605  39.193  1.00  0.00    -0.744 OA
ENDBRANCH  86  90
ENDBRANCH  60  83
ENDBRANCH  34  35
ENDBRANCH  26  29
ENDBRANCH  24  25
ENDBRANCH  23  24
ENDBRANCH   1  23
TORSDOF 18
ENDMDL
MODEL 2
REMARK VINA RESULT:     -11.4      1.585      7.763
REMARK SMILES Cc1noc(-c2ccc(CCl)cc2)c1C(=O)NCCCCCCNC(=O)c1ccc(-c2c3nc(c(-c4cc(S(=O)(=O)[O-])ccc4F)c4ccc([nH]4)c(-c4cc(S(=O)(=O)[O-])ccc4F)c4nc(c(-c5cc(S(=O)(=O)[O-])ccc5F)c5ccc2[nH]5)C=C4)C=C3)cc1
REMARK SMILES IDX 21 1 20 2 19 3 18 4 17 5 15 6 16 7 14 9 1 10 2 11 3 12 4 13
REMARK SMILES IDX 5 14 6 15 7 16 13 17 8 18 12 19 9 20 10 21 11 22 22 23 23 24
REMARK SMILES IDX 24 25 25 26 26 28 27 29 28 30 89 31 29 32 88 33 30 34 31 35
REMARK SMILES IDX 32 36 82 37 33 38 87 39 81 40 83 41 34 42 86 43 80 44 79 45
REMARK SMILES IDX 35 47 67 48 47 49 66 50 48 51 51 52 65 53 84 54 49 55 50 56
REMARK SMILES IDX 64 58 85 59 52 60 36 61 37 62 45 63 38 64 44 65 46 66 43 67
REMARK SMILES IDX 39 68 40 69 41 70 42 71 68 72 69 73 77 74 70 75 76 76 78 77
REMARK SMILES IDX 75 78 71 79 72 80 73 81 74 82 53 83 54 84 62 85 55 86 61 87
REMARK SMILES IDX 63 88 60 89 56 90 57 91 58 92 59 93
REMARK H PARENT 17 8 24 27 83 46 51 57
REMARK Flexibility Score: inf
ROOT
ATOM      1  C   UNL A   1      31.061  30.858  25.671  1.00  0.00     0.002 C 
ENDROOT
BRANCH   1   2
ATOM      2  C   UNL A   1      32.249  29.904  25.808  1.00  0.00     0.002 C 
BRANCH   2   3
ATOM      3  C   UNL A   1      32.056  28.696  26.724  1.00  0.00     0.021 C 
BRANCH   3   4
ATOM      4  C   UNL A   1      32.913  27.468  26.442  1.00  0.00     0.116 C 
BRANCH   4   5
ATOM      5  N   UNL A   1      32.173  26.248  26.269  1.00  0.00    -0.352 N 
ATOM      6  C   UNL A   1      32.050  25.394  25.202  1.00  0.00     0.257 C 
ATOM      7  O   UNL A   1      31.329  24.414  25.411  1.00  0.00    -0.269 OA
ATOM      8  H   UNL A   1      31.658  25.973  27.062  1.00  0.00     0.163 HD
BRANCH   6   9
ATOM      9  C   UNL A   1      32.670  25.614  23.897  1.00  0.00     0.110 A 
ATOM     10  C   UNL A   1      34.720  23.949  23.439  1.00  0.00     0.071 C 
ATOM     11  C   UNL A   1      33.764  25.048  23.155  1.00  0.00     0.094 A 
ATOM     12  N   UNL A   1      33.894  25.622  21.951  1.00  0.00    -0.084 NA
ATOM     13  O   UNL A   1      32.861  26.511  21.838  1.00  0.00    -0.355 OA
ATOM     14  C   UNL A   1      32.124  26.501  22.974  1.00  0.00     0.179 A 
BRANCH  14  15
ATOM     15  C   UNL A   1      30.970  27.384  22.922  1.00  0.00     0.021 A 
ATOM     16  C   UNL A   1      31.113  28.682  22.417  1.00  0.00     0.012 A 
ATOM     17  C   UNL A   1      29.714  26.966  23.374  1.00  0.00     0.012 A 
ATOM     18  C   UNL A   1      30.016  29.541  22.341  1.00  0.00     0.006 A 
ATOM     19  C   UNL A   1      28.616  27.830  23.308  1.00  0.00     0.006 A 
ATOM     20  C   UNL A   1      28.753  29.123  22.783  1.00  0.00    -0.033 A 
BRANCH  20  21
ATOM     21  C   UNL A   1      27.563  30.035  22.669  1.00  0.00     0.145 C 
ATOM     22  Cl  UNL A   1      27.654  31.366  23.842  1.00  0.00    -0.122 Cl
ENDBRANCH  20  21
ENDBRANCH  14  15
ENDBRANCH   6   9
ENDBRANCH   4   5
ENDBRANCH   3   4
ENDBRANCH   2   3
ENDBRANCH   1   2
BRANCH   1  23
ATOM     23  C   UNL A   1      31.194  32.216  26.366  1.00  0.00     0.021 C 
BRANCH  23  24
ATOM     24  C   UNL A   1      32.493  32.445  27.133  1.00  0.00     0.116 C 
BRANCH  24  25
ATOM     25  N   UNL A   1      32.662  33.829  27.539  1.00  0.00    -0.352 N 
ATOM     26  C   UNL A   1      33.556  34.374  28.426  1.00  0.00     0.251 C 
ATOM     27  H   UNL A   1      32.044  34.469  27.118  1.00  0.00     0.163 HD
ATOM     28  O   UNL A   1      33.419  35.545  28.780  1.00  0.00    -0.269 OA
BRANCH  26  29
ATOM     29  C   UNL A   1      34.659  33.554  28.973  1.00  0.00     0.039 A 
ATOM     30  C   UNL A   1      35.917  33.623  28.367  1.00  0.00     0.014 A 
ATOM     31  C   UNL A   1      34.458  32.711  30.070  1.00  0.00     0.014 A 
ATOM     32  C   UNL A   1      36.984  32.894  28.898  1.00  0.00     0.010 A 
ATOM     33  C   UNL A   1      35.540  32.045  30.644  1.00  0.00     0.010 A 
ATOM     34  C   UNL A   1      36.814  32.128  30.062  1.00  0.00    -0.014 A 
BRANCH  34  35
ATOM     35  C   UNL A   1      37.958  31.405  30.680  1.00  0.00     0.031 A 
ATOM     36  C   UNL A   1      38.413  31.754  32.071  1.00  0.00     0.074 A 
ATOM     37  C   UNL A   1      38.619  30.470  29.967  1.00  0.00     0.049 A 
ATOM     38  N   UNL A   1      39.425  31.284  32.754  1.00  0.00    -0.248 NA
ATOM     39  C   UNL A   1      37.644  32.792  32.775  1.00  0.00     0.031 C 
ATOM     40  C   UNL A   1      38.292  30.068  28.597  1.00  0.00     0.029 A 
ATOM     41  N   UNL A   1      39.702  29.692  30.290  1.00  0.00    -0.354 N 
ATOM     42  C   UNL A   1      39.421  31.971  33.963  1.00  0.00     0.074 A 
ATOM     43  C   UNL A   1      38.346  32.938  33.889  1.00  0.00     0.031 C 
ATOM     44  C   UNL A   1      39.136  29.100  28.209  1.00  0.00     0.029 A 
ATOM     45  C   UNL A   1      40.098  28.847  29.278  1.00  0.00     0.049 A 
ATOM     46  H   UNL A   1      40.154  29.734  31.163  1.00  0.00     0.167 HD
ATOM     47  C   UNL A   1      40.223  31.797  35.043  1.00  0.00     0.034 A 
ATOM     48  C   UNL A   1      41.127  27.978  29.211  1.00  0.00     0.034 A 
ATOM     49  C   UNL A   1      41.288  30.824  35.100  1.00  0.00     0.049 A 
ATOM     50  C   UNL A   1      42.033  27.832  30.407  1.00  0.00     0.074 A 
ATOM     51  C   UNL A   1      42.129  30.527  36.159  1.00  0.00     0.029 A 
ATOM     52  N   UNL A   1      41.671  29.997  34.049  1.00  0.00    -0.354 N 
ATOM     53  N   UNL A   1      41.984  28.455  31.563  1.00  0.00    -0.248 NA
ATOM     54  C   UNL A   1      43.127  26.860  30.294  1.00  0.00     0.031 C 
ATOM     55  C   UNL A   1      43.067  29.584  35.726  1.00  0.00     0.029 A 
ATOM     56  C   UNL A   1      42.759  29.221  34.424  1.00  0.00     0.049 A 
ATOM     57  H   UNL A   1      41.234  29.966  33.168  1.00  0.00     0.167 HD
ATOM     58  C   UNL A   1      43.021  27.924  32.324  1.00  0.00     0.074 A 
ATOM     59  C   UNL A   1      43.666  26.920  31.502  1.00  0.00     0.031 C 
ATOM     60  C   UNL A   1      43.404  28.233  33.590  1.00  0.00     0.034 A 
BRANCH  47  61
ATOM     61  C   UNL A   1      39.995  32.698  36.235  1.00  0.00     0.023 A 
ATOM     62  C   UNL A   1      39.187  32.303  37.317  1.00  0.00     0.031 A 
ATOM     63  C   UNL A   1      40.568  33.981  36.279  1.00  0.00     0.131 A 
ATOM     64  C   UNL A   1      38.909  33.209  38.351  1.00  0.00     0.055 A 
ATOM     65  C   UNL A   1      40.360  34.844  37.358  1.00  0.00     0.041 A 
ATOM     66  F   UNL A   1      41.330  34.426  35.269  1.00  0.00    -0.206 F 
ATOM     67  C   UNL A   1      39.512  34.467  38.394  1.00  0.00     0.022 A 
BRANCH  64  68
ATOM     68  S   UNL A   1      37.620  32.778  39.554  1.00  0.00     0.124 S 
ATOM     69  O   UNL A   1      36.490  32.474  38.680  1.00  0.00    -0.237 OA
ATOM     70  O   UNL A   1      38.210  31.643  40.255  1.00  0.00    -0.237 OA
ATOM     71  O   UNL A   1      37.473  33.995  40.349  1.00  0.00    -0.744 OA
ENDBRANCH  64  68
ENDBRANCH  47  61
BRANCH  48  72
ATOM     72  C   UNL A   1      41.369  27.187  27.969  1.00  0.00     0.023 A 
ATOM     73  C   UNL A   1      41.049  25.822  27.905  1.00  0.00     0.031 A 
ATOM     74  C   UNL A   1      41.965  27.776  26.839  1.00  0.00     0.131 A 
ATOM     75  C   UNL A   1      41.370  25.080  26.758  1.00  0.00     0.055 A 
ATOM     76  C   UNL A   1      42.228  27.048  25.678  1.00  0.00     0.041 A 
ATOM     77  F   UNL A   1      42.290  29.079  26.844  1.00  0.00    -0.206 F 
ATOM     78  C   UNL A   1      41.943  25.687  25.637  1.00  0.00     0.022 A 
BRANCH  75  79
ATOM     79  S   UNL A   1      41.113  23.284  26.784  1.00  0.00     0.124 S 
ATOM     80  O   UNL A   1      41.514  22.948  28.145  1.00  0.00    -0.237 OA
ATOM     81  O   UNL A   1      39.688  23.178  26.489  1.00  0.00    -0.237 OA
ATOM     82  O   UNL A   1      42.003  22.799  25.731  1.00  0.00    -0.744 OA
ENDBRANCH  75  79
ENDBRANCH  48  72
BRANCH  60  83
ATOM     83  C   UNL A   1      44.549  27.442  34.176  1.00  0.00     0.023 A 
ATOM     84  C   UNL A   1      44.348  26.201  34.808  1.00  0.00     0.031 A 
ATOM     85  C   UNL A   1      45.861  27.943  34.111  1.00  0.00     0.131 A 
ATOM     86  C   UNL A   1      45.431  25.535  35.401  1.00  0.00     0.055 A 
ATOM     87  C   UNL A   1      46.945  27.242  34.642  1.00  0.00     0.041 A 
ATOM     88  F   UNL A   1      46.114  29.125  33.525  1.00  0.00    -0.206 F 
ATOM     89  C   UNL A   1      46.731  26.037  35.304  1.00  0.00     0.022 A 
BRANCH  86  90
ATOM     90  S   UNL A   1      45.103  24.052  36.393  1.00  0.00     0.124 S 
ATOM     91  O   UNL A   1      44.729  24.626  37.681  1.00  0.00    -0.237 OA
ATOM     92  O   UNL A   1      44.027  23.408  35.645  1.00  0.00    -0.237 OA
ATOM     93  O   UNL A   1      46.380  23.340  36.378  1.00  0.00    -0.744 OA
ENDBRANCH  86  90
ENDBRANCH  60  83
ENDBRANCH  34  35
ENDBRANCH  26  29
ENDBRANCH  24  25
ENDBRANCH  23  24
ENDBRANCH   1  23
TORSDOF 18
ENDMDL
MODEL 3
REMARK VINA RESULT:     -11.3      1.476      1.859
REMARK SMILES Cc1noc(-c2ccc(CCl)cc2)c1C(=O)NCCCCCCNC(=O)c1ccc(-c2c3nc(c(-c4cc(S(=O)(=O)[O-])ccc4F)c4ccc([nH]4)c(-c4cc(S(=O)(=O)[O-])ccc4F)c4nc(c(-c5cc(S(=O)(=O)[O-])ccc5F)c5ccc2[nH]5)C=C4)C=C3)cc1
REMARK SMILES IDX 21 1 20 2 19 3 18 4 17 5 15 6 16 7 14 9 1 10 2 11 3 12 4 13
REMARK SMILES IDX 5 14 6 15 7 16 13 17 8 18 12 19 9 20 10 21 11 22 22 23 23 24
REMARK SMILES IDX 24 25 25 26 26 28 27 29 28 30 89 31 29 32 88 33 30 34 31 35
REMARK SMILES IDX 32 36 82 37 33 38 87 39 81 40 83 41 34 42 86 43 80 44 79 45
REMARK SMILES IDX 35 47 67 48 47 49 66 50 48 51 51 52 65 53 84 54 49 55 50 56
REMARK SMILES IDX 64 58 85 59 52 60 36 61 37 62 45 63 38 64 44 65 46 66 43 67
REMARK SMILES IDX 39 68 40 69 41 70 42 71 68 72 69 73 77 74 70 75 76 76 78 77
REMARK SMILES IDX 75 78 71 79 72 80 73 81 74 82 53 83 54 84 62 85 55 86 61 87
REMARK SMILES IDX 63 88 60 89 56 90 57 91 58 92 59 93
REMARK H PARENT 17 8 24 27 83 46 51 57
REMARK Flexibility Score: inf
ROOT
ATOM      1  C   UNL A   1      31.727  29.999  26.183  1.00  0.00     0.002 C 
ENDROOT
BRANCH   1   2
ATOM      2  C   UNL A   1      33.074  29.328  26.461  1.00  0.00     0.002 C 
BRANCH   2   3
ATOM      3  C   UNL A   1      33.348  28.013  25.731  1.00  0.00     0.021 C 
BRANCH   3   4
ATOM      4  C   UNL A   1      33.136  26.727  26.519  1.00  0.00     0.116 C 
BRANCH   4   5
ATOM      5  N   UNL A   1      31.758  26.400  26.773  1.00  0.00    -0.352 N 
ATOM      6  C   UNL A   1      30.843  25.670  26.058  1.00  0.00     0.257 C 
ATOM      7  O   UNL A   1      29.733  25.579  26.589  1.00  0.00    -0.269 OA
ATOM      8  H   UNL A   1      31.406  26.768  27.615  1.00  0.00     0.163 HD
BRANCH   6   9
ATOM      9  C   UNL A   1      31.108  25.072  24.751  1.00  0.00     0.110 A 
ATOM     10  C   UNL A   1      31.801  22.488  24.925  1.00  0.00     0.071 C 
ATOM     11  C   UNL A   1      31.509  23.782  24.258  1.00  0.00     0.094 A 
ATOM     12  N   UNL A   1      31.585  23.765  22.920  1.00  0.00    -0.084 NA
ATOM     13  O   UNL A   1      31.169  24.997  22.498  1.00  0.00    -0.355 OA
ATOM     14  C   UNL A   1      30.869  25.769  23.570  1.00  0.00     0.179 A 
BRANCH  14  15
ATOM     15  C   UNL A   1      30.369  27.087  23.213  1.00  0.00     0.021 A 
ATOM     16  C   UNL A   1      29.016  27.390  23.410  1.00  0.00     0.012 A 
ATOM     17  C   UNL A   1      31.211  28.061  22.669  1.00  0.00     0.012 A 
ATOM     18  C   UNL A   1      28.517  28.654  23.092  1.00  0.00     0.006 A 
ATOM     19  C   UNL A   1      30.710  29.324  22.339  1.00  0.00     0.006 A 
ATOM     20  C   UNL A   1      29.360  29.638  22.555  1.00  0.00    -0.033 A 
BRANCH  20  21
ATOM     21  C   UNL A   1      28.831  31.011  22.245  1.00  0.00     0.145 C 
ATOM     22  Cl  UNL A   1      27.611  31.517  23.433  1.00  0.00    -0.122 Cl
ENDBRANCH  20  21
ENDBRANCH  14  15
ENDBRANCH   6   9
ENDBRANCH   4   5
ENDBRANCH   3   4
ENDBRANCH   2   3
ENDBRANCH   1   2
BRANCH   1  23
ATOM     23  C   UNL A   1      31.641  31.500  26.470  1.00  0.00     0.021 C 
BRANCH  23  24
ATOM     24  C   UNL A   1      32.809  32.095  27.251  1.00  0.00     0.116 C 
BRANCH  24  25
ATOM     25  N   UNL A   1      32.651  33.518  27.492  1.00  0.00    -0.352 N 
ATOM     26  C   UNL A   1      33.278  34.322  28.410  1.00  0.00     0.251 C 
ATOM     27  H   UNL A   1      31.997  33.972  26.912  1.00  0.00     0.163 HD
ATOM     28  O   UNL A   1      32.870  35.470  28.586  1.00  0.00    -0.269 OA
BRANCH  26  29
ATOM     29  C   UNL A   1      34.416  33.805  29.201  1.00  0.00     0.039 A 
ATOM     30  C   UNL A   1      34.164  32.899  30.234  1.00  0.00     0.014 A 
ATOM     31  C   UNL A   1      35.726  34.218  28.937  1.00  0.00     0.014 A 
ATOM     32  C   UNL A   1      35.229  32.361  30.961  1.00  0.00     0.010 A 
ATOM     33  C   UNL A   1      36.791  33.623  29.611  1.00  0.00     0.010 A 
ATOM     34  C   UNL A   1      36.555  32.691  30.632  1.00  0.00    -0.014 A 
BRANCH  34  35
ATOM     35  C   UNL A   1      37.701  32.070  31.349  1.00  0.00     0.031 A 
ATOM     36  C   UNL A   1      38.494  30.968  30.700  1.00  0.00     0.074 A 
ATOM     37  C   UNL A   1      37.994  32.466  32.605  1.00  0.00     0.049 A 
ATOM     38  N   UNL A   1      39.483  30.262  31.187  1.00  0.00    -0.248 NA
ATOM     39  C   UNL A   1      38.102  30.590  29.334  1.00  0.00     0.031 C 
ATOM     40  C   UNL A   1      37.276  33.502  33.351  1.00  0.00     0.029 A 
ATOM     41  N   UNL A   1      38.965  32.043  33.477  1.00  0.00    -0.354 N 
ATOM     42  C   UNL A   1      39.827  29.353  30.192  1.00  0.00     0.074 A 
ATOM     43  C   UNL A   1      38.894  29.554  29.104  1.00  0.00     0.031 C 
ATOM     44  C   UNL A   1      37.850  33.654  34.555  1.00  0.00     0.029 A 
ATOM     45  C   UNL A   1      38.941  32.693  34.690  1.00  0.00     0.049 A 
ATOM     46  H   UNL A   1      39.619  31.341  33.256  1.00  0.00     0.167 HD
ATOM     47  C   UNL A   1      40.840  28.451  30.178  1.00  0.00     0.034 A 
ATOM     48  C   UNL A   1      39.700  32.525  35.792  1.00  0.00     0.034 A 
ATOM     49  C   UNL A   1      41.763  28.268  31.273  1.00  0.00     0.049 A 
ATOM     50  C   UNL A   1      40.791  31.486  35.770  1.00  0.00     0.074 A 
ATOM     51  C   UNL A   1      42.855  27.420  31.347  1.00  0.00     0.029 A 
ATOM     52  N   UNL A   1      41.696  28.932  32.493  1.00  0.00    -0.354 N 
ATOM     53  N   UNL A   1      41.136  30.668  34.802  1.00  0.00    -0.248 NA
ATOM     54  C   UNL A   1      41.603  31.353  36.986  1.00  0.00     0.031 C 
ATOM     55  C   UNL A   1      43.397  27.512  32.632  1.00  0.00     0.029 A 
ATOM     56  C   UNL A   1      42.703  28.484  33.336  1.00  0.00     0.049 A 
ATOM     57  H   UNL A   1      41.032  29.621  32.724  1.00  0.00     0.167 HD
ATOM     58  C   UNL A   1      42.226  29.948  35.282  1.00  0.00     0.074 A 
ATOM     59  C   UNL A   1      42.490  30.441  36.619  1.00  0.00     0.031 C 
ATOM     60  C   UNL A   1      42.947  28.972  34.674  1.00  0.00     0.034 A 
BRANCH  47  61
ATOM     61  C   UNL A   1      40.979  27.577  28.952  1.00  0.00     0.023 A 
ATOM     62  C   UNL A   1      42.018  27.767  28.023  1.00  0.00     0.031 A 
ATOM     63  C   UNL A   1      40.046  26.559  28.693  1.00  0.00     0.131 A 
ATOM     64  C   UNL A   1      42.050  27.010  26.843  1.00  0.00     0.055 A 
ATOM     65  C   UNL A   1      40.137  25.747  27.559  1.00  0.00     0.041 A 
ATOM     66  F   UNL A   1      39.019  26.342  29.528  1.00  0.00    -0.206 F 
ATOM     67  C   UNL A   1      41.134  25.982  26.617  1.00  0.00     0.022 A 
BRANCH  64  68
ATOM     68  S   UNL A   1      43.209  27.498  25.534  1.00  0.00     0.124 S 
ATOM     69  O   UNL A   1      44.070  28.443  26.240  1.00  0.00    -0.237 OA
ATOM     70  O   UNL A   1      43.822  26.227  25.166  1.00  0.00    -0.237 OA
ATOM     71  O   UNL A   1      42.346  28.093  24.517  1.00  0.00    -0.744 OA
ENDBRANCH  64  68
ENDBRANCH  47  61
BRANCH  48  72
ATOM     72  C   UNL A   1      39.450  33.345  37.014  1.00  0.00     0.023 A 
ATOM     73  C   UNL A   1      40.148  34.542  37.238  1.00  0.00     0.031 A 
ATOM     74  C   UNL A   1      38.539  32.921  37.998  1.00  0.00     0.131 A 
ATOM     75  C   UNL A   1      39.961  35.248  38.436  1.00  0.00     0.055 A 
ATOM     76  C   UNL A   1      38.312  33.657  39.162  1.00  0.00     0.041 A 
ATOM     77  F   UNL A   1      37.842  31.784  37.835  1.00  0.00    -0.206 F 
ATOM     78  C   UNL A   1      39.036  34.822  39.393  1.00  0.00     0.022 A 
BRANCH  75  79
ATOM     79  S   UNL A   1      41.016  36.685  38.771  1.00  0.00     0.124 S 
ATOM     80  O   UNL A   1      40.027  37.736  38.980  1.00  0.00    -0.237 OA
ATOM     81  O   UNL A   1      41.752  36.251  39.954  1.00  0.00    -0.237 OA
ATOM     82  O   UNL A   1      41.815  36.811  37.554  1.00  0.00    -0.744 OA
ENDBRANCH  75  79
ENDBRANCH  48  72
BRANCH  60  83
ATOM     83  C   UNL A   1      44.121  28.405  35.437  1.00  0.00     0.023 A 
ATOM     84  C   UNL A   1      43.955  27.441  36.448  1.00  0.00     0.031 A 
ATOM     85  C   UNL A   1      45.427  28.846  35.156  1.00  0.00     0.131 A 
ATOM     86  C   UNL A   1      45.066  26.995  37.179  1.00  0.00     0.055 A 
ATOM     87  C   UNL A   1      46.536  28.347  35.839  1.00  0.00     0.041 A 
ATOM     88  F   UNL A   1      45.647  29.769  34.206  1.00  0.00    -0.206 F 
ATOM     89  C   UNL A   1      46.357  27.426  36.867  1.00  0.00     0.022 A 
BRANCH  86  90
ATOM     90  S   UNL A   1      44.789  25.921  38.614  1.00  0.00     0.124 S 
ATOM     91  O   UNL A   1      45.805  26.396  39.547  1.00  0.00    -0.237 OA
ATOM     92  O   UNL A   1      43.406  26.223  38.969  1.00  0.00    -0.237 OA
ATOM     93  O   UNL A   1      45.013  24.577  38.085  1.00  0.00    -0.744 OA
ENDBRANCH  86  90
ENDBRANCH  60  83
ENDBRANCH  34  35
ENDBRANCH  26  29
ENDBRANCH  24  25
ENDBRANCH  23  24
ENDBRANCH   1  23
TORSDOF 18
ENDMDL
