MODEL 1
REMARK VINA RESULT:     -11.5      0.000      0.000
REMARK SMILES C[C@H](C(=O)NCCCCCCNC(=O)c1ccc(-c2c3nc(c(-c4cc(S(=O)(=O)[O-])ccc4F)c4ccc([nH]4)c(-c4cc(S(=O)(=O)[O-])ccc4F)c4nc(c(-c5cc(S(=O)(=O)[O-])ccc5F)c5ccc2[nH]5)C=C4)C=C3)cc1)[C@H](C)n1cnc2cc(F)c(F)cc21
REMARK SMILES IDX 9 1 8 2 7 3 6 4 5 5 3 6 4 7 2 9 1 10 78 11 79 12 80 13 81 14
REMARK SMILES IDX 90 15 82 16 83 17 89 18 84 19 87 20 85 21 88 22 86 23 10 24
REMARK SMILES IDX 11 25 12 26 13 27 14 29 15 30 16 31 77 32 17 33 76 34 18 35
REMARK SMILES IDX 19 36 20 37 70 38 21 39 75 40 69 41 71 42 22 43 74 44 68 45
REMARK SMILES IDX 67 46 23 48 55 49 35 50 54 51 36 52 39 53 53 54 72 55 37 56
REMARK SMILES IDX 38 57 52 59 73 60 40 61 24 62 25 63 33 64 26 65 32 66 34 67
REMARK SMILES IDX 31 68 27 69 28 70 29 71 30 72 56 73 57 74 65 75 58 76 64 77
REMARK SMILES IDX 66 78 63 79 59 80 60 81 61 82 62 83 41 84 42 85 50 86 43 87
REMARK SMILES IDX 49 88 51 89 48 90 44 91 45 92 46 93 47 94
REMARK H PARENT 5 8 12 28 71 47 39 58
REMARK Flexibility Score: inf
ROOT
ATOM      1  C   UNL A   1      31.612  30.394  25.899  1.00  0.00     0.002 C 
ENDROOT
BRANCH   1   2
ATOM      2  C   UNL A   1      31.959  29.261  26.871  1.00  0.00     0.002 C 
BRANCH   2   3
ATOM      3  C   UNL A   1      33.254  28.496  26.563  1.00  0.00     0.021 C 
BRANCH   3   4
ATOM      4  C   UNL A   1      33.093  26.982  26.531  1.00  0.00     0.116 C 
BRANCH   4   5
ATOM      5  N   UNL A   1      31.711  26.600  26.716  1.00  0.00    -0.356 N 
ATOM      6  C   UNL A   1      30.897  25.801  25.987  1.00  0.00     0.224 C 
ATOM      7  O   UNL A   1      29.721  25.705  26.351  1.00  0.00    -0.275 OA
ATOM      8  H   UNL A   1      31.286  26.989  27.514  1.00  0.00     0.163 HD
BRANCH   6   9
ATOM      9  C   UNL A   1      31.375  25.037  24.750  1.00  0.00     0.098 C 
ATOM     10  C   UNL A   1      30.989  23.563  24.849  1.00  0.00     0.020 C 
BRANCH   9  11
ATOM     11  C   UNL A   1      31.041  25.694  23.375  1.00  0.00     0.098 C 
ATOM     12  C   UNL A   1      31.895  25.117  22.237  1.00  0.00     0.032 C 
BRANCH  11  13
ATOM     13  N   UNL A   1      31.131  27.159  23.404  1.00  0.00    -0.327 N 
ATOM     14  C   UNL A   1      32.281  27.858  23.141  1.00  0.00     0.200 A 
ATOM     15  C   UNL A   1      30.077  28.028  23.224  1.00  0.00     0.071 A 
ATOM     16  N   UNL A   1      32.017  28.976  22.501  1.00  0.00    -0.237 NA
ATOM     17  C   UNL A   1      30.647  29.060  22.479  1.00  0.00     0.092 A 
ATOM     18  C   UNL A   1      28.706  27.930  23.478  1.00  0.00     0.071 A 
ATOM     19  C   UNL A   1      29.812  29.965  21.812  1.00  0.00     0.073 A 
ATOM     20  C   UNL A   1      27.897  28.861  22.830  1.00  0.00     0.161 A 
ATOM     21  C   UNL A   1      28.434  29.829  21.984  1.00  0.00     0.161 A 
ATOM     22  F   UNL A   1      26.570  28.784  23.001  1.00  0.00    -0.204 F 
ATOM     23  F   UNL A   1      27.613  30.651  21.314  1.00  0.00    -0.204 F 
ENDBRANCH  11  13
ENDBRANCH   9  11
ENDBRANCH   6   9
ENDBRANCH   4   5
ENDBRANCH   3   4
ENDBRANCH   2   3
ENDBRANCH   1   2
BRANCH   1  24
ATOM     24  C   UNL A   1      31.449  31.779  26.529  1.00  0.00     0.021 C 
BRANCH  24  25
ATOM     25  C   UNL A   1      32.690  32.325  27.228  1.00  0.00     0.116 C 
BRANCH  25  26
ATOM     26  N   UNL A   1      32.568  33.729  27.577  1.00  0.00    -0.352 N 
ATOM     27  C   UNL A   1      33.281  34.459  28.499  1.00  0.00     0.251 C 
ATOM     28  H   UNL A   1      31.878  34.229  27.083  1.00  0.00     0.163 HD
ATOM     29  O   UNL A   1      32.942  35.605  28.762  1.00  0.00    -0.269 OA
BRANCH  27  30
ATOM     30  C   UNL A   1      34.431  33.836  29.194  1.00  0.00     0.039 A 
ATOM     31  C   UNL A   1      34.190  32.777  30.072  1.00  0.00     0.014 A 
ATOM     32  C   UNL A   1      35.737  34.283  28.976  1.00  0.00     0.014 A 
ATOM     33  C   UNL A   1      35.264  32.125  30.682  1.00  0.00     0.010 A 
ATOM     34  C   UNL A   1      36.810  33.584  29.525  1.00  0.00     0.010 A 
ATOM     35  C   UNL A   1      36.587  32.498  30.384  1.00  0.00    -0.014 A 
BRANCH  35  36
ATOM     36  C   UNL A   1      37.742  31.761  30.963  1.00  0.00     0.031 A 
ATOM     37  C   UNL A   1      38.220  32.079  32.355  1.00  0.00     0.074 A 
ATOM     38  C   UNL A   1      38.392  30.844  30.218  1.00  0.00     0.049 A 
ATOM     39  N   UNL A   1      39.246  31.598  33.008  1.00  0.00    -0.248 NA
ATOM     40  C   UNL A   1      37.459  33.095  33.097  1.00  0.00     0.031 C 
ATOM     41  C   UNL A   1      38.043  30.473  28.844  1.00  0.00     0.029 A 
ATOM     42  N   UNL A   1      39.482  30.061  30.504  1.00  0.00    -0.354 N 
ATOM     43  C   UNL A   1      39.260  32.256  34.233  1.00  0.00     0.074 A 
ATOM     44  C   UNL A   1      38.179  33.218  34.202  1.00  0.00     0.031 C 
ATOM     45  C   UNL A   1      38.884  29.517  28.420  1.00  0.00     0.029 A 
ATOM     46  C   UNL A   1      39.863  29.241  29.467  1.00  0.00     0.049 A 
ATOM     47  H   UNL A   1      39.948  30.083  31.371  1.00  0.00     0.167 HD
ATOM     48  C   UNL A   1      40.082  32.060  35.293  1.00  0.00     0.034 A 
ATOM     49  C   UNL A   1      40.893  28.377  29.363  1.00  0.00     0.034 A 
ATOM     50  C   UNL A   1      41.152  31.090  35.309  1.00  0.00     0.049 A 
ATOM     51  C   UNL A   1      41.819  28.205  30.541  1.00  0.00     0.074 A 
ATOM     52  C   UNL A   1      42.012  30.774  36.347  1.00  0.00     0.029 A 
ATOM     53  N   UNL A   1      41.515  30.286  34.237  1.00  0.00    -0.354 N 
ATOM     54  N   UNL A   1      41.789  28.802  31.711  1.00  0.00    -0.248 NA
ATOM     55  C   UNL A   1      42.911  27.234  30.390  1.00  0.00     0.031 C 
ATOM     56  C   UNL A   1      42.942  29.841  35.877  1.00  0.00     0.029 A 
ATOM     57  C   UNL A   1      42.609  29.505  34.575  1.00  0.00     0.049 A 
ATOM     58  H   UNL A   1      41.061  30.273  33.363  1.00  0.00     0.167 HD
ATOM     59  C   UNL A   1      42.837  28.252  32.444  1.00  0.00     0.074 A 
ATOM     60  C   UNL A   1      43.469  27.267  31.590  1.00  0.00     0.031 C 
ATOM     61  C   UNL A   1      43.239  28.532  33.711  1.00  0.00     0.034 A 
BRANCH  48  62
ATOM     62  C   UNL A   1      39.872  32.931  36.510  1.00  0.00     0.023 A 
ATOM     63  C   UNL A   1      39.105  32.499  37.607  1.00  0.00     0.031 A 
ATOM     64  C   UNL A   1      40.426  34.223  36.566  1.00  0.00     0.131 A 
ATOM     65  C   UNL A   1      38.849  33.374  38.673  1.00  0.00     0.055 A 
ATOM     66  C   UNL A   1      40.242  35.057  37.671  1.00  0.00     0.041 A 
ATOM     67  F   UNL A   1      41.149  34.702  35.542  1.00  0.00    -0.206 F 
ATOM     68  C   UNL A   1      39.435  34.641  38.726  1.00  0.00     0.022 A 
BRANCH  65  69
ATOM     69  S   UNL A   1      37.616  32.892  39.912  1.00  0.00     0.124 S 
ATOM     70  O   UNL A   1      37.776  33.945  40.912  1.00  0.00    -0.237 OA
ATOM     71  O   UNL A   1      36.374  32.918  39.148  1.00  0.00    -0.237 OA
ATOM     72  O   UNL A   1      38.059  31.567  40.339  1.00  0.00    -0.744 OA
ENDBRANCH  65  69
ENDBRANCH  48  62
BRANCH  49  73
ATOM     73  C   UNL A   1      41.120  27.618  28.098  1.00  0.00     0.023 A 
ATOM     74  C   UNL A   1      40.850  26.242  28.021  1.00  0.00     0.031 A 
ATOM     75  C   UNL A   1      41.657  28.247  26.961  1.00  0.00     0.131 A 
ATOM     76  C   UNL A   1      41.163  25.531  26.852  1.00  0.00     0.055 A 
ATOM     77  C   UNL A   1      41.911  27.547  25.780  1.00  0.00     0.041 A 
ATOM     78  F   UNL A   1      41.934  29.561  26.979  1.00  0.00    -0.206 F 
ATOM     79  C   UNL A   1      41.678  26.177  25.725  1.00  0.00     0.022 A 
BRANCH  76  80
ATOM     80  S   UNL A   1      40.982  23.726  26.858  1.00  0.00     0.124 S 
ATOM     81  O   UNL A   1      42.113  23.313  26.035  1.00  0.00    -0.237 OA
ATOM     82  O   UNL A   1      41.075  23.417  28.280  1.00  0.00    -0.237 OA
ATOM     83  O   UNL A   1      39.665  23.516  26.260  1.00  0.00    -0.744 OA
ENDBRANCH  76  80
ENDBRANCH  49  73
BRANCH  61  84
ATOM     84  C   UNL A   1      44.388  27.723  34.264  1.00  0.00     0.023 A 
ATOM     85  C   UNL A   1      44.182  26.520  34.963  1.00  0.00     0.031 A 
ATOM     86  C   UNL A   1      45.711  28.170  34.096  1.00  0.00     0.131 A 
ATOM     87  C   UNL A   1      45.275  25.837  35.519  1.00  0.00     0.055 A 
ATOM     88  C   UNL A   1      46.799  27.450  34.591  1.00  0.00     0.041 A 
ATOM     89  F   UNL A   1      45.969  29.312  33.440  1.00  0.00    -0.206 F 
ATOM     90  C   UNL A   1      46.584  26.285  35.319  1.00  0.00     0.022 A 
BRANCH  87  91
ATOM     91  S   UNL A   1      44.956  24.410  36.591  1.00  0.00     0.124 S 
ATOM     92  O   UNL A   1      44.266  23.499  35.685  1.00  0.00    -0.237 OA
ATOM     93  O   UNL A   1      46.302  24.013  36.992  1.00  0.00    -0.237 OA
ATOM     94  O   UNL A   1      44.130  24.964  37.662  1.00  0.00    -0.744 OA
ENDBRANCH  87  91
ENDBRANCH  61  84
ENDBRANCH  35  36
ENDBRANCH  27  30
ENDBRANCH  25  26
ENDBRANCH  24  25
ENDBRANCH   1  24
TORSDOF 18
ENDMDL
MODEL 2
REMARK VINA RESULT:     -11.3      2.673      8.428
REMARK SMILES C[C@H](C(=O)NCCCCCCNC(=O)c1ccc(-c2c3nc(c(-c4cc(S(=O)(=O)[O-])ccc4F)c4ccc([nH]4)c(-c4cc(S(=O)(=O)[O-])ccc4F)c4nc(c(-c5cc(S(=O)(=O)[O-])ccc5F)c5ccc2[nH]5)C=C4)C=C3)cc1)[C@H](C)n1cnc2cc(F)c(F)cc21
REMARK SMILES IDX 9 1 8 2 7 3 6 4 5 5 3 6 4 7 2 9 1 10 78 11 79 12 80 13 81 14
REMARK SMILES IDX 90 15 82 16 83 17 89 18 84 19 87 20 85 21 88 22 86 23 10 24
REMARK SMILES IDX 11 25 12 26 13 27 14 29 15 30 16 31 77 32 17 33 76 34 18 35
REMARK SMILES IDX 19 36 20 37 70 38 21 39 75 40 69 41 71 42 22 43 74 44 68 45
REMARK SMILES IDX 67 46 23 48 55 49 35 50 54 51 36 52 39 53 53 54 72 55 37 56
REMARK SMILES IDX 38 57 52 59 73 60 40 61 24 62 25 63 33 64 26 65 32 66 34 67
REMARK SMILES IDX 31 68 27 69 28 70 29 71 30 72 56 73 57 74 65 75 58 76 64 77
REMARK SMILES IDX 66 78 63 79 59 80 60 81 61 82 62 83 41 84 42 85 50 86 43 87
REMARK SMILES IDX 49 88 51 89 48 90 44 91 45 92 46 93 47 94
REMARK H PARENT 5 8 12 28 71 47 39 58
REMARK Flexibility Score: inf
ROOT
ATOM      1  C   UNL A   1      31.379  30.840  25.953  1.00  0.00     0.002 C 
ENDROOT
BRANCH   1   2
ATOM      2  C   UNL A   1      32.377  29.898  26.637  1.00  0.00     0.002 C 
BRANCH   2   3
ATOM      3  C   UNL A   1      31.788  28.590  27.183  1.00  0.00     0.021 C 
BRANCH   3   4
ATOM      4  C   UNL A   1      31.822  27.430  26.197  1.00  0.00     0.116 C 
BRANCH   4   5
ATOM      5  N   UNL A   1      31.080  26.294  26.701  1.00  0.00    -0.356 N 
ATOM      6  C   UNL A   1      30.715  25.131  26.113  1.00  0.00     0.224 C 
ATOM      7  O   UNL A   1      30.016  24.357  26.774  1.00  0.00    -0.275 OA
ATOM      8  H   UNL A   1      30.791  26.383  27.637  1.00  0.00     0.163 HD
BRANCH   6   9
ATOM      9  C   UNL A   1      31.125  24.757  24.688  1.00  0.00     0.098 C 
ATOM     10  C   UNL A   1      30.423  25.659  23.674  1.00  0.00     0.020 C 
BRANCH   9  11
ATOM     11  C   UNL A   1      32.656  24.591  24.442  1.00  0.00     0.098 C 
ATOM     12  C   UNL A   1      33.014  24.663  22.951  1.00  0.00     0.032 C 
BRANCH  11  13
ATOM     13  N   UNL A   1      33.206  23.374  25.053  1.00  0.00    -0.327 N 
ATOM     14  C   UNL A   1      32.582  22.154  25.015  1.00  0.00     0.200 A 
ATOM     15  C   UNL A   1      34.538  23.141  25.312  1.00  0.00     0.071 A 
ATOM     16  N   UNL A   1      33.457  21.180  24.900  1.00  0.00    -0.237 NA
ATOM     17  C   UNL A   1      34.683  21.788  25.008  1.00  0.00     0.092 A 
ATOM     18  C   UNL A   1      35.615  23.984  25.600  1.00  0.00     0.071 A 
ATOM     19  C   UNL A   1      35.968  21.261  24.823  1.00  0.00     0.073 A 
ATOM     20  C   UNL A   1      36.883  23.430  25.439  1.00  0.00     0.161 A 
ATOM     21  C   UNL A   1      37.055  22.113  25.021  1.00  0.00     0.161 A 
ATOM     22  F   UNL A   1      37.953  24.208  25.657  1.00  0.00    -0.204 F 
ATOM     23  F   UNL A   1      38.292  21.646  24.798  1.00  0.00    -0.204 F 
ENDBRANCH  11  13
ENDBRANCH   9  11
ENDBRANCH   6   9
ENDBRANCH   4   5
ENDBRANCH   3   4
ENDBRANCH   2   3
ENDBRANCH   1   2
BRANCH   1  24
ATOM     24  C   UNL A   1      31.314  32.259  26.520  1.00  0.00     0.021 C 
BRANCH  24  25
ATOM     25  C   UNL A   1      32.607  32.765  27.153  1.00  0.00     0.116 C 
BRANCH  25  26
ATOM     26  N   UNL A   1      32.479  34.104  27.699  1.00  0.00    -0.352 N 
ATOM     27  C   UNL A   1      33.185  34.695  28.721  1.00  0.00     0.251 C 
ATOM     28  H   UNL A   1      31.792  34.669  27.277  1.00  0.00     0.163 HD
ATOM     29  O   UNL A   1      32.842  35.791  29.144  1.00  0.00    -0.269 OA
BRANCH  27  30
ATOM     30  C   UNL A   1      34.331  33.980  29.328  1.00  0.00     0.039 A 
ATOM     31  C   UNL A   1      35.625  34.332  28.936  1.00  0.00     0.014 A 
ATOM     32  C   UNL A   1      34.136  32.979  30.283  1.00  0.00     0.014 A 
ATOM     33  C   UNL A   1      36.724  33.725  29.550  1.00  0.00     0.010 A 
ATOM     34  C   UNL A   1      35.231  32.429  30.947  1.00  0.00     0.010 A 
ATOM     35  C   UNL A   1      36.537  32.796  30.588  1.00  0.00    -0.014 A 
BRANCH  35  36
ATOM     36  C   UNL A   1      37.698  32.200  31.304  1.00  0.00     0.031 A 
ATOM     37  C   UNL A   1      38.465  31.063  30.684  1.00  0.00     0.074 A 
ATOM     38  C   UNL A   1      38.026  32.649  32.532  1.00  0.00     0.049 A 
ATOM     39  N   UNL A   1      39.458  30.369  31.178  1.00  0.00    -0.248 NA
ATOM     40  C   UNL A   1      38.038  30.631  29.346  1.00  0.00     0.031 C 
ATOM     41  C   UNL A   1      37.336  33.723  33.250  1.00  0.00     0.029 A 
ATOM     42  N   UNL A   1      39.017  32.257  33.398  1.00  0.00    -0.354 N 
ATOM     43  C   UNL A   1      39.770  29.415  30.216  1.00  0.00     0.074 A 
ATOM     44  C   UNL A   1      38.815  29.578  29.141  1.00  0.00     0.031 C 
ATOM     45  C   UNL A   1      37.942  33.923  34.431  1.00  0.00     0.029 A 
ATOM     46  C   UNL A   1      39.029  32.960  34.581  1.00  0.00     0.049 A 
ATOM     47  H   UNL A   1      39.660  31.541  33.191  1.00  0.00     0.167 HD
ATOM     48  C   UNL A   1      40.774  28.503  30.218  1.00  0.00     0.034 A 
ATOM     49  C   UNL A   1      39.815  32.833  35.670  1.00  0.00     0.034 A 
ATOM     50  C   UNL A   1      41.723  28.358  31.297  1.00  0.00     0.049 A 
ATOM     51  C   UNL A   1      40.899  31.785  35.665  1.00  0.00     0.074 A 
ATOM     52  C   UNL A   1      42.808  27.502  31.380  1.00  0.00     0.029 A 
ATOM     53  N   UNL A   1      41.696  29.079  32.484  1.00  0.00    -0.354 N 
ATOM     54  N   UNL A   1      41.211  30.921  34.726  1.00  0.00    -0.248 NA
ATOM     55  C   UNL A   1      41.745  31.702  36.864  1.00  0.00     0.031 C 
ATOM     56  C   UNL A   1      43.386  27.649  32.645  1.00  0.00     0.029 A 
ATOM     57  C   UNL A   1      42.721  28.660  33.319  1.00  0.00     0.049 A 
ATOM     58  H   UNL A   1      41.045  29.785  32.700  1.00  0.00     0.167 HD
ATOM     59  C   UNL A   1      42.311  30.217  35.209  1.00  0.00     0.074 A 
ATOM     60  C   UNL A   1      42.616  30.767  36.514  1.00  0.00     0.031 C 
ATOM     61  C   UNL A   1      43.010  29.209  34.625  1.00  0.00     0.034 A 
BRANCH  48  62
ATOM     62  C   UNL A   1      40.876  27.575  29.029  1.00  0.00     0.023 A 
ATOM     63  C   UNL A   1      41.815  27.786  28.004  1.00  0.00     0.031 A 
ATOM     64  C   UNL A   1      40.008  26.475  28.906  1.00  0.00     0.131 A 
ATOM     65  C   UNL A   1      41.812  26.962  26.869  1.00  0.00     0.055 A 
ATOM     66  C   UNL A   1      40.070  25.605  27.816  1.00  0.00     0.041 A 
ATOM     67  F   UNL A   1      39.075  26.233  29.840  1.00  0.00    -0.206 F 
ATOM     68  C   UNL A   1      40.965  25.856  26.780  1.00  0.00     0.022 A 
BRANCH  65  69
ATOM     69  S   UNL A   1      42.823  27.448  25.444  1.00  0.00     0.124 S 
ATOM     70  O   UNL A   1      42.731  26.259  24.598  1.00  0.00    -0.237 OA
ATOM     71  O   UNL A   1      42.131  28.635  24.956  1.00  0.00    -0.237 OA
ATOM     72  O   UNL A   1      44.142  27.688  26.024  1.00  0.00    -0.744 OA
ENDBRANCH  65  69
ENDBRANCH  48  62
BRANCH  49  73
ATOM     73  C   UNL A   1      39.602  33.706  36.862  1.00  0.00     0.023 A 
ATOM     74  C   UNL A   1      39.014  33.202  38.033  1.00  0.00     0.031 A 
ATOM     75  C   UNL A   1      39.940  35.071  36.830  1.00  0.00     0.131 A 
ATOM     76  C   UNL A   1      38.735  34.065  39.104  1.00  0.00     0.055 A 
ATOM     77  C   UNL A   1      39.715  35.912  37.921  1.00  0.00     0.041 A 
ATOM     78  F   UNL A   1      40.505  35.606  35.737  1.00  0.00    -0.206 F 
ATOM     79  C   UNL A   1      39.096  35.414  39.063  1.00  0.00     0.022 A 
BRANCH  76  80
ATOM     80  S   UNL A   1      37.800  33.419  40.519  1.00  0.00     0.124 S 
ATOM     81  O   UNL A   1      37.799  34.565  41.419  1.00  0.00    -0.237 OA
ATOM     82  O   UNL A   1      36.520  33.081  39.906  1.00  0.00    -0.237 OA
ATOM     83  O   UNL A   1      38.600  32.278  40.960  1.00  0.00    -0.744 OA
ENDBRANCH  76  80
ENDBRANCH  49  73
BRANCH  61  84
ATOM     84  C   UNL A   1      44.205  28.673  35.377  1.00  0.00     0.023 A 
ATOM     85  C   UNL A   1      44.091  27.617  36.298  1.00  0.00     0.031 A 
ATOM     86  C   UNL A   1      45.477  29.236  35.172  1.00  0.00     0.131 A 
ATOM     87  C   UNL A   1      45.216  27.197  37.024  1.00  0.00     0.055 A 
ATOM     88  C   UNL A   1      46.606  28.768  35.847  1.00  0.00     0.041 A 
ATOM     89  F   UNL A   1      45.647  30.249  34.307  1.00  0.00    -0.206 F 
ATOM     90  C   UNL A   1      46.477  27.753  36.789  1.00  0.00     0.022 A 
BRANCH  87  91
ATOM     91  S   UNL A   1      44.992  25.984  38.353  1.00  0.00     0.124 S 
ATOM     92  O   UNL A   1      44.254  26.756  39.347  1.00  0.00    -0.237 OA
ATOM     93  O   UNL A   1      44.244  24.924  37.685  1.00  0.00    -0.237 OA
ATOM     94  O   UNL A   1      46.359  25.633  38.731  1.00  0.00    -0.744 OA
ENDBRANCH  87  91
ENDBRANCH  61  84
ENDBRANCH  35  36
ENDBRANCH  27  30
ENDBRANCH  25  26
ENDBRANCH  24  25
ENDBRANCH   1  24
TORSDOF 18
ENDMDL
MODEL 3
REMARK VINA RESULT:     -11.2      2.452      8.191
REMARK SMILES C[C@H](C(=O)NCCCCCCNC(=O)c1ccc(-c2c3nc(c(-c4cc(S(=O)(=O)[O-])ccc4F)c4ccc([nH]4)c(-c4cc(S(=O)(=O)[O-])ccc4F)c4nc(c(-c5cc(S(=O)(=O)[O-])ccc5F)c5ccc2[nH]5)C=C4)C=C3)cc1)[C@H](C)n1cnc2cc(F)c(F)cc21
REMARK SMILES IDX 9 1 8 2 7 3 6 4 5 5 3 6 4 7 2 9 1 10 78 11 79 12 80 13 81 14
REMARK SMILES IDX 90 15 82 16 83 17 89 18 84 19 87 20 85 21 88 22 86 23 10 24
REMARK SMILES IDX 11 25 12 26 13 27 14 29 15 30 16 31 77 32 17 33 76 34 18 35
REMARK SMILES IDX 19 36 20 37 70 38 21 39 75 40 69 41 71 42 22 43 74 44 68 45
REMARK SMILES IDX 67 46 23 48 55 49 35 50 54 51 36 52 39 53 53 54 72 55 37 56
REMARK SMILES IDX 38 57 52 59 73 60 40 61 24 62 25 63 33 64 26 65 32 66 34 67
REMARK SMILES IDX 31 68 27 69 28 70 29 71 30 72 56 73 57 74 65 75 58 76 64 77
REMARK SMILES IDX 66 78 63 79 59 80 60 81 61 82 62 83 41 84 42 85 50 86 43 87
REMARK SMILES IDX 49 88 51 89 48 90 44 91 45 92 46 93 47 94
REMARK H PARENT 5 8 12 28 71 47 39 58
REMARK Flexibility Score: inf
ROOT
ATOM      1  C   UNL A   1      31.802  30.696  26.191  1.00  0.00     0.002 C 
ENDROOT
BRANCH   1   2
ATOM      2  C   UNL A   1      32.159  29.514  27.099  1.00  0.00     0.002 C 
BRANCH   2   3
ATOM      3  C   UNL A   1      33.660  29.273  27.314  1.00  0.00     0.021 C 
BRANCH   3   4
ATOM      4  C   UNL A   1      34.257  28.201  26.412  1.00  0.00     0.116 C 
BRANCH   4   5
ATOM      5  N   UNL A   1      34.216  28.605  25.023  1.00  0.00    -0.356 N 
ATOM      6  C   UNL A   1      33.570  28.080  23.957  1.00  0.00     0.224 C 
ATOM      7  O   UNL A   1      33.773  28.603  22.857  1.00  0.00    -0.275 OA
ATOM      8  H   UNL A   1      34.753  29.404  24.819  1.00  0.00     0.163 HD
BRANCH   6   9
ATOM      9  C   UNL A   1      32.623  26.883  24.066  1.00  0.00     0.098 C 
ATOM     10  C   UNL A   1      31.180  27.355  24.231  1.00  0.00     0.020 C 
BRANCH   9  11
ATOM     11  C   UNL A   1      32.812  25.768  22.991  1.00  0.00     0.098 C 
ATOM     12  C   UNL A   1      31.495  25.421  22.281  1.00  0.00     0.032 C 
BRANCH  11  13
ATOM     13  N   UNL A   1      33.452  24.560  23.525  1.00  0.00    -0.327 N 
ATOM     14  C   UNL A   1      34.769  24.240  23.319  1.00  0.00     0.200 A 
ATOM     15  C   UNL A   1      33.031  23.854  24.630  1.00  0.00     0.071 A 
ATOM     16  N   UNL A   1      35.286  23.662  24.381  1.00  0.00    -0.237 NA
ATOM     17  C   UNL A   1      34.229  23.483  25.238  1.00  0.00     0.092 A 
ATOM     18  C   UNL A   1      31.778  23.666  25.222  1.00  0.00     0.071 A 
ATOM     19  C   UNL A   1      34.215  23.042  26.568  1.00  0.00     0.073 A 
ATOM     20  C   UNL A   1      31.787  23.198  26.534  1.00  0.00     0.161 A 
ATOM     21  C   UNL A   1      32.978  22.932  27.205  1.00  0.00     0.161 A 
ATOM     22  F   UNL A   1      30.615  23.043  27.166  1.00  0.00    -0.204 F 
ATOM     23  F   UNL A   1      32.944  22.563  28.493  1.00  0.00    -0.204 F 
ENDBRANCH  11  13
ENDBRANCH   9  11
ENDBRANCH   6   9
ENDBRANCH   4   5
ENDBRANCH   3   4
ENDBRANCH   2   3
ENDBRANCH   1   2
BRANCH   1  24
ATOM     24  C   UNL A   1      31.517  32.018  26.907  1.00  0.00     0.021 C 
BRANCH  24  25
ATOM     25  C   UNL A   1      32.746  32.742  27.449  1.00  0.00     0.116 C 
BRANCH  25  26
ATOM     26  N   UNL A   1      32.491  34.140  27.743  1.00  0.00    -0.352 N 
ATOM     27  C   UNL A   1      33.099  34.956  28.668  1.00  0.00     0.251 C 
ATOM     28  H   UNL A   1      31.784  34.564  27.204  1.00  0.00     0.163 HD
ATOM     29  O   UNL A   1      32.654  36.077  28.877  1.00  0.00    -0.269 OA
BRANCH  27  30
ATOM     30  C   UNL A   1      34.264  34.456  29.432  1.00  0.00     0.039 A 
ATOM     31  C   UNL A   1      34.044  33.840  30.667  1.00  0.00     0.014 A 
ATOM     32  C   UNL A   1      35.564  34.580  28.933  1.00  0.00     0.014 A 
ATOM     33  C   UNL A   1      35.120  33.293  31.370  1.00  0.00     0.010 A 
ATOM     34  C   UNL A   1      36.625  33.968  29.598  1.00  0.00     0.010 A 
ATOM     35  C   UNL A   1      36.415  33.318  30.824  1.00  0.00    -0.014 A 
BRANCH  35  36
ATOM     36  C   UNL A   1      37.556  32.670  31.524  1.00  0.00     0.031 A 
ATOM     37  C   UNL A   1      38.272  31.509  30.888  1.00  0.00     0.074 A 
ATOM     38  C   UNL A   1      37.914  33.095  32.753  1.00  0.00     0.049 A 
ATOM     39  N   UNL A   1      39.241  30.771  31.367  1.00  0.00    -0.248 NA
ATOM     40  C   UNL A   1      37.816  31.106  29.550  1.00  0.00     0.031 C 
ATOM     41  C   UNL A   1      37.274  34.189  33.487  1.00  0.00     0.029 A 
ATOM     42  N   UNL A   1      38.896  32.656  33.606  1.00  0.00    -0.354 N 
ATOM     43  C   UNL A   1      39.506  29.813  30.394  1.00  0.00     0.074 A 
ATOM     44  C   UNL A   1      38.548  30.025  29.329  1.00  0.00     0.031 C 
ATOM     45  C   UNL A   1      37.898  34.354  34.664  1.00  0.00     0.029 A 
ATOM     46  C   UNL A   1      38.947  33.346  34.795  1.00  0.00     0.049 A 
ATOM     47  H   UNL A   1      39.508  31.916  33.387  1.00  0.00     0.167 HD
ATOM     48  C   UNL A   1      40.472  28.862  30.379  1.00  0.00     0.034 A 
ATOM     49  C   UNL A   1      39.736  33.179  35.876  1.00  0.00     0.034 A 
ATOM     50  C   UNL A   1      41.423  28.670  31.447  1.00  0.00     0.049 A 
ATOM     51  C   UNL A   1      40.777  32.088  35.852  1.00  0.00     0.074 A 
ATOM     52  C   UNL A   1      42.474  27.770  31.514  1.00  0.00     0.029 A 
ATOM     53  N   UNL A   1      41.436  29.380  32.641  1.00  0.00    -0.354 N 
ATOM     54  N   UNL A   1      41.046  31.221  34.903  1.00  0.00    -0.248 NA
ATOM     55  C   UNL A   1      41.630  31.960  37.042  1.00  0.00     0.031 C 
ATOM     56  C   UNL A   1      43.069  27.882  32.775  1.00  0.00     0.029 A 
ATOM     57  C   UNL A   1      42.451  28.913  33.463  1.00  0.00     0.049 A 
ATOM     58  H   UNL A   1      40.816  30.110  32.869  1.00  0.00     0.167 HD
ATOM     59  C   UNL A   1      42.120  30.468  35.370  1.00  0.00     0.074 A 
ATOM     60  C   UNL A   1      42.459  30.994  36.676  1.00  0.00     0.031 C 
ATOM     61  C   UNL A   1      42.773  29.439  34.771  1.00  0.00     0.034 A 
BRANCH  48  62
ATOM     62  C   UNL A   1      40.526  27.941  29.181  1.00  0.00     0.023 A 
ATOM     63  C   UNL A   1      41.471  28.117  28.155  1.00  0.00     0.031 A 
ATOM     64  C   UNL A   1      39.606  26.885  29.051  1.00  0.00     0.131 A 
ATOM     65  C   UNL A   1      41.425  27.305  27.012  1.00  0.00     0.055 A 
ATOM     66  C   UNL A   1      39.623  26.024  27.953  1.00  0.00     0.041 A 
ATOM     67  F   UNL A   1      38.665  26.679  29.986  1.00  0.00    -0.206 F 
ATOM     68  C   UNL A   1      40.525  26.241  26.916  1.00  0.00     0.022 A 
BRANCH  65  69
ATOM     69  S   UNL A   1      42.454  27.755  25.588  1.00  0.00     0.124 S 
ATOM     70  O   UNL A   1      42.258  26.605  24.708  1.00  0.00    -0.237 OA
ATOM     71  O   UNL A   1      41.850  29.007  25.146  1.00  0.00    -0.237 OA
ATOM     72  O   UNL A   1      43.794  27.874  26.156  1.00  0.00    -0.744 OA
ENDBRANCH  65  69
ENDBRANCH  48  62
BRANCH  49  73
ATOM     73  C   UNL A   1      39.569  34.048  37.077  1.00  0.00     0.023 A 
ATOM     74  C   UNL A   1      39.003  33.549  38.260  1.00  0.00     0.031 A 
ATOM     75  C   UNL A   1      39.930  35.407  37.044  1.00  0.00     0.131 A 
ATOM     76  C   UNL A   1      38.766  34.410  39.343  1.00  0.00     0.055 A 
ATOM     77  C   UNL A   1      39.748  36.247  38.144  1.00  0.00     0.041 A 
ATOM     78  F   UNL A   1      40.476  35.939  35.939  1.00  0.00    -0.206 F 
ATOM     79  C   UNL A   1      39.149  35.753  39.299  1.00  0.00     0.022 A 
BRANCH  76  80
ATOM     80  S   UNL A   1      37.857  33.774  40.778  1.00  0.00     0.124 S 
ATOM     81  O   UNL A   1      38.842  32.883  41.380  1.00  0.00    -0.237 OA
ATOM     82  O   UNL A   1      37.561  34.997  41.516  1.00  0.00    -0.237 OA
ATOM     83  O   UNL A   1      36.699  33.113  40.179  1.00  0.00    -0.744 OA
ENDBRANCH  76  80
ENDBRANCH  49  73
BRANCH  61  84
ATOM     84  C   UNL A   1      43.952  28.848  35.507  1.00  0.00     0.023 A 
ATOM     85  C   UNL A   1      43.816  27.737  36.358  1.00  0.00     0.031 A 
ATOM     86  C   UNL A   1      45.231  29.414  35.359  1.00  0.00     0.131 A 
ATOM     87  C   UNL A   1      44.927  27.265  37.075  1.00  0.00     0.055 A 
ATOM     88  C   UNL A   1      46.345  28.897  36.022  1.00  0.00     0.041 A 
ATOM     89  F   UNL A   1      45.421  30.478  34.563  1.00  0.00    -0.206 F 
ATOM     90  C   UNL A   1      46.194  27.825  36.896  1.00  0.00     0.022 A 
BRANCH  87  91
ATOM     91  S   UNL A   1      44.673  25.972  38.320  1.00  0.00     0.124 S 
ATOM     92  O   UNL A   1      43.948  24.958  37.561  1.00  0.00    -0.237 OA
ATOM     93  O   UNL A   1      46.040  25.629  38.698  1.00  0.00    -0.237 OA
ATOM     94  O   UNL A   1      43.894  26.644  39.359  1.00  0.00    -0.744 OA
ENDBRANCH  87  91
ENDBRANCH  61  84
ENDBRANCH  35  36
ENDBRANCH  27  30
ENDBRANCH  25  26
ENDBRANCH  24  25
ENDBRANCH   1  24
TORSDOF 18
ENDMDL
