MODEL 1
REMARK VINA RESULT:     -10.6      0.000      0.000
REMARK SMILES O=C(CCC(=O)N1N=C(c2ccc(F)cc2)C[C@@H]1c1ccc2nccnc2c1)NCCCCCCNC(=O)c1ccc(-c2c3nc(c(-c4cc(S(=O)(=O)[O-])ccc4F)c4ccc([nH]4)c(-c4cc(S(=O)(=O)[O-])ccc4F)c4nc(c(-c5cc(S(=O)(=O)[O-])ccc5F)c5ccc2[nH]5)C=C4)C=C3)cc1
REMARK SMILES IDX 32 1 31 2 30 3 29 4 1 5 2 6 3 8 4 9 5 10 6 11 7 12 8 13
REMARK SMILES IDX 18 14 9 15 17 16 19 17 20 18 28 19 21 20 27 21 22 22 26 23
REMARK SMILES IDX 23 24 25 25 24 26 10 27 11 28 16 29 12 30 15 31 13 32 14 33
REMARK SMILES IDX 33 34 34 35 35 36 36 37 37 38 38 40 39 41 40 42 101 43 41 44
REMARK SMILES IDX 100 45 42 46 43 47 44 48 94 49 45 50 99 51 93 52 95 53 46 54
REMARK SMILES IDX 98 55 92 56 91 57 47 59 79 60 59 61 78 62 60 63 63 64 77 65
REMARK SMILES IDX 96 66 61 67 62 68 76 70 97 71 64 72 48 73 49 74 57 75 50 76
REMARK SMILES IDX 56 77 58 78 55 79 51 80 52 81 53 82 54 83 80 84 81 85 89 86
REMARK SMILES IDX 82 87 88 88 90 89 87 90 83 91 84 92 85 93 86 94 65 95 66 96
REMARK SMILES IDX 74 97 67 98 73 99 75 100 72 101 68 102 69 103 70 104 71 105
REMARK H PARENT 29 7 36 39 95 58 63 69
REMARK Flexibility Score: inf
ROOT
ATOM      1  C   UNL A   1      38.267  28.576  27.943  1.00  0.00     0.002 C 
ENDROOT
BRANCH   1   2
ATOM      2  C   UNL A   1      37.486  29.726  28.659  1.00  0.00     0.021 C 
BRANCH   2   3
ATOM      3  C   UNL A   1      35.957  29.972  28.918  1.00  0.00     0.116 C 
BRANCH   3   4
ATOM      4  N   UNL A   1      34.914  29.504  27.984  1.00  0.00    -0.356 N 
ATOM      5  O   UNL A   1      33.772  31.500  27.887  1.00  0.00    -0.275 OA
ATOM      6  C   UNL A   1      33.965  30.376  27.433  1.00  0.00     0.220 C 
ATOM      7  H   UNL A   1      34.884  28.550  27.742  1.00  0.00     0.163 HD
BRANCH   6   8
ATOM      8  C   UNL A   1      33.283  29.912  26.109  1.00  0.00     0.110 C 
BRANCH   8   9
ATOM      9  C   UNL A   1      32.722  28.455  26.197  1.00  0.00     0.112 C 
BRANCH   9  10
ATOM     10  C   UNL A   1      33.469  27.122  25.821  1.00  0.00     0.243 C 
ATOM     11  O   UNL A   1      34.479  26.815  26.467  1.00  0.00    -0.273 OA
BRANCH  10  12
ATOM     12  N   UNL A   1      32.867  26.218  24.951  1.00  0.00    -0.225 N 
ATOM     13  N   UNL A   1      33.627  25.109  24.483  1.00  0.00    -0.174 NA
ATOM     14  C   UNL A   1      31.473  25.867  25.020  1.00  0.00     0.147 C 
ATOM     15  C   UNL A   1      32.845  24.074  24.628  1.00  0.00     0.071 C 
ATOM     16  C   UNL A   1      31.578  24.393  25.336  1.00  0.00     0.091 C 
BRANCH  14  17
ATOM     17  C   UNL A   1      30.522  26.666  24.131  1.00  0.00    -0.021 A 
ATOM     18  C   UNL A   1      29.144  26.491  24.335  1.00  0.00     0.008 A 
ATOM     19  C   UNL A   1      30.861  27.741  23.301  1.00  0.00     0.036 A 
ATOM     20  C   UNL A   1      28.155  27.267  23.743  1.00  0.00     0.031 A 
ATOM     21  C   UNL A   1      29.880  28.572  22.705  1.00  0.00     0.089 A 
ATOM     22  C   UNL A   1      28.503  28.305  22.931  1.00  0.00     0.089 A 
ATOM     23  N   UNL A   1      30.217  29.635  21.945  1.00  0.00    -0.253 NA
ATOM     24  N   UNL A   1      27.500  29.034  22.415  1.00  0.00    -0.253 NA
ATOM     25  C   UNL A   1      29.197  30.373  21.432  1.00  0.00     0.132 A 
ATOM     26  C   UNL A   1      27.869  30.075  21.653  1.00  0.00     0.132 A 
ENDBRANCH  14  17
BRANCH  15  27
ATOM     27  C   UNL A   1      33.138  22.647  24.413  1.00  0.00    -0.002 A 
ATOM     28  C   UNL A   1      32.093  21.717  24.360  1.00  0.00     0.013 A 
ATOM     29  C   UNL A   1      34.462  22.206  24.566  1.00  0.00     0.013 A 
ATOM     30  C   UNL A   1      32.379  20.346  24.429  1.00  0.00     0.040 A 
ATOM     31  C   UNL A   1      34.740  20.836  24.636  1.00  0.00     0.040 A 
ATOM     32  C   UNL A   1      33.697  19.920  24.565  1.00  0.00     0.123 A 
ATOM     33  F   UNL A   1      33.962  18.610  24.656  1.00  0.00    -0.207 F 
ENDBRANCH  15  27
ENDBRANCH  10  12
ENDBRANCH   9  10
ENDBRANCH   8   9
ENDBRANCH   6   8
ENDBRANCH   3   4
ENDBRANCH   2   3
ENDBRANCH   1   2
BRANCH   1  34
ATOM     34  C   UNL A   1      39.493  27.790  28.449  1.00  0.00     0.002 C 
BRANCH  34  35
ATOM     35  C   UNL A   1      39.507  26.305  28.104  1.00  0.00     0.021 C 
BRANCH  35  36
ATOM     36  C   UNL A   1      40.930  25.760  28.128  1.00  0.00     0.116 C 
BRANCH  36  37
ATOM     37  N   UNL A   1      41.385  25.311  26.813  1.00  0.00    -0.352 N 
ATOM     38  C   UNL A   1      42.180  26.008  25.915  1.00  0.00     0.251 C 
ATOM     39  H   UNL A   1      41.095  24.413  26.532  1.00  0.00     0.163 HD
ATOM     40  O   UNL A   1      42.408  25.588  24.807  1.00  0.00    -0.269 OA
BRANCH  38  41
ATOM     41  C   UNL A   1      42.695  27.318  26.373  1.00  0.00     0.039 A 
ATOM     42  C   UNL A   1      42.046  28.483  25.965  1.00  0.00     0.014 A 
ATOM     43  C   UNL A   1      43.687  27.347  27.355  1.00  0.00     0.014 A 
ATOM     44  C   UNL A   1      42.334  29.680  26.621  1.00  0.00     0.010 A 
ATOM     45  C   UNL A   1      43.895  28.516  28.070  1.00  0.00     0.010 A 
ATOM     46  C   UNL A   1      43.217  29.693  27.714  1.00  0.00    -0.014 A 
BRANCH  46  47
ATOM     47  C   UNL A   1      43.469  30.925  28.500  1.00  0.00     0.031 A 
ATOM     48  C   UNL A   1      42.581  31.235  29.676  1.00  0.00     0.074 A 
ATOM     49  C   UNL A   1      44.433  31.789  28.120  1.00  0.00     0.049 A 
ATOM     50  N   UNL A   1      42.529  32.315  30.408  1.00  0.00    -0.248 NA
ATOM     51  C   UNL A   1      41.594  30.207  30.050  1.00  0.00     0.031 C 
ATOM     52  C   UNL A   1      45.331  31.611  26.976  1.00  0.00     0.029 A 
ATOM     53  N   UNL A   1      44.821  32.992  28.656  1.00  0.00    -0.354 N 
ATOM     54  C   UNL A   1      41.495  32.104  31.313  1.00  0.00     0.074 A 
ATOM     55  C   UNL A   1      40.906  30.823  30.998  1.00  0.00     0.031 C 
ATOM     56  C   UNL A   1      46.192  32.641  26.926  1.00  0.00     0.029 A 
ATOM     57  C   UNL A   1      45.880  33.578  27.998  1.00  0.00     0.049 A 
ATOM     58  H   UNL A   1      44.383  33.398  29.438  1.00  0.00     0.167 HD
ATOM     59  C   UNL A   1      41.096  32.895  32.335  1.00  0.00     0.034 A 
ATOM     60  C   UNL A   1      46.520  34.740  28.237  1.00  0.00     0.034 A 
ATOM     61  C   UNL A   1      41.724  34.145  32.669  1.00  0.00     0.049 A 
ATOM     62  C   UNL A   1      46.060  35.598  29.388  1.00  0.00     0.074 A 
ATOM     63  C   UNL A   1      41.420  35.010  33.705  1.00  0.00     0.029 A 
ATOM     64  N   UNL A   1      42.799  34.696  31.988  1.00  0.00    -0.354 N 
ATOM     65  N   UNL A   1      45.067  35.389  30.222  1.00  0.00    -0.248 NA
ATOM     66  C   UNL A   1      46.802  36.842  29.632  1.00  0.00     0.031 C 
ATOM     67  C   UNL A   1      42.286  36.103  33.626  1.00  0.00     0.029 A 
ATOM     68  C   UNL A   1      43.168  35.891  32.578  1.00  0.00     0.049 A 
ATOM     69  H   UNL A   1      43.235  34.296  31.201  1.00  0.00     0.167 HD
ATOM     70  C   UNL A   1      45.088  36.460  31.109  1.00  0.00     0.074 A 
ATOM     71  C   UNL A   1      46.191  37.312  30.710  1.00  0.00     0.031 C 
ATOM     72  C   UNL A   1      44.274  36.716  32.163  1.00  0.00     0.034 A 
BRANCH  59  73
ATOM     73  C   UNL A   1      39.936  32.427  33.169  1.00  0.00     0.023 A 
ATOM     74  C   UNL A   1      38.636  32.911  32.946  1.00  0.00     0.031 A 
ATOM     75  C   UNL A   1      40.125  31.470  34.180  1.00  0.00     0.131 A 
ATOM     76  C   UNL A   1      37.578  32.462  33.748  1.00  0.00     0.055 A 
ATOM     77  C   UNL A   1      39.058  30.981  34.934  1.00  0.00     0.041 A 
ATOM     78  F   UNL A   1      41.351  30.993  34.447  1.00  0.00    -0.206 F 
ATOM     79  C   UNL A   1      37.775  31.481  34.723  1.00  0.00     0.022 A 
BRANCH  76  80
ATOM     80  S   UNL A   1      35.944  33.219  33.540  1.00  0.00     0.124 S 
ATOM     81  O   UNL A   1      35.509  33.357  34.928  1.00  0.00    -0.237 OA
ATOM     82  O   UNL A   1      36.254  34.462  32.843  1.00  0.00    -0.237 OA
ATOM     83  O   UNL A   1      35.207  32.233  32.755  1.00  0.00    -0.744 OA
ENDBRANCH  76  80
ENDBRANCH  59  73
BRANCH  60  84
ATOM     84  C   UNL A   1      47.669  35.161  27.385  1.00  0.00     0.023 A 
ATOM     85  C   UNL A   1      48.981  34.783  27.711  1.00  0.00     0.031 A 
ATOM     86  C   UNL A   1      47.477  35.965  26.248  1.00  0.00     0.131 A 
ATOM     87  C   UNL A   1      50.055  35.239  26.931  1.00  0.00     0.055 A 
ATOM     88  C   UNL A   1      48.545  36.381  25.451  1.00  0.00     0.041 A 
ATOM     89  F   UNL A   1      46.242  36.347  25.888  1.00  0.00    -0.206 F 
ATOM     90  C   UNL A   1      49.845  36.025  25.796  1.00  0.00     0.022 A 
BRANCH  87  91
ATOM     91  S   UNL A   1      51.744  34.832  27.454  1.00  0.00     0.124 S 
ATOM     92  O   UNL A   1      52.272  34.172  26.266  1.00  0.00    -0.237 OA
ATOM     93  O   UNL A   1      52.294  36.150  27.755  1.00  0.00    -0.237 OA
ATOM     94  O   UNL A   1      51.542  33.966  28.613  1.00  0.00    -0.744 OA
ENDBRANCH  87  91
ENDBRANCH  60  84
BRANCH  72  95
ATOM     95  C   UNL A   1      44.575  37.935  32.990  1.00  0.00     0.023 A 
ATOM     96  C   UNL A   1      43.849  39.125  32.833  1.00  0.00     0.031 A 
ATOM     97  C   UNL A   1      45.572  37.882  33.980  1.00  0.00     0.131 A 
ATOM     98  C   UNL A   1      44.152  40.232  33.637  1.00  0.00     0.055 A 
ATOM     99  C   UNL A   1      45.836  38.971  34.809  1.00  0.00     0.041 A 
ATOM    100  F   UNL A   1      46.286  36.762  34.169  1.00  0.00    -0.206 F 
ATOM    101  C   UNL A   1      45.129  40.157  34.636  1.00  0.00     0.022 A 
BRANCH  98 102
ATOM    102  S   UNL A   1      43.272  41.789  33.341  1.00  0.00     0.124 S 
ATOM    103  O   UNL A   1      43.626  42.075  31.955  1.00  0.00    -0.237 OA
ATOM    104  O   UNL A   1      41.881  41.417  33.580  1.00  0.00    -0.237 OA
ATOM    105  O   UNL A   1      43.845  42.701  34.329  1.00  0.00    -0.744 OA
ENDBRANCH  98 102
ENDBRANCH  72  95
ENDBRANCH  46  47
ENDBRANCH  38  41
ENDBRANCH  36  37
ENDBRANCH  35  36
ENDBRANCH  34  35
ENDBRANCH   1  34
TORSDOF 21
ENDMDL
MODEL 2
REMARK VINA RESULT:     -10.6      5.802     12.749
REMARK SMILES O=C(CCC(=O)N1N=C(c2ccc(F)cc2)C[C@@H]1c1ccc2nccnc2c1)NCCCCCCNC(=O)c1ccc(-c2c3nc(c(-c4cc(S(=O)(=O)[O-])ccc4F)c4ccc([nH]4)c(-c4cc(S(=O)(=O)[O-])ccc4F)c4nc(c(-c5cc(S(=O)(=O)[O-])ccc5F)c5ccc2[nH]5)C=C4)C=C3)cc1
REMARK SMILES IDX 32 1 31 2 30 3 29 4 1 5 2 6 3 8 4 9 5 10 6 11 7 12 8 13
REMARK SMILES IDX 18 14 9 15 17 16 19 17 20 18 28 19 21 20 27 21 22 22 26 23
REMARK SMILES IDX 23 24 25 25 24 26 10 27 11 28 16 29 12 30 15 31 13 32 14 33
REMARK SMILES IDX 33 34 34 35 35 36 36 37 37 38 38 40 39 41 40 42 101 43 41 44
REMARK SMILES IDX 100 45 42 46 43 47 44 48 94 49 45 50 99 51 93 52 95 53 46 54
REMARK SMILES IDX 98 55 92 56 91 57 47 59 79 60 59 61 78 62 60 63 63 64 77 65
REMARK SMILES IDX 96 66 61 67 62 68 76 70 97 71 64 72 48 73 49 74 57 75 50 76
REMARK SMILES IDX 56 77 58 78 55 79 51 80 52 81 53 82 54 83 80 84 81 85 89 86
REMARK SMILES IDX 82 87 88 88 90 89 87 90 83 91 84 92 85 93 86 94 65 95 66 96
REMARK SMILES IDX 74 97 67 98 73 99 75 100 72 101 68 102 69 103 70 104 71 105
REMARK H PARENT 29 7 36 39 95 58 63 69
REMARK Flexibility Score: inf
ROOT
ATOM      1  C   UNL A   1      38.031  34.431  32.381  1.00  0.00     0.002 C 
ENDROOT
BRANCH   1   2
ATOM      2  C   UNL A   1      38.975  34.222  31.153  1.00  0.00     0.021 C 
BRANCH   2   3
ATOM      3  C   UNL A   1      40.533  34.323  30.979  1.00  0.00     0.116 C 
BRANCH   3   4
ATOM      4  N   UNL A   1      41.307  33.330  30.210  1.00  0.00    -0.356 N 
ATOM      5  O   UNL A   1      42.730  34.849  29.229  1.00  0.00    -0.275 OA
ATOM      6  C   UNL A   1      42.456  33.680  29.487  1.00  0.00     0.220 C 
ATOM      7  H   UNL A   1      41.007  32.392  30.204  1.00  0.00     0.163 HD
BRANCH   6   8
ATOM      8  C   UNL A   1      43.456  32.526  29.171  1.00  0.00     0.110 C 
BRANCH   8   9
ATOM      9  C   UNL A   1      44.141  32.687  27.775  1.00  0.00     0.112 C 
BRANCH   9  10
ATOM     10  C   UNL A   1      45.440  31.962  27.262  1.00  0.00     0.243 C 
ATOM     11  O   UNL A   1      45.894  32.287  26.157  1.00  0.00    -0.273 OA
BRANCH  10  12
ATOM     12  N   UNL A   1      46.170  31.158  28.134  1.00  0.00    -0.225 N 
ATOM     13  N   UNL A   1      46.714  31.744  29.311  1.00  0.00    -0.174 NA
ATOM     14  C   UNL A   1      45.864  29.771  28.369  1.00  0.00     0.147 C 
ATOM     15  C   UNL A   1      46.408  30.920  30.275  1.00  0.00     0.071 C 
ATOM     16  C   UNL A   1      45.517  29.814  29.839  1.00  0.00     0.091 C 
BRANCH  14  17
ATOM     17  C   UNL A   1      46.616  28.752  27.516  1.00  0.00    -0.021 A 
ATOM     18  C   UNL A   1      46.617  27.418  27.952  1.00  0.00     0.008 A 
ATOM     19  C   UNL A   1      47.098  28.945  26.216  1.00  0.00     0.036 A 
ATOM     20  C   UNL A   1      47.094  26.345  27.208  1.00  0.00     0.031 A 
ATOM     21  C   UNL A   1      47.565  27.871  25.417  1.00  0.00     0.089 A 
ATOM     22  C   UNL A   1      47.567  26.552  25.947  1.00  0.00     0.089 A 
ATOM     23  N   UNL A   1      47.983  28.060  24.148  1.00  0.00    -0.253 NA
ATOM     24  N   UNL A   1      47.985  25.471  25.270  1.00  0.00    -0.253 NA
ATOM     25  C   UNL A   1      48.397  26.960  23.467  1.00  0.00     0.132 A 
ATOM     26  C   UNL A   1      48.408  25.695  24.017  1.00  0.00     0.132 A 
ENDBRANCH  14  17
BRANCH  15  27
ATOM     27  C   UNL A   1      46.617  31.064  31.726  1.00  0.00    -0.002 A 
ATOM     28  C   UNL A   1      45.956  32.075  32.434  1.00  0.00     0.013 A 
ATOM     29  C   UNL A   1      47.694  30.385  32.316  1.00  0.00     0.013 A 
ATOM     30  C   UNL A   1      46.355  32.383  33.741  1.00  0.00     0.040 A 
ATOM     31  C   UNL A   1      48.089  30.699  33.622  1.00  0.00     0.040 A 
ATOM     32  C   UNL A   1      47.415  31.693  34.322  1.00  0.00     0.123 A 
ATOM     33  F   UNL A   1      47.808  32.008  35.563  1.00  0.00    -0.207 F 
ENDBRANCH  15  27
ENDBRANCH  10  12
ENDBRANCH   9  10
ENDBRANCH   8   9
ENDBRANCH   6   8
ENDBRANCH   3   4
ENDBRANCH   2   3
ENDBRANCH   1   2
BRANCH   1  34
ATOM     34  C   UNL A   1      36.519  34.152  32.486  1.00  0.00     0.002 C 
BRANCH  34  35
ATOM     35  C   UNL A   1      35.785  34.005  31.157  1.00  0.00     0.021 C 
BRANCH  35  36
ATOM     36  C   UNL A   1      35.002  32.699  31.116  1.00  0.00     0.116 C 
BRANCH  36  37
ATOM     37  N   UNL A   1      34.218  32.549  29.891  1.00  0.00    -0.352 N 
ATOM     38  C   UNL A   1      34.561  31.829  28.756  1.00  0.00     0.251 C 
ATOM     39  H   UNL A   1      33.348  33.011  29.868  1.00  0.00     0.163 HD
ATOM     40  O   UNL A   1      33.889  31.860  27.754  1.00  0.00    -0.269 OA
BRANCH  38  41
ATOM     41  C   UNL A   1      35.822  31.057  28.825  1.00  0.00     0.039 A 
ATOM     42  C   UNL A   1      37.023  31.689  28.503  1.00  0.00     0.014 A 
ATOM     43  C   UNL A   1      35.803  29.783  29.395  1.00  0.00     0.014 A 
ATOM     44  C   UNL A   1      38.225  31.069  28.848  1.00  0.00     0.010 A 
ATOM     45  C   UNL A   1      36.994  29.220  29.827  1.00  0.00     0.010 A 
ATOM     46  C   UNL A   1      38.216  29.859  29.563  1.00  0.00    -0.014 A 
BRANCH  46  47
ATOM     47  C   UNL A   1      39.470  29.223  30.036  1.00  0.00     0.031 A 
ATOM     48  C   UNL A   1      40.138  29.761  31.273  1.00  0.00     0.074 A 
ATOM     49  C   UNL A   1      40.037  28.226  29.325  1.00  0.00     0.049 A 
ATOM     50  N   UNL A   1      41.302  29.455  31.780  1.00  0.00    -0.248 NA
ATOM     51  C   UNL A   1      39.417  30.810  32.013  1.00  0.00     0.031 C 
ATOM     52  C   UNL A   1      39.497  27.648  28.092  1.00  0.00     0.029 A 
ATOM     53  N   UNL A   1      41.194  27.520  29.539  1.00  0.00    -0.354 N 
ATOM     54  C   UNL A   1      41.460  30.286  32.884  1.00  0.00     0.074 A 
ATOM     55  C   UNL A   1      40.303  31.151  32.936  1.00  0.00     0.031 C 
ATOM     56  C   UNL A   1      40.297  26.647  27.686  1.00  0.00     0.029 A 
ATOM     57  C   UNL A   1      41.431  26.543  28.597  1.00  0.00     0.049 A 
ATOM     58  H   UNL A   1      41.799  27.695  30.295  1.00  0.00     0.167 HD
ATOM     59  C   UNL A   1      42.464  30.301  33.789  1.00  0.00     0.034 A 
ATOM     60  C   UNL A   1      42.449  25.667  28.485  1.00  0.00     0.034 A 
ATOM     61  C   UNL A   1      43.584  29.401  33.754  1.00  0.00     0.049 A 
ATOM     62  C   UNL A   1      43.551  25.702  29.513  1.00  0.00     0.074 A 
ATOM     63  C   UNL A   1      44.641  29.310  34.642  1.00  0.00     0.029 A 
ATOM     64  N   UNL A   1      43.780  28.420  32.794  1.00  0.00    -0.354 N 
ATOM     65  N   UNL A   1      43.691  26.508  30.540  1.00  0.00    -0.248 NA
ATOM     66  C   UNL A   1      44.628  24.712  29.372  1.00  0.00     0.031 C 
ATOM     67  C   UNL A   1      45.497  28.300  34.195  1.00  0.00     0.029 A 
ATOM     68  C   UNL A   1      44.943  27.722  33.064  1.00  0.00     0.049 A 
ATOM     69  H   UNL A   1      43.180  28.247  32.032  1.00  0.00     0.167 HD
ATOM     70  C   UNL A   1      44.853  26.100  31.185  1.00  0.00     0.074 A 
ATOM     71  C   UNL A   1      45.376  24.977  30.433  1.00  0.00     0.031 C 
ATOM     72  C   UNL A   1      45.436  26.603  32.302  1.00  0.00     0.034 A 
BRANCH  59  73
ATOM     73  C   UNL A   1      42.390  31.316  34.897  1.00  0.00     0.023 A 
ATOM     74  C   UNL A   1      42.759  32.655  34.685  1.00  0.00     0.031 A 
ATOM     75  C   UNL A   1      41.923  30.947  36.170  1.00  0.00     0.131 A 
ATOM     76  C   UNL A   1      42.688  33.573  35.742  1.00  0.00     0.055 A 
ATOM     77  C   UNL A   1      41.795  31.879  37.201  1.00  0.00     0.041 A 
ATOM     78  F   UNL A   1      41.579  29.676  36.429  1.00  0.00    -0.206 F 
ATOM     79  C   UNL A   1      42.184  33.201  36.991  1.00  0.00     0.022 A 
BRANCH  76  80
ATOM     80  S   UNL A   1      43.318  35.252  35.482  1.00  0.00     0.124 S 
ATOM     81  O   UNL A   1      43.161  35.831  36.814  1.00  0.00    -0.237 OA
ATOM     82  O   UNL A   1      44.690  35.015  35.048  1.00  0.00    -0.237 OA
ATOM     83  O   UNL A   1      42.428  35.797  34.460  1.00  0.00    -0.744 OA
ENDBRANCH  76  80
ENDBRANCH  59  73
BRANCH  60  84
ATOM     84  C   UNL A   1      42.479  24.676  27.371  1.00  0.00     0.023 A 
ATOM     85  C   UNL A   1      41.728  23.492  27.444  1.00  0.00     0.031 A 
ATOM     86  C   UNL A   1      43.272  24.885  26.229  1.00  0.00     0.131 A 
ATOM     87  C   UNL A   1      41.814  22.544  26.412  1.00  0.00     0.055 A 
ATOM     88  C   UNL A   1      43.321  23.959  25.186  1.00  0.00     0.041 A 
ATOM     89  F   UNL A   1      44.002  26.006  26.106  1.00  0.00    -0.206 F 
ATOM     90  C   UNL A   1      42.596  22.775  25.279  1.00  0.00     0.022 A 
BRANCH  87  91
ATOM     91  S   UNL A   1      40.928  20.972  26.599  1.00  0.00     0.124 S 
ATOM     92  O   UNL A   1      41.850  20.035  25.967  1.00  0.00    -0.237 OA
ATOM     93  O   UNL A   1      40.798  20.867  28.048  1.00  0.00    -0.237 OA
ATOM     94  O   UNL A   1      39.676  21.200  25.879  1.00  0.00    -0.744 OA
ENDBRANCH  87  91
ENDBRANCH  60  84
BRANCH  72  95
ATOM     95  C   UNL A   1      46.672  25.914  32.808  1.00  0.00     0.023 A 
ATOM     96  C   UNL A   1      46.600  24.875  33.749  1.00  0.00     0.031 A 
ATOM     97  C   UNL A   1      47.933  26.274  32.302  1.00  0.00     0.131 A 
ATOM     98  C   UNL A   1      47.777  24.248  34.180  1.00  0.00     0.055 A 
ATOM     99  C   UNL A   1      49.096  25.615  32.700  1.00  0.00     0.041 A 
ATOM    100  F   UNL A   1      48.049  27.258  31.396  1.00  0.00    -0.206 F 
ATOM    101  C   UNL A   1      49.022  24.599  33.649  1.00  0.00     0.022 A 
BRANCH  98 102
ATOM    102  S   UNL A   1      47.664  22.983  35.474  1.00  0.00     0.124 S 
ATOM    103  O   UNL A   1      46.924  21.924  34.796  1.00  0.00    -0.237 OA
ATOM    104  O   UNL A   1      49.066  22.698  35.761  1.00  0.00    -0.237 OA
ATOM    105  O   UNL A   1      46.938  23.657  36.549  1.00  0.00    -0.744 OA
ENDBRANCH  98 102
ENDBRANCH  72  95
ENDBRANCH  46  47
ENDBRANCH  38  41
ENDBRANCH  36  37
ENDBRANCH  35  36
ENDBRANCH  34  35
ENDBRANCH   1  34
TORSDOF 21
ENDMDL
MODEL 3
REMARK VINA RESULT:     -10.3      5.862     10.525
REMARK SMILES O=C(CCC(=O)N1N=C(c2ccc(F)cc2)C[C@@H]1c1ccc2nccnc2c1)NCCCCCCNC(=O)c1ccc(-c2c3nc(c(-c4cc(S(=O)(=O)[O-])ccc4F)c4ccc([nH]4)c(-c4cc(S(=O)(=O)[O-])ccc4F)c4nc(c(-c5cc(S(=O)(=O)[O-])ccc5F)c5ccc2[nH]5)C=C4)C=C3)cc1
REMARK SMILES IDX 32 1 31 2 30 3 29 4 1 5 2 6 3 8 4 9 5 10 6 11 7 12 8 13
REMARK SMILES IDX 18 14 9 15 17 16 19 17 20 18 28 19 21 20 27 21 22 22 26 23
REMARK SMILES IDX 23 24 25 25 24 26 10 27 11 28 16 29 12 30 15 31 13 32 14 33
REMARK SMILES IDX 33 34 34 35 35 36 36 37 37 38 38 40 39 41 40 42 101 43 41 44
REMARK SMILES IDX 100 45 42 46 43 47 44 48 94 49 45 50 99 51 93 52 95 53 46 54
REMARK SMILES IDX 98 55 92 56 91 57 47 59 79 60 59 61 78 62 60 63 63 64 77 65
REMARK SMILES IDX 96 66 61 67 62 68 76 70 97 71 64 72 48 73 49 74 57 75 50 76
REMARK SMILES IDX 56 77 58 78 55 79 51 80 52 81 53 82 54 83 80 84 81 85 89 86
REMARK SMILES IDX 82 87 88 88 90 89 87 90 83 91 84 92 85 93 86 94 65 95 66 96
REMARK SMILES IDX 74 97 67 98 73 99 75 100 72 101 68 102 69 103 70 104 71 105
REMARK H PARENT 29 7 36 39 95 58 63 69
REMARK Flexibility Score: inf
ROOT
ATOM      1  C   UNL A   1      44.262  26.244  30.676  1.00  0.00     0.002 C 
ENDROOT
BRANCH   1   2
ATOM      2  C   UNL A   1      43.960  24.932  29.882  1.00  0.00     0.021 C 
BRANCH   2   3
ATOM      3  C   UNL A   1      44.817  24.070  28.887  1.00  0.00     0.116 C 
BRANCH   3   4
ATOM      4  N   UNL A   1      44.799  24.299  27.429  1.00  0.00    -0.356 N 
ATOM      5  O   UNL A   1      43.061  22.856  26.987  1.00  0.00    -0.275 OA
ATOM      6  C   UNL A   1      43.804  23.755  26.604  1.00  0.00     0.220 C 
ATOM      7  H   UNL A   1      45.508  24.848  27.023  1.00  0.00     0.163 HD
BRANCH   6   8
ATOM      8  C   UNL A   1      43.576  24.463  25.234  1.00  0.00     0.110 C 
BRANCH   8   9
ATOM      9  C   UNL A   1      42.882  25.857  25.383  1.00  0.00     0.112 C 
BRANCH   9  10
ATOM     10  C   UNL A   1      43.580  27.251  25.590  1.00  0.00     0.243 C 
ATOM     11  O   UNL A   1      44.617  27.487  24.955  1.00  0.00    -0.273 OA
BRANCH  10  12
ATOM     12  N   UNL A   1      42.914  28.258  26.284  1.00  0.00    -0.225 N 
ATOM     13  N   UNL A   1      41.498  28.186  26.401  1.00  0.00    -0.174 NA
ATOM     14  C   UNL A   1      43.472  28.926  27.431  1.00  0.00     0.147 C 
ATOM     15  C   UNL A   1      41.247  28.425  27.658  1.00  0.00     0.071 C 
ATOM     16  C   UNL A   1      42.473  28.522  28.492  1.00  0.00     0.091 C 
BRANCH  14  17
ATOM     17  C   UNL A   1      44.225  30.227  27.165  1.00  0.00    -0.021 A 
ATOM     18  C   UNL A   1      45.586  30.131  26.834  1.00  0.00     0.008 A 
ATOM     19  C   UNL A   1      43.661  31.492  26.969  1.00  0.00     0.036 A 
ATOM     20  C   UNL A   1      46.366  31.192  26.389  1.00  0.00     0.031 A 
ATOM     21  C   UNL A   1      44.418  32.590  26.489  1.00  0.00     0.089 A 
ATOM     22  C   UNL A   1      45.802  32.420  26.212  1.00  0.00     0.089 A 
ATOM     23  N   UNL A   1      43.855  33.794  26.258  1.00  0.00    -0.253 NA
ATOM     24  N   UNL A   1      46.602  33.395  25.752  1.00  0.00    -0.253 NA
ATOM     25  C   UNL A   1      44.670  34.774  25.785  1.00  0.00     0.132 A 
ATOM     26  C   UNL A   1      46.014  34.583  25.546  1.00  0.00     0.132 A 
ENDBRANCH  14  17
BRANCH  15  27
ATOM     27  C   UNL A   1      39.964  28.372  28.380  1.00  0.00    -0.002 A 
ATOM     28  C   UNL A   1      39.002  29.368  28.175  1.00  0.00     0.013 A 
ATOM     29  C   UNL A   1      39.849  27.501  29.475  1.00  0.00     0.013 A 
ATOM     30  C   UNL A   1      37.911  29.470  29.049  1.00  0.00     0.040 A 
ATOM     31  C   UNL A   1      38.758  27.609  30.344  1.00  0.00     0.040 A 
ATOM     32  C   UNL A   1      37.799  28.591  30.123  1.00  0.00     0.123 A 
ATOM     33  F   UNL A   1      36.768  28.709  30.969  1.00  0.00    -0.207 F 
ENDBRANCH  15  27
ENDBRANCH  10  12
ENDBRANCH   9  10
ENDBRANCH   8   9
ENDBRANCH   6   8
ENDBRANCH   3   4
ENDBRANCH   2   3
ENDBRANCH   1   2
BRANCH   1  34
ATOM     34  C   UNL A   1      43.788  26.640  32.089  1.00  0.00     0.002 C 
BRANCH  34  35
ATOM     35  C   UNL A   1      42.525  27.492  32.143  1.00  0.00     0.021 C 
BRANCH  35  36
ATOM     36  C   UNL A   1      42.104  27.740  33.585  1.00  0.00     0.116 C 
BRANCH  36  37
ATOM     37  N   UNL A   1      40.678  28.038  33.714  1.00  0.00    -0.352 N 
ATOM     38  C   UNL A   1      40.034  29.221  33.385  1.00  0.00     0.251 C 
ATOM     39  H   UNL A   1      40.111  27.319  34.076  1.00  0.00     0.163 HD
ATOM     40  O   UNL A   1      38.867  29.403  33.635  1.00  0.00    -0.269 OA
BRANCH  38  41
ATOM     41  C   UNL A   1      40.867  30.269  32.754  1.00  0.00     0.039 A 
ATOM     42  C   UNL A   1      41.861  30.892  33.507  1.00  0.00     0.014 A 
ATOM     43  C   UNL A   1      40.771  30.468  31.375  1.00  0.00     0.014 A 
ATOM     44  C   UNL A   1      42.831  31.650  32.850  1.00  0.00     0.010 A 
ATOM     45  C   UNL A   1      41.792  31.136  30.717  1.00  0.00     0.010 A 
ATOM     46  C   UNL A   1      42.835  31.730  31.447  1.00  0.00    -0.014 A 
BRANCH  46  47
ATOM     47  C   UNL A   1      43.907  32.440  30.708  1.00  0.00     0.031 A 
ATOM     48  C   UNL A   1      45.184  31.708  30.393  1.00  0.00     0.074 A 
ATOM     49  C   UNL A   1      43.764  33.743  30.389  1.00  0.00     0.049 A 
ATOM     50  N   UNL A   1      46.297  32.170  29.889  1.00  0.00    -0.248 NA
ATOM     51  C   UNL A   1      45.226  30.274  30.729  1.00  0.00     0.031 C 
ATOM     52  C   UNL A   1      42.585  34.564  30.676  1.00  0.00     0.029 A 
ATOM     53  N   UNL A   1      44.618  34.608  29.752  1.00  0.00    -0.354 N 
ATOM     54  C   UNL A   1      47.174  31.091  29.865  1.00  0.00     0.074 A 
ATOM     55  C   UNL A   1      46.487  29.969  30.463  1.00  0.00     0.031 C 
ATOM     56  C   UNL A   1      42.772  35.796  30.175  1.00  0.00     0.029 A 
ATOM     57  C   UNL A   1      44.101  35.873  29.578  1.00  0.00     0.049 A 
ATOM     58  H   UNL A   1      45.518  34.348  29.447  1.00  0.00     0.167 HD
ATOM     59  C   UNL A   1      48.427  31.036  29.360  1.00  0.00     0.034 A 
ATOM     60  C   UNL A   1      44.641  36.965  29.002  1.00  0.00     0.034 A 
ATOM     61  C   UNL A   1      49.080  32.147  28.722  1.00  0.00     0.049 A 
ATOM     62  C   UNL A   1      46.037  36.873  28.440  1.00  0.00     0.074 A 
ATOM     63  C   UNL A   1      50.337  32.189  28.146  1.00  0.00     0.029 A 
ATOM     64  N   UNL A   1      48.518  33.404  28.555  1.00  0.00    -0.354 N 
ATOM     65  N   UNL A   1      46.857  35.847  28.444  1.00  0.00    -0.248 NA
ATOM     66  C   UNL A   1      46.579  38.077  27.797  1.00  0.00     0.031 C 
ATOM     67  C   UNL A   1      50.551  33.484  27.666  1.00  0.00     0.029 A 
ATOM     68  C   UNL A   1      49.405  34.231  27.889  1.00  0.00     0.049 A 
ATOM     69  H   UNL A   1      47.622  33.668  28.864  1.00  0.00     0.167 HD
ATOM     70  C   UNL A   1      47.999  36.274  27.774  1.00  0.00     0.074 A 
ATOM     71  C   UNL A   1      47.762  37.649  27.380  1.00  0.00     0.031 C 
ATOM     72  C   UNL A   1      49.140  35.593  27.503  1.00  0.00     0.034 A 
BRANCH  59  73
ATOM     73  C   UNL A   1      49.167  29.731  29.468  1.00  0.00     0.023 A 
ATOM     74  C   UNL A   1      49.104  28.771  28.444  1.00  0.00     0.031 A 
ATOM     75  C   UNL A   1      49.962  29.455  30.593  1.00  0.00     0.131 A 
ATOM     76  C   UNL A   1      49.798  27.561  28.581  1.00  0.00     0.055 A 
ATOM     77  C   UNL A   1      50.700  28.275  30.695  1.00  0.00     0.041 A 
ATOM     78  F   UNL A   1      50.037  30.330  31.607  1.00  0.00    -0.206 F 
ATOM     79  C   UNL A   1      50.617  27.317  29.688  1.00  0.00     0.022 A 
BRANCH  76  80
ATOM     80  S   UNL A   1      49.573  26.280  27.319  1.00  0.00     0.124 S 
ATOM     81  O   UNL A   1      49.526  25.070  28.138  1.00  0.00    -0.237 OA
ATOM     82  O   UNL A   1      48.318  26.670  26.687  1.00  0.00    -0.237 OA
ATOM     83  O   UNL A   1      50.761  26.414  26.479  1.00  0.00    -0.744 OA
ENDBRANCH  76  80
ENDBRANCH  59  73
BRANCH  60  84
ATOM     84  C   UNL A   1      43.868  38.237  28.915  1.00  0.00     0.023 A 
ATOM     85  C   UNL A   1      43.837  39.135  29.994  1.00  0.00     0.031 A 
ATOM     86  C   UNL A   1      43.131  38.565  27.763  1.00  0.00     0.131 A 
ATOM     87  C   UNL A   1      43.057  40.298  29.915  1.00  0.00     0.055 A 
ATOM     88  C   UNL A   1      42.390  39.744  27.673  1.00  0.00     0.041 A 
ATOM     89  F   UNL A   1      43.134  37.745  26.700  1.00  0.00    -0.206 F 
ATOM     90  C   UNL A   1      42.342  40.615  28.758  1.00  0.00     0.022 A 
BRANCH  87  91
ATOM     91  S   UNL A   1      42.943  41.370  31.374  1.00  0.00     0.124 S 
ATOM     92  O   UNL A   1      41.856  42.267  30.999  1.00  0.00    -0.237 OA
ATOM     93  O   UNL A   1      42.649  40.412  32.434  1.00  0.00    -0.237 OA
ATOM     94  O   UNL A   1      44.266  41.988  31.446  1.00  0.00    -0.744 OA
ENDBRANCH  87  91
ENDBRANCH  60  84
BRANCH  72  95
ATOM     95  C   UNL A   1      50.195  36.302  26.701  1.00  0.00     0.023 A 
ATOM     96  C   UNL A   1      51.222  37.030  27.321  1.00  0.00     0.031 A 
ATOM     97  C   UNL A   1      50.194  36.203  25.299  1.00  0.00     0.131 A 
ATOM     98  C   UNL A   1      52.196  37.661  26.534  1.00  0.00     0.055 A 
ATOM     99  C   UNL A   1      51.192  36.793  24.524  1.00  0.00     0.041 A 
ATOM    100  F   UNL A   1      49.234  35.512  24.664  1.00  0.00    -0.206 F 
ATOM    101  C   UNL A   1      52.197  37.532  25.141  1.00  0.00     0.022 A 
BRANCH  98 102
ATOM    102  S   UNL A   1      53.449  38.682  27.355  1.00  0.00     0.124 S 
ATOM    103  O   UNL A   1      54.486  38.765  26.333  1.00  0.00    -0.237 OA
ATOM    104  O   UNL A   1      52.721  39.917  27.628  1.00  0.00    -0.237 OA
ATOM    105  O   UNL A   1      53.805  37.902  28.539  1.00  0.00    -0.744 OA
ENDBRANCH  98 102
ENDBRANCH  72  95
ENDBRANCH  46  47
ENDBRANCH  38  41
ENDBRANCH  36  37
ENDBRANCH  35  36
ENDBRANCH  34  35
ENDBRANCH   1  34
TORSDOF 21
ENDMDL
