MODEL 1
REMARK VINA RESULT:     -11.7      0.000      0.000
REMARK SMILES COc1cccc([C@@H]2CN(C(=O)c3cnn(C)c3)C[C@H]2C(=O)NCCCCCCNC(=O)c2ccc(-c3c4nc(c(-c5cc(S(=O)(=O)[O-])ccc5F)c5ccc([nH]5)c(-c5cc(S(=O)(=O)[O-])ccc5F)c5nc(c(-c6cc(S(=O)(=O)[O-])ccc6F)c6ccc3[nH]6)C=C5)C=C4)cc2)c1OC
REMARK SMILES IDX 27 1 26 2 25 3 24 4 23 5 21 6 22 7 20 9 8 10 9 11 10 12
REMARK SMILES IDX 19 13 7 14 3 15 4 16 96 17 5 18 6 19 2 20 1 21 97 22 98 23
REMARK SMILES IDX 11 24 12 25 13 26 14 27 18 28 15 29 16 30 17 31 28 32 29 33
REMARK SMILES IDX 30 34 31 35 32 37 33 38 34 39 95 40 35 41 94 42 36 43 37 44
REMARK SMILES IDX 38 45 88 46 39 47 93 48 87 49 89 50 40 51 92 52 86 53 85 54
REMARK SMILES IDX 41 56 73 57 53 58 72 59 54 60 57 61 71 62 90 63 55 64 56 65
REMARK SMILES IDX 70 67 91 68 58 69 42 70 43 71 51 72 44 73 50 74 52 75 49 76
REMARK SMILES IDX 45 77 46 78 47 79 48 80 74 81 75 82 83 83 76 84 82 85 84 86
REMARK SMILES IDX 81 87 77 88 78 89 79 90 80 91 59 92 60 93 68 94 61 95 67 96
REMARK SMILES IDX 69 97 66 98 62 99 63 100 64 101 65 102
REMARK H PARENT 23 8 30 36 89 55 57 66
REMARK Flexibility Score: inf
ROOT
ATOM      1  C   UNL A   1      35.551  32.785  28.006  1.00  0.00     0.002 C 
ENDROOT
BRANCH   1   2
ATOM      2  C   UNL A   1      34.705  31.508  27.995  1.00  0.00     0.002 C 
BRANCH   2   3
ATOM      3  C   UNL A   1      35.458  30.218  27.653  1.00  0.00     0.021 C 
BRANCH   3   4
ATOM      4  C   UNL A   1      34.612  29.147  26.969  1.00  0.00     0.116 C 
BRANCH   4   5
ATOM      5  N   UNL A   1      33.332  28.967  27.631  1.00  0.00    -0.356 N 
ATOM      6  C   UNL A   1      32.207  28.308  27.249  1.00  0.00     0.225 C 
ATOM      7  O   UNL A   1      31.261  28.304  28.043  1.00  0.00    -0.275 OA
ATOM      8  H   UNL A   1      33.269  29.398  28.513  1.00  0.00     0.163 HD
BRANCH   6   9
ATOM      9  C   UNL A   1      32.077  27.596  25.912  1.00  0.00     0.107 C 
ATOM     10  C   UNL A   1      31.665  26.116  26.031  1.00  0.00     0.057 C 
ATOM     11  C   UNL A   1      30.678  25.888  24.883  1.00  0.00     0.129 C 
ATOM     12  N   UNL A   1      30.135  27.202  24.580  1.00  0.00    -0.337 N 
ATOM     13  C   UNL A   1      31.050  28.251  24.993  1.00  0.00     0.134 C 
BRANCH  10  14
ATOM     14  C   UNL A   1      32.804  25.113  26.069  1.00  0.00     0.004 A 
ATOM     15  C   UNL A   1      33.819  23.003  26.739  1.00  0.00     0.161 A 
ATOM     16  C   UNL A   1      35.013  23.377  26.112  1.00  0.00     0.050 A 
ATOM     17  C   UNL A   1      32.713  23.871  26.733  1.00  0.00     0.164 A 
ATOM     18  C   UNL A   1      35.102  24.592  25.442  1.00  0.00     0.004 A 
ATOM     19  C   UNL A   1      34.005  25.450  25.415  1.00  0.00     0.008 A 
BRANCH  15  20
ATOM     20  O   UNL A   1      33.769  21.826  27.440  1.00  0.00    -0.493 OA
ATOM     21  C   UNL A   1      33.803  20.691  26.575  1.00  0.00     0.278 C 
ENDBRANCH  15  20
BRANCH  17  22
ATOM     22  O   UNL A   1      31.533  23.636  27.393  1.00  0.00    -0.493 OA
ATOM     23  C   UNL A   1      30.619  22.744  26.769  1.00  0.00     0.278 C 
ENDBRANCH  17  22
ENDBRANCH  10  14
BRANCH  12  24
ATOM     24  C   UNL A   1      29.074  27.503  23.739  1.00  0.00     0.257 C 
ATOM     25  O   UNL A   1      28.076  26.788  23.691  1.00  0.00    -0.269 OA
BRANCH  24  26
ATOM     26  C   UNL A   1      29.152  28.719  22.950  1.00  0.00     0.077 A 
ATOM     27  C   UNL A   1      30.101  29.012  21.946  1.00  0.00     0.149 A 
ATOM     28  C   UNL A   1      28.399  29.874  23.036  1.00  0.00     0.122 A 
ATOM     29  N   UNL A   1      29.897  30.201  21.371  1.00  0.00    -0.181 NA
ATOM     30  N   UNL A   1      28.859  30.708  22.057  1.00  0.00    -0.275 N 
ATOM     31  C   UNL A   1      28.331  32.002  21.702  1.00  0.00     0.173 C 
ENDBRANCH  24  26
ENDBRANCH  12  24
ENDBRANCH   6   9
ENDBRANCH   4   5
ENDBRANCH   3   4
ENDBRANCH   2   3
ENDBRANCH   1   2
BRANCH   1  32
ATOM     32  C   UNL A   1      34.773  34.099  28.127  1.00  0.00     0.021 C 
BRANCH  32  33
ATOM     33  C   UNL A   1      33.313  33.962  28.549  1.00  0.00     0.116 C 
BRANCH  33  34
ATOM     34  N   UNL A   1      32.957  34.884  29.611  1.00  0.00    -0.352 N 
ATOM     35  C   UNL A   1      33.461  34.986  30.883  1.00  0.00     0.251 C 
ATOM     36  H   UNL A   1      32.251  35.533  29.385  1.00  0.00     0.163 HD
ATOM     37  O   UNL A   1      32.907  35.727  31.690  1.00  0.00    -0.269 OA
BRANCH  35  38
ATOM     38  C   UNL A   1      34.647  34.195  31.290  1.00  0.00     0.039 A 
ATOM     39  C   UNL A   1      35.913  34.774  31.159  1.00  0.00     0.014 A 
ATOM     40  C   UNL A   1      34.527  32.880  31.752  1.00  0.00     0.014 A 
ATOM     41  C   UNL A   1      37.052  34.051  31.522  1.00  0.00     0.010 A 
ATOM     42  C   UNL A   1      35.660  32.179  32.166  1.00  0.00     0.010 A 
ATOM     43  C   UNL A   1      36.935  32.753  32.042  1.00  0.00    -0.014 A 
BRANCH  43  44
ATOM     44  C   UNL A   1      38.142  31.970  32.415  1.00  0.00     0.031 A 
ATOM     45  C   UNL A   1      38.865  32.270  33.700  1.00  0.00     0.074 A 
ATOM     46  C   UNL A   1      38.608  31.020  31.581  1.00  0.00     0.049 A 
ATOM     47  N   UNL A   1      39.958  31.735  34.182  1.00  0.00    -0.248 NA
ATOM     48  C   UNL A   1      38.299  33.338  34.536  1.00  0.00     0.031 C 
ATOM     49  C   UNL A   1      38.021  30.668  30.288  1.00  0.00     0.029 A 
ATOM     50  N   UNL A   1      39.688  30.183  31.695  1.00  0.00    -0.354 N 
ATOM     51  C   UNL A   1      40.219  32.410  35.370  1.00  0.00     0.074 A 
ATOM     52  C   UNL A   1      39.201  33.431  35.501  1.00  0.00     0.031 C 
ATOM     53  C   UNL A   1      38.738  29.676  29.735  1.00  0.00     0.029 A 
ATOM     54  C   UNL A   1      39.849  29.340  30.620  1.00  0.00     0.049 A 
ATOM     55  H   UNL A   1      40.292  30.185  32.472  1.00  0.00     0.167 HD
ATOM     56  C   UNL A   1      41.204  32.186  36.277  1.00  0.00     0.034 A 
ATOM     57  C   UNL A   1      40.787  28.402  30.377  1.00  0.00     0.034 A 
ATOM     58  C   UNL A   1      42.200  31.151  36.142  1.00  0.00     0.049 A 
ATOM     59  C   UNL A   1      41.854  28.152  31.409  1.00  0.00     0.074 A 
ATOM     60  C   UNL A   1      43.213  30.805  37.021  1.00  0.00     0.029 A 
ATOM     61  N   UNL A   1      42.309  30.292  35.056  1.00  0.00    -0.354 N 
ATOM     62  N   UNL A   1      42.063  28.770  32.549  1.00  0.00    -0.248 NA
ATOM     63  C   UNL A   1      42.801  27.065  31.129  1.00  0.00     0.031 C 
ATOM     64  C   UNL A   1      43.961  29.771  36.445  1.00  0.00     0.029 A 
ATOM     65  C   UNL A   1      43.380  29.429  35.235  1.00  0.00     0.049 A 
ATOM     66  H   UNL A   1      41.712  30.294  34.274  1.00  0.00     0.167 HD
ATOM     67  C   UNL A   1      43.149  28.126  33.134  1.00  0.00     0.074 A 
ATOM     68  C   UNL A   1      43.542  27.067  32.228  1.00  0.00     0.031 C 
ATOM     69  C   UNL A   1      43.764  28.384  34.316  1.00  0.00     0.034 A 
BRANCH  56  70
ATOM     70  C   UNL A   1      41.256  33.104  37.476  1.00  0.00     0.023 A 
ATOM     71  C   UNL A   1      40.621  32.772  38.685  1.00  0.00     0.031 A 
ATOM     72  C   UNL A   1      41.909  34.347  37.394  1.00  0.00     0.131 A 
ATOM     73  C   UNL A   1      40.576  33.707  39.732  1.00  0.00     0.055 A 
ATOM     74  C   UNL A   1      41.932  35.238  38.469  1.00  0.00     0.041 A 
ATOM     75  F   UNL A   1      42.516  34.728  36.259  1.00  0.00    -0.206 F 
ATOM     76  C   UNL A   1      41.248  34.927  39.641  1.00  0.00     0.022 A 
BRANCH  73  77
ATOM     77  S   UNL A   1      39.497  33.365  41.149  1.00  0.00     0.124 S 
ATOM     78  O   UNL A   1      40.444  33.425  42.260  1.00  0.00    -0.237 OA
ATOM     79  O   UNL A   1      38.526  34.450  41.076  1.00  0.00    -0.237 OA
ATOM     80  O   UNL A   1      38.968  32.033  40.863  1.00  0.00    -0.744 OA
ENDBRANCH  73  77
ENDBRANCH  56  70
BRANCH  57  81
ATOM     81  C   UNL A   1      40.757  27.623  29.109  1.00  0.00     0.023 A 
ATOM     82  C   UNL A   1      41.663  27.897  28.073  1.00  0.00     0.031 A 
ATOM     83  C   UNL A   1      39.800  26.615  28.905  1.00  0.00     0.131 A 
ATOM     84  C   UNL A   1      41.567  27.199  26.860  1.00  0.00     0.055 A 
ATOM     85  C   UNL A   1      39.736  25.894  27.712  1.00  0.00     0.041 A 
ATOM     86  F   UNL A   1      38.920  26.310  29.871  1.00  0.00    -0.206 F 
ATOM     87  C   UNL A   1      40.615  26.192  26.675  1.00  0.00     0.022 A 
BRANCH  84  88
ATOM     88  S   UNL A   1      42.668  27.670  25.498  1.00  0.00     0.124 S 
ATOM     89  O   UNL A   1      42.000  28.854  24.971  1.00  0.00    -0.237 OA
ATOM     90  O   UNL A   1      43.930  27.903  26.196  1.00  0.00    -0.237 OA
ATOM     91  O   UNL A   1      42.650  26.500  24.623  1.00  0.00    -0.744 OA
ENDBRANCH  84  88
ENDBRANCH  57  81
BRANCH  69  92
ATOM     92  C   UNL A   1      44.896  27.468  34.706  1.00  0.00     0.023 A 
ATOM     93  C   UNL A   1      44.663  26.232  35.333  1.00  0.00     0.031 A 
ATOM     94  C   UNL A   1      46.227  27.853  34.469  1.00  0.00     0.131 A 
ATOM     95  C   UNL A   1      45.748  25.448  35.753  1.00  0.00     0.055 A 
ATOM     96  C   UNL A   1      47.302  27.045  34.842  1.00  0.00     0.041 A 
ATOM     97  F   UNL A   1      46.504  29.024  33.873  1.00  0.00    -0.206 F 
ATOM     98  C   UNL A   1      47.065  25.840  35.500  1.00  0.00     0.022 A 
BRANCH  95  99
ATOM     99  S   UNL A   1      45.416  23.945  36.712  1.00  0.00     0.124 S 
ATOM    100  O   UNL A   1      44.967  24.491  37.989  1.00  0.00    -0.237 OA
ATOM    101  O   UNL A   1      44.395  23.281  35.908  1.00  0.00    -0.237 OA
ATOM    102  O   UNL A   1      46.712  23.268  36.749  1.00  0.00    -0.744 OA
ENDBRANCH  95  99
ENDBRANCH  69  92
ENDBRANCH  43  44
ENDBRANCH  35  38
ENDBRANCH  33  34
ENDBRANCH  32  33
ENDBRANCH   1  32
TORSDOF 21
ENDMDL
MODEL 2
REMARK VINA RESULT:     -11.1      5.389     10.143
REMARK SMILES COc1cccc([C@@H]2CN(C(=O)c3cnn(C)c3)C[C@H]2C(=O)NCCCCCCNC(=O)c2ccc(-c3c4nc(c(-c5cc(S(=O)(=O)[O-])ccc5F)c5ccc([nH]5)c(-c5cc(S(=O)(=O)[O-])ccc5F)c5nc(c(-c6cc(S(=O)(=O)[O-])ccc6F)c6ccc3[nH]6)C=C5)C=C4)cc2)c1OC
REMARK SMILES IDX 27 1 26 2 25 3 24 4 23 5 21 6 22 7 20 9 8 10 9 11 10 12
REMARK SMILES IDX 19 13 7 14 3 15 4 16 96 17 5 18 6 19 2 20 1 21 97 22 98 23
REMARK SMILES IDX 11 24 12 25 13 26 14 27 18 28 15 29 16 30 17 31 28 32 29 33
REMARK SMILES IDX 30 34 31 35 32 37 33 38 34 39 95 40 35 41 94 42 36 43 37 44
REMARK SMILES IDX 38 45 88 46 39 47 93 48 87 49 89 50 40 51 92 52 86 53 85 54
REMARK SMILES IDX 41 56 73 57 53 58 72 59 54 60 57 61 71 62 90 63 55 64 56 65
REMARK SMILES IDX 70 67 91 68 58 69 42 70 43 71 51 72 44 73 50 74 52 75 49 76
REMARK SMILES IDX 45 77 46 78 47 79 48 80 74 81 75 82 83 83 76 84 82 85 84 86
REMARK SMILES IDX 81 87 77 88 78 89 79 90 80 91 59 92 60 93 68 94 61 95 67 96
REMARK SMILES IDX 69 97 66 98 62 99 63 100 64 101 65 102
REMARK H PARENT 23 8 30 36 89 55 57 66
REMARK Flexibility Score: inf
ROOT
ATOM      1  C   UNL A   1      35.076  21.843  26.464  1.00  0.00     0.002 C 
ENDROOT
BRANCH   1   2
ATOM      2  C   UNL A   1      34.024  21.648  27.560  1.00  0.00     0.002 C 
BRANCH   2   3
ATOM      3  C   UNL A   1      32.979  22.761  27.681  1.00  0.00     0.021 C 
BRANCH   3   4
ATOM      4  C   UNL A   1      31.868  22.711  26.634  1.00  0.00     0.116 C 
BRANCH   4   5
ATOM      5  N   UNL A   1      30.784  23.624  26.954  1.00  0.00    -0.356 N 
ATOM      6  C   UNL A   1      30.187  24.603  26.225  1.00  0.00     0.225 C 
ATOM      7  O   UNL A   1      29.257  25.214  26.760  1.00  0.00    -0.275 OA
ATOM      8  H   UNL A   1      30.417  23.513  27.861  1.00  0.00     0.163 HD
BRANCH   6   9
ATOM      9  C   UNL A   1      30.616  24.962  24.812  1.00  0.00     0.107 C 
ATOM     10  C   UNL A   1      31.793  25.954  24.750  1.00  0.00     0.057 C 
ATOM     11  C   UNL A   1      32.669  25.456  23.598  1.00  0.00     0.129 C 
ATOM     12  N   UNL A   1      32.363  24.041  23.471  1.00  0.00    -0.337 N 
ATOM     13  C   UNL A   1      31.043  23.743  23.998  1.00  0.00     0.134 C 
BRANCH  10  14
ATOM     14  C   UNL A   1      31.416  27.421  24.644  1.00  0.00     0.004 A 
ATOM     15  C   UNL A   1      31.475  29.738  25.391  1.00  0.00     0.161 A 
ATOM     16  C   UNL A   1      30.590  30.093  24.368  1.00  0.00     0.050 A 
ATOM     17  C   UNL A   1      31.885  28.402  25.544  1.00  0.00     0.164 A 
ATOM     18  C   UNL A   1      30.139  29.133  23.468  1.00  0.00     0.004 A 
ATOM     19  C   UNL A   1      30.554  27.810  23.601  1.00  0.00     0.008 A 
BRANCH  15  20
ATOM     20  O   UNL A   1      31.866  30.688  26.301  1.00  0.00    -0.493 OA
ATOM     21  C   UNL A   1      31.062  31.865  26.216  1.00  0.00     0.278 C 
ENDBRANCH  15  20
BRANCH  17  22
ATOM     22  O   UNL A   1      32.676  27.941  26.566  1.00  0.00    -0.493 OA
ATOM     23  C   UNL A   1      34.079  28.119  26.418  1.00  0.00     0.278 C 
ENDBRANCH  17  22
ENDBRANCH  10  14
BRANCH  12  24
ATOM     24  C   UNL A   1      33.022  23.102  22.690  1.00  0.00     0.257 C 
ATOM     25  O   UNL A   1      33.857  23.440  21.855  1.00  0.00    -0.269 OA
BRANCH  24  26
ATOM     26  C   UNL A   1      32.735  21.698  22.924  1.00  0.00     0.077 A 
ATOM     27  C   UNL A   1      31.966  20.847  22.100  1.00  0.00     0.149 A 
ATOM     28  C   UNL A   1      33.063  20.900  24.004  1.00  0.00     0.122 A 
ATOM     29  N   UNL A   1      31.907  19.593  22.561  1.00  0.00    -0.181 NA
ATOM     30  N   UNL A   1      32.577  19.655  23.725  1.00  0.00    -0.275 N 
ATOM     31  C   UNL A   1      32.742  18.461  24.518  1.00  0.00     0.173 C 
ENDBRANCH  24  26
ENDBRANCH  12  24
ENDBRANCH   6   9
ENDBRANCH   4   5
ENDBRANCH   3   4
ENDBRANCH   2   3
ENDBRANCH   1   2
BRANCH   1  32
ATOM     32  C   UNL A   1      35.404  23.297  26.108  1.00  0.00     0.021 C 
BRANCH  32  33
ATOM     33  C   UNL A   1      36.739  23.515  25.401  1.00  0.00     0.116 C 
BRANCH  33  34
ATOM     34  N   UNL A   1      37.727  22.518  25.769  1.00  0.00    -0.352 N 
ATOM     35  C   UNL A   1      38.956  22.684  26.356  1.00  0.00     0.251 C 
ATOM     36  H   UNL A   1      37.478  21.586  25.570  1.00  0.00     0.163 HD
ATOM     37  O   UNL A   1      39.718  21.724  26.433  1.00  0.00    -0.269 OA
BRANCH  35  38
ATOM     38  C   UNL A   1      39.373  24.009  26.871  1.00  0.00     0.039 A 
ATOM     39  C   UNL A   1      40.005  24.898  25.995  1.00  0.00     0.014 A 
ATOM     40  C   UNL A   1      39.192  24.364  28.212  1.00  0.00     0.014 A 
ATOM     41  C   UNL A   1      40.422  26.150  26.452  1.00  0.00     0.010 A 
ATOM     42  C   UNL A   1      39.558  25.636  28.653  1.00  0.00     0.010 A 
ATOM     43  C   UNL A   1      40.190  26.537  27.781  1.00  0.00    -0.014 A 
BRANCH  43  44
ATOM     44  C   UNL A   1      40.645  27.860  28.280  1.00  0.00     0.031 A 
ATOM     45  C   UNL A   1      42.112  28.197  28.288  1.00  0.00     0.074 A 
ATOM     46  C   UNL A   1      39.746  28.740  28.763  1.00  0.00     0.049 A 
ATOM     47  N   UNL A   1      42.713  29.274  28.724  1.00  0.00    -0.248 NA
ATOM     48  C   UNL A   1      43.022  27.169  27.765  1.00  0.00     0.031 C 
ATOM     49  C   UNL A   1      38.303  28.511  28.850  1.00  0.00     0.029 A 
ATOM     50  N   UNL A   1      39.915  29.999  29.279  1.00  0.00    -0.354 N 
ATOM     51  C   UNL A   1      44.075  29.048  28.542  1.00  0.00     0.074 A 
ATOM     52  C   UNL A   1      44.206  27.708  28.011  1.00  0.00     0.031 C 
ATOM     53  C   UNL A   1      37.716  29.602  29.371  1.00  0.00     0.029 A 
ATOM     54  C   UNL A   1      38.741  30.594  29.680  1.00  0.00     0.049 A 
ATOM     55  H   UNL A   1      40.793  30.436  29.355  1.00  0.00     0.167 HD
ATOM     56  C   UNL A   1      45.115  29.888  28.777  1.00  0.00     0.034 A 
ATOM     57  C   UNL A   1      38.518  31.802  30.233  1.00  0.00     0.034 A 
ATOM     58  C   UNL A   1      44.966  31.228  29.288  1.00  0.00     0.049 A 
ATOM     59  C   UNL A   1      39.684  32.728  30.460  1.00  0.00     0.074 A 
ATOM     60  C   UNL A   1      45.944  32.181  29.520  1.00  0.00     0.029 A 
ATOM     61  N   UNL A   1      43.756  31.810  29.649  1.00  0.00    -0.354 N 
ATOM     62  N   UNL A   1      40.961  32.516  30.242  1.00  0.00    -0.248 NA
ATOM     63  C   UNL A   1      39.375  34.062  30.991  1.00  0.00     0.031 C 
ATOM     64  C   UNL A   1      45.333  33.317  30.063  1.00  0.00     0.029 A 
ATOM     65  C   UNL A   1      43.966  33.099  30.116  1.00  0.00     0.049 A 
ATOM     66  H   UNL A   1      42.879  31.371  29.582  1.00  0.00     0.167 HD
ATOM     67  C   UNL A   1      41.604  33.703  30.583  1.00  0.00     0.074 A 
ATOM     68  C   UNL A   1      40.573  34.627  31.009  1.00  0.00     0.031 C 
ATOM     69  C   UNL A   1      42.927  34.004  30.545  1.00  0.00     0.034 A 
BRANCH  56  70
ATOM     70  C   UNL A   1      46.502  29.356  28.505  1.00  0.00     0.023 A 
ATOM     71  C   UNL A   1      46.950  29.102  27.197  1.00  0.00     0.031 A 
ATOM     72  C   UNL A   1      47.372  29.054  29.568  1.00  0.00     0.131 A 
ATOM     73  C   UNL A   1      48.192  28.482  26.989  1.00  0.00     0.055 A 
ATOM     74  C   UNL A   1      48.641  28.515  29.351  1.00  0.00     0.041 A 
ATOM     75  F   UNL A   1      46.993  29.256  30.840  1.00  0.00    -0.206 F 
ATOM     76  C   UNL A   1      49.051  28.209  28.056  1.00  0.00     0.022 A 
BRANCH  73  77
ATOM     77  S   UNL A   1      48.599  27.898  25.322  1.00  0.00     0.124 S 
ATOM     78  O   UNL A   1      47.487  28.437  24.543  1.00  0.00    -0.237 OA
ATOM     79  O   UNL A   1      49.903  28.505  25.083  1.00  0.00    -0.237 OA
ATOM     80  O   UNL A   1      48.604  26.442  25.461  1.00  0.00    -0.744 OA
ENDBRANCH  73  77
ENDBRANCH  56  70
BRANCH  57  81
ATOM     81  C   UNL A   1      37.137  32.214  30.605  1.00  0.00     0.023 A 
ATOM     82  C   UNL A   1      36.304  32.864  29.682  1.00  0.00     0.031 A 
ATOM     83  C   UNL A   1      36.643  31.991  31.902  1.00  0.00     0.131 A 
ATOM     84  C   UNL A   1      35.034  33.307  30.079  1.00  0.00     0.055 A 
ATOM     85  C   UNL A   1      35.362  32.396  32.280  1.00  0.00     0.041 A 
ATOM     86  F   UNL A   1      37.399  31.363  32.816  1.00  0.00    -0.206 F 
ATOM     87  C   UNL A   1      34.553  33.070  31.370  1.00  0.00     0.022 A 
BRANCH  84  88
ATOM     88  S   UNL A   1      34.039  34.258  28.898  1.00  0.00     0.124 S 
ATOM     89  O   UNL A   1      33.568  33.214  27.995  1.00  0.00    -0.237 OA
ATOM     90  O   UNL A   1      33.030  34.858  29.767  1.00  0.00    -0.237 OA
ATOM     91  O   UNL A   1      34.999  35.197  28.322  1.00  0.00    -0.744 OA
ENDBRANCH  84  88
ENDBRANCH  57  81
BRANCH  69  92
ATOM     92  C   UNL A   1      43.316  35.408  30.933  1.00  0.00     0.023 A 
ATOM     93  C   UNL A   1      43.433  36.432  29.978  1.00  0.00     0.031 A 
ATOM     94  C   UNL A   1      43.597  35.716  32.275  1.00  0.00     0.131 A 
ATOM     95  C   UNL A   1      43.875  37.704  30.369  1.00  0.00     0.055 A 
ATOM     96  C   UNL A   1      43.987  36.997  32.668  1.00  0.00     0.041 A 
ATOM     97  F   UNL A   1      43.500  34.774  33.227  1.00  0.00    -0.206 F 
ATOM     98  C   UNL A   1      44.141  37.997  31.710  1.00  0.00     0.022 A 
BRANCH  95  99
ATOM     99  S   UNL A   1      44.182  38.952  29.090  1.00  0.00     0.124 S 
ATOM    100  O   UNL A   1      43.723  40.176  29.740  1.00  0.00    -0.237 OA
ATOM    101  O   UNL A   1      45.623  38.840  28.886  1.00  0.00    -0.237 OA
ATOM    102  O   UNL A   1      43.361  38.502  27.967  1.00  0.00    -0.744 OA
ENDBRANCH  95  99
ENDBRANCH  69  92
ENDBRANCH  43  44
ENDBRANCH  35  38
ENDBRANCH  33  34
ENDBRANCH  32  33
ENDBRANCH   1  32
TORSDOF 21
ENDMDL
MODEL 3
REMARK VINA RESULT:     -11.1      4.918      9.782
REMARK SMILES COc1cccc([C@@H]2CN(C(=O)c3cnn(C)c3)C[C@H]2C(=O)NCCCCCCNC(=O)c2ccc(-c3c4nc(c(-c5cc(S(=O)(=O)[O-])ccc5F)c5ccc([nH]5)c(-c5cc(S(=O)(=O)[O-])ccc5F)c5nc(c(-c6cc(S(=O)(=O)[O-])ccc6F)c6ccc3[nH]6)C=C5)C=C4)cc2)c1OC
REMARK SMILES IDX 27 1 26 2 25 3 24 4 23 5 21 6 22 7 20 9 8 10 9 11 10 12
REMARK SMILES IDX 19 13 7 14 3 15 4 16 96 17 5 18 6 19 2 20 1 21 97 22 98 23
REMARK SMILES IDX 11 24 12 25 13 26 14 27 18 28 15 29 16 30 17 31 28 32 29 33
REMARK SMILES IDX 30 34 31 35 32 37 33 38 34 39 95 40 35 41 94 42 36 43 37 44
REMARK SMILES IDX 38 45 88 46 39 47 93 48 87 49 89 50 40 51 92 52 86 53 85 54
REMARK SMILES IDX 41 56 73 57 53 58 72 59 54 60 57 61 71 62 90 63 55 64 56 65
REMARK SMILES IDX 70 67 91 68 58 69 42 70 43 71 51 72 44 73 50 74 52 75 49 76
REMARK SMILES IDX 45 77 46 78 47 79 48 80 74 81 75 82 83 83 76 84 82 85 84 86
REMARK SMILES IDX 81 87 77 88 78 89 79 90 80 91 59 92 60 93 68 94 61 95 67 96
REMARK SMILES IDX 69 97 66 98 62 99 63 100 64 101 65 102
REMARK H PARENT 23 8 30 36 89 55 57 66
REMARK Flexibility Score: inf
ROOT
ATOM      1  C   UNL A   1      35.342  22.436  26.588  1.00  0.00     0.002 C 
ENDROOT
BRANCH   1   2
ATOM      2  C   UNL A   1      34.205  22.616  27.599  1.00  0.00     0.002 C 
BRANCH   2   3
ATOM      3  C   UNL A   1      33.077  23.558  27.165  1.00  0.00     0.021 C 
BRANCH   3   4
ATOM      4  C   UNL A   1      31.783  22.858  26.753  1.00  0.00     0.116 C 
BRANCH   4   5
ATOM      5  N   UNL A   1      30.624  23.713  26.941  1.00  0.00    -0.356 N 
ATOM      6  C   UNL A   1      30.045  24.634  26.126  1.00  0.00     0.225 C 
ATOM      7  O   UNL A   1      29.035  25.203  26.552  1.00  0.00    -0.275 OA
ATOM      8  H   UNL A   1      30.180  23.606  27.812  1.00  0.00     0.163 HD
BRANCH   6   9
ATOM      9  C   UNL A   1      30.585  24.978  24.748  1.00  0.00     0.107 C 
ATOM     10  C   UNL A   1      31.770  25.961  24.770  1.00  0.00     0.057 C 
ATOM     11  C   UNL A   1      32.729  25.446  23.692  1.00  0.00     0.129 C 
ATOM     12  N   UNL A   1      32.423  24.033  23.554  1.00  0.00    -0.337 N 
ATOM     13  C   UNL A   1      31.064  23.749  23.980  1.00  0.00     0.134 C 
BRANCH  10  14
ATOM     14  C   UNL A   1      31.415  27.430  24.624  1.00  0.00     0.004 A 
ATOM     15  C   UNL A   1      31.473  29.759  25.331  1.00  0.00     0.161 A 
ATOM     16  C   UNL A   1      30.630  30.105  24.268  1.00  0.00     0.050 A 
ATOM     17  C   UNL A   1      31.861  28.422  25.523  1.00  0.00     0.164 A 
ATOM     18  C   UNL A   1      30.203  29.133  23.369  1.00  0.00     0.004 A 
ATOM     19  C   UNL A   1      30.597  27.809  23.542  1.00  0.00     0.008 A 
BRANCH  15  20
ATOM     20  O   UNL A   1      31.839  30.721  26.237  1.00  0.00    -0.493 OA
ATOM     21  C   UNL A   1      31.028  31.891  26.127  1.00  0.00     0.278 C 
ENDBRANCH  15  20
BRANCH  17  22
ATOM     22  O   UNL A   1      32.607  27.971  26.583  1.00  0.00    -0.493 OA
ATOM     23  C   UNL A   1      34.013  28.166  26.502  1.00  0.00     0.278 C 
ENDBRANCH  17  22
ENDBRANCH  10  14
BRANCH  12  24
ATOM     24  C   UNL A   1      33.133  23.082  22.834  1.00  0.00     0.257 C 
ATOM     25  O   UNL A   1      33.964  23.411  21.991  1.00  0.00    -0.269 OA
BRANCH  24  26
ATOM     26  C   UNL A   1      32.903  21.682  23.141  1.00  0.00     0.077 A 
ATOM     27  C   UNL A   1      32.153  20.763  22.374  1.00  0.00     0.149 A 
ATOM     28  C   UNL A   1      33.278  20.951  24.252  1.00  0.00     0.122 A 
ATOM     29  N   UNL A   1      32.149  19.533  22.896  1.00  0.00    -0.181 NA
ATOM     30  N   UNL A   1      32.835  19.676  24.043  1.00  0.00    -0.275 N 
ATOM     31  C   UNL A   1      33.058  18.531  24.890  1.00  0.00     0.173 C 
ENDBRANCH  24  26
ENDBRANCH  12  24
ENDBRANCH   6   9
ENDBRANCH   4   5
ENDBRANCH   3   4
ENDBRANCH   2   3
ENDBRANCH   1   2
BRANCH   1  32
ATOM     32  C   UNL A   1      35.649  23.652  25.708  1.00  0.00     0.021 C 
BRANCH  32  33
ATOM     33  C   UNL A   1      37.001  23.626  25.000  1.00  0.00     0.116 C 
BRANCH  33  34
ATOM     34  N   UNL A   1      37.875  22.592  25.520  1.00  0.00    -0.352 N 
ATOM     35  C   UNL A   1      39.056  22.714  26.209  1.00  0.00     0.251 C 
ATOM     36  H   UNL A   1      37.577  21.667  25.356  1.00  0.00     0.163 HD
ATOM     37  O   UNL A   1      39.735  21.712  26.417  1.00  0.00    -0.269 OA
BRANCH  35  38
ATOM     38  C   UNL A   1      39.521  24.040  26.680  1.00  0.00     0.039 A 
ATOM     39  C   UNL A   1      39.264  24.407  28.005  1.00  0.00     0.014 A 
ATOM     40  C   UNL A   1      40.163  24.938  25.821  1.00  0.00     0.014 A 
ATOM     41  C   UNL A   1      39.678  25.655  28.476  1.00  0.00     0.010 A 
ATOM     42  C   UNL A   1      40.625  26.160  26.307  1.00  0.00     0.010 A 
ATOM     43  C   UNL A   1      40.375  26.537  27.636  1.00  0.00    -0.014 A 
BRANCH  43  44
ATOM     44  C   UNL A   1      40.805  27.873  28.124  1.00  0.00     0.031 A 
ATOM     45  C   UNL A   1      42.265  28.239  28.126  1.00  0.00     0.074 A 
ATOM     46  C   UNL A   1      39.890  28.739  28.600  1.00  0.00     0.049 A 
ATOM     47  N   UNL A   1      42.847  29.331  28.551  1.00  0.00    -0.248 NA
ATOM     48  C   UNL A   1      43.195  27.224  27.610  1.00  0.00     0.031 C 
ATOM     49  C   UNL A   1      38.452  28.483  28.692  1.00  0.00     0.029 A 
ATOM     50  N   UNL A   1      40.035  30.006  29.105  1.00  0.00    -0.354 N 
ATOM     51  C   UNL A   1      44.212  29.130  28.369  1.00  0.00     0.074 A 
ATOM     52  C   UNL A   1      44.369  27.789  27.849  1.00  0.00     0.031 C 
ATOM     53  C   UNL A   1      37.845  29.567  29.205  1.00  0.00     0.029 A 
ATOM     54  C   UNL A   1      38.851  30.581  29.503  1.00  0.00     0.049 A 
ATOM     55  H   UNL A   1      40.905  30.461  29.176  1.00  0.00     0.167 HD
ATOM     56  C   UNL A   1      45.236  29.992  28.594  1.00  0.00     0.034 A 
ATOM     57  C   UNL A   1      38.606  31.790  30.047  1.00  0.00     0.034 A 
ATOM     58  C   UNL A   1      45.061  31.334  29.095  1.00  0.00     0.049 A 
ATOM     59  C   UNL A   1      39.754  32.740  30.264  1.00  0.00     0.074 A 
ATOM     60  C   UNL A   1      46.021  32.307  29.316  1.00  0.00     0.029 A 
ATOM     61  N   UNL A   1      43.841  31.895  29.453  1.00  0.00    -0.354 N 
ATOM     62  N   UNL A   1      41.034  32.552  30.045  1.00  0.00    -0.248 NA
ATOM     63  C   UNL A   1      39.419  34.072  30.783  1.00  0.00     0.031 C 
ATOM     64  C   UNL A   1      45.389  33.436  29.851  1.00  0.00     0.029 A 
ATOM     65  C   UNL A   1      44.027  33.191  29.908  1.00  0.00     0.049 A 
ATOM     66  H   UNL A   1      42.972  31.438  29.392  1.00  0.00     0.167 HD
ATOM     67  C   UNL A   1      41.654  33.754  30.375  1.00  0.00     0.074 A 
ATOM     68  C   UNL A   1      40.606  34.661  30.795  1.00  0.00     0.031 C 
ATOM     69  C   UNL A   1      42.971  34.079  30.332  1.00  0.00     0.034 A 
BRANCH  56  70
ATOM     70  C   UNL A   1      46.633  29.485  28.324  1.00  0.00     0.023 A 
ATOM     71  C   UNL A   1      47.365  28.789  29.302  1.00  0.00     0.031 A 
ATOM     72  C   UNL A   1      47.258  29.740  27.091  1.00  0.00     0.131 A 
ATOM     73  C   UNL A   1      48.707  28.452  29.065  1.00  0.00     0.055 A 
ATOM     74  C   UNL A   1      48.567  29.327  26.830  1.00  0.00     0.041 A 
ATOM     75  F   UNL A   1      46.617  30.417  26.126  1.00  0.00    -0.206 F 
ATOM     76  C   UNL A   1      49.305  28.695  27.826  1.00  0.00     0.022 A 
BRANCH  73  77
ATOM     77  S   UNL A   1      49.701  27.834  30.449  1.00  0.00     0.124 S 
ATOM     78  O   UNL A   1      48.665  27.379  31.374  1.00  0.00    -0.237 OA
ATOM     79  O   UNL A   1      50.503  26.791  29.822  1.00  0.00    -0.237 OA
ATOM     80  O   UNL A   1      50.444  29.013  30.891  1.00  0.00    -0.744 OA
ENDBRANCH  73  77
ENDBRANCH  56  70
BRANCH  57  81
ATOM     81  C   UNL A   1      37.217  32.177  30.418  1.00  0.00     0.023 A 
ATOM     82  C   UNL A   1      36.378  32.826  29.498  1.00  0.00     0.031 A 
ATOM     83  C   UNL A   1      36.721  31.933  31.710  1.00  0.00     0.131 A 
ATOM     84  C   UNL A   1      35.101  33.246  29.895  1.00  0.00     0.055 A 
ATOM     85  C   UNL A   1      35.434  32.316  32.088  1.00  0.00     0.041 A 
ATOM     86  F   UNL A   1      37.482  31.306  32.620  1.00  0.00    -0.206 F 
ATOM     87  C   UNL A   1      34.619  32.988  31.181  1.00  0.00     0.022 A 
BRANCH  84  88
ATOM     88  S   UNL A   1      34.097  34.197  28.722  1.00  0.00     0.124 S 
ATOM     89  O   UNL A   1      34.999  35.288  28.373  1.00  0.00    -0.237 OA
ATOM     90  O   UNL A   1      33.845  33.213  27.673  1.00  0.00    -0.237 OA
ATOM     91  O   UNL A   1      32.925  34.580  29.507  1.00  0.00    -0.744 OA
ENDBRANCH  84  88
ENDBRANCH  57  81
BRANCH  69  92
ATOM     92  C   UNL A   1      43.332  35.495  30.707  1.00  0.00     0.023 A 
ATOM     93  C   UNL A   1      43.509  35.881  32.046  1.00  0.00     0.031 A 
ATOM     94  C   UNL A   1      43.475  36.473  29.707  1.00  0.00     0.131 A 
ATOM     95  C   UNL A   1      43.765  37.225  32.356  1.00  0.00     0.055 A 
ATOM     96  C   UNL A   1      43.781  37.799  30.018  1.00  0.00     0.041 A 
ATOM     97  F   UNL A   1      43.317  36.156  28.413  1.00  0.00    -0.206 F 
ATOM     98  C   UNL A   1      43.914  38.184  31.350  1.00  0.00     0.022 A 
BRANCH  95  99
ATOM     99  S   UNL A   1      43.815  37.723  34.099  1.00  0.00     0.124 S 
ATOM    100  O   UNL A   1      43.708  36.440  34.786  1.00  0.00    -0.237 OA
ATOM    101  O   UNL A   1      45.108  38.392  34.195  1.00  0.00    -0.237 OA
ATOM    102  O   UNL A   1      42.653  38.599  34.239  1.00  0.00    -0.744 OA
ENDBRANCH  95  99
ENDBRANCH  69  92
ENDBRANCH  43  44
ENDBRANCH  35  38
ENDBRANCH  33  34
ENDBRANCH  32  33
ENDBRANCH   1  32
TORSDOF 21
ENDMDL
