MODEL 1
REMARK VINA RESULT:     -12.4      0.000      0.000
REMARK SMILES Cc1c(Cl)cc2c(c1C)O[C@H](C(F)(F)F)C(C(=O)NCCCCCCNC(=O)c1ccc(-c3c4nc(c(-c5cc(S(=O)(=O)[O-])ccc5F)c5ccc([nH]5)c(-c5cc(S(=O)(=O)[O-])ccc5F)c5nc(c(-c6cc(S(=O)(=O)[O-])ccc6F)c6ccc3[nH]6)C=C5)C=C4)cc1)=C2
REMARK SMILES IDX 23 1 22 2 21 3 20 4 19 5 17 6 18 7 16 9 1 10 2 11 3 12 8 13
REMARK SMILES IDX 4 14 5 15 7 16 9 17 6 18 10 19 92 20 11 21 12 22 13 23 14 24
REMARK SMILES IDX 15 25 24 26 25 27 26 28 27 29 28 31 29 32 30 33 91 34 31 35
REMARK SMILES IDX 90 36 32 37 33 38 34 39 84 40 35 41 89 42 83 43 85 44 36 45
REMARK SMILES IDX 88 46 82 47 81 48 37 50 69 51 49 52 68 53 50 54 53 55 67 56
REMARK SMILES IDX 86 57 51 58 52 59 66 61 87 62 54 63 38 64 39 65 47 66 40 67
REMARK SMILES IDX 46 68 48 69 45 70 41 71 42 72 43 73 44 74 70 75 71 76 79 77
REMARK SMILES IDX 72 78 78 79 80 80 77 81 73 82 74 83 75 84 76 85 55 86 56 87
REMARK SMILES IDX 64 88 57 89 63 90 65 91 62 92 58 93 59 94 60 95 61 96
REMARK H PARENT 19 8 26 30 85 49 53 60
REMARK Flexibility Score: inf
ROOT
ATOM      1  C   UNL A   1      31.715  30.129  26.087  1.00  0.00     0.002 C 
ENDROOT
BRANCH   1   2
ATOM      2  C   UNL A   1      31.038  29.688  24.782  1.00  0.00     0.002 C 
BRANCH   2   3
ATOM      3  C   UNL A   1      31.934  28.898  23.824  1.00  0.00     0.021 C 
BRANCH   3   4
ATOM      4  C   UNL A   1      31.482  27.456  23.621  1.00  0.00     0.116 C 
BRANCH   4   5
ATOM      5  N   UNL A   1      30.813  26.932  24.800  1.00  0.00    -0.352 N 
ATOM      6  C   UNL A   1      30.919  25.844  25.599  1.00  0.00     0.251 C 
ATOM      7  O   UNL A   1      30.129  25.805  26.548  1.00  0.00    -0.270 OA
ATOM      8  H   UNL A   1      30.088  27.527  25.097  1.00  0.00     0.163 HD
BRANCH   6   9
ATOM      9  C   UNL A   1      31.896  24.730  25.408  1.00  0.00     0.067 C 
ATOM     10  C   UNL A   1      37.155  20.841  25.075  1.00  0.00     0.046 C 
ATOM     11  C   UNL A   1      36.106  21.909  25.243  1.00  0.00    -0.026 A 
ATOM     12  C   UNL A   1      36.483  23.223  25.595  1.00  0.00     0.045 A 
ATOM     13  C   UNL A   1      34.729  21.617  25.117  1.00  0.00    -0.004 A 
ATOM     14  Cl  UNL A   1      38.137  23.656  25.871  1.00  0.00    -0.084 Cl
ATOM     15  C   UNL A   1      35.532  24.238  25.758  1.00  0.00     0.032 A 
ATOM     16  C   UNL A   1      33.794  22.663  25.255  1.00  0.00     0.131 A 
ATOM     17  C   UNL A   1      34.193  20.241  24.800  1.00  0.00     0.049 C 
ATOM     18  C   UNL A   1      34.181  23.964  25.575  1.00  0.00     0.019 A 
ATOM     19  O   UNL A   1      32.478  22.325  25.109  1.00  0.00    -0.475 OA
ATOM     20  C   UNL A   1      33.168  24.996  25.760  1.00  0.00     0.025 C 
ATOM     21  C   UNL A   1      31.542  23.393  24.827  1.00  0.00     0.314 C 
BRANCH  21  22
ATOM     22  C   UNL A   1      31.281  23.452  23.311  1.00  0.00     0.429 C 
ATOM     23  F   UNL A   1      32.081  24.377  22.726  1.00  0.00    -0.167 F 
ATOM     24  F   UNL A   1      31.540  22.277  22.692  1.00  0.00    -0.167 F 
ATOM     25  F   UNL A   1      30.001  23.776  23.018  1.00  0.00    -0.167 F 
ENDBRANCH  21  22
ENDBRANCH   6   9
ENDBRANCH   4   5
ENDBRANCH   3   4
ENDBRANCH   2   3
ENDBRANCH   1   2
BRANCH   1  26
ATOM     26  C   UNL A   1      31.638  31.629  26.388  1.00  0.00     0.021 C 
BRANCH  26  27
ATOM     27  C   UNL A   1      32.785  32.161  27.240  1.00  0.00     0.116 C 
BRANCH  27  28
ATOM     28  N   UNL A   1      32.635  33.582  27.503  1.00  0.00    -0.352 N 
ATOM     29  C   UNL A   1      33.224  34.347  28.473  1.00  0.00     0.251 C 
ATOM     30  H   UNL A   1      32.023  34.062  26.900  1.00  0.00     0.163 HD
ATOM     31  O   UNL A   1      32.776  35.470  28.719  1.00  0.00    -0.269 OA
BRANCH  29  32
ATOM     32  C   UNL A   1      34.387  33.827  29.218  1.00  0.00     0.039 A 
ATOM     33  C   UNL A   1      35.665  34.283  28.888  1.00  0.00     0.014 A 
ATOM     34  C   UNL A   1      34.217  32.862  30.217  1.00  0.00     0.014 A 
ATOM     35  C   UNL A   1      36.773  33.795  29.583  1.00  0.00     0.010 A 
ATOM     36  C   UNL A   1      35.314  32.427  30.953  1.00  0.00     0.010 A 
ATOM     37  C   UNL A   1      36.604  32.875  30.630  1.00  0.00    -0.014 A 
BRANCH  37  38
ATOM     38  C   UNL A   1      37.769  32.310  31.354  1.00  0.00     0.031 A 
ATOM     39  C   UNL A   1      38.551  31.187  30.729  1.00  0.00     0.074 A 
ATOM     40  C   UNL A   1      38.100  32.780  32.571  1.00  0.00     0.049 A 
ATOM     41  N   UNL A   1      39.533  30.484  31.229  1.00  0.00    -0.248 NA
ATOM     42  C   UNL A   1      38.161  30.789  29.366  1.00  0.00     0.031 C 
ATOM     43  C   UNL A   1      37.416  33.867  33.273  1.00  0.00     0.029 A 
ATOM     44  N   UNL A   1      39.098  32.403  33.434  1.00  0.00    -0.354 N 
ATOM     45  C   UNL A   1      39.873  29.560  30.249  1.00  0.00     0.074 A 
ATOM     46  C   UNL A   1      38.955  29.752  29.147  1.00  0.00     0.031 C 
ATOM     47  C   UNL A   1      38.033  34.089  34.445  1.00  0.00     0.029 A 
ATOM     48  C   UNL A   1      39.124  33.130  34.600  1.00  0.00     0.049 A 
ATOM     49  H   UNL A   1      39.736  31.681  33.235  1.00  0.00     0.167 HD
ATOM     50  C   UNL A   1      40.877  28.651  30.257  1.00  0.00     0.034 A 
ATOM     51  C   UNL A   1      39.928  33.026  35.676  1.00  0.00     0.034 A 
ATOM     52  C   UNL A   1      41.800  28.485  31.350  1.00  0.00     0.049 A 
ATOM     53  C   UNL A   1      40.998  31.966  35.686  1.00  0.00     0.074 A 
ATOM     54  C   UNL A   1      42.870  27.615  31.448  1.00  0.00     0.029 A 
ATOM     55  N   UNL A   1      41.765  29.209  32.535  1.00  0.00    -0.354 N 
ATOM     56  N   UNL A   1      41.301  31.092  34.755  1.00  0.00    -0.248 NA
ATOM     57  C   UNL A   1      41.832  31.876  36.893  1.00  0.00     0.031 C 
ATOM     58  C   UNL A   1      43.446  27.770  32.712  1.00  0.00     0.029 A 
ATOM     59  C   UNL A   1      42.775  28.784  33.380  1.00  0.00     0.049 A 
ATOM     60  H   UNL A   1      41.116  29.920  32.742  1.00  0.00     0.167 HD
ATOM     61  C   UNL A   1      42.369  30.356  35.259  1.00  0.00     0.074 A 
ATOM     62  C   UNL A   1      42.668  30.900  36.568  1.00  0.00     0.031 C 
ATOM     63  C   UNL A   1      43.042  29.323  34.691  1.00  0.00     0.034 A 
BRANCH  50  64
ATOM     64  C   UNL A   1      41.021  27.762  29.050  1.00  0.00     0.023 A 
ATOM     65  C   UNL A   1      41.987  28.018  28.062  1.00  0.00     0.031 A 
ATOM     66  C   UNL A   1      40.193  26.637  28.892  1.00  0.00     0.131 A 
ATOM     67  C   UNL A   1      42.070  27.187  26.935  1.00  0.00     0.055 A 
ATOM     68  C   UNL A   1      40.324  25.777  27.801  1.00  0.00     0.041 A 
ATOM     69  F   UNL A   1      39.240  26.359  29.796  1.00  0.00    -0.206 F 
ATOM     70  C   UNL A   1      41.262  26.054  26.809  1.00  0.00     0.022 A 
BRANCH  67  71
ATOM     71  S   UNL A   1      43.195  27.654  25.593  1.00  0.00     0.124 S 
ATOM     72  O   UNL A   1      44.093  28.584  26.273  1.00  0.00    -0.237 OA
ATOM     73  O   UNL A   1      43.776  26.374  25.205  1.00  0.00    -0.237 OA
ATOM     74  O   UNL A   1      42.312  28.263  24.601  1.00  0.00    -0.744 OA
ENDBRANCH  67  71
ENDBRANCH  50  64
BRANCH  51  75
ATOM     75  C   UNL A   1      39.746  33.937  36.840  1.00  0.00     0.023 A 
ATOM     76  C   UNL A   1      39.205  33.464  38.046  1.00  0.00     0.031 A 
ATOM     77  C   UNL A   1      40.099  35.296  36.761  1.00  0.00     0.131 A 
ATOM     78  C   UNL A   1      39.009  34.350  39.117  1.00  0.00     0.055 A 
ATOM     79  C   UNL A   1      39.940  36.163  37.842  1.00  0.00     0.041 A 
ATOM     80  F   UNL A   1      40.627  35.795  35.630  1.00  0.00    -0.206 F 
ATOM     81  C   UNL A   1      39.385  35.692  39.028  1.00  0.00     0.022 A 
BRANCH  78  82
ATOM     82  S   UNL A   1      38.219  33.727  40.627  1.00  0.00     0.124 S 
ATOM     83  O   UNL A   1      39.062  32.582  40.952  1.00  0.00    -0.237 OA
ATOM     84  O   UNL A   1      38.321  34.876  41.520  1.00  0.00    -0.237 OA
ATOM     85  O   UNL A   1      36.863  33.401  40.189  1.00  0.00    -0.744 OA
ENDBRANCH  78  82
ENDBRANCH  51  75
BRANCH  63  86
ATOM     86  C   UNL A   1      44.172  28.720  35.482  1.00  0.00     0.023 A 
ATOM     87  C   UNL A   1      43.943  27.689  36.408  1.00  0.00     0.031 A 
ATOM     88  C   UNL A   1      45.494  29.157  35.286  1.00  0.00     0.131 A 
ATOM     89  C   UNL A   1      45.017  27.152  37.132  1.00  0.00     0.055 A 
ATOM     90  C   UNL A   1      46.565  28.583  35.971  1.00  0.00     0.041 A 
ATOM     91  F   UNL A   1      45.765  30.138  34.410  1.00  0.00    -0.206 F 
ATOM     92  C   UNL A   1      46.329  27.579  36.906  1.00  0.00     0.022 A 
BRANCH  89  93
ATOM     93  S   UNL A   1      44.670  25.917  38.414  1.00  0.00     0.124 S 
ATOM     94  O   UNL A   1      44.133  24.810  37.629  1.00  0.00    -0.237 OA
ATOM     95  O   UNL A   1      45.986  25.698  39.005  1.00  0.00    -0.237 OA
ATOM     96  O   UNL A   1      43.706  26.587  39.283  1.00  0.00    -0.744 OA
ENDBRANCH  89  93
ENDBRANCH  63  86
ENDBRANCH  37  38
ENDBRANCH  29  32
ENDBRANCH  27  28
ENDBRANCH  26  27
ENDBRANCH   1  26
TORSDOF 17
ENDMDL
MODEL 2
REMARK VINA RESULT:     -12.3      5.616     11.565
REMARK SMILES Cc1c(Cl)cc2c(c1C)O[C@H](C(F)(F)F)C(C(=O)NCCCCCCNC(=O)c1ccc(-c3c4nc(c(-c5cc(S(=O)(=O)[O-])ccc5F)c5ccc([nH]5)c(-c5cc(S(=O)(=O)[O-])ccc5F)c5nc(c(-c6cc(S(=O)(=O)[O-])ccc6F)c6ccc3[nH]6)C=C5)C=C4)cc1)=C2
REMARK SMILES IDX 23 1 22 2 21 3 20 4 19 5 17 6 18 7 16 9 1 10 2 11 3 12 8 13
REMARK SMILES IDX 4 14 5 15 7 16 9 17 6 18 10 19 92 20 11 21 12 22 13 23 14 24
REMARK SMILES IDX 15 25 24 26 25 27 26 28 27 29 28 31 29 32 30 33 91 34 31 35
REMARK SMILES IDX 90 36 32 37 33 38 34 39 84 40 35 41 89 42 83 43 85 44 36 45
REMARK SMILES IDX 88 46 82 47 81 48 37 50 69 51 49 52 68 53 50 54 53 55 67 56
REMARK SMILES IDX 86 57 51 58 52 59 66 61 87 62 54 63 38 64 39 65 47 66 40 67
REMARK SMILES IDX 46 68 48 69 45 70 41 71 42 72 43 73 44 74 70 75 71 76 79 77
REMARK SMILES IDX 72 78 78 79 80 80 77 81 73 82 74 83 75 84 76 85 55 86 56 87
REMARK SMILES IDX 64 88 57 89 63 90 65 91 62 92 58 93 59 94 60 95 61 96
REMARK H PARENT 19 8 26 30 85 49 53 60
REMARK Flexibility Score: inf
ROOT
ATOM      1  C   UNL A   1      36.729  20.686  24.969  1.00  0.00     0.002 C 
ENDROOT
BRANCH   1   2
ATOM      2  C   UNL A   1      37.086  22.158  25.212  1.00  0.00     0.002 C 
BRANCH   2   3
ATOM      3  C   UNL A   1      35.903  23.128  25.156  1.00  0.00     0.021 C 
BRANCH   3   4
ATOM      4  C   UNL A   1      34.586  22.456  24.785  1.00  0.00     0.116 C 
BRANCH   4   5
ATOM      5  N   UNL A   1      34.232  22.698  23.396  1.00  0.00    -0.352 N 
ATOM      6  C   UNL A   1      33.628  23.677  22.683  1.00  0.00     0.251 C 
ATOM      7  O   UNL A   1      33.552  23.476  21.466  1.00  0.00    -0.270 OA
ATOM      8  H   UNL A   1      34.504  21.948  22.819  1.00  0.00     0.163 HD
BRANCH   6   9
ATOM      9  C   UNL A   1      33.069  24.938  23.256  1.00  0.00     0.067 C 
ATOM     10  C   UNL A   1      31.896  30.494  26.520  1.00  0.00     0.046 C 
ATOM     11  C   UNL A   1      32.389  29.217  25.890  1.00  0.00    -0.026 A 
ATOM     12  C   UNL A   1      33.588  28.622  26.339  1.00  0.00     0.045 A 
ATOM     13  C   UNL A   1      31.709  28.620  24.804  1.00  0.00    -0.004 A 
ATOM     14  Cl  UNL A   1      34.546  29.333  27.595  1.00  0.00    -0.084 Cl
ATOM     15  C   UNL A   1      34.072  27.435  25.775  1.00  0.00     0.032 A 
ATOM     16  C   UNL A   1      32.199  27.408  24.275  1.00  0.00     0.131 A 
ATOM     17  C   UNL A   1      30.449  29.187  24.194  1.00  0.00     0.049 C 
ATOM     18  C   UNL A   1      33.370  26.816  24.746  1.00  0.00     0.019 A 
ATOM     19  O   UNL A   1      31.494  26.870  23.235  1.00  0.00    -0.475 OA
ATOM     20  C   UNL A   1      33.862  25.591  24.125  1.00  0.00     0.025 C 
ATOM     21  C   UNL A   1      31.700  25.466  22.947  1.00  0.00     0.314 C 
BRANCH  21  22
ATOM     22  C   UNL A   1      30.580  24.644  23.610  1.00  0.00     0.429 C 
ATOM     23  F   UNL A   1      29.404  25.318  23.567  1.00  0.00    -0.167 F 
ATOM     24  F   UNL A   1      30.364  23.461  22.988  1.00  0.00    -0.167 F 
ATOM     25  F   UNL A   1      30.841  24.363  24.907  1.00  0.00    -0.167 F 
ENDBRANCH  21  22
ENDBRANCH   6   9
ENDBRANCH   4   5
ENDBRANCH   3   4
ENDBRANCH   2   3
ENDBRANCH   1   2
BRANCH   1  26
ATOM     26  C   UNL A   1      37.898  19.702  25.086  1.00  0.00     0.021 C 
BRANCH  26  27
ATOM     27  C   UNL A   1      39.131  20.267  25.784  1.00  0.00     0.116 C 
BRANCH  27  28
ATOM     28  N   UNL A   1      40.146  19.245  25.973  1.00  0.00    -0.352 N 
ATOM     29  C   UNL A   1      41.501  19.389  26.100  1.00  0.00     0.251 C 
ATOM     30  H   UNL A   1      39.813  18.320  26.016  1.00  0.00     0.163 HD
ATOM     31  O   UNL A   1      42.232  18.402  25.981  1.00  0.00    -0.269 OA
BRANCH  29  32
ATOM     32  C   UNL A   1      42.080  20.718  26.375  1.00  0.00     0.039 A 
ATOM     33  C   UNL A   1      42.438  21.045  27.685  1.00  0.00     0.014 A 
ATOM     34  C   UNL A   1      42.235  21.653  25.347  1.00  0.00     0.014 A 
ATOM     35  C   UNL A   1      42.982  22.301  27.959  1.00  0.00     0.010 A 
ATOM     36  C   UNL A   1      42.838  22.878  25.609  1.00  0.00     0.010 A 
ATOM     37  C   UNL A   1      43.199  23.221  26.920  1.00  0.00    -0.014 A 
BRANCH  37  38
ATOM     38  C   UNL A   1      43.737  24.576  27.193  1.00  0.00     0.031 A 
ATOM     39  C   UNL A   1      42.815  25.641  27.722  1.00  0.00     0.074 A 
ATOM     40  C   UNL A   1      45.029  24.855  26.939  1.00  0.00     0.049 A 
ATOM     41  N   UNL A   1      43.051  26.910  27.931  1.00  0.00    -0.248 NA
ATOM     42  C   UNL A   1      41.438  25.226  28.038  1.00  0.00     0.031 C 
ATOM     43  C   UNL A   1      46.015  23.901  26.427  1.00  0.00     0.029 A 
ATOM     44  N   UNL A   1      45.736  26.022  27.077  1.00  0.00    -0.354 N 
ATOM     45  C   UNL A   1      41.854  27.444  28.395  1.00  0.00     0.074 A 
ATOM     46  C   UNL A   1      40.879  26.376  28.383  1.00  0.00     0.031 C 
ATOM     47  C   UNL A   1      47.206  24.514  26.324  1.00  0.00     0.029 A 
ATOM     48  C   UNL A   1      47.058  25.914  26.713  1.00  0.00     0.049 A 
ATOM     49  H   UNL A   1      45.334  26.858  27.406  1.00  0.00     0.167 HD
ATOM     50  C   UNL A   1      41.600  28.706  28.819  1.00  0.00     0.034 A 
ATOM     51  C   UNL A   1      48.034  26.842  26.685  1.00  0.00     0.034 A 
ATOM     52  C   UNL A   1      42.587  29.755  28.849  1.00  0.00     0.049 A 
ATOM     53  C   UNL A   1      47.710  28.253  27.103  1.00  0.00     0.074 A 
ATOM     54  C   UNL A   1      42.441  31.059  29.286  1.00  0.00     0.029 A 
ATOM     55  N   UNL A   1      43.903  29.619  28.428  1.00  0.00    -0.354 N 
ATOM     56  N   UNL A   1      46.571  28.745  27.531  1.00  0.00    -0.248 NA
ATOM     57  C   UNL A   1      48.802  29.233  27.030  1.00  0.00     0.031 C 
ATOM     58  C   UNL A   1      43.652  31.727  29.076  1.00  0.00     0.029 A 
ATOM     59  C   UNL A   1      44.572  30.823  28.568  1.00  0.00     0.049 A 
ATOM     60  H   UNL A   1      44.301  28.787  28.082  1.00  0.00     0.167 HD
ATOM     61  C   UNL A   1      46.813  30.091  27.790  1.00  0.00     0.074 A 
ATOM     62  C   UNL A   1      48.210  30.327  27.487  1.00  0.00     0.031 C 
ATOM     63  C   UNL A   1      45.958  31.044  28.238  1.00  0.00     0.034 A 
BRANCH  50  64
ATOM     64  C   UNL A   1      40.200  29.019  29.274  1.00  0.00     0.023 A 
ATOM     65  C   UNL A   1      39.826  28.911  30.624  1.00  0.00     0.031 A 
ATOM     66  C   UNL A   1      39.229  29.443  28.349  1.00  0.00     0.131 A 
ATOM     67  C   UNL A   1      38.504  29.178  31.006  1.00  0.00     0.055 A 
ATOM     68  C   UNL A   1      37.932  29.771  28.746  1.00  0.00     0.041 A 
ATOM     69  F   UNL A   1      39.527  29.543  27.044  1.00  0.00    -0.206 F 
ATOM     70  C   UNL A   1      37.560  29.632  30.081  1.00  0.00     0.022 A 
BRANCH  67  71
ATOM     71  S   UNL A   1      38.010  28.848  32.719  1.00  0.00     0.124 S 
ATOM     72  O   UNL A   1      36.674  29.436  32.757  1.00  0.00    -0.237 OA
ATOM     73  O   UNL A   1      38.070  27.393  32.793  1.00  0.00    -0.237 OA
ATOM     74  O   UNL A   1      39.017  29.554  33.508  1.00  0.00    -0.744 OA
ENDBRANCH  67  71
ENDBRANCH  50  64
BRANCH  51  75
ATOM     75  C   UNL A   1      49.404  26.475  26.233  1.00  0.00     0.023 A 
ATOM     76  C   UNL A   1      49.915  26.961  25.020  1.00  0.00     0.031 A 
ATOM     77  C   UNL A   1      50.220  25.626  27.002  1.00  0.00     0.131 A 
ATOM     78  C   UNL A   1      51.197  26.573  24.597  1.00  0.00     0.055 A 
ATOM     79  C   UNL A   1      51.507  25.275  26.596  1.00  0.00     0.041 A 
ATOM     80  F   UNL A   1      49.778  25.140  28.174  1.00  0.00    -0.206 F 
ATOM     81  C   UNL A   1      52.000  25.745  25.383  1.00  0.00     0.022 A 
BRANCH  78  82
ATOM     82  S   UNL A   1      51.787  27.142  22.978  1.00  0.00     0.124 S 
ATOM     83  O   UNL A   1      53.056  26.433  22.860  1.00  0.00    -0.237 OA
ATOM     84  O   UNL A   1      50.717  26.698  22.091  1.00  0.00    -0.237 OA
ATOM     85  O   UNL A   1      51.892  28.590  23.146  1.00  0.00    -0.744 OA
ENDBRANCH  78  82
ENDBRANCH  51  75
BRANCH  63  86
ATOM     86  C   UNL A   1      46.514  32.430  28.433  1.00  0.00     0.023 A 
ATOM     87  C   UNL A   1      46.611  33.333  27.362  1.00  0.00     0.031 A 
ATOM     88  C   UNL A   1      46.920  32.863  29.708  1.00  0.00     0.131 A 
ATOM     89  C   UNL A   1      47.137  34.615  27.576  1.00  0.00     0.055 A 
ATOM     90  C   UNL A   1      47.395  34.157  29.925  1.00  0.00     0.041 A 
ATOM     91  F   UNL A   1      46.845  32.039  30.764  1.00  0.00    -0.206 F 
ATOM     92  C   UNL A   1      47.513  35.039  28.854  1.00  0.00     0.022 A 
BRANCH  89  93
ATOM     93  S   UNL A   1      47.373  35.708  26.149  1.00  0.00     0.124 S 
ATOM     94  O   UNL A   1      48.689  36.278  26.419  1.00  0.00    -0.237 OA
ATOM     95  O   UNL A   1      47.300  34.779  25.026  1.00  0.00    -0.237 OA
ATOM     96  O   UNL A   1      46.257  36.646  26.248  1.00  0.00    -0.744 OA
ENDBRANCH  89  93
ENDBRANCH  63  86
ENDBRANCH  37  38
ENDBRANCH  29  32
ENDBRANCH  27  28
ENDBRANCH  26  27
ENDBRANCH   1  26
TORSDOF 17
ENDMDL
MODEL 3
REMARK VINA RESULT:     -12.2      5.188      8.515
REMARK SMILES Cc1c(Cl)cc2c(c1C)O[C@H](C(F)(F)F)C(C(=O)NCCCCCCNC(=O)c1ccc(-c3c4nc(c(-c5cc(S(=O)(=O)[O-])ccc5F)c5ccc([nH]5)c(-c5cc(S(=O)(=O)[O-])ccc5F)c5nc(c(-c6cc(S(=O)(=O)[O-])ccc6F)c6ccc3[nH]6)C=C5)C=C4)cc1)=C2
REMARK SMILES IDX 23 1 22 2 21 3 20 4 19 5 17 6 18 7 16 9 1 10 2 11 3 12 8 13
REMARK SMILES IDX 4 14 5 15 7 16 9 17 6 18 10 19 92 20 11 21 12 22 13 23 14 24
REMARK SMILES IDX 15 25 24 26 25 27 26 28 27 29 28 31 29 32 30 33 91 34 31 35
REMARK SMILES IDX 90 36 32 37 33 38 34 39 84 40 35 41 89 42 83 43 85 44 36 45
REMARK SMILES IDX 88 46 82 47 81 48 37 50 69 51 49 52 68 53 50 54 53 55 67 56
REMARK SMILES IDX 86 57 51 58 52 59 66 61 87 62 54 63 38 64 39 65 47 66 40 67
REMARK SMILES IDX 46 68 48 69 45 70 41 71 42 72 43 73 44 74 70 75 71 76 79 77
REMARK SMILES IDX 72 78 78 79 80 80 77 81 73 82 74 83 75 84 76 85 55 86 56 87
REMARK SMILES IDX 64 88 57 89 63 90 65 91 62 92 58 93 59 94 60 95 61 96
REMARK H PARENT 19 8 26 30 85 49 53 60
REMARK Flexibility Score: inf
ROOT
ATOM      1  C   UNL A   1      35.848  21.281  24.634  1.00  0.00     0.002 C 
ENDROOT
BRANCH   1   2
ATOM      2  C   UNL A   1      34.502  20.785  25.182  1.00  0.00     0.002 C 
BRANCH   2   3
ATOM      3  C   UNL A   1      33.439  21.872  25.363  1.00  0.00     0.021 C 
BRANCH   3   4
ATOM      4  C   UNL A   1      32.391  21.885  24.257  1.00  0.00     0.116 C 
BRANCH   4   5
ATOM      5  N   UNL A   1      32.928  22.411  23.013  1.00  0.00    -0.352 N 
ATOM      6  C   UNL A   1      33.107  23.627  22.446  1.00  0.00     0.251 C 
ATOM      7  O   UNL A   1      33.649  23.619  21.337  1.00  0.00    -0.270 OA
ATOM      8  H   UNL A   1      33.248  21.689  22.425  1.00  0.00     0.163 HD
BRANCH   6   9
ATOM      9  C   UNL A   1      32.703  24.928  23.059  1.00  0.00     0.067 C 
ATOM     10  C   UNL A   1      32.236  30.522  26.434  1.00  0.00     0.046 C 
ATOM     11  C   UNL A   1      32.571  29.212  25.767  1.00  0.00    -0.026 A 
ATOM     12  C   UNL A   1      33.723  28.494  26.155  1.00  0.00     0.045 A 
ATOM     13  C   UNL A   1      31.787  28.703  24.708  1.00  0.00    -0.004 A 
ATOM     14  Cl  UNL A   1      34.801  29.086  27.375  1.00  0.00    -0.084 Cl
ATOM     15  C   UNL A   1      34.060  27.274  25.557  1.00  0.00     0.032 A 
ATOM     16  C   UNL A   1      32.130  27.457  24.143  1.00  0.00     0.131 A 
ATOM     17  C   UNL A   1      30.565  29.402  24.162  1.00  0.00     0.049 C 
ATOM     18  C   UNL A   1      33.255  26.743  24.554  1.00  0.00     0.019 A 
ATOM     19  O   UNL A   1      31.329  27.007  23.131  1.00  0.00    -0.475 OA
ATOM     20  C   UNL A   1      33.595  25.486  23.898  1.00  0.00     0.025 C 
ATOM     21  C   UNL A   1      31.381  25.595  22.818  1.00  0.00     0.314 C 
BRANCH  21  22
ATOM     22  C   UNL A   1      30.215  24.877  23.522  1.00  0.00     0.429 C 
ATOM     23  F   UNL A   1      29.909  23.723  22.880  1.00  0.00    -0.167 F 
ATOM     24  F   UNL A   1      30.506  24.538  24.799  1.00  0.00    -0.167 F 
ATOM     25  F   UNL A   1      29.092  25.630  23.562  1.00  0.00    -0.167 F 
ENDBRANCH  21  22
ENDBRANCH   6   9
ENDBRANCH   4   5
ENDBRANCH   3   4
ENDBRANCH   2   3
ENDBRANCH   1   2
BRANCH   1  26
ATOM     26  C   UNL A   1      36.057  22.797  24.687  1.00  0.00     0.021 C 
BRANCH  26  27
ATOM     27  C   UNL A   1      36.914  23.276  25.853  1.00  0.00     0.116 C 
BRANCH  27  28
ATOM     28  N   UNL A   1      38.007  22.357  26.119  1.00  0.00    -0.352 N 
ATOM     29  C   UNL A   1      39.305  22.635  26.455  1.00  0.00     0.251 C 
ATOM     30  H   UNL A   1      37.784  21.401  26.048  1.00  0.00     0.163 HD
ATOM     31  O   UNL A   1      40.157  21.747  26.377  1.00  0.00    -0.269 OA
BRANCH  29  32
ATOM     32  C   UNL A   1      39.678  23.990  26.904  1.00  0.00     0.039 A 
ATOM     33  C   UNL A   1      40.133  24.917  25.964  1.00  0.00     0.014 A 
ATOM     34  C   UNL A   1      39.612  24.333  28.259  1.00  0.00     0.014 A 
ATOM     35  C   UNL A   1      40.493  26.200  26.378  1.00  0.00     0.010 A 
ATOM     36  C   UNL A   1      39.907  25.631  28.660  1.00  0.00     0.010 A 
ATOM     37  C   UNL A   1      40.369  26.571  27.727  1.00  0.00    -0.014 A 
BRANCH  37  38
ATOM     38  C   UNL A   1      40.786  27.915  28.197  1.00  0.00     0.031 A 
ATOM     39  C   UNL A   1      42.249  28.261  28.232  1.00  0.00     0.074 A 
ATOM     40  C   UNL A   1      39.862  28.800  28.617  1.00  0.00     0.049 A 
ATOM     41  N   UNL A   1      42.834  29.333  28.700  1.00  0.00    -0.248 NA
ATOM     42  C   UNL A   1      43.179  27.260  27.686  1.00  0.00     0.031 C 
ATOM     43  C   UNL A   1      38.416  28.573  28.625  1.00  0.00     0.029 A 
ATOM     44  N   UNL A   1      40.003  30.069  29.117  1.00  0.00    -0.354 N 
ATOM     45  C   UNL A   1      44.196  29.132  28.511  1.00  0.00     0.074 A 
ATOM     46  C   UNL A   1      44.355  27.812  27.940  1.00  0.00     0.031 C 
ATOM     47  C   UNL A   1      37.801  29.678  29.078  1.00  0.00     0.029 A 
ATOM     48  C   UNL A   1      38.810  30.672  29.438  1.00  0.00     0.049 A 
ATOM     49  H   UNL A   1      40.877  30.507  29.234  1.00  0.00     0.167 HD
ATOM     50  C   UNL A   1      45.219  29.982  28.767  1.00  0.00     0.034 A 
ATOM     51  C   UNL A   1      38.560  31.883  29.974  1.00  0.00     0.034 A 
ATOM     52  C   UNL A   1      45.046  31.303  29.314  1.00  0.00     0.049 A 
ATOM     53  C   UNL A   1      39.719  32.786  30.306  1.00  0.00     0.074 A 
ATOM     54  C   UNL A   1      46.012  32.255  29.586  1.00  0.00     0.029 A 
ATOM     55  N   UNL A   1      43.825  31.860  29.671  1.00  0.00    -0.354 N 
ATOM     56  N   UNL A   1      41.003  32.577  30.131  1.00  0.00    -0.248 NA
ATOM     57  C   UNL A   1      39.396  34.084  30.913  1.00  0.00     0.031 C 
ATOM     58  C   UNL A   1      45.383  33.364  30.159  1.00  0.00     0.029 A 
ATOM     59  C   UNL A   1      44.016  33.131  30.186  1.00  0.00     0.049 A 
ATOM     60  H   UNL A   1      42.952  31.416  29.571  1.00  0.00     0.167 HD
ATOM     61  C   UNL A   1      41.640  33.724  30.595  1.00  0.00     0.074 A 
ATOM     62  C   UNL A   1      40.598  34.627  31.040  1.00  0.00     0.031 C 
ATOM     63  C   UNL A   1      42.967  34.006  30.647  1.00  0.00     0.034 A 
BRANCH  50  64
ATOM     64  C   UNL A   1      46.614  29.503  28.466  1.00  0.00     0.023 A 
ATOM     65  C   UNL A   1      47.373  28.807  29.422  1.00  0.00     0.031 A 
ATOM     66  C   UNL A   1      47.189  29.735  27.204  1.00  0.00     0.131 A 
ATOM     67  C   UNL A   1      48.683  28.407  29.118  1.00  0.00     0.055 A 
ATOM     68  C   UNL A   1      48.468  29.276  26.885  1.00  0.00     0.041 A 
ATOM     69  F   UNL A   1      46.516  30.413  26.262  1.00  0.00    -0.206 F 
ATOM     70  C   UNL A   1      49.226  28.613  27.848  1.00  0.00     0.022 A 
BRANCH  67  71
ATOM     71  S   UNL A   1      49.697  27.681  30.433  1.00  0.00     0.124 S 
ATOM     72  O   UNL A   1      51.040  27.814  29.874  1.00  0.00    -0.237 OA
ATOM     73  O   UNL A   1      49.393  28.533  31.577  1.00  0.00    -0.237 OA
ATOM     74  O   UNL A   1      49.202  26.309  30.530  1.00  0.00    -0.744 OA
ENDBRANCH  67  71
ENDBRANCH  50  64
BRANCH  51  75
ATOM     75  C   UNL A   1      37.159  32.309  30.244  1.00  0.00     0.023 A 
ATOM     76  C   UNL A   1      36.425  33.018  29.281  1.00  0.00     0.031 A 
ATOM     77  C   UNL A   1      36.537  32.024  31.472  1.00  0.00     0.131 A 
ATOM     78  C   UNL A   1      35.118  33.441  29.571  1.00  0.00     0.055 A 
ATOM     79  C   UNL A   1      35.224  32.412  31.741  1.00  0.00     0.041 A 
ATOM     80  F   UNL A   1      37.196  31.342  32.424  1.00  0.00    -0.206 F 
ATOM     81  C   UNL A   1      34.509  33.131  30.788  1.00  0.00     0.022 A 
BRANCH  78  82
ATOM     82  S   UNL A   1      34.234  34.438  28.340  1.00  0.00     0.124 S 
ATOM     83  O   UNL A   1      34.102  35.714  29.031  1.00  0.00    -0.237 OA
ATOM     84  O   UNL A   1      35.154  34.411  27.208  1.00  0.00    -0.237 OA
ATOM     85  O   UNL A   1      32.986  33.702  28.141  1.00  0.00    -0.744 OA
ENDBRANCH  78  82
ENDBRANCH  51  75
BRANCH  63  86
ATOM     86  C   UNL A   1      43.364  35.349  31.200  1.00  0.00     0.023 A 
ATOM     87  C   UNL A   1      43.575  36.451  30.355  1.00  0.00     0.031 A 
ATOM     88  C   UNL A   1      43.502  35.537  32.587  1.00  0.00     0.131 A 
ATOM     89  C   UNL A   1      43.949  37.686  30.902  1.00  0.00     0.055 A 
ATOM     90  C   UNL A   1      43.823  36.781  33.129  1.00  0.00     0.041 A 
ATOM     91  F   UNL A   1      43.308  34.515  33.436  1.00  0.00    -0.206 F 
ATOM     92  C   UNL A   1      44.057  37.864  32.284  1.00  0.00     0.022 A 
BRANCH  89  93
ATOM     93  S   UNL A   1      44.344  39.051  29.777  1.00  0.00     0.124 S 
ATOM     94  O   UNL A   1      44.544  38.352  28.512  1.00  0.00    -0.237 OA
ATOM     95  O   UNL A   1      43.148  39.885  29.860  1.00  0.00    -0.237 OA
ATOM     96  O   UNL A   1      45.549  39.639  30.358  1.00  0.00    -0.744 OA
ENDBRANCH  89  93
ENDBRANCH  63  86
ENDBRANCH  37  38
ENDBRANCH  29  32
ENDBRANCH  27  28
ENDBRANCH  26  27
ENDBRANCH   1  26
TORSDOF 17
ENDMDL
