MODEL 1
REMARK VINA RESULT:     -11.8      0.000      0.000
REMARK SMILES CC(C)(C)OC(=O)N1CCN(C(=O)c2ccc3c(c2)OCO3)[C@H](C(=O)NCCCCCCNC(=O)c2ccc(-c3c4nc(c(-c5cc(S(=O)(=O)[O-])ccc5F)c5ccc([nH]5)c(-c5cc(S(=O)(=O)[O-])ccc5F)c5nc(c(-c6cc(S(=O)(=O)[O-])ccc6F)c6ccc3[nH]6)C=C5)C=C4)cc2)C1
REMARK SMILES IDX 29 1 28 2 27 3 26 4 24 5 25 6 23 8 8 9 9 10 99 11 10 12
REMARK SMILES IDX 11 13 6 14 7 15 5 16 2 17 1 18 3 19 4 20 12 21 13 22 14 23
REMARK SMILES IDX 15 24 19 25 16 26 18 27 17 28 20 29 22 30 21 31 30 32 31 33
REMARK SMILES IDX 32 34 33 35 34 36 35 38 36 39 37 40 98 41 38 42 97 43 39 44
REMARK SMILES IDX 40 45 41 46 91 47 42 48 96 49 90 50 92 51 43 52 95 53 89 54
REMARK SMILES IDX 88 55 44 57 76 58 56 59 75 60 57 61 60 62 74 63 93 64 58 65
REMARK SMILES IDX 59 66 73 68 94 69 61 70 45 71 46 72 54 73 47 74 53 75 55 76
REMARK SMILES IDX 52 77 48 78 49 79 50 80 51 81 77 82 78 83 86 84 79 85 85 86
REMARK SMILES IDX 87 87 84 88 80 89 81 90 82 91 83 92 62 93 63 94 71 95 64 96
REMARK SMILES IDX 70 97 72 98 69 99 65 100 66 101 67 102 68 103
REMARK H PARENT 26 7 33 37 92 56 60 67
REMARK Flexibility Score: inf
ROOT
ATOM      1  C   UNL A   1      32.220  30.106  26.270  1.00  0.00     0.002 C 
ENDROOT
BRANCH   1   2
ATOM      2  C   UNL A   1      32.750  29.339  25.051  1.00  0.00     0.021 C 
BRANCH   2   3
ATOM      3  C   UNL A   1      33.703  28.203  25.423  1.00  0.00     0.116 C 
BRANCH   3   4
ATOM      4  N   UNL A   1      33.083  27.381  26.444  1.00  0.00    -0.354 N 
ATOM      5  C   UNL A   1      32.074  26.480  26.250  1.00  0.00     0.244 C 
ATOM      6  O   UNL A   1      31.208  26.360  27.118  1.00  0.00    -0.273 OA
ATOM      7  H   UNL A   1      33.419  27.483  27.364  1.00  0.00     0.163 HD
BRANCH   5   8
ATOM      8  C   UNL A   1      32.154  25.572  25.018  1.00  0.00     0.194 C 
ATOM      9  N   UNL A   1      33.930  24.687  23.515  1.00  0.00    -0.304 N 
ATOM     10  C   UNL A   1      33.131  24.948  22.323  1.00  0.00     0.144 C 
ATOM     11  C   UNL A   1      33.654  25.556  24.655  1.00  0.00     0.158 C 
ATOM     12  C   UNL A   1      31.638  24.997  22.668  1.00  0.00     0.142 C 
ATOM     13  N   UNL A   1      31.339  25.893  23.801  1.00  0.00    -0.323 N 
BRANCH   9  14
ATOM     14  C   UNL A   1      34.954  23.769  23.488  1.00  0.00     0.410 C 
ATOM     15  O   UNL A   1      35.335  23.224  22.458  1.00  0.00    -0.224 OA
BRANCH  14  16
ATOM     16  O   UNL A   1      35.441  23.516  24.728  1.00  0.00    -0.444 OA
BRANCH  16  17
ATOM     17  C   UNL A   1      35.193  22.255  25.404  1.00  0.00     0.106 C 
ATOM     18  C   UNL A   1      34.685  22.642  26.802  1.00  0.00     0.056 C 
ATOM     19  C   UNL A   1      36.516  21.499  25.541  1.00  0.00     0.056 C 
ATOM     20  C   UNL A   1      34.110  21.398  24.734  1.00  0.00     0.056 C 
ENDBRANCH  16  17
ENDBRANCH  14  16
ENDBRANCH   9  14
BRANCH  13  21
ATOM     21  C   UNL A   1      30.053  26.449  23.794  1.00  0.00     0.254 C 
ATOM     22  O   UNL A   1      29.056  25.837  24.176  1.00  0.00    -0.269 OA
BRANCH  21  23
ATOM     23  C   UNL A   1      29.814  27.794  23.234  1.00  0.00     0.044 A 
ATOM     24  C   UNL A   1      30.779  28.404  22.406  1.00  0.00     0.018 A 
ATOM     25  C   UNL A   1      28.589  28.425  23.487  1.00  0.00     0.064 A 
ATOM     26  C   UNL A   1      30.577  29.702  21.922  1.00  0.00     0.051 A 
ATOM     27  C   UNL A   1      28.416  29.696  22.980  1.00  0.00     0.166 A 
ATOM     28  C   UNL A   1      29.388  30.323  22.236  1.00  0.00     0.165 A 
ATOM     29  O   UNL A   1      27.318  30.479  23.159  1.00  0.00    -0.454 OA
ATOM     30  O   UNL A   1      29.033  31.584  21.873  1.00  0.00    -0.454 OA
ATOM     31  C   UNL A   1      27.721  31.679  22.467  1.00  0.00     0.468 C 
ENDBRANCH  21  23
ENDBRANCH  13  21
ENDBRANCH   5   8
ENDBRANCH   3   4
ENDBRANCH   2   3
ENDBRANCH   1   2
BRANCH   1  32
ATOM     32  C   UNL A   1      31.268  31.255  25.925  1.00  0.00     0.002 C 
BRANCH  32  33
ATOM     33  C   UNL A   1      31.359  32.453  26.872  1.00  0.00     0.021 C 
BRANCH  33  34
ATOM     34  C   UNL A   1      32.785  32.915  27.152  1.00  0.00     0.116 C 
BRANCH  34  35
ATOM     35  N   UNL A   1      32.808  34.200  27.830  1.00  0.00    -0.352 N 
ATOM     36  C   UNL A   1      33.575  34.601  28.895  1.00  0.00     0.251 C 
ATOM     37  H   UNL A   1      32.187  34.878  27.476  1.00  0.00     0.163 HD
ATOM     38  O   UNL A   1      33.295  35.635  29.493  1.00  0.00    -0.269 OA
BRANCH  36  39
ATOM     39  C   UNL A   1      34.716  33.765  29.325  1.00  0.00     0.039 A 
ATOM     40  C   UNL A   1      36.003  34.121  28.918  1.00  0.00     0.014 A 
ATOM     41  C   UNL A   1      34.518  32.641  30.131  1.00  0.00     0.014 A 
ATOM     42  C   UNL A   1      37.096  33.381  29.370  1.00  0.00     0.010 A 
ATOM     43  C   UNL A   1      35.614  31.954  30.646  1.00  0.00     0.010 A 
ATOM     44  C   UNL A   1      36.917  32.315  30.269  1.00  0.00    -0.014 A 
BRANCH  44  45
ATOM     45  C   UNL A   1      38.082  31.582  30.829  1.00  0.00     0.031 A 
ATOM     46  C   UNL A   1      38.625  31.942  32.186  1.00  0.00     0.074 A 
ATOM     47  C   UNL A   1      38.676  30.621  30.092  1.00  0.00     0.049 A 
ATOM     48  N   UNL A   1      39.656  31.445  32.820  1.00  0.00    -0.248 NA
ATOM     49  C   UNL A   1      37.933  33.014  32.917  1.00  0.00     0.031 C 
ATOM     50  C   UNL A   1      38.261  30.211  28.747  1.00  0.00     0.029 A 
ATOM     51  N   UNL A   1      39.754  29.815  30.363  1.00  0.00    -0.354 N 
ATOM     52  C   UNL A   1      39.742  32.147  34.017  1.00  0.00     0.074 A 
ATOM     53  C   UNL A   1      38.693  33.145  33.994  1.00  0.00     0.031 C 
ATOM     54  C   UNL A   1      39.051  29.209  28.329  1.00  0.00     0.029 A 
ATOM     55  C   UNL A   1      40.064  28.942  29.344  1.00  0.00     0.049 A 
ATOM     56  H   UNL A   1      40.259  29.857  31.206  1.00  0.00     0.167 HD
ATOM     57  C   UNL A   1      40.604  31.963  35.047  1.00  0.00     0.034 A 
ATOM     58  C   UNL A   1      41.061  28.040  29.232  1.00  0.00     0.034 A 
ATOM     59  C   UNL A   1      41.637  30.956  35.059  1.00  0.00     0.049 A 
ATOM     60  C   UNL A   1      42.029  27.886  30.380  1.00  0.00     0.074 A 
ATOM     61  C   UNL A   1      42.523  30.647  36.076  1.00  0.00     0.029 A 
ATOM     62  N   UNL A   1      41.932  30.103  34.003  1.00  0.00    -0.354 N 
ATOM     63  N   UNL A   1      42.056  28.519  31.530  1.00  0.00    -0.248 NA
ATOM     64  C   UNL A   1      43.095  26.888  30.219  1.00  0.00     0.031 C 
ATOM     65  C   UNL A   1      43.407  29.671  35.607  1.00  0.00     0.029 A 
ATOM     66  C   UNL A   1      43.014  29.298  34.331  1.00  0.00     0.049 A 
ATOM     67  H   UNL A   1      41.445  30.073  33.149  1.00  0.00     0.167 HD
ATOM     68  C   UNL A   1      43.118  27.966  32.242  1.00  0.00     0.074 A 
ATOM     69  C   UNL A   1      43.689  26.936  31.400  1.00  0.00     0.031 C 
ATOM     70  C   UNL A   1      43.579  28.278  33.480  1.00  0.00     0.034 A 
BRANCH  57  71
ATOM     71  C   UNL A   1      40.486  32.885  36.238  1.00  0.00     0.023 A 
ATOM     72  C   UNL A   1      39.693  32.563  37.352  1.00  0.00     0.031 A 
ATOM     73  C   UNL A   1      41.196  34.100  36.264  1.00  0.00     0.131 A 
ATOM     74  C   UNL A   1      39.583  33.468  38.419  1.00  0.00     0.055 A 
ATOM     75  C   UNL A   1      41.145  34.959  37.364  1.00  0.00     0.041 A 
ATOM     76  F   UNL A   1      41.951  34.474  35.219  1.00  0.00    -0.206 F 
ATOM     77  C   UNL A   1      40.327  34.650  38.445  1.00  0.00     0.022 A 
BRANCH  74  78
ATOM     78  S   UNL A   1      38.361  33.136  39.717  1.00  0.00     0.124 S 
ATOM     79  O   UNL A   1      38.394  34.382  40.479  1.00  0.00    -0.237 OA
ATOM     80  O   UNL A   1      37.145  32.887  38.950  1.00  0.00    -0.237 OA
ATOM     81  O   UNL A   1      38.908  31.973  40.413  1.00  0.00    -0.744 OA
ENDBRANCH  74  78
ENDBRANCH  57  71
BRANCH  58  82
ATOM     82  C   UNL A   1      41.220  27.224  27.992  1.00  0.00     0.023 A 
ATOM     83  C   UNL A   1      40.892  25.859  27.977  1.00  0.00     0.031 A 
ATOM     84  C   UNL A   1      41.780  27.776  26.826  1.00  0.00     0.131 A 
ATOM     85  C   UNL A   1      41.191  25.078  26.850  1.00  0.00     0.055 A 
ATOM     86  C   UNL A   1      42.009  27.010  25.681  1.00  0.00     0.041 A 
ATOM     87  F   UNL A   1      42.116  29.076  26.780  1.00  0.00    -0.206 F 
ATOM     88  C   UNL A   1      41.733  25.647  25.696  1.00  0.00     0.022 A 
BRANCH  85  89
ATOM     89  S   UNL A   1      40.987  23.278  26.965  1.00  0.00     0.124 S 
ATOM     90  O   UNL A   1      39.542  23.137  26.836  1.00  0.00    -0.237 OA
ATOM     91  O   UNL A   1      41.783  22.812  25.834  1.00  0.00    -0.237 OA
ATOM     92  O   UNL A   1      41.532  22.960  28.283  1.00  0.00    -0.744 OA
ENDBRANCH  85  89
ENDBRANCH  58  82
BRANCH  70  93
ATOM     93  C   UNL A   1      44.729  27.457  34.015  1.00  0.00     0.023 A 
ATOM     94  C   UNL A   1      44.518  26.289  34.769  1.00  0.00     0.031 A 
ATOM     95  C   UNL A   1      46.056  27.861  33.782  1.00  0.00     0.131 A 
ATOM     96  C   UNL A   1      45.613  25.605  35.318  1.00  0.00     0.055 A 
ATOM     97  C   UNL A   1      47.143  27.134  34.267  1.00  0.00     0.041 A 
ATOM     98  F   UNL A   1      46.319  28.971  33.072  1.00  0.00    -0.206 F 
ATOM     99  C   UNL A   1      46.924  26.007  35.054  1.00  0.00     0.022 A 
BRANCH  96 100
ATOM    100  S   UNL A   1      45.296  24.244  36.474  1.00  0.00     0.124 S 
ATOM    101  O   UNL A   1      44.772  23.210  35.589  1.00  0.00    -0.237 OA
ATOM    102  O   UNL A   1      46.621  23.992  37.032  1.00  0.00    -0.237 OA
ATOM    103  O   UNL A   1      44.327  24.809  37.412  1.00  0.00    -0.744 OA
ENDBRANCH  96 100
ENDBRANCH  70  93
ENDBRANCH  44  45
ENDBRANCH  36  39
ENDBRANCH  34  35
ENDBRANCH  33  34
ENDBRANCH  32  33
ENDBRANCH   1  32
TORSDOF 21
ENDMDL
MODEL 2
REMARK VINA RESULT:     -11.4      1.507      7.300
REMARK SMILES CC(C)(C)OC(=O)N1CCN(C(=O)c2ccc3c(c2)OCO3)[C@H](C(=O)NCCCCCCNC(=O)c2ccc(-c3c4nc(c(-c5cc(S(=O)(=O)[O-])ccc5F)c5ccc([nH]5)c(-c5cc(S(=O)(=O)[O-])ccc5F)c5nc(c(-c6cc(S(=O)(=O)[O-])ccc6F)c6ccc3[nH]6)C=C5)C=C4)cc2)C1
REMARK SMILES IDX 29 1 28 2 27 3 26 4 24 5 25 6 23 8 8 9 9 10 99 11 10 12
REMARK SMILES IDX 11 13 6 14 7 15 5 16 2 17 1 18 3 19 4 20 12 21 13 22 14 23
REMARK SMILES IDX 15 24 19 25 16 26 18 27 17 28 20 29 22 30 21 31 30 32 31 33
REMARK SMILES IDX 32 34 33 35 34 36 35 38 36 39 37 40 98 41 38 42 97 43 39 44
REMARK SMILES IDX 40 45 41 46 91 47 42 48 96 49 90 50 92 51 43 52 95 53 89 54
REMARK SMILES IDX 88 55 44 57 76 58 56 59 75 60 57 61 60 62 74 63 93 64 58 65
REMARK SMILES IDX 59 66 73 68 94 69 61 70 45 71 46 72 54 73 47 74 53 75 55 76
REMARK SMILES IDX 52 77 48 78 49 79 50 80 51 81 77 82 78 83 86 84 79 85 85 86
REMARK SMILES IDX 87 87 84 88 80 89 81 90 82 91 83 92 62 93 63 94 71 95 64 96
REMARK SMILES IDX 70 97 72 98 69 99 65 100 66 101 67 102 68 103
REMARK H PARENT 26 7 33 37 92 56 60 67
REMARK Flexibility Score: inf
ROOT
ATOM      1  C   UNL A   1      32.761  29.909  25.967  1.00  0.00     0.002 C 
ENDROOT
BRANCH   1   2
ATOM      2  C   UNL A   1      33.298  29.328  24.653  1.00  0.00     0.021 C 
BRANCH   2   3
ATOM      3  C   UNL A   1      33.635  27.839  24.747  1.00  0.00     0.116 C 
BRANCH   3   4
ATOM      4  N   UNL A   1      33.171  27.330  26.024  1.00  0.00    -0.354 N 
ATOM      5  C   UNL A   1      32.075  26.539  26.226  1.00  0.00     0.244 C 
ATOM      6  O   UNL A   1      31.398  26.710  27.240  1.00  0.00    -0.273 OA
ATOM      7  H   UNL A   1      33.696  27.578  26.820  1.00  0.00     0.163 HD
BRANCH   5   8
ATOM      8  C   UNL A   1      31.828  25.393  25.239  1.00  0.00     0.194 C 
ATOM      9  N   UNL A   1      33.197  23.928  23.764  1.00  0.00    -0.304 N 
ATOM     10  C   UNL A   1      32.255  24.063  22.660  1.00  0.00     0.144 C 
ATOM     11  C   UNL A   1      33.232  25.050  24.697  1.00  0.00     0.158 C 
ATOM     12  C   UNL A   1      30.859  24.432  23.176  1.00  0.00     0.142 C 
ATOM     13  N   UNL A   1      30.874  25.584  24.098  1.00  0.00    -0.323 N 
BRANCH   9  14
ATOM     14  C   UNL A   1      34.071  22.867  23.818  1.00  0.00     0.410 C 
ATOM     15  O   UNL A   1      35.254  22.959  23.509  1.00  0.00    -0.224 OA
BRANCH  14  16
ATOM     16  O   UNL A   1      33.454  21.721  24.200  1.00  0.00    -0.444 OA
BRANCH  16  17
ATOM     17  C   UNL A   1      33.963  20.904  25.287  1.00  0.00     0.106 C 
ATOM     18  C   UNL A   1      32.967  19.742  25.417  1.00  0.00     0.056 C 
ATOM     19  C   UNL A   1      33.945  21.729  26.576  1.00  0.00     0.056 C 
ATOM     20  C   UNL A   1      35.349  20.304  25.012  1.00  0.00     0.056 C 
ENDBRANCH  16  17
ENDBRANCH  14  16
ENDBRANCH   9  14
BRANCH  13  21
ATOM     21  C   UNL A   1      29.691  26.333  24.130  1.00  0.00     0.254 C 
ATOM     22  O   UNL A   1      28.664  25.941  24.684  1.00  0.00    -0.269 OA
BRANCH  21  23
ATOM     23  C   UNL A   1      29.591  27.619  23.411  1.00  0.00     0.044 A 
ATOM     24  C   UNL A   1      30.680  28.100  22.656  1.00  0.00     0.018 A 
ATOM     25  C   UNL A   1      28.377  28.318  23.440  1.00  0.00     0.064 A 
ATOM     26  C   UNL A   1      30.605  29.345  22.020  1.00  0.00     0.051 A 
ATOM     27  C   UNL A   1      28.332  29.533  22.789  1.00  0.00     0.166 A 
ATOM     28  C   UNL A   1      29.419  30.040  22.116  1.00  0.00     0.165 A 
ATOM     29  O   UNL A   1      27.261  30.371  22.746  1.00  0.00    -0.454 OA
ATOM     30  O   UNL A   1      29.175  31.268  21.584  1.00  0.00    -0.454 OA
ATOM     31  C   UNL A   1      27.806  31.474  21.993  1.00  0.00     0.468 C 
ENDBRANCH  21  23
ENDBRANCH  13  21
ENDBRANCH   5   8
ENDBRANCH   3   4
ENDBRANCH   2   3
ENDBRANCH   1   2
BRANCH   1  32
ATOM     32  C   UNL A   1      31.403  30.605  25.839  1.00  0.00     0.002 C 
BRANCH  32  33
ATOM     33  C   UNL A   1      31.348  31.999  26.470  1.00  0.00     0.021 C 
BRANCH  33  34
ATOM     34  C   UNL A   1      32.708  32.540  26.895  1.00  0.00     0.116 C 
BRANCH  34  35
ATOM     35  N   UNL A   1      32.591  33.843  27.528  1.00  0.00    -0.352 N 
ATOM     36  C   UNL A   1      33.275  34.343  28.608  1.00  0.00     0.251 C 
ATOM     37  H   UNL A   1      31.929  34.452  27.127  1.00  0.00     0.163 HD
ATOM     38  O   UNL A   1      32.882  35.366  29.158  1.00  0.00    -0.269 OA
BRANCH  36  39
ATOM     39  C   UNL A   1      34.465  33.625  29.111  1.00  0.00     0.039 A 
ATOM     40  C   UNL A   1      35.725  34.199  28.930  1.00  0.00     0.014 A 
ATOM     41  C   UNL A   1      34.338  32.396  29.764  1.00  0.00     0.014 A 
ATOM     42  C   UNL A   1      36.851  33.566  29.458  1.00  0.00     0.010 A 
ATOM     43  C   UNL A   1      35.451  31.808  30.360  1.00  0.00     0.010 A 
ATOM     44  C   UNL A   1      36.721  32.386  30.212  1.00  0.00    -0.014 A 
BRANCH  44  45
ATOM     45  C   UNL A   1      37.903  31.756  30.856  1.00  0.00     0.031 A 
ATOM     46  C   UNL A   1      38.694  30.703  30.127  1.00  0.00     0.074 A 
ATOM     47  C   UNL A   1      38.236  32.104  32.116  1.00  0.00     0.049 A 
ATOM     48  N   UNL A   1      39.726  30.012  30.539  1.00  0.00    -0.248 NA
ATOM     49  C   UNL A   1      38.254  30.364  28.764  1.00  0.00     0.031 C 
ATOM     50  C   UNL A   1      37.521  33.087  32.935  1.00  0.00     0.029 A 
ATOM     51  N   UNL A   1      39.254  31.675  32.931  1.00  0.00    -0.354 N 
ATOM     52  C   UNL A   1      40.054  29.154  29.495  1.00  0.00     0.074 A 
ATOM     53  C   UNL A   1      39.074  29.371  28.452  1.00  0.00     0.031 C 
ATOM     54  C   UNL A   1      38.144  33.210  34.119  1.00  0.00     0.029 A 
ATOM     55  C   UNL A   1      39.265  32.277  34.169  1.00  0.00     0.049 A 
ATOM     56  H   UNL A   1      39.915  31.001  32.655  1.00  0.00     0.167 HD
ATOM     57  C   UNL A   1      41.088  28.283  29.408  1.00  0.00     0.034 A 
ATOM     58  C   UNL A   1      40.075  32.088  35.231  1.00  0.00     0.034 A 
ATOM     59  C   UNL A   1      42.063  28.087  30.453  1.00  0.00     0.049 A 
ATOM     60  C   UNL A   1      41.194  31.081  35.118  1.00  0.00     0.074 A 
ATOM     61  C   UNL A   1      43.182  27.273  30.442  1.00  0.00     0.029 A 
ATOM     62  N   UNL A   1      42.032  28.701  31.699  1.00  0.00    -0.354 N 
ATOM     63  N   UNL A   1      41.523  30.323  34.097  1.00  0.00    -0.248 NA
ATOM     64  C   UNL A   1      42.055  30.912  36.295  1.00  0.00     0.031 C 
ATOM     65  C   UNL A   1      43.777  27.327  31.706  1.00  0.00     0.029 A 
ATOM     66  C   UNL A   1      43.088  28.250  32.477  1.00  0.00     0.049 A 
ATOM     67  H   UNL A   1      41.360  29.359  31.987  1.00  0.00     0.167 HD
ATOM     68  C   UNL A   1      42.655  29.617  34.500  1.00  0.00     0.074 A 
ATOM     69  C   UNL A   1      42.960  30.057  35.845  1.00  0.00     0.031 C 
ATOM     70  C   UNL A   1      43.378  28.691  33.821  1.00  0.00     0.034 A 
BRANCH  57  71
ATOM     71  C   UNL A   1      41.206  27.453  28.152  1.00  0.00     0.023 A 
ATOM     72  C   UNL A   1      40.815  26.104  28.112  1.00  0.00     0.031 A 
ATOM     73  C   UNL A   1      41.703  28.029  26.968  1.00  0.00     0.131 A 
ATOM     74  C   UNL A   1      40.978  25.361  26.932  1.00  0.00     0.055 A 
ATOM     75  C   UNL A   1      41.788  27.306  25.776  1.00  0.00     0.041 A 
ATOM     76  F   UNL A   1      42.115  29.306  26.950  1.00  0.00    -0.206 F 
ATOM     77  C   UNL A   1      41.434  25.961  25.756  1.00  0.00     0.022 A 
BRANCH  74  78
ATOM     78  S   UNL A   1      40.701  23.570  26.989  1.00  0.00     0.124 S 
ATOM     79  O   UNL A   1      40.883  23.289  28.411  1.00  0.00    -0.237 OA
ATOM     80  O   UNL A   1      39.339  23.444  26.481  1.00  0.00    -0.237 OA
ATOM     81  O   UNL A   1      41.744  23.034  26.117  1.00  0.00    -0.744 OA
ENDBRANCH  74  78
ENDBRANCH  57  71
BRANCH  58  82
ATOM     82  C   UNL A   1      39.860  32.841  36.502  1.00  0.00     0.023 A 
ATOM     83  C   UNL A   1      39.046  32.321  37.522  1.00  0.00     0.031 A 
ATOM     84  C   UNL A   1      40.396  34.128  36.685  1.00  0.00     0.131 A 
ATOM     85  C   UNL A   1      38.734  33.109  38.640  1.00  0.00     0.055 A 
ATOM     86  C   UNL A   1      40.142  34.880  37.834  1.00  0.00     0.041 A 
ATOM     87  F   UNL A   1      41.181  34.679  35.744  1.00  0.00    -0.206 F 
ATOM     88  C   UNL A   1      39.289  34.378  38.812  1.00  0.00     0.022 A 
BRANCH  85  89
ATOM     89  S   UNL A   1      37.482  32.501  39.805  1.00  0.00     0.124 S 
ATOM     90  O   UNL A   1      38.249  31.538  40.586  1.00  0.00    -0.237 OA
ATOM     91  O   UNL A   1      37.094  33.726  40.497  1.00  0.00    -0.237 OA
ATOM     92  O   UNL A   1      36.459  31.927  38.933  1.00  0.00    -0.744 OA
ENDBRANCH  85  89
ENDBRANCH  58  82
BRANCH  70  93
ATOM     93  C   UNL A   1      44.602  28.132  34.509  1.00  0.00     0.023 A 
ATOM     94  C   UNL A   1      45.865  28.737  34.384  1.00  0.00     0.031 A 
ATOM     95  C   UNL A   1      44.505  26.963  35.285  1.00  0.00     0.131 A 
ATOM     96  C   UNL A   1      46.988  28.136  34.970  1.00  0.00     0.055 A 
ATOM     97  C   UNL A   1      45.613  26.412  35.928  1.00  0.00     0.041 A 
ATOM     98  F   UNL A   1      43.325  26.338  35.437  1.00  0.00    -0.206 F 
ATOM     99  C   UNL A   1      46.868  26.990  35.759  1.00  0.00     0.022 A 
BRANCH  96 100
ATOM    100  S   UNL A   1      48.630  28.812  34.595  1.00  0.00     0.124 S 
ATOM    101  O   UNL A   1      48.391  29.507  33.335  1.00  0.00    -0.237 OA
ATOM    102  O   UNL A   1      48.890  29.662  35.752  1.00  0.00    -0.237 OA
ATOM    103  O   UNL A   1      49.476  27.622  34.498  1.00  0.00    -0.744 OA
ENDBRANCH  96 100
ENDBRANCH  70  93
ENDBRANCH  44  45
ENDBRANCH  36  39
ENDBRANCH  34  35
ENDBRANCH  33  34
ENDBRANCH  32  33
ENDBRANCH   1  32
TORSDOF 21
ENDMDL
MODEL 3
REMARK VINA RESULT:     -11.3      2.653      5.328
REMARK SMILES CC(C)(C)OC(=O)N1CCN(C(=O)c2ccc3c(c2)OCO3)[C@H](C(=O)NCCCCCCNC(=O)c2ccc(-c3c4nc(c(-c5cc(S(=O)(=O)[O-])ccc5F)c5ccc([nH]5)c(-c5cc(S(=O)(=O)[O-])ccc5F)c5nc(c(-c6cc(S(=O)(=O)[O-])ccc6F)c6ccc3[nH]6)C=C5)C=C4)cc2)C1
REMARK SMILES IDX 29 1 28 2 27 3 26 4 24 5 25 6 23 8 8 9 9 10 99 11 10 12
REMARK SMILES IDX 11 13 6 14 7 15 5 16 2 17 1 18 3 19 4 20 12 21 13 22 14 23
REMARK SMILES IDX 15 24 19 25 16 26 18 27 17 28 20 29 22 30 21 31 30 32 31 33
REMARK SMILES IDX 32 34 33 35 34 36 35 38 36 39 37 40 98 41 38 42 97 43 39 44
REMARK SMILES IDX 40 45 41 46 91 47 42 48 96 49 90 50 92 51 43 52 95 53 89 54
REMARK SMILES IDX 88 55 44 57 76 58 56 59 75 60 57 61 60 62 74 63 93 64 58 65
REMARK SMILES IDX 59 66 73 68 94 69 61 70 45 71 46 72 54 73 47 74 53 75 55 76
REMARK SMILES IDX 52 77 48 78 49 79 50 80 51 81 77 82 78 83 86 84 79 85 85 86
REMARK SMILES IDX 87 87 84 88 80 89 81 90 82 91 83 92 62 93 63 94 71 95 64 96
REMARK SMILES IDX 70 97 72 98 69 99 65 100 66 101 67 102 68 103
REMARK H PARENT 26 7 33 37 92 56 60 67
REMARK Flexibility Score: inf
ROOT
ATOM      1  C   UNL A   1      31.818  26.343  26.831  1.00  0.00     0.002 C 
ENDROOT
BRANCH   1   2
ATOM      2  C   UNL A   1      31.829  24.836  26.545  1.00  0.00     0.021 C 
BRANCH   2   3
ATOM      3  C   UNL A   1      30.444  24.276  26.220  1.00  0.00     0.116 C 
BRANCH   3   4
ATOM      4  N   UNL A   1      30.513  23.540  24.972  1.00  0.00    -0.354 N 
ATOM      5  C   UNL A   1      30.615  24.082  23.721  1.00  0.00     0.244 C 
ATOM      6  O   UNL A   1      30.021  23.541  22.788  1.00  0.00    -0.273 OA
ATOM      7  H   UNL A   1      30.482  22.557  25.031  1.00  0.00     0.163 HD
BRANCH   5   8
ATOM      8  C   UNL A   1      31.575  25.261  23.530  1.00  0.00     0.194 C 
ATOM      9  N   UNL A   1      31.401  27.714  23.145  1.00  0.00    -0.304 N 
ATOM     10  C   UNL A   1      32.448  27.687  22.130  1.00  0.00     0.144 C 
ATOM     11  C   UNL A   1      30.648  26.473  23.300  1.00  0.00     0.158 C 
ATOM     12  C   UNL A   1      33.363  26.472  22.323  1.00  0.00     0.142 C 
ATOM     13  N   UNL A   1      32.618  25.206  22.453  1.00  0.00    -0.323 N 
BRANCH   9  14
ATOM     14  C   UNL A   1      31.084  28.883  23.797  1.00  0.00     0.410 C 
ATOM     15  O   UNL A   1      31.931  29.653  24.237  1.00  0.00    -0.224 OA
BRANCH  14  16
ATOM     16  O   UNL A   1      29.745  29.042  23.930  1.00  0.00    -0.444 OA
BRANCH  16  17
ATOM     17  C   UNL A   1      28.994  29.950  23.081  1.00  0.00     0.106 C 
ATOM     18  C   UNL A   1      27.646  29.253  22.840  1.00  0.00     0.056 C 
ATOM     19  C   UNL A   1      29.728  30.099  21.746  1.00  0.00     0.056 C 
ATOM     20  C   UNL A   1      28.708  31.310  23.732  1.00  0.00     0.056 C 
ENDBRANCH  16  17
ENDBRANCH  14  16
ENDBRANCH   9  14
BRANCH  13  21
ATOM     21  C   UNL A   1      33.314  24.063  22.039  1.00  0.00     0.254 C 
ATOM     22  O   UNL A   1      33.305  23.656  20.878  1.00  0.00    -0.269 OA
BRANCH  21  23
ATOM     23  C   UNL A   1      34.038  23.224  23.015  1.00  0.00     0.044 A 
ATOM     24  C   UNL A   1      33.439  22.060  23.540  1.00  0.00     0.018 A 
ATOM     25  C   UNL A   1      35.352  23.568  23.360  1.00  0.00     0.064 A 
ATOM     26  C   UNL A   1      34.103  21.297  24.506  1.00  0.00     0.051 A 
ATOM     27  C   UNL A   1      35.984  22.784  24.303  1.00  0.00     0.166 A 
ATOM     28  C   UNL A   1      35.371  21.693  24.873  1.00  0.00     0.165 A 
ATOM     29  O   UNL A   1      37.236  22.988  24.794  1.00  0.00    -0.454 OA
ATOM     30  O   UNL A   1      36.151  21.087  25.808  1.00  0.00    -0.454 OA
ATOM     31  C   UNL A   1      37.330  21.918  25.757  1.00  0.00     0.468 C 
ENDBRANCH  21  23
ENDBRANCH  13  21
ENDBRANCH   5   8
ENDBRANCH   3   4
ENDBRANCH   2   3
ENDBRANCH   1   2
BRANCH   1  32
ATOM     32  C   UNL A   1      33.105  27.069  26.428  1.00  0.00     0.002 C 
BRANCH  32  33
ATOM     33  C   UNL A   1      33.394  28.334  27.239  1.00  0.00     0.021 C 
BRANCH  33  34
ATOM     34  C   UNL A   1      34.286  29.341  26.521  1.00  0.00     0.116 C 
BRANCH  34  35
ATOM     35  N   UNL A   1      34.019  30.701  26.958  1.00  0.00    -0.352 N 
ATOM     36  C   UNL A   1      34.626  31.421  27.956  1.00  0.00     0.251 C 
ATOM     37  H   UNL A   1      33.303  31.170  26.472  1.00  0.00     0.163 HD
ATOM     38  O   UNL A   1      34.115  32.464  28.352  1.00  0.00    -0.269 OA
BRANCH  36  39
ATOM     39  C   UNL A   1      35.877  30.916  28.561  1.00  0.00     0.039 A 
ATOM     40  C   UNL A   1      35.807  29.865  29.476  1.00  0.00     0.014 A 
ATOM     41  C   UNL A   1      37.113  31.473  28.220  1.00  0.00     0.014 A 
ATOM     42  C   UNL A   1      36.985  29.334  30.003  1.00  0.00     0.010 A 
ATOM     43  C   UNL A   1      38.288  30.889  28.684  1.00  0.00     0.010 A 
ATOM     44  C   UNL A   1      38.237  29.813  29.584  1.00  0.00    -0.014 A 
BRANCH  44  45
ATOM     45  C   UNL A   1      39.497  29.191  30.069  1.00  0.00     0.031 A 
ATOM     46  C   UNL A   1      40.206  29.753  31.272  1.00  0.00     0.074 A 
ATOM     47  C   UNL A   1      40.022  28.145  29.398  1.00  0.00     0.049 A 
ATOM     48  N   UNL A   1      41.334  29.374  31.817  1.00  0.00    -0.248 NA
ATOM     49  C   UNL A   1      39.580  30.907  31.936  1.00  0.00     0.031 C 
ATOM     50  C   UNL A   1      39.442  27.538  28.197  1.00  0.00     0.029 A 
ATOM     51  N   UNL A   1      41.158  27.408  29.624  1.00  0.00    -0.354 N 
ATOM     52  C   UNL A   1      41.556  30.243  32.880  1.00  0.00     0.074 A 
ATOM     53  C   UNL A   1      40.475  31.206  32.865  1.00  0.00     0.031 C 
ATOM     54  C   UNL A   1      40.206  26.502  27.815  1.00  0.00     0.029 A 
ATOM     55  C   UNL A   1      41.359  26.403  28.704  1.00  0.00     0.049 A 
ATOM     56  H   UNL A   1      41.771  27.581  30.373  1.00  0.00     0.167 HD
ATOM     57  C   UNL A   1      42.558  30.226  33.793  1.00  0.00     0.034 A 
ATOM     58  C   UNL A   1      42.365  25.514  28.580  1.00  0.00     0.034 A 
ATOM     59  C   UNL A   1      43.621  29.252  33.799  1.00  0.00     0.049 A 
ATOM     60  C   UNL A   1      43.488  25.546  29.589  1.00  0.00     0.074 A 
ATOM     61  C   UNL A   1      44.650  29.111  34.714  1.00  0.00     0.029 A 
ATOM     62  N   UNL A   1      43.802  28.261  32.842  1.00  0.00    -0.354 N 
ATOM     63  N   UNL A   1      43.647  26.339  30.623  1.00  0.00    -0.248 NA
ATOM     64  C   UNL A   1      44.559  24.556  29.420  1.00  0.00     0.031 C 
ATOM     65  C   UNL A   1      45.499  28.094  34.265  1.00  0.00     0.029 A 
ATOM     66  C   UNL A   1      44.949  27.533  33.123  1.00  0.00     0.049 A 
ATOM     67  H   UNL A   1      43.204  28.098  32.079  1.00  0.00     0.167 HD
ATOM     68  C   UNL A   1      44.818  25.916  31.248  1.00  0.00     0.074 A 
ATOM     69  C   UNL A   1      45.308  24.786  30.487  1.00  0.00     0.031 C 
ATOM     70  C   UNL A   1      45.432  26.412  32.352  1.00  0.00     0.034 A 
BRANCH  57  71
ATOM     71  C   UNL A   1      42.568  31.308  34.846  1.00  0.00     0.023 A 
ATOM     72  C   UNL A   1      43.385  32.446  34.735  1.00  0.00     0.031 A 
ATOM     73  C   UNL A   1      41.732  31.206  35.974  1.00  0.00     0.131 A 
ATOM     74  C   UNL A   1      43.390  33.408  35.758  1.00  0.00     0.055 A 
ATOM     75  C   UNL A   1      41.684  32.205  36.948  1.00  0.00     0.041 A 
ATOM     76  F   UNL A   1      40.949  30.131  36.148  1.00  0.00    -0.206 F 
ATOM     77  C   UNL A   1      42.523  33.309  36.849  1.00  0.00     0.022 A 
BRANCH  74  78
ATOM     78  S   UNL A   1      44.633  34.727  35.702  1.00  0.00     0.124 S 
ATOM     79  O   UNL A   1      43.809  35.917  35.906  1.00  0.00    -0.237 OA
ATOM     80  O   UNL A   1      45.523  34.370  36.802  1.00  0.00    -0.237 OA
ATOM     81  O   UNL A   1      45.209  34.598  34.366  1.00  0.00    -0.744 OA
ENDBRANCH  74  78
ENDBRANCH  57  71
BRANCH  58  82
ATOM     82  C   UNL A   1      42.385  24.531  27.456  1.00  0.00     0.023 A 
ATOM     83  C   UNL A   1      41.777  23.272  27.586  1.00  0.00     0.031 A 
ATOM     84  C   UNL A   1      43.082  24.802  26.265  1.00  0.00     0.131 A 
ATOM     85  C   UNL A   1      41.937  22.308  26.579  1.00  0.00     0.055 A 
ATOM     86  C   UNL A   1      43.177  23.866  25.234  1.00  0.00     0.041 A 
ATOM     87  F   UNL A   1      43.685  25.988  26.083  1.00  0.00    -0.206 F 
ATOM     88  C   UNL A   1      42.619  22.601  25.396  1.00  0.00     0.022 A 
BRANCH  85  89
ATOM     89  S   UNL A   1      41.356  20.619  26.896  1.00  0.00     0.124 S 
ATOM     90  O   UNL A   1      40.344  20.457  25.859  1.00  0.00    -0.237 OA
ATOM     91  O   UNL A   1      42.580  19.842  26.727  1.00  0.00    -0.237 OA
ATOM     92  O   UNL A   1      40.845  20.688  28.263  1.00  0.00    -0.744 OA
ENDBRANCH  85  89
ENDBRANCH  58  82
BRANCH  70  93
ATOM     93  C   UNL A   1      46.676  25.699  32.829  1.00  0.00     0.023 A 
ATOM     94  C   UNL A   1      46.617  24.648  33.760  1.00  0.00     0.031 A 
ATOM     95  C   UNL A   1      47.941  26.092  32.357  1.00  0.00     0.131 A 
ATOM     96  C   UNL A   1      47.803  24.071  34.239  1.00  0.00     0.055 A 
ATOM     97  C   UNL A   1      49.113  25.464  32.781  1.00  0.00     0.041 A 
ATOM     98  F   UNL A   1      48.060  27.094  31.470  1.00  0.00    -0.206 F 
ATOM     99  C   UNL A   1      49.049  24.457  33.740  1.00  0.00     0.022 A 
BRANCH  96 100
ATOM    100  S   UNL A   1      47.702  22.884  35.606  1.00  0.00     0.124 S 
ATOM    101  O   UNL A   1      46.412  22.248  35.361  1.00  0.00    -0.237 OA
ATOM    102  O   UNL A   1      48.876  22.047  35.382  1.00  0.00    -0.237 OA
ATOM    103  O   UNL A   1      47.762  23.729  36.799  1.00  0.00    -0.744 OA
ENDBRANCH  96 100
ENDBRANCH  70  93
ENDBRANCH  44  45
ENDBRANCH  36  39
ENDBRANCH  34  35
ENDBRANCH  33  34
ENDBRANCH  32  33
ENDBRANCH   1  32
TORSDOF 21
ENDMDL
