MODEL 1
REMARK VINA RESULT:     -12.0      0.000      0.000
REMARK SMILES O=C(NCCCCCCNC(=O)[C@@]1([NH2+]C2CC2)CCC[C@@H](n2cncn2)C1)c1ccc(-c2c3nc(c(-c4cc(S(=O)(=O)[O-])ccc4F)c4ccc([nH]4)c(-c4cc(S(=O)(=O)[O-])ccc4F)c4nc(c(-c5cc(S(=O)(=O)[O-])ccc5F)c5ccc2[nH]5)C=C4)C=C3)cc1
REMARK SMILES IDX 6 1 5 2 4 3 3 4 1 5 2 6 28 8 29 9 90 10 30 11 89 12 31 13
REMARK SMILES IDX 32 14 33 15 83 16 34 17 88 18 82 19 84 20 35 21 87 22 81 23
REMARK SMILES IDX 80 24 36 26 68 27 48 28 67 29 49 30 52 31 66 32 85 33 50 34
REMARK SMILES IDX 51 35 65 37 86 38 53 39 37 40 38 41 46 42 39 43 45 44 47 45
REMARK SMILES IDX 44 46 40 47 41 48 42 49 43 50 69 51 70 52 78 53 71 54 77 55
REMARK SMILES IDX 79 56 76 57 72 58 73 59 74 60 75 61 54 62 55 63 63 64 56 65
REMARK SMILES IDX 62 66 64 67 61 68 57 69 58 70 59 71 60 72 7 73 8 74 9 75
REMARK SMILES IDX 10 76 11 77 12 79 13 80 18 81 27 82 19 83 21 84 20 85 14 86
REMARK SMILES IDX 15 89 16 90 17 91 22 92 23 93 26 94 24 95 25 96
REMARK H PARENT 3 7 84 25 52 36 10 78 14 87 14 88
REMARK Flexibility Score: inf
ROOT
ATOM      1  C   UNL A   1      32.187  28.708  26.310  1.00  0.00     0.002 C 
ENDROOT
BRANCH   1   2
ATOM      2  C   UNL A   1      33.288  28.162  27.224  1.00  0.00     0.021 C 
BRANCH   2   3
ATOM      3  C   UNL A   1      34.606  28.931  27.186  1.00  0.00     0.116 C 
BRANCH   3   4
ATOM      4  N   UNL A   1      34.869  29.752  28.352  1.00  0.00    -0.352 N 
ATOM      5  O   UNL A   1      35.826  30.839  30.022  1.00  0.00    -0.269 OA
ATOM      6  C   UNL A   1      35.987  30.062  29.076  1.00  0.00     0.251 C 
ATOM      7  H   UNL A   1      34.058  30.187  28.701  1.00  0.00     0.163 HD
BRANCH   6   8
ATOM      8  C   UNL A   1      37.342  29.500  28.831  1.00  0.00     0.039 A 
ATOM      9  C   UNL A   1      38.137  29.773  27.717  1.00  0.00     0.014 A 
ATOM     10  C   UNL A   1      37.861  28.671  29.843  1.00  0.00     0.014 A 
ATOM     11  C   UNL A   1      39.397  29.186  27.588  1.00  0.00     0.010 A 
ATOM     12  C   UNL A   1      39.128  28.104  29.730  1.00  0.00     0.010 A 
ATOM     13  C   UNL A   1      39.894  28.349  28.592  1.00  0.00    -0.014 A 
BRANCH  13  14
ATOM     14  C   UNL A   1      41.284  27.894  28.496  1.00  0.00     0.031 A 
ATOM     15  C   UNL A   1      41.494  26.601  27.778  1.00  0.00     0.074 A 
ATOM     16  C   UNL A   1      42.354  28.643  28.832  1.00  0.00     0.049 A 
ATOM     17  N   UNL A   1      42.071  25.524  28.204  1.00  0.00    -0.248 NA
ATOM     18  C   UNL A   1      40.927  26.471  26.426  1.00  0.00     0.031 C 
ATOM     19  C   UNL A   1      42.363  30.046  29.245  1.00  0.00     0.029 A 
ATOM     20  N   UNL A   1      43.684  28.331  28.749  1.00  0.00    -0.354 N 
ATOM     21  C   UNL A   1      42.112  24.643  27.123  1.00  0.00     0.074 A 
ATOM     22  C   UNL A   1      41.280  25.226  26.103  1.00  0.00     0.031 C 
ATOM     23  C   UNL A   1      43.624  30.524  29.157  1.00  0.00     0.029 A 
ATOM     24  C   UNL A   1      44.524  29.437  28.803  1.00  0.00     0.049 A 
ATOM     25  H   UNL A   1      44.014  27.408  28.660  1.00  0.00     0.167 HD
ATOM     26  C   UNL A   1      42.963  23.577  27.082  1.00  0.00     0.034 A 
ATOM     27  C   UNL A   1      45.848  29.484  28.501  1.00  0.00     0.034 A 
ATOM     28  C   UNL A   1      43.471  23.256  28.392  1.00  0.00     0.049 A 
ATOM     29  C   UNL A   1      46.385  28.107  28.609  1.00  0.00     0.074 A 
ATOM     30  C   UNL A   1      42.899  22.898  29.598  1.00  0.00     0.029 A 
ATOM     31  N   UNL A   1      44.773  23.583  28.691  1.00  0.00    -0.354 N 
ATOM     32  N   UNL A   1      46.472  27.448  29.730  1.00  0.00    -0.248 NA
ATOM     33  C   UNL A   1      46.445  27.289  27.407  1.00  0.00     0.031 C 
ATOM     34  C   UNL A   1      43.712  23.521  30.589  1.00  0.00     0.029 A 
ATOM     35  C   UNL A   1      44.754  24.174  29.929  1.00  0.00     0.049 A 
ATOM     36  H   UNL A   1      45.564  23.425  28.127  1.00  0.00     0.167 HD
ATOM     37  C   UNL A   1      46.168  26.138  29.402  1.00  0.00     0.074 A 
ATOM     38  C   UNL A   1      46.276  26.079  27.947  1.00  0.00     0.031 C 
ATOM     39  C   UNL A   1      45.589  25.296  30.308  1.00  0.00     0.034 A 
BRANCH  26  40
ATOM     40  C   UNL A   1      43.579  22.990  25.829  1.00  0.00     0.023 A 
ATOM     41  C   UNL A   1      43.633  21.584  25.723  1.00  0.00     0.031 A 
ATOM     42  C   UNL A   1      44.362  23.705  24.896  1.00  0.00     0.131 A 
ATOM     43  C   UNL A   1      44.497  20.957  24.809  1.00  0.00     0.055 A 
ATOM     44  C   UNL A   1      45.160  23.076  23.935  1.00  0.00     0.041 A 
ATOM     45  F   UNL A   1      44.474  25.038  24.923  1.00  0.00    -0.206 F 
ATOM     46  C   UNL A   1      45.259  21.695  23.908  1.00  0.00     0.022 A 
BRANCH  43  47
ATOM     47  S   UNL A   1      44.757  19.169  24.955  1.00  0.00     0.124 S 
ATOM     48  O   UNL A   1      44.798  18.762  23.555  1.00  0.00    -0.237 OA
ATOM     49  O   UNL A   1      46.020  19.106  25.683  1.00  0.00    -0.237 OA
ATOM     50  O   UNL A   1      43.584  18.715  25.701  1.00  0.00    -0.744 OA
ENDBRANCH  43  47
ENDBRANCH  26  40
BRANCH  27  51
ATOM     51  C   UNL A   1      46.580  30.606  27.854  1.00  0.00     0.023 A 
ATOM     52  C   UNL A   1      45.946  31.560  27.033  1.00  0.00     0.031 A 
ATOM     53  C   UNL A   1      47.915  30.881  28.232  1.00  0.00     0.131 A 
ATOM     54  C   UNL A   1      46.646  32.716  26.615  1.00  0.00     0.055 A 
ATOM     55  C   UNL A   1      48.607  32.015  27.805  1.00  0.00     0.041 A 
ATOM     56  F   UNL A   1      48.568  30.095  29.102  1.00  0.00    -0.206 F 
ATOM     57  C   UNL A   1      47.971  32.944  26.998  1.00  0.00     0.022 A 
BRANCH  54  58
ATOM     58  S   UNL A   1      45.802  34.006  25.645  1.00  0.00     0.124 S 
ATOM     59  O   UNL A   1      46.905  34.625  24.924  1.00  0.00    -0.237 OA
ATOM     60  O   UNL A   1      44.857  33.228  24.846  1.00  0.00    -0.237 OA
ATOM     61  O   UNL A   1      45.182  34.850  26.668  1.00  0.00    -0.744 OA
ENDBRANCH  54  58
ENDBRANCH  27  51
BRANCH  39  62
ATOM     62  C   UNL A   1      45.585  25.685  31.769  1.00  0.00     0.023 A 
ATOM     63  C   UNL A   1      44.426  26.012  32.506  1.00  0.00     0.031 A 
ATOM     64  C   UNL A   1      46.799  25.585  32.471  1.00  0.00     0.131 A 
ATOM     65  C   UNL A   1      44.514  26.238  33.894  1.00  0.00     0.055 A 
ATOM     66  C   UNL A   1      46.880  25.791  33.847  1.00  0.00     0.041 A 
ATOM     67  F   UNL A   1      47.931  25.243  31.832  1.00  0.00    -0.206 F 
ATOM     68  C   UNL A   1      45.737  26.125  34.563  1.00  0.00     0.022 A 
BRANCH  65  69
ATOM     69  S   UNL A   1      43.032  26.686  34.853  1.00  0.00     0.124 S 
ATOM     70  O   UNL A   1      42.309  27.587  33.966  1.00  0.00    -0.237 OA
ATOM     71  O   UNL A   1      42.409  25.385  35.094  1.00  0.00    -0.237 OA
ATOM     72  O   UNL A   1      43.584  27.322  36.051  1.00  0.00    -0.744 OA
ENDBRANCH  65  69
ENDBRANCH  39  62
ENDBRANCH  13  14
ENDBRANCH   6   8
ENDBRANCH   3   4
ENDBRANCH   2   3
ENDBRANCH   1   2
BRANCH   1  73
ATOM     73  C   UNL A   1      31.468  27.672  25.437  1.00  0.00     0.002 C 
BRANCH  73  74
ATOM     74  C   UNL A   1      31.321  26.283  26.070  1.00  0.00     0.021 C 
BRANCH  74  75
ATOM     75  C   UNL A   1      32.171  25.213  25.381  1.00  0.00     0.116 C 
BRANCH  75  76
ATOM     76  N   UNL A   1      32.633  24.207  26.304  1.00  0.00    -0.351 N 
ATOM     77  C   UNL A   1      33.598  23.270  26.263  1.00  0.00     0.281 C 
ATOM     78  H   UNL A   1      32.132  24.205  27.151  1.00  0.00     0.163 HD
ATOM     79  O   UNL A   1      33.939  22.912  27.407  1.00  0.00    -0.268 OA
BRANCH  77  80
ATOM     80  C   UNL A   1      34.313  22.647  24.999  1.00  0.00     0.177 C 
ATOM     81  C   UNL A   1      34.656  23.699  23.933  1.00  0.00     0.079 C 
ATOM     82  C   UNL A   1      35.702  22.200  25.612  1.00  0.00     0.106 C 
ATOM     83  C   UNL A   1      35.631  23.167  22.876  1.00  0.00     0.009 C 
ATOM     84  C   UNL A   1      36.796  21.732  24.642  1.00  0.00     0.116 C 
ATOM     85  C   UNL A   1      36.958  22.737  23.489  1.00  0.00     0.028 C 
BRANCH  80  86
ATOM     86  N   UNL A   1      33.692  21.398  24.491  1.00  0.00    -0.331 N 
ATOM     87  H   UNL A   1      34.235  21.154  23.663  1.00  0.00     0.347 HD
ATOM     88  H   UNL A   1      32.719  21.700  24.461  1.00  0.00     0.347 HD
BRANCH  86  89
ATOM     89  C   UNL A   1      33.524  20.137  25.217  1.00  0.00     0.183 C 
ATOM     90  C   UNL A   1      32.602  18.981  24.956  1.00  0.00     0.071 C 
ATOM     91  C   UNL A   1      34.030  18.866  24.558  1.00  0.00     0.071 C 
ENDBRANCH  86  89
ENDBRANCH  80  86
BRANCH  84  92
ATOM     92  N   UNL A   1      38.060  21.507  25.357  1.00  0.00    -0.250 N 
ATOM     93  C   UNL A   1      38.816  20.369  25.405  1.00  0.00     0.220 A 
ATOM     94  N   UNL A   1      38.643  22.479  26.090  1.00  0.00    -0.160 NA
ATOM     95  N   UNL A   1      39.854  20.551  26.189  1.00  0.00    -0.224 NA
ATOM     96  C   UNL A   1      39.699  21.842  26.597  1.00  0.00     0.246 A 
ENDBRANCH  84  92
ENDBRANCH  77  80
ENDBRANCH  75  76
ENDBRANCH  74  75
ENDBRANCH  73  74
ENDBRANCH   1  73
TORSDOF 19
ENDMDL
MODEL 2
REMARK VINA RESULT:     -11.9      2.510      7.156
REMARK SMILES O=C(NCCCCCCNC(=O)[C@@]1([NH2+]C2CC2)CCC[C@@H](n2cncn2)C1)c1ccc(-c2c3nc(c(-c4cc(S(=O)(=O)[O-])ccc4F)c4ccc([nH]4)c(-c4cc(S(=O)(=O)[O-])ccc4F)c4nc(c(-c5cc(S(=O)(=O)[O-])ccc5F)c5ccc2[nH]5)C=C4)C=C3)cc1
REMARK SMILES IDX 6 1 5 2 4 3 3 4 1 5 2 6 28 8 29 9 90 10 30 11 89 12 31 13
REMARK SMILES IDX 32 14 33 15 83 16 34 17 88 18 82 19 84 20 35 21 87 22 81 23
REMARK SMILES IDX 80 24 36 26 68 27 48 28 67 29 49 30 52 31 66 32 85 33 50 34
REMARK SMILES IDX 51 35 65 37 86 38 53 39 37 40 38 41 46 42 39 43 45 44 47 45
REMARK SMILES IDX 44 46 40 47 41 48 42 49 43 50 69 51 70 52 78 53 71 54 77 55
REMARK SMILES IDX 79 56 76 57 72 58 73 59 74 60 75 61 54 62 55 63 63 64 56 65
REMARK SMILES IDX 62 66 64 67 61 68 57 69 58 70 59 71 60 72 7 73 8 74 9 75
REMARK SMILES IDX 10 76 11 77 12 79 13 80 18 81 27 82 19 83 21 84 20 85 14 86
REMARK SMILES IDX 15 89 16 90 17 91 22 92 23 93 26 94 24 95 25 96
REMARK H PARENT 3 7 84 25 52 36 10 78 14 87 14 88
REMARK Flexibility Score: inf
ROOT
ATOM      1  C   UNL A   1      32.740  28.983  27.211  1.00  0.00     0.002 C 
ENDROOT
BRANCH   1   2
ATOM      2  C   UNL A   1      32.855  30.490  26.965  1.00  0.00     0.021 C 
BRANCH   2   3
ATOM      3  C   UNL A   1      34.196  31.112  27.345  1.00  0.00     0.116 C 
BRANCH   3   4
ATOM      4  N   UNL A   1      34.224  31.763  28.640  1.00  0.00    -0.352 N 
ATOM      5  O   UNL A   1      34.816  32.549  30.620  1.00  0.00    -0.269 OA
ATOM      6  C   UNL A   1      35.149  31.872  29.642  1.00  0.00     0.251 C 
ATOM      7  H   UNL A   1      33.385  32.236  28.844  1.00  0.00     0.163 HD
BRANCH   6   8
ATOM      8  C   UNL A   1      36.478  31.206  29.648  1.00  0.00     0.039 A 
ATOM      9  C   UNL A   1      37.708  31.864  29.683  1.00  0.00     0.014 A 
ATOM     10  C   UNL A   1      36.465  29.799  29.671  1.00  0.00     0.014 A 
ATOM     11  C   UNL A   1      38.899  31.135  29.683  1.00  0.00     0.010 A 
ATOM     12  C   UNL A   1      37.650  29.068  29.696  1.00  0.00     0.010 A 
ATOM     13  C   UNL A   1      38.872  29.737  29.688  1.00  0.00    -0.014 A 
BRANCH  13  14
ATOM     14  C   UNL A   1      40.138  29.016  29.860  1.00  0.00     0.031 A 
ATOM     15  C   UNL A   1      40.543  28.748  31.273  1.00  0.00     0.074 A 
ATOM     16  C   UNL A   1      40.824  28.435  28.856  1.00  0.00     0.049 A 
ATOM     17  N   UNL A   1      41.638  29.078  31.876  1.00  0.00    -0.248 NA
ATOM     18  C   UNL A   1      39.567  28.076  32.147  1.00  0.00     0.031 C 
ATOM     19  C   UNL A   1      40.418  28.313  27.455  1.00  0.00     0.029 A 
ATOM     20  N   UNL A   1      41.986  27.714  28.910  1.00  0.00    -0.354 N 
ATOM     21  C   UNL A   1      41.580  28.501  33.145  1.00  0.00     0.074 A 
ATOM     22  C   UNL A   1      40.235  28.014  33.300  1.00  0.00     0.031 C 
ATOM     23  C   UNL A   1      41.192  27.383  26.851  1.00  0.00     0.029 A 
ATOM     24  C   UNL A   1      42.218  26.937  27.781  1.00  0.00     0.049 A 
ATOM     25  H   UNL A   1      42.600  27.743  29.679  1.00  0.00     0.167 HD
ATOM     26  C   UNL A   1      42.692  28.316  33.914  1.00  0.00     0.034 A 
ATOM     27  C   UNL A   1      43.132  25.942  27.637  1.00  0.00     0.034 A 
ATOM     28  C   UNL A   1      43.792  29.128  33.457  1.00  0.00     0.049 A 
ATOM     29  C   UNL A   1      44.186  26.145  28.659  1.00  0.00     0.074 A 
ATOM     30  C   UNL A   1      43.997  30.483  33.285  1.00  0.00     0.029 A 
ATOM     31  N   UNL A   1      44.826  28.517  32.786  1.00  0.00    -0.354 N 
ATOM     32  N   UNL A   1      45.009  27.155  28.661  1.00  0.00    -0.248 NA
ATOM     33  C   UNL A   1      44.066  25.445  29.929  1.00  0.00     0.031 C 
ATOM     34  C   UNL A   1      44.809  30.588  32.119  1.00  0.00     0.029 A 
ATOM     35  C   UNL A   1      45.090  29.291  31.685  1.00  0.00     0.049 A 
ATOM     36  H   UNL A   1      45.287  27.687  33.045  1.00  0.00     0.167 HD
ATOM     37  C   UNL A   1      45.175  27.480  29.996  1.00  0.00     0.074 A 
ATOM     38  C   UNL A   1      44.667  26.326  30.732  1.00  0.00     0.031 C 
ATOM     39  C   UNL A   1      45.451  28.761  30.385  1.00  0.00     0.034 A 
BRANCH  26  40
ATOM     40  C   UNL A   1      42.899  27.191  34.907  1.00  0.00     0.023 A 
ATOM     41  C   UNL A   1      43.651  26.074  34.484  1.00  0.00     0.031 A 
ATOM     42  C   UNL A   1      42.174  27.023  36.106  1.00  0.00     0.131 A 
ATOM     43  C   UNL A   1      43.583  24.851  35.172  1.00  0.00     0.055 A 
ATOM     44  C   UNL A   1      42.173  25.826  36.831  1.00  0.00     0.041 A 
ATOM     45  F   UNL A   1      41.355  27.963  36.591  1.00  0.00    -0.206 F 
ATOM     46  C   UNL A   1      42.853  24.719  36.349  1.00  0.00     0.022 A 
BRANCH  43  47
ATOM     47  S   UNL A   1      44.306  23.382  34.392  1.00  0.00     0.124 S 
ATOM     48  O   UNL A   1      44.826  22.660  35.549  1.00  0.00    -0.237 OA
ATOM     49  O   UNL A   1      43.148  22.792  33.731  1.00  0.00    -0.237 OA
ATOM     50  O   UNL A   1      45.320  23.937  33.498  1.00  0.00    -0.744 OA
ENDBRANCH  43  47
ENDBRANCH  26  40
BRANCH  27  51
ATOM     51  C   UNL A   1      42.973  24.686  26.855  1.00  0.00     0.023 A 
ATOM     52  C   UNL A   1      43.856  24.312  25.823  1.00  0.00     0.031 A 
ATOM     53  C   UNL A   1      42.046  23.707  27.283  1.00  0.00     0.131 A 
ATOM     54  C   UNL A   1      43.779  23.017  25.256  1.00  0.00     0.055 A 
ATOM     55  C   UNL A   1      41.964  22.437  26.712  1.00  0.00     0.041 A 
ATOM     56  F   UNL A   1      41.240  23.925  28.334  1.00  0.00    -0.206 F 
ATOM     57  C   UNL A   1      42.837  22.084  25.697  1.00  0.00     0.022 A 
BRANCH  54  58
ATOM     58  S   UNL A   1      44.986  22.488  23.998  1.00  0.00     0.124 S 
ATOM     59  O   UNL A   1      45.892  23.627  23.938  1.00  0.00    -0.237 OA
ATOM     60  O   UNL A   1      45.523  21.259  24.578  1.00  0.00    -0.237 OA
ATOM     61  O   UNL A   1      44.166  22.289  22.803  1.00  0.00    -0.744 OA
ENDBRANCH  54  58
ENDBRANCH  27  51
BRANCH  39  62
ATOM     62  C   UNL A   1      45.906  29.759  29.345  1.00  0.00     0.023 A 
ATOM     63  C   UNL A   1      45.046  30.422  28.442  1.00  0.00     0.031 A 
ATOM     64  C   UNL A   1      47.256  30.150  29.367  1.00  0.00     0.131 A 
ATOM     65  C   UNL A   1      45.553  31.428  27.597  1.00  0.00     0.055 A 
ATOM     66  C   UNL A   1      47.751  31.159  28.543  1.00  0.00     0.041 A 
ATOM     67  F   UNL A   1      48.117  29.581  30.229  1.00  0.00    -0.206 F 
ATOM     68  C   UNL A   1      46.901  31.798  27.648  1.00  0.00     0.022 A 
BRANCH  65  69
ATOM     69  S   UNL A   1      44.461  32.274  26.410  1.00  0.00     0.124 S 
ATOM     70  O   UNL A   1      45.364  32.680  25.341  1.00  0.00    -0.237 OA
ATOM     71  O   UNL A   1      43.494  31.230  26.072  1.00  0.00    -0.237 OA
ATOM     72  O   UNL A   1      43.905  33.381  27.191  1.00  0.00    -0.744 OA
ENDBRANCH  65  69
ENDBRANCH  39  62
ENDBRANCH  13  14
ENDBRANCH   6   8
ENDBRANCH   3   4
ENDBRANCH   2   3
ENDBRANCH   1   2
BRANCH   1  73
ATOM     73  C   UNL A   1      31.462  28.315  26.692  1.00  0.00     0.002 C 
BRANCH  73  74
ATOM     74  C   UNL A   1      31.454  26.784  26.771  1.00  0.00     0.021 C 
BRANCH  74  75
ATOM     75  C   UNL A   1      30.404  26.138  25.863  1.00  0.00     0.116 C 
BRANCH  75  76
ATOM     76  N   UNL A   1      30.069  24.802  26.283  1.00  0.00    -0.351 N 
ATOM     77  C   UNL A   1      30.785  23.684  26.512  1.00  0.00     0.281 C 
ATOM     78  H   UNL A   1      29.106  24.677  26.437  1.00  0.00     0.163 HD
ATOM     79  O   UNL A   1      30.177  22.895  27.261  1.00  0.00    -0.268 OA
BRANCH  77  80
ATOM     80  C   UNL A   1      32.229  23.315  25.987  1.00  0.00     0.177 C 
ATOM     81  C   UNL A   1      33.263  23.211  27.119  1.00  0.00     0.079 C 
ATOM     82  C   UNL A   1      32.009  21.831  25.480  1.00  0.00     0.106 C 
ATOM     83  C   UNL A   1      34.563  22.536  26.666  1.00  0.00     0.009 C 
ATOM     84  C   UNL A   1      33.250  21.019  25.082  1.00  0.00     0.116 C 
ATOM     85  C   UNL A   1      34.328  21.113  26.177  1.00  0.00     0.028 C 
BRANCH  80  86
ATOM     86  N   UNL A   1      32.664  24.075  24.789  1.00  0.00    -0.331 N 
ATOM     87  H   UNL A   1      33.665  23.899  24.717  1.00  0.00     0.347 HD
ATOM     88  H   UNL A   1      32.265  24.985  25.020  1.00  0.00     0.347 HD
BRANCH  86  89
ATOM     89  C   UNL A   1      32.156  23.936  23.423  1.00  0.00     0.183 C 
ATOM     90  C   UNL A   1      32.383  24.791  22.209  1.00  0.00     0.071 C 
ATOM     91  C   UNL A   1      33.136  23.516  22.341  1.00  0.00     0.071 C 
ENDBRANCH  86  89
ENDBRANCH  80  86
BRANCH  84  92
ATOM     92  N   UNL A   1      32.884  19.626  24.789  1.00  0.00    -0.250 N 
ATOM     93  C   UNL A   1      32.718  19.033  23.569  1.00  0.00     0.220 A 
ATOM     94  N   UNL A   1      32.661  18.729  25.773  1.00  0.00    -0.160 NA
ATOM     95  N   UNL A   1      32.345  17.783  23.724  1.00  0.00    -0.224 NA
ATOM     96  C   UNL A   1      32.307  17.647  25.080  1.00  0.00     0.246 A 
ENDBRANCH  84  92
ENDBRANCH  77  80
ENDBRANCH  75  76
ENDBRANCH  74  75
ENDBRANCH  73  74
ENDBRANCH   1  73
TORSDOF 19
ENDMDL
MODEL 3
REMARK VINA RESULT:     -11.9      3.611      8.716
REMARK SMILES O=C(NCCCCCCNC(=O)[C@@]1([NH2+]C2CC2)CCC[C@@H](n2cncn2)C1)c1ccc(-c2c3nc(c(-c4cc(S(=O)(=O)[O-])ccc4F)c4ccc([nH]4)c(-c4cc(S(=O)(=O)[O-])ccc4F)c4nc(c(-c5cc(S(=O)(=O)[O-])ccc5F)c5ccc2[nH]5)C=C4)C=C3)cc1
REMARK SMILES IDX 6 1 5 2 4 3 3 4 1 5 2 6 28 8 29 9 90 10 30 11 89 12 31 13
REMARK SMILES IDX 32 14 33 15 83 16 34 17 88 18 82 19 84 20 35 21 87 22 81 23
REMARK SMILES IDX 80 24 36 26 68 27 48 28 67 29 49 30 52 31 66 32 85 33 50 34
REMARK SMILES IDX 51 35 65 37 86 38 53 39 37 40 38 41 46 42 39 43 45 44 47 45
REMARK SMILES IDX 44 46 40 47 41 48 42 49 43 50 69 51 70 52 78 53 71 54 77 55
REMARK SMILES IDX 79 56 76 57 72 58 73 59 74 60 75 61 54 62 55 63 63 64 56 65
REMARK SMILES IDX 62 66 64 67 61 68 57 69 58 70 59 71 60 72 7 73 8 74 9 75
REMARK SMILES IDX 10 76 11 77 12 79 13 80 18 81 27 82 19 83 21 84 20 85 14 86
REMARK SMILES IDX 15 89 16 90 17 91 22 92 23 93 26 94 24 95 25 96
REMARK H PARENT 3 7 84 25 52 36 10 78 14 87 14 88
REMARK Flexibility Score: inf
ROOT
ATOM      1  C   UNL A   1      36.258  20.674  25.108  1.00  0.00     0.002 C 
ENDROOT
BRANCH   1   2
ATOM      2  C   UNL A   1      37.421  21.578  24.690  1.00  0.00     0.021 C 
BRANCH   2   3
ATOM      3  C   UNL A   1      37.987  22.464  25.798  1.00  0.00     0.116 C 
BRANCH   3   4
ATOM      4  N   UNL A   1      39.170  21.942  26.454  1.00  0.00    -0.352 N 
ATOM      5  O   UNL A   1      41.007  21.699  27.659  1.00  0.00    -0.269 OA
ATOM      6  C   UNL A   1      40.140  22.479  27.256  1.00  0.00     0.251 C 
ATOM      7  H   UNL A   1      39.305  20.982  26.286  1.00  0.00     0.163 HD
BRANCH   6   8
ATOM      8  C   UNL A   1      40.239  23.917  27.623  1.00  0.00     0.039 A 
ATOM      9  C   UNL A   1      39.246  24.872  27.409  1.00  0.00     0.014 A 
ATOM     10  C   UNL A   1      41.419  24.307  28.285  1.00  0.00     0.014 A 
ATOM     11  C   UNL A   1      39.448  26.199  27.794  1.00  0.00     0.010 A 
ATOM     12  C   UNL A   1      41.613  25.623  28.693  1.00  0.00     0.010 A 
ATOM     13  C   UNL A   1      40.631  26.577  28.434  1.00  0.00    -0.014 A 
BRANCH  13  14
ATOM     14  C   UNL A   1      40.729  27.938  28.973  1.00  0.00     0.031 A 
ATOM     15  C   UNL A   1      41.850  28.767  28.437  1.00  0.00     0.074 A 
ATOM     16  C   UNL A   1      39.788  28.520  29.743  1.00  0.00     0.049 A 
ATOM     17  N   UNL A   1      42.798  29.362  29.086  1.00  0.00    -0.248 NA
ATOM     18  C   UNL A   1      41.965  28.897  26.975  1.00  0.00     0.031 C 
ATOM     19  C   UNL A   1      38.475  27.982  30.102  1.00  0.00     0.029 A 
ATOM     20  N   UNL A   1      39.762  29.785  30.264  1.00  0.00    -0.354 N 
ATOM     21  C   UNL A   1      43.522  30.095  28.145  1.00  0.00     0.074 A 
ATOM     22  C   UNL A   1      43.048  29.667  26.856  1.00  0.00     0.031 C 
ATOM     23  C   UNL A   1      37.704  28.984  30.581  1.00  0.00     0.029 A 
ATOM     24  C   UNL A   1      38.501  30.198  30.675  1.00  0.00     0.049 A 
ATOM     25  H   UNL A   1      40.565  30.350  30.341  1.00  0.00     0.167 HD
ATOM     26  C   UNL A   1      44.343  31.126  28.499  1.00  0.00     0.034 A 
ATOM     27  C   UNL A   1      38.108  31.458  30.995  1.00  0.00     0.034 A 
ATOM     28  C   UNL A   1      44.674  31.082  29.901  1.00  0.00     0.049 A 
ATOM     29  C   UNL A   1      39.320  32.235  31.345  1.00  0.00     0.074 A 
ATOM     30  C   UNL A   1      45.285  30.160  30.730  1.00  0.00     0.029 A 
ATOM     31  N   UNL A   1      44.080  31.991  30.746  1.00  0.00    -0.354 N 
ATOM     32  N   UNL A   1      40.056  31.997  32.393  1.00  0.00    -0.248 NA
ATOM     33  C   UNL A   1      39.966  33.021  30.304  1.00  0.00     0.031 C 
ATOM     34  C   UNL A   1      44.597  30.270  31.973  1.00  0.00     0.029 A 
ATOM     35  C   UNL A   1      43.647  31.284  31.840  1.00  0.00     0.049 A 
ATOM     36  H   UNL A   1      43.983  32.958  30.595  1.00  0.00     0.167 HD
ATOM     37  C   UNL A   1      41.358  32.220  31.978  1.00  0.00     0.074 A 
ATOM     38  C   UNL A   1      41.232  32.957  30.724  1.00  0.00     0.031 C 
ATOM     39  C   UNL A   1      42.406  31.548  32.540  1.00  0.00     0.034 A 
BRANCH  26  40
ATOM     40  C   UNL A   1      44.629  32.353  27.658  1.00  0.00     0.023 A 
ATOM     41  C   UNL A   1      44.023  33.567  28.045  1.00  0.00     0.031 A 
ATOM     42  C   UNL A   1      45.202  32.338  26.368  1.00  0.00     0.131 A 
ATOM     43  C   UNL A   1      43.919  34.644  27.148  1.00  0.00     0.055 A 
ATOM     44  C   UNL A   1      45.165  33.441  25.508  1.00  0.00     0.041 A 
ATOM     45  F   UNL A   1      45.742  31.237  25.833  1.00  0.00    -0.206 F 
ATOM     46  C   UNL A   1      44.491  34.592  25.881  1.00  0.00     0.022 A 
BRANCH  43  47
ATOM     47  S   UNL A   1      42.847  36.037  27.595  1.00  0.00     0.124 S 
ATOM     48  O   UNL A   1      43.807  36.974  28.170  1.00  0.00    -0.237 OA
ATOM     49  O   UNL A   1      42.279  36.407  26.304  1.00  0.00    -0.237 OA
ATOM     50  O   UNL A   1      41.906  35.449  28.547  1.00  0.00    -0.744 OA
ENDBRANCH  43  47
ENDBRANCH  26  40
BRANCH  27  51
ATOM     51  C   UNL A   1      36.781  32.077  30.730  1.00  0.00     0.023 A 
ATOM     52  C   UNL A   1      35.981  32.636  31.748  1.00  0.00     0.031 A 
ATOM     53  C   UNL A   1      36.378  32.327  29.398  1.00  0.00     0.131 A 
ATOM     54  C   UNL A   1      34.832  33.391  31.415  1.00  0.00     0.055 A 
ATOM     55  C   UNL A   1      35.235  33.060  29.074  1.00  0.00     0.041 A 
ATOM     56  F   UNL A   1      37.132  31.937  28.358  1.00  0.00    -0.206 F 
ATOM     57  C   UNL A   1      34.459  33.602  30.084  1.00  0.00     0.022 A 
BRANCH  54  58
ATOM     58  S   UNL A   1      33.855  34.207  32.718  1.00  0.00     0.124 S 
ATOM     59  O   UNL A   1      32.981  35.082  31.949  1.00  0.00    -0.237 OA
ATOM     60  O   UNL A   1      33.218  33.075  33.386  1.00  0.00    -0.237 OA
ATOM     61  O   UNL A   1      34.866  34.895  33.520  1.00  0.00    -0.744 OA
ENDBRANCH  54  58
ENDBRANCH  27  51
BRANCH  39  62
ATOM     62  C   UNL A   1      42.189  30.811  33.842  1.00  0.00     0.023 A 
ATOM     63  C   UNL A   1      41.988  29.417  33.948  1.00  0.00     0.031 A 
ATOM     64  C   UNL A   1      42.328  31.544  35.034  1.00  0.00     0.131 A 
ATOM     65  C   UNL A   1      41.921  28.810  35.217  1.00  0.00     0.055 A 
ATOM     66  C   UNL A   1      42.280  30.937  36.288  1.00  0.00     0.041 A 
ATOM     67  F   UNL A   1      42.556  32.868  34.998  1.00  0.00    -0.206 F 
ATOM     68  C   UNL A   1      42.069  29.567  36.384  1.00  0.00     0.022 A 
BRANCH  65  69
ATOM     69  S   UNL A   1      41.638  27.018  35.370  1.00  0.00     0.124 S 
ATOM     70  O   UNL A   1      40.627  26.743  34.357  1.00  0.00    -0.237 OA
ATOM     71  O   UNL A   1      42.968  26.465  35.116  1.00  0.00    -0.237 OA
ATOM     72  O   UNL A   1      41.175  26.864  36.750  1.00  0.00    -0.744 OA
ENDBRANCH  65  69
ENDBRANCH  39  62
ENDBRANCH  13  14
ENDBRANCH   6   8
ENDBRANCH   3   4
ENDBRANCH   2   3
ENDBRANCH   1   2
BRANCH   1  73
ATOM     73  C   UNL A   1      34.856  21.274  24.955  1.00  0.00     0.002 C 
BRANCH  73  74
ATOM     74  C   UNL A   1      34.050  21.376  26.256  1.00  0.00     0.021 C 
BRANCH  74  75
ATOM     75  C   UNL A   1      34.036  22.789  26.847  1.00  0.00     0.116 C 
BRANCH  75  76
ATOM     76  N   UNL A   1      32.725  23.176  27.298  1.00  0.00    -0.351 N 
ATOM     77  C   UNL A   1      31.696  23.837  26.733  1.00  0.00     0.281 C 
ATOM     78  H   UNL A   1      32.538  22.897  28.222  1.00  0.00     0.163 HD
ATOM     79  O   UNL A   1      30.618  23.582  27.302  1.00  0.00    -0.268 OA
BRANCH  77  80
ATOM     80  C   UNL A   1      31.716  24.809  25.488  1.00  0.00     0.177 C 
ATOM     81  C   UNL A   1      30.309  25.240  25.048  1.00  0.00     0.079 C 
ATOM     82  C   UNL A   1      32.377  26.106  26.113  1.00  0.00     0.106 C 
ATOM     83  C   UNL A   1      30.334  26.426  24.076  1.00  0.00     0.009 C 
ATOM     84  C   UNL A   1      32.382  27.386  25.266  1.00  0.00     0.116 C 
ATOM     85  C   UNL A   1      30.979  27.659  24.695  1.00  0.00     0.028 C 
BRANCH  80  86
ATOM     86  N   UNL A   1      32.631  24.395  24.395  1.00  0.00    -0.331 N 
ATOM     87  H   UNL A   1      33.247  23.702  24.817  1.00  0.00     0.347 HD
ATOM     88  H   UNL A   1      32.943  25.316  24.086  1.00  0.00     0.347 HD
BRANCH  86  89
ATOM     89  C   UNL A   1      32.256  23.828  23.097  1.00  0.00     0.183 C 
ATOM     90  C   UNL A   1      33.047  22.979  22.143  1.00  0.00     0.071 C 
ATOM     91  C   UNL A   1      32.036  22.327  23.017  1.00  0.00     0.071 C 
ENDBRANCH  86  89
ENDBRANCH  80  86
BRANCH  84  92
ATOM     92  N   UNL A   1      32.886  28.523  26.051  1.00  0.00    -0.250 N 
ATOM     93  C   UNL A   1      34.177  28.948  26.192  1.00  0.00     0.220 A 
ATOM     94  N   UNL A   1      32.058  29.318  26.761  1.00  0.00    -0.160 NA
ATOM     95  N   UNL A   1      34.226  29.971  27.014  1.00  0.00    -0.224 NA
ATOM     96  C   UNL A   1      32.917  30.151  27.349  1.00  0.00     0.246 A 
ENDBRANCH  84  92
ENDBRANCH  77  80
ENDBRANCH  75  76
ENDBRANCH  74  75
ENDBRANCH  73  74
ENDBRANCH   1  73
TORSDOF 19
ENDMDL
