MODEL 1
REMARK VINA RESULT:     -12.1      0.000      0.000
REMARK SMILES Cc1cc(OC(F)(F)F)cc2c1O[C@H](C(F)(F)F)C(C(=O)NCCCCCCNC(=O)c1ccc(-c3c4nc(c(-c5cc(S(=O)(=O)[O-])ccc5F)c5ccc([nH]5)c(-c5cc(S(=O)(=O)[O-])ccc5F)c5nc(c(-c6cc(S(=O)(=O)[O-])ccc6F)c6ccc3[nH]6)C=C5)C=C4)cc1)=C2
REMARK SMILES IDX 26 1 25 2 24 3 23 4 22 5 20 6 21 7 19 9 1 10 2 11 3 12 12 13
REMARK SMILES IDX 4 14 11 15 13 16 10 17 95 18 14 19 5 20 6 21 7 22 8 23 9 24
REMARK SMILES IDX 15 25 16 26 17 27 18 28 27 29 28 30 29 31 30 32 31 34 32 35
REMARK SMILES IDX 33 36 94 37 34 38 93 39 35 40 36 41 37 42 87 43 38 44 92 45
REMARK SMILES IDX 86 46 88 47 39 48 91 49 85 50 84 51 40 53 72 54 52 55 71 56
REMARK SMILES IDX 53 57 56 58 70 59 89 60 54 61 55 62 69 64 90 65 57 66 41 67
REMARK SMILES IDX 42 68 50 69 43 70 49 71 51 72 48 73 44 74 45 75 46 76 47 77
REMARK SMILES IDX 73 78 74 79 82 80 75 81 81 82 83 83 80 84 76 85 77 86 78 87
REMARK SMILES IDX 79 88 58 89 59 90 67 91 60 92 66 93 68 94 65 95 61 96 62 97
REMARK SMILES IDX 63 98 64 99
REMARK H PARENT 22 8 29 33 88 52 56 63
REMARK Flexibility Score: inf
ROOT
ATOM      1  C   UNL A   1      31.057  28.006  25.601  1.00  0.00     0.002 C 
ENDROOT
BRANCH   1   2
ATOM      2  C   UNL A   1      31.031  28.608  24.189  1.00  0.00     0.002 C 
BRANCH   2   3
ATOM      3  C   UNL A   1      30.219  27.821  23.154  1.00  0.00     0.021 C 
BRANCH   3   4
ATOM      4  C   UNL A   1      30.660  26.367  23.001  1.00  0.00     0.116 C 
BRANCH   4   5
ATOM      5  N   UNL A   1      31.589  26.202  21.896  1.00  0.00    -0.352 N 
ATOM      6  C   UNL A   1      32.673  25.442  21.616  1.00  0.00     0.251 C 
ATOM      7  O   UNL A   1      33.167  25.629  20.498  1.00  0.00    -0.270 OA
ATOM      8  H   UNL A   1      31.372  26.807  21.150  1.00  0.00     0.163 HD
BRANCH   6   9
ATOM      9  C   UNL A   1      33.287  24.432  22.531  1.00  0.00     0.067 C 
ATOM     10  C   UNL A   1      36.270  21.651  25.656  1.00  0.00     0.048 C 
ATOM     11  C   UNL A   1      34.972  21.419  24.934  1.00  0.00    -0.005 A 
ATOM     12  C   UNL A   1      34.307  20.190  25.060  1.00  0.00     0.054 A 
ATOM     13  C   UNL A   1      34.432  22.398  24.092  1.00  0.00     0.131 A 
ATOM     14  C   UNL A   1      33.117  19.950  24.370  1.00  0.00     0.130 A 
ATOM     15  C   UNL A   1      33.243  22.175  23.399  1.00  0.00     0.021 A 
ATOM     16  O   UNL A   1      35.147  23.551  23.940  1.00  0.00    -0.475 OA
ATOM     17  C   UNL A   1      32.588  20.950  23.545  1.00  0.00     0.058 A 
ATOM     18  C   UNL A   1      32.728  23.208  22.506  1.00  0.00     0.025 C 
ATOM     19  C   UNL A   1      34.420  24.718  23.478  1.00  0.00     0.314 C 
BRANCH  14  20
ATOM     20  O   UNL A   1      32.380  18.799  24.406  1.00  0.00    -0.406 OA
BRANCH  20  21
ATOM     21  C   UNL A   1      32.822  17.710  23.615  1.00  0.00     0.573 C 
ATOM     22  F   UNL A   1      34.151  17.777  23.386  1.00  0.00    -0.132 F 
ATOM     23  F   UNL A   1      32.519  16.529  24.193  1.00  0.00    -0.132 F 
ATOM     24  F   UNL A   1      32.191  17.763  22.419  1.00  0.00    -0.132 F 
ENDBRANCH  20  21
ENDBRANCH  14  20
BRANCH  19  25
ATOM     25  C   UNL A   1      33.980  25.560  24.689  1.00  0.00     0.429 C 
ATOM     26  F   UNL A   1      32.725  25.228  25.071  1.00  0.00    -0.167 F 
ATOM     27  F   UNL A   1      34.777  25.364  25.766  1.00  0.00    -0.167 F 
ATOM     28  F   UNL A   1      33.995  26.887  24.427  1.00  0.00    -0.167 F 
ENDBRANCH  19  25
ENDBRANCH   6   9
ENDBRANCH   4   5
ENDBRANCH   3   4
ENDBRANCH   2   3
ENDBRANCH   1   2
BRANCH   1  29
ATOM     29  C   UNL A   1      32.004  28.689  26.593  1.00  0.00     0.021 C 
BRANCH  29  30
ATOM     30  C   UNL A   1      32.995  29.661  25.960  1.00  0.00     0.116 C 
BRANCH  30  31
ATOM     31  N   UNL A   1      32.696  31.039  26.314  1.00  0.00    -0.352 N 
ATOM     32  C   UNL A   1      33.306  31.830  27.256  1.00  0.00     0.251 C 
ATOM     33  H   UNL A   1      31.961  31.460  25.813  1.00  0.00     0.163 HD
ATOM     34  O   UNL A   1      32.814  32.907  27.579  1.00  0.00    -0.269 OA
BRANCH  32  35
ATOM     35  C   UNL A   1      34.557  31.362  27.882  1.00  0.00     0.039 A 
ATOM     36  C   UNL A   1      35.631  32.247  28.000  1.00  0.00     0.014 A 
ATOM     37  C   UNL A   1      34.652  30.053  28.367  1.00  0.00     0.014 A 
ATOM     38  C   UNL A   1      36.792  31.829  28.651  1.00  0.00     0.010 A 
ATOM     39  C   UNL A   1      35.793  29.655  29.056  1.00  0.00     0.010 A 
ATOM     40  C   UNL A   1      36.874  30.539  29.199  1.00  0.00    -0.014 A 
BRANCH  40  41
ATOM     41  C   UNL A   1      38.087  30.100  29.928  1.00  0.00     0.031 A 
ATOM     42  C   UNL A   1      38.391  30.658  31.288  1.00  0.00     0.074 A 
ATOM     43  C   UNL A   1      38.939  29.239  29.340  1.00  0.00     0.049 A 
ATOM     44  N   UNL A   1      39.394  30.386  32.080  1.00  0.00    -0.248 NA
ATOM     45  C   UNL A   1      37.459  31.665  31.819  1.00  0.00     0.031 C 
ATOM     46  C   UNL A   1      38.773  28.680  27.998  1.00  0.00     0.029 A 
ATOM     47  N   UNL A   1      40.114  28.691  29.789  1.00  0.00    -0.354 N 
ATOM     48  C   UNL A   1      39.214  31.184  33.203  1.00  0.00     0.074 A 
ATOM     49  C   UNL A   1      38.039  31.991  32.965  1.00  0.00     0.031 C 
ATOM     50  C   UNL A   1      39.802  27.858  27.738  1.00  0.00     0.029 A 
ATOM     51  C   UNL A   1      40.710  27.846  28.883  1.00  0.00     0.049 A 
ATOM     52  H   UNL A   1      40.496  28.886  30.675  1.00  0.00     0.167 HD
ATOM     53  C   UNL A   1      39.949  31.216  34.340  1.00  0.00     0.034 A 
ATOM     54  C   UNL A   1      41.854  27.138  28.966  1.00  0.00     0.034 A 
ATOM     55  C   UNL A   1      41.107  30.396  34.570  1.00  0.00     0.049 A 
ATOM     56  C   UNL A   1      42.651  27.181  30.243  1.00  0.00     0.074 A 
ATOM     57  C   UNL A   1      41.873  30.303  35.717  1.00  0.00     0.029 A 
ATOM     58  N   UNL A   1      41.667  29.531  33.641  1.00  0.00    -0.354 N 
ATOM     59  N   UNL A   1      42.404  27.853  31.343  1.00  0.00    -0.248 NA
ATOM     60  C   UNL A   1      43.872  26.364  30.303  1.00  0.00     0.031 C 
ATOM     61  C   UNL A   1      42.924  29.418  35.468  1.00  0.00     0.029 A 
ATOM     62  C   UNL A   1      42.785  28.919  34.182  1.00  0.00     0.049 A 
ATOM     63  H   UNL A   1      41.321  29.375  32.733  1.00  0.00     0.167 HD
ATOM     64  C   UNL A   1      43.423  27.524  32.232  1.00  0.00     0.074 A 
ATOM     65  C   UNL A   1      44.281  26.579  31.548  1.00  0.00     0.031 C 
ATOM     66  C   UNL A   1      43.627  27.967  33.498  1.00  0.00     0.034 A 
BRANCH  53  67
ATOM     67  C   UNL A   1      39.512  32.142  35.444  1.00  0.00     0.023 A 
ATOM     68  C   UNL A   1      40.129  33.394  35.604  1.00  0.00     0.031 A 
ATOM     69  C   UNL A   1      38.560  31.736  36.396  1.00  0.00     0.131 A 
ATOM     70  C   UNL A   1      39.803  34.190  36.710  1.00  0.00     0.055 A 
ATOM     71  C   UNL A   1      38.215  32.547  37.478  1.00  0.00     0.041 A 
ATOM     72  F   UNL A   1      37.942  30.549  36.279  1.00  0.00    -0.206 F 
ATOM     73  C   UNL A   1      38.845  33.776  37.643  1.00  0.00     0.022 A 
BRANCH  70  74
ATOM     74  S   UNL A   1      40.629  35.777  36.997  1.00  0.00     0.124 S 
ATOM     75  O   UNL A   1      41.794  35.375  37.783  1.00  0.00    -0.237 OA
ATOM     76  O   UNL A   1      40.918  36.220  35.636  1.00  0.00    -0.237 OA
ATOM     77  O   UNL A   1      39.637  36.563  37.722  1.00  0.00    -0.744 OA
ENDBRANCH  70  74
ENDBRANCH  53  67
BRANCH  54  78
ATOM     78  C   UNL A   1      42.252  26.271  27.820  1.00  0.00     0.023 A 
ATOM     79  C   UNL A   1      41.754  24.962  27.696  1.00  0.00     0.031 A 
ATOM     80  C   UNL A   1      43.220  26.705  26.900  1.00  0.00     0.131 A 
ATOM     81  C   UNL A   1      42.269  24.115  26.706  1.00  0.00     0.055 A 
ATOM     82  C   UNL A   1      43.688  25.876  25.880  1.00  0.00     0.041 A 
ATOM     83  F   UNL A   1      43.732  27.942  26.992  1.00  0.00    -0.206 F 
ATOM     84  C   UNL A   1      43.222  24.569  25.787  1.00  0.00     0.022 A 
BRANCH  81  85
ATOM     85  S   UNL A   1      41.793  22.366  26.641  1.00  0.00     0.124 S 
ATOM     86  O   UNL A   1      42.440  21.917  25.411  1.00  0.00    -0.237 OA
ATOM     87  O   UNL A   1      42.374  21.857  27.880  1.00  0.00    -0.237 OA
ATOM     88  O   UNL A   1      40.335  22.407  26.607  1.00  0.00    -0.744 OA
ENDBRANCH  81  85
ENDBRANCH  54  78
BRANCH  66  89
ATOM     89  C   UNL A   1      44.823  27.453  34.258  1.00  0.00     0.023 A 
ATOM     90  C   UNL A   1      44.704  26.305  35.063  1.00  0.00     0.031 A 
ATOM     91  C   UNL A   1      46.020  28.187  34.312  1.00  0.00     0.131 A 
ATOM     92  C   UNL A   1      45.750  25.947  35.921  1.00  0.00     0.055 A 
ATOM     93  C   UNL A   1      47.075  27.803  35.139  1.00  0.00     0.041 A 
ATOM     94  F   UNL A   1      46.173  29.295  33.569  1.00  0.00    -0.206 F 
ATOM     95  C   UNL A   1      46.938  26.686  35.958  1.00  0.00     0.022 A 
BRANCH  92  96
ATOM     96  S   UNL A   1      45.583  24.553  37.070  1.00  0.00     0.124 S 
ATOM     97  O   UNL A   1      44.553  23.745  36.421  1.00  0.00    -0.237 OA
ATOM     98  O   UNL A   1      46.927  23.981  37.054  1.00  0.00    -0.237 OA
ATOM     99  O   UNL A   1      45.181  25.177  38.325  1.00  0.00    -0.744 OA
ENDBRANCH  92  96
ENDBRANCH  66  89
ENDBRANCH  40  41
ENDBRANCH  32  35
ENDBRANCH  30  31
ENDBRANCH  29  30
ENDBRANCH   1  29
TORSDOF 19
ENDMDL
MODEL 2
REMARK VINA RESULT:     -12.1      0.577      7.520
REMARK SMILES Cc1cc(OC(F)(F)F)cc2c1O[C@H](C(F)(F)F)C(C(=O)NCCCCCCNC(=O)c1ccc(-c3c4nc(c(-c5cc(S(=O)(=O)[O-])ccc5F)c5ccc([nH]5)c(-c5cc(S(=O)(=O)[O-])ccc5F)c5nc(c(-c6cc(S(=O)(=O)[O-])ccc6F)c6ccc3[nH]6)C=C5)C=C4)cc1)=C2
REMARK SMILES IDX 26 1 25 2 24 3 23 4 22 5 20 6 21 7 19 9 1 10 2 11 3 12 12 13
REMARK SMILES IDX 4 14 11 15 13 16 10 17 95 18 14 19 5 20 6 21 7 22 8 23 9 24
REMARK SMILES IDX 15 25 16 26 17 27 18 28 27 29 28 30 29 31 30 32 31 34 32 35
REMARK SMILES IDX 33 36 94 37 34 38 93 39 35 40 36 41 37 42 87 43 38 44 92 45
REMARK SMILES IDX 86 46 88 47 39 48 91 49 85 50 84 51 40 53 72 54 52 55 71 56
REMARK SMILES IDX 53 57 56 58 70 59 89 60 54 61 55 62 69 64 90 65 57 66 41 67
REMARK SMILES IDX 42 68 50 69 43 70 49 71 51 72 48 73 44 74 45 75 46 76 47 77
REMARK SMILES IDX 73 78 74 79 82 80 75 81 81 82 83 83 80 84 76 85 77 86 78 87
REMARK SMILES IDX 79 88 58 89 59 90 67 91 60 92 66 93 68 94 65 95 61 96 62 97
REMARK SMILES IDX 63 98 64 99
REMARK H PARENT 22 8 29 33 88 52 56 63
REMARK Flexibility Score: inf
ROOT
ATOM      1  C   UNL A   1      31.031  27.994  25.054  1.00  0.00     0.002 C 
ENDROOT
BRANCH   1   2
ATOM      2  C   UNL A   1      30.698  28.883  23.849  1.00  0.00     0.002 C 
BRANCH   2   3
ATOM      3  C   UNL A   1      30.565  28.151  22.508  1.00  0.00     0.021 C 
BRANCH   3   4
ATOM      4  C   UNL A   1      30.868  26.657  22.589  1.00  0.00     0.116 C 
BRANCH   4   5
ATOM      5  N   UNL A   1      31.703  26.219  21.483  1.00  0.00    -0.352 N 
ATOM      6  C   UNL A   1      32.691  25.317  21.282  1.00  0.00     0.251 C 
ATOM      7  O   UNL A   1      33.125  25.266  20.126  1.00  0.00    -0.270 OA
ATOM      8  H   UNL A   1      31.494  26.712  20.657  1.00  0.00     0.163 HD
BRANCH   6   9
ATOM      9  C   UNL A   1      33.268  24.414  22.324  1.00  0.00     0.067 C 
ATOM     10  C   UNL A   1      36.153  21.957  25.794  1.00  0.00     0.048 C 
ATOM     11  C   UNL A   1      34.844  21.681  25.106  1.00  0.00    -0.005 A 
ATOM     12  C   UNL A   1      34.134  20.506  25.392  1.00  0.00     0.054 A 
ATOM     13  C   UNL A   1      34.340  22.561  24.142  1.00  0.00     0.131 A 
ATOM     14  C   UNL A   1      32.933  20.223  24.737  1.00  0.00     0.130 A 
ATOM     15  C   UNL A   1      33.141  22.295  23.482  1.00  0.00     0.021 A 
ATOM     16  O   UNL A   1      35.098  23.655  23.840  1.00  0.00    -0.475 OA
ATOM     17  C   UNL A   1      32.440  21.125  23.786  1.00  0.00     0.058 A 
ATOM     18  C   UNL A   1      32.663  23.219  22.459  1.00  0.00     0.025 C 
ATOM     19  C   UNL A   1      34.414  24.779  23.226  1.00  0.00     0.314 C 
BRANCH  14  20
ATOM     20  O   UNL A   1      32.153  19.116  24.923  1.00  0.00    -0.406 OA
BRANCH  20  21
ATOM     21  C   UNL A   1      32.630  17.883  24.414  1.00  0.00     0.573 C 
ATOM     22  F   UNL A   1      32.610  17.868  23.065  1.00  0.00    -0.132 F 
ATOM     23  F   UNL A   1      33.878  17.620  24.855  1.00  0.00    -0.132 F 
ATOM     24  F   UNL A   1      31.817  16.894  24.853  1.00  0.00    -0.132 F 
ENDBRANCH  20  21
ENDBRANCH  14  20
BRANCH  19  25
ATOM     25  C   UNL A   1      34.011  25.789  24.316  1.00  0.00     0.429 C 
ATOM     26  F   UNL A   1      32.768  25.522  24.778  1.00  0.00    -0.167 F 
ATOM     27  F   UNL A   1      34.839  25.747  25.386  1.00  0.00    -0.167 F 
ATOM     28  F   UNL A   1      34.019  27.064  23.864  1.00  0.00    -0.167 F 
ENDBRANCH  19  25
ENDBRANCH   6   9
ENDBRANCH   4   5
ENDBRANCH   3   4
ENDBRANCH   2   3
ENDBRANCH   1   2
BRANCH   1  29
ATOM     29  C   UNL A   1      31.751  28.693  26.212  1.00  0.00     0.021 C 
BRANCH  29  30
ATOM     30  C   UNL A   1      32.850  29.661  25.786  1.00  0.00     0.116 C 
BRANCH  30  31
ATOM     31  N   UNL A   1      32.511  31.036  26.114  1.00  0.00    -0.352 N 
ATOM     32  C   UNL A   1      33.060  31.845  27.077  1.00  0.00     0.251 C 
ATOM     33  H   UNL A   1      31.794  31.441  25.574  1.00  0.00     0.163 HD
ATOM     34  O   UNL A   1      32.536  32.915  27.368  1.00  0.00    -0.269 OA
BRANCH  32  35
ATOM     35  C   UNL A   1      34.287  31.403  27.767  1.00  0.00     0.039 A 
ATOM     36  C   UNL A   1      35.314  32.324  27.986  1.00  0.00     0.014 A 
ATOM     37  C   UNL A   1      34.406  30.082  28.212  1.00  0.00     0.014 A 
ATOM     38  C   UNL A   1      36.448  31.929  28.697  1.00  0.00     0.010 A 
ATOM     39  C   UNL A   1      35.517  29.703  28.960  1.00  0.00     0.010 A 
ATOM     40  C   UNL A   1      36.548  30.623  29.203  1.00  0.00    -0.014 A 
BRANCH  40  41
ATOM     41  C   UNL A   1      37.729  30.205  29.994  1.00  0.00     0.031 A 
ATOM     42  C   UNL A   1      38.691  29.196  29.437  1.00  0.00     0.074 A 
ATOM     43  C   UNL A   1      37.904  30.697  31.236  1.00  0.00     0.049 A 
ATOM     44  N   UNL A   1      39.782  28.719  29.975  1.00  0.00    -0.248 NA
ATOM     45  C   UNL A   1      38.376  28.636  28.113  1.00  0.00     0.031 C 
ATOM     46  C   UNL A   1      37.000  31.637  31.900  1.00  0.00     0.029 A 
ATOM     47  N   UNL A   1      38.891  30.471  32.161  1.00  0.00    -0.354 N 
ATOM     48  C   UNL A   1      40.287  27.807  29.057  1.00  0.00     0.074 A 
ATOM     49  C   UNL A   1      39.353  27.755  27.954  1.00  0.00     0.031 C 
ATOM     50  C   UNL A   1      37.482  31.917  33.121  1.00  0.00     0.029 A 
ATOM     51  C   UNL A   1      38.716  31.164  33.335  1.00  0.00     0.049 A 
ATOM     52  H   UNL A   1      39.653  29.868  32.000  1.00  0.00     0.167 HD
ATOM     53  C   UNL A   1      41.439  27.100  29.118  1.00  0.00     0.034 A 
ATOM     54  C   UNL A   1      39.466  31.194  34.455  1.00  0.00     0.034 A 
ATOM     55  C   UNL A   1      42.368  27.173  30.214  1.00  0.00     0.049 A 
ATOM     56  C   UNL A   1      40.749  30.407  34.499  1.00  0.00     0.074 A 
ATOM     57  C   UNL A   1      43.597  26.553  30.334  1.00  0.00     0.029 A 
ATOM     58  N   UNL A   1      42.172  27.906  31.376  1.00  0.00    -0.354 N 
ATOM     59  N   UNL A   1      41.273  29.638  33.574  1.00  0.00    -0.248 NA
ATOM     60  C   UNL A   1      41.553  30.498  35.726  1.00  0.00     0.031 C 
ATOM     61  C   UNL A   1      44.126  26.872  31.587  1.00  0.00     0.029 A 
ATOM     62  C   UNL A   1      43.248  27.733  32.229  1.00  0.00     0.049 A 
ATOM     63  H   UNL A   1      41.385  28.466  31.565  1.00  0.00     0.167 HD
ATOM     64  C   UNL A   1      42.476  29.172  34.096  1.00  0.00     0.074 A 
ATOM     65  C   UNL A   1      42.611  29.760  35.412  1.00  0.00     0.031 C 
ATOM     66  C   UNL A   1      43.382  28.333  33.534  1.00  0.00     0.034 A 
BRANCH  53  67
ATOM     67  C   UNL A   1      41.790  26.207  27.958  1.00  0.00     0.023 A 
ATOM     68  C   UNL A   1      41.292  24.894  27.899  1.00  0.00     0.031 A 
ATOM     69  C   UNL A   1      42.701  26.625  26.971  1.00  0.00     0.131 A 
ATOM     70  C   UNL A   1      41.728  24.034  26.883  1.00  0.00     0.055 A 
ATOM     71  C   UNL A   1      43.107  25.775  25.942  1.00  0.00     0.041 A 
ATOM     72  F   UNL A   1      43.198  27.873  26.987  1.00  0.00    -0.206 F 
ATOM     73  C   UNL A   1      42.626  24.470  25.901  1.00  0.00     0.022 A 
BRANCH  70  74
ATOM     74  S   UNL A   1      41.170  22.311  26.811  1.00  0.00     0.124 S 
ATOM     75  O   UNL A   1      41.992  21.772  25.728  1.00  0.00    -0.237 OA
ATOM     76  O   UNL A   1      41.504  21.828  28.147  1.00  0.00    -0.237 OA
ATOM     77  O   UNL A   1      39.747  22.415  26.511  1.00  0.00    -0.744 OA
ENDBRANCH  70  74
ENDBRANCH  53  67
BRANCH  54  78
ATOM     78  C   UNL A   1      39.040  32.068  35.585  1.00  0.00     0.023 A 
ATOM     79  C   UNL A   1      39.506  33.390  35.692  1.00  0.00     0.031 A 
ATOM     80  C   UNL A   1      38.254  31.553  36.629  1.00  0.00     0.131 A 
ATOM     81  C   UNL A   1      39.225  34.133  36.846  1.00  0.00     0.055 A 
ATOM     82  C   UNL A   1      37.929  32.317  37.750  1.00  0.00     0.041 A 
ATOM     83  F   UNL A   1      37.801  30.291  36.574  1.00  0.00    -0.206 F 
ATOM     84  C   UNL A   1      38.426  33.611  37.869  1.00  0.00     0.022 A 
BRANCH  81  85
ATOM     85  S   UNL A   1      39.971  35.767  37.102  1.00  0.00     0.124 S 
ATOM     86  O   UNL A   1      39.281  36.235  38.302  1.00  0.00    -0.237 OA
ATOM     87  O   UNL A   1      41.379  35.423  37.279  1.00  0.00    -0.237 OA
ATOM     88  O   UNL A   1      39.655  36.487  35.873  1.00  0.00    -0.744 OA
ENDBRANCH  81  85
ENDBRANCH  54  78
BRANCH  66  89
ATOM     89  C   UNL A   1      44.618  27.977  34.319  1.00  0.00     0.023 A 
ATOM     90  C   UNL A   1      44.589  26.904  35.228  1.00  0.00     0.031 A 
ATOM     91  C   UNL A   1      45.760  28.796  34.287  1.00  0.00     0.131 A 
ATOM     92  C   UNL A   1      45.667  26.702  36.099  1.00  0.00     0.055 A 
ATOM     93  C   UNL A   1      46.848  28.565  35.129  1.00  0.00     0.041 A 
ATOM     94  F   UNL A   1      45.827  29.838  33.442  1.00  0.00    -0.206 F 
ATOM     95  C   UNL A   1      46.798  27.522  36.049  1.00  0.00     0.022 A 
BRANCH  92  96
ATOM     96  S   UNL A   1      45.610  25.412  37.373  1.00  0.00     0.124 S 
ATOM     97  O   UNL A   1      45.042  24.283  36.640  1.00  0.00    -0.237 OA
ATOM     98  O   UNL A   1      47.019  25.276  37.733  1.00  0.00    -0.237 OA
ATOM     99  O   UNL A   1      44.749  25.976  38.407  1.00  0.00    -0.744 OA
ENDBRANCH  92  96
ENDBRANCH  66  89
ENDBRANCH  40  41
ENDBRANCH  32  35
ENDBRANCH  30  31
ENDBRANCH  29  30
ENDBRANCH   1  29
TORSDOF 19
ENDMDL
MODEL 3
REMARK VINA RESULT:     -12.1      2.029      7.610
REMARK SMILES Cc1cc(OC(F)(F)F)cc2c1O[C@H](C(F)(F)F)C(C(=O)NCCCCCCNC(=O)c1ccc(-c3c4nc(c(-c5cc(S(=O)(=O)[O-])ccc5F)c5ccc([nH]5)c(-c5cc(S(=O)(=O)[O-])ccc5F)c5nc(c(-c6cc(S(=O)(=O)[O-])ccc6F)c6ccc3[nH]6)C=C5)C=C4)cc1)=C2
REMARK SMILES IDX 26 1 25 2 24 3 23 4 22 5 20 6 21 7 19 9 1 10 2 11 3 12 12 13
REMARK SMILES IDX 4 14 11 15 13 16 10 17 95 18 14 19 5 20 6 21 7 22 8 23 9 24
REMARK SMILES IDX 15 25 16 26 17 27 18 28 27 29 28 30 29 31 30 32 31 34 32 35
REMARK SMILES IDX 33 36 94 37 34 38 93 39 35 40 36 41 37 42 87 43 38 44 92 45
REMARK SMILES IDX 86 46 88 47 39 48 91 49 85 50 84 51 40 53 72 54 52 55 71 56
REMARK SMILES IDX 53 57 56 58 70 59 89 60 54 61 55 62 69 64 90 65 57 66 41 67
REMARK SMILES IDX 42 68 50 69 43 70 49 71 51 72 48 73 44 74 45 75 46 76 47 77
REMARK SMILES IDX 73 78 74 79 82 80 75 81 81 82 83 83 80 84 76 85 77 86 78 87
REMARK SMILES IDX 79 88 58 89 59 90 67 91 60 92 66 93 68 94 65 95 61 96 62 97
REMARK SMILES IDX 63 98 64 99
REMARK H PARENT 22 8 29 33 88 52 56 63
REMARK Flexibility Score: inf
ROOT
ATOM      1  C   UNL A   1      31.227  28.001  25.451  1.00  0.00     0.002 C 
ENDROOT
BRANCH   1   2
ATOM      2  C   UNL A   1      30.963  28.995  24.312  1.00  0.00     0.002 C 
BRANCH   2   3
ATOM      3  C   UNL A   1      30.896  28.383  22.908  1.00  0.00     0.021 C 
BRANCH   3   4
ATOM      4  C   UNL A   1      31.075  26.867  22.887  1.00  0.00     0.116 C 
BRANCH   4   5
ATOM      5  N   UNL A   1      31.806  26.430  21.710  1.00  0.00    -0.352 N 
ATOM      6  C   UNL A   1      32.717  25.477  21.403  1.00  0.00     0.251 C 
ATOM      7  O   UNL A   1      33.071  25.454  20.219  1.00  0.00    -0.270 OA
ATOM      8  H   UNL A   1      31.577  26.974  20.922  1.00  0.00     0.163 HD
BRANCH   6   9
ATOM      9  C   UNL A   1      33.299  24.491  22.364  1.00  0.00     0.067 C 
ATOM     10  C   UNL A   1      36.197  21.761  25.612  1.00  0.00     0.048 C 
ATOM     11  C   UNL A   1      34.891  21.538  24.901  1.00  0.00    -0.005 A 
ATOM     12  C   UNL A   1      34.187  20.338  25.083  1.00  0.00     0.054 A 
ATOM     13  C   UNL A   1      34.382  22.495  24.016  1.00  0.00     0.131 A 
ATOM     14  C   UNL A   1      32.989  20.105  24.405  1.00  0.00     0.130 A 
ATOM     15  C   UNL A   1      33.185  22.279  23.334  1.00  0.00     0.021 A 
ATOM     16  O   UNL A   1      35.133  23.615  23.811  1.00  0.00    -0.475 OA
ATOM     17  C   UNL A   1      32.491  21.083  23.535  1.00  0.00     0.058 A 
ATOM     18  C   UNL A   1      32.701  23.285  22.395  1.00  0.00     0.025 C 
ATOM     19  C   UNL A   1      34.442  24.783  23.296  1.00  0.00     0.314 C 
BRANCH  14  20
ATOM     20  O   UNL A   1      32.216  18.981  24.494  1.00  0.00    -0.406 OA
BRANCH  20  21
ATOM     21  C   UNL A   1      32.593  17.860  23.714  1.00  0.00     0.573 C 
ATOM     22  F   UNL A   1      32.361  16.705  24.372  1.00  0.00    -0.132 F 
ATOM     23  F   UNL A   1      31.948  17.847  22.529  1.00  0.00    -0.132 F 
ATOM     24  F   UNL A   1      33.921  17.937  23.465  1.00  0.00    -0.132 F 
ENDBRANCH  20  21
ENDBRANCH  14  20
BRANCH  19  25
ATOM     25  C   UNL A   1      34.032  25.693  24.468  1.00  0.00     0.429 C 
ATOM     26  F   UNL A   1      32.786  25.388  24.896  1.00  0.00    -0.167 F 
ATOM     27  F   UNL A   1      34.853  25.555  25.536  1.00  0.00    -0.167 F 
ATOM     28  F   UNL A   1      34.045  27.003  24.132  1.00  0.00    -0.167 F 
ENDBRANCH  19  25
ENDBRANCH   6   9
ENDBRANCH   4   5
ENDBRANCH   3   4
ENDBRANCH   2   3
ENDBRANCH   1   2
BRANCH   1  29
ATOM     29  C   UNL A   1      32.196  28.483  26.537  1.00  0.00     0.021 C 
BRANCH  29  30
ATOM     30  C   UNL A   1      33.297  29.413  26.039  1.00  0.00     0.116 C 
BRANCH  30  31
ATOM     31  N   UNL A   1      33.050  30.793  26.425  1.00  0.00    -0.352 N 
ATOM     32  C   UNL A   1      33.712  31.550  27.359  1.00  0.00     0.251 C 
ATOM     33  H   UNL A   1      32.311  31.243  25.955  1.00  0.00     0.163 HD
ATOM     34  O   UNL A   1      33.262  32.635  27.716  1.00  0.00    -0.269 OA
BRANCH  32  35
ATOM     35  C   UNL A   1      34.969  31.037  27.936  1.00  0.00     0.039 A 
ATOM     36  C   UNL A   1      36.116  31.830  27.883  1.00  0.00     0.014 A 
ATOM     37  C   UNL A   1      34.998  29.777  28.544  1.00  0.00     0.014 A 
ATOM     38  C   UNL A   1      37.290  31.377  28.487  1.00  0.00     0.010 A 
ATOM     39  C   UNL A   1      36.157  29.348  29.184  1.00  0.00     0.010 A 
ATOM     40  C   UNL A   1      37.313  30.143  29.156  1.00  0.00    -0.014 A 
BRANCH  40  41
ATOM     41  C   UNL A   1      38.542  29.671  29.835  1.00  0.00     0.031 A 
ATOM     42  C   UNL A   1      39.373  28.583  29.219  1.00  0.00     0.074 A 
ATOM     43  C   UNL A   1      38.879  30.188  31.032  1.00  0.00     0.049 A 
ATOM     44  N   UNL A   1      40.482  28.050  29.658  1.00  0.00    -0.248 NA
ATOM     45  C   UNL A   1      38.884  28.005  27.957  1.00  0.00     0.031 C 
ATOM     46  C   UNL A   1      38.113  31.207  31.750  1.00  0.00     0.029 A 
ATOM     47  N   UNL A   1      39.943  29.924  31.856  1.00  0.00    -0.354 N 
ATOM     48  C   UNL A   1      40.827  27.078  28.727  1.00  0.00     0.074 A 
ATOM     49  C   UNL A   1      39.780  27.055  27.730  1.00  0.00     0.031 C 
ATOM     50  C   UNL A   1      38.739  31.492  32.903  1.00  0.00     0.029 A 
ATOM     51  C   UNL A   1      39.938  30.664  33.016  1.00  0.00     0.049 A 
ATOM     52  H   UNL A   1      40.643  29.267  31.640  1.00  0.00     0.167 HD
ATOM     53  C   UNL A   1      41.932  26.297  28.695  1.00  0.00     0.034 A 
ATOM     54  C   UNL A   1      40.803  30.678  34.050  1.00  0.00     0.034 A 
ATOM     55  C   UNL A   1      42.975  26.342  29.685  1.00  0.00     0.049 A 
ATOM     56  C   UNL A   1      42.031  29.808  33.989  1.00  0.00     0.074 A 
ATOM     57  C   UNL A   1      44.168  25.644  29.699  1.00  0.00     0.029 A 
ATOM     58  N   UNL A   1      42.951  27.122  30.831  1.00  0.00    -0.354 N 
ATOM     59  N   UNL A   1      42.404  28.978  33.044  1.00  0.00    -0.248 NA
ATOM     60  C   UNL A   1      42.966  29.883  35.121  1.00  0.00     0.031 C 
ATOM     61  C   UNL A   1      44.847  25.966  30.877  1.00  0.00     0.029 A 
ATOM     62  C   UNL A   1      44.099  26.903  31.573  1.00  0.00     0.049 A 
ATOM     63  H   UNL A   1      42.226  27.739  31.080  1.00  0.00     0.167 HD
ATOM     64  C   UNL A   1      43.624  28.448  33.455  1.00  0.00     0.074 A 
ATOM     65  C   UNL A   1      43.935  29.066  34.727  1.00  0.00     0.031 C 
ATOM     66  C   UNL A   1      44.409  27.533  32.834  1.00  0.00     0.034 A 
BRANCH  53  67
ATOM     67  C   UNL A   1      42.100  25.348  27.539  1.00  0.00     0.023 A 
ATOM     68  C   UNL A   1      41.460  24.097  27.551  1.00  0.00     0.031 A 
ATOM     69  C   UNL A   1      42.978  25.642  26.480  1.00  0.00     0.131 A 
ATOM     70  C   UNL A   1      41.725  23.173  26.532  1.00  0.00     0.055 A 
ATOM     71  C   UNL A   1      43.214  24.731  25.450  1.00  0.00     0.041 A 
ATOM     72  F   UNL A   1      43.608  26.827  26.426  1.00  0.00    -0.206 F 
ATOM     73  C   UNL A   1      42.593  23.487  25.479  1.00  0.00     0.022 A 
BRANCH  70  74
ATOM     74  S   UNL A   1      40.980  21.521  26.548  1.00  0.00     0.124 S 
ATOM     75  O   UNL A   1      41.973  20.734  25.819  1.00  0.00    -0.237 OA
ATOM     76  O   UNL A   1      40.890  21.242  27.978  1.00  0.00    -0.237 OA
ATOM     77  O   UNL A   1      39.708  21.703  25.856  1.00  0.00    -0.744 OA
ENDBRANCH  70  74
ENDBRANCH  53  67
BRANCH  54  78
ATOM     78  C   UNL A   1      40.558  31.613  35.184  1.00  0.00     0.023 A 
ATOM     79  C   UNL A   1      39.534  31.368  36.115  1.00  0.00     0.031 A 
ATOM     80  C   UNL A   1      41.271  32.819  35.282  1.00  0.00     0.131 A 
ATOM     81  C   UNL A   1      39.217  32.342  37.071  1.00  0.00     0.055 A 
ATOM     82  C   UNL A   1      40.990  33.761  36.271  1.00  0.00     0.041 A 
ATOM     83  F   UNL A   1      42.247  33.099  34.404  1.00  0.00    -0.206 F 
ATOM     84  C   UNL A   1      39.949  33.531  37.165  1.00  0.00     0.022 A 
BRANCH  81  85
ATOM     85  S   UNL A   1      37.779  32.142  38.159  1.00  0.00     0.124 S 
ATOM     86  O   UNL A   1      36.876  33.181  37.670  1.00  0.00    -0.237 OA
ATOM     87  O   UNL A   1      37.378  30.769  37.867  1.00  0.00    -0.237 OA
ATOM     88  O   UNL A   1      38.325  32.361  39.494  1.00  0.00    -0.744 OA
ENDBRANCH  81  85
ENDBRANCH  54  78
BRANCH  66  89
ATOM     89  C   UNL A   1      45.697  27.119  33.499  1.00  0.00     0.023 A 
ATOM     90  C   UNL A   1      46.900  27.770  33.168  1.00  0.00     0.031 A 
ATOM     91  C   UNL A   1      45.756  25.985  34.326  1.00  0.00     0.131 A 
ATOM     92  C   UNL A   1      48.118  27.256  33.629  1.00  0.00     0.055 A 
ATOM     93  C   UNL A   1      46.968  25.501  34.817  1.00  0.00     0.041 A 
ATOM     94  F   UNL A   1      44.633  25.327  34.659  1.00  0.00    -0.206 F 
ATOM     95  C   UNL A   1      48.158  26.129  34.457  1.00  0.00     0.022 A 
BRANCH  92  96
ATOM     96  S   UNL A   1      49.696  27.987  33.116  1.00  0.00     0.124 S 
ATOM     97  O   UNL A   1      49.793  27.558  31.723  1.00  0.00    -0.237 OA
ATOM     98  O   UNL A   1      49.451  29.414  33.314  1.00  0.00    -0.237 OA
ATOM     99  O   UNL A   1      50.673  27.386  34.018  1.00  0.00    -0.744 OA
ENDBRANCH  92  96
ENDBRANCH  66  89
ENDBRANCH  40  41
ENDBRANCH  32  35
ENDBRANCH  30  31
ENDBRANCH  29  30
ENDBRANCH   1  29
TORSDOF 19
ENDMDL
