MODEL 1
REMARK VINA RESULT:     -12.6      0.000      0.000
REMARK SMILES O=C(NCCCCCCNC(=O)[C@@H](Cc1ccc(O)cc1)Nc1c2ccccc2nc2ccccc12)c1ccc(-c2c3nc(c(-c4cc(S(=O)(=O)[O-])ccc4F)c4ccc([nH]4)c(-c4cc(S(=O)(=O)[O-])ccc4F)c4nc(c(-c5cc(S(=O)(=O)[O-])ccc5F)c5ccc2[nH]5)C=C4)C=C3)cc1
REMARK SMILES IDX 6 1 5 2 4 3 3 4 1 5 2 6 37 8 38 9 99 10 39 11 98 12 40 13
REMARK SMILES IDX 41 14 42 15 92 16 43 17 97 18 91 19 93 20 44 21 96 22 90 23
REMARK SMILES IDX 89 24 45 26 77 27 57 28 76 29 58 30 61 31 75 32 94 33 59 34
REMARK SMILES IDX 60 35 74 37 95 38 62 39 46 40 47 41 55 42 48 43 54 44 56 45
REMARK SMILES IDX 53 46 49 47 50 48 51 49 52 50 78 51 79 52 87 53 80 54 86 55
REMARK SMILES IDX 88 56 85 57 81 58 82 59 83 60 84 61 63 62 64 63 72 64 65 65
REMARK SMILES IDX 71 66 73 67 70 68 66 69 67 70 68 71 69 72 7 73 8 74 9 75
REMARK SMILES IDX 10 76 11 77 12 79 13 80 14 81 15 82 16 83 21 84 17 85 20 86
REMARK SMILES IDX 18 87 19 88 22 90 23 92 24 93 36 94 25 95 29 96 31 97 35 98
REMARK SMILES IDX 26 99 28 100 30 101 32 102 34 103 27 104 33 105
REMARK H PARENT 3 7 93 25 61 36 10 78 19 89 22 91
REMARK Flexibility Score: inf
ROOT
ATOM      1  C   UNL A   1      33.191  28.546  24.552  1.00  0.00     0.002 C 
ENDROOT
BRANCH   1   2
ATOM      2  C   UNL A   1      32.059  29.384  25.150  1.00  0.00     0.021 C 
BRANCH   2   3
ATOM      3  C   UNL A   1      32.351  29.975  26.524  1.00  0.00     0.116 C 
BRANCH   3   4
ATOM      4  N   UNL A   1      32.134  31.413  26.561  1.00  0.00    -0.352 N 
ATOM      5  O   UNL A   1      32.368  33.519  27.331  1.00  0.00    -0.269 OA
ATOM      6  C   UNL A   1      32.817  32.383  27.260  1.00  0.00     0.251 C 
ATOM      7  H   UNL A   1      31.391  31.741  26.005  1.00  0.00     0.163 HD
BRANCH   6   8
ATOM      8  C   UNL A   1      34.093  32.040  27.928  1.00  0.00     0.039 A 
ATOM      9  C   UNL A   1      34.321  30.743  28.386  1.00  0.00     0.014 A 
ATOM     10  C   UNL A   1      35.080  33.020  28.080  1.00  0.00     0.014 A 
ATOM     11  C   UNL A   1      35.462  30.461  29.124  1.00  0.00     0.010 A 
ATOM     12  C   UNL A   1      36.277  32.705  28.734  1.00  0.00     0.010 A 
ATOM     13  C   UNL A   1      36.470  31.427  29.281  1.00  0.00    -0.014 A 
BRANCH  13  14
ATOM     14  C   UNL A   1      37.738  31.026  29.946  1.00  0.00     0.031 A 
ATOM     15  C   UNL A   1      38.055  31.439  31.357  1.00  0.00     0.074 A 
ATOM     16  C   UNL A   1      38.579  30.217  29.269  1.00  0.00     0.049 A 
ATOM     17  N   UNL A   1      39.089  31.118  32.093  1.00  0.00    -0.248 NA
ATOM     18  C   UNL A   1      37.098  32.334  32.023  1.00  0.00     0.031 C 
ATOM     19  C   UNL A   1      38.380  29.772  27.886  1.00  0.00     0.029 A 
ATOM     20  N   UNL A   1      39.744  29.602  29.646  1.00  0.00    -0.354 N 
ATOM     21  C   UNL A   1      38.910  31.767  33.311  1.00  0.00     0.074 A 
ATOM     22  C   UNL A   1      37.690  32.538  33.193  1.00  0.00     0.031 C 
ATOM     23  C   UNL A   1      39.349  28.909  27.555  1.00  0.00     0.029 A 
ATOM     24  C   UNL A   1      40.284  28.800  28.668  1.00  0.00     0.049 A 
ATOM     25  H   UNL A   1      40.155  29.722  30.533  1.00  0.00     0.167 HD
ATOM     26  C   UNL A   1      39.686  31.711  34.423  1.00  0.00     0.034 A 
ATOM     27  C   UNL A   1      41.417  28.072  28.653  1.00  0.00     0.034 A 
ATOM     28  C   UNL A   1      40.908  30.942  34.515  1.00  0.00     0.049 A 
ATOM     29  C   UNL A   1      42.273  28.055  29.891  1.00  0.00     0.074 A 
ATOM     30  C   UNL A   1      41.768  30.815  35.593  1.00  0.00     0.029 A 
ATOM     31  N   UNL A   1      41.447  30.172  33.491  1.00  0.00    -0.354 N 
ATOM     32  N   UNL A   1      42.079  28.666  31.037  1.00  0.00    -0.248 NA
ATOM     33  C   UNL A   1      43.494  27.245  29.836  1.00  0.00     0.031 C 
ATOM     34  C   UNL A   1      42.855  30.024  35.202  1.00  0.00     0.029 A 
ATOM     35  C   UNL A   1      42.638  29.590  33.904  1.00  0.00     0.049 A 
ATOM     36  H   UNL A   1      41.043  30.056  32.600  1.00  0.00     0.167 HD
ATOM     37  C   UNL A   1      43.152  28.303  31.843  1.00  0.00     0.074 A 
ATOM     38  C   UNL A   1      43.961  27.386  31.067  1.00  0.00     0.031 C 
ATOM     39  C   UNL A   1      43.449  28.698  33.108  1.00  0.00     0.034 A 
BRANCH  26  40
ATOM     40  C   UNL A   1      39.255  32.529  35.619  1.00  0.00     0.023 A 
ATOM     41  C   UNL A   1      39.676  33.859  35.794  1.00  0.00     0.031 A 
ATOM     42  C   UNL A   1      38.408  31.975  36.595  1.00  0.00     0.131 A 
ATOM     43  C   UNL A   1      39.294  34.571  36.941  1.00  0.00     0.055 A 
ATOM     44  C   UNL A   1      37.970  32.713  37.698  1.00  0.00     0.041 A 
ATOM     45  F   UNL A   1      37.989  30.703  36.494  1.00  0.00    -0.206 F 
ATOM     46  C   UNL A   1      38.422  34.016  37.881  1.00  0.00     0.022 A 
BRANCH  43  47
ATOM     47  S   UNL A   1      40.043  36.194  37.248  1.00  0.00     0.124 S 
ATOM     48  O   UNL A   1      41.402  35.823  37.637  1.00  0.00    -0.237 OA
ATOM     49  O   UNL A   1      39.906  36.856  35.957  1.00  0.00    -0.237 OA
ATOM     50  O   UNL A   1      39.227  36.751  38.325  1.00  0.00    -0.744 OA
ENDBRANCH  43  47
ENDBRANCH  26  40
BRANCH  27  51
ATOM     51  C   UNL A   1      41.829  27.341  27.420  1.00  0.00     0.023 A 
ATOM     52  C   UNL A   1      41.747  25.943  27.337  1.00  0.00     0.031 A 
ATOM     53  C   UNL A   1      42.358  28.037  26.317  1.00  0.00     0.131 A 
ATOM     54  C   UNL A   1      42.237  25.283  26.199  1.00  0.00     0.055 A 
ATOM     55  C   UNL A   1      42.779  27.381  25.161  1.00  0.00     0.041 A 
ATOM     56  F   UNL A   1      42.456  29.376  26.341  1.00  0.00    -0.206 F 
ATOM     57  C   UNL A   1      42.737  25.993  25.105  1.00  0.00     0.022 A 
BRANCH  54  58
ATOM     58  S   UNL A   1      42.312  23.470  26.215  1.00  0.00     0.124 S 
ATOM     59  O   UNL A   1      43.208  23.219  27.338  1.00  0.00    -0.237 OA
ATOM     60  O   UNL A   1      40.913  23.113  26.417  1.00  0.00    -0.237 OA
ATOM     61  O   UNL A   1      42.853  23.142  24.897  1.00  0.00    -0.744 OA
ENDBRANCH  54  58
ENDBRANCH  27  51
BRANCH  39  62
ATOM     62  C   UNL A   1      44.697  28.109  33.720  1.00  0.00     0.023 A 
ATOM     63  C   UNL A   1      44.644  26.972  34.547  1.00  0.00     0.031 A 
ATOM     64  C   UNL A   1      45.946  28.723  33.522  1.00  0.00     0.131 A 
ATOM     65  C   UNL A   1      45.799  26.535  35.210  1.00  0.00     0.055 A 
ATOM     66  C   UNL A   1      47.106  28.240  34.128  1.00  0.00     0.041 A 
ATOM     67  F   UNL A   1      46.057  29.813  32.746  1.00  0.00    -0.206 F 
ATOM     68  C   UNL A   1      47.034  27.151  34.993  1.00  0.00     0.022 A 
BRANCH  65  69
ATOM     69  S   UNL A   1      45.639  25.233  36.464  1.00  0.00     0.124 S 
ATOM     70  O   UNL A   1      46.206  24.079  35.777  1.00  0.00    -0.237 OA
ATOM     71  O   UNL A   1      46.427  25.768  37.570  1.00  0.00    -0.237 OA
ATOM     72  O   UNL A   1      44.199  25.167  36.706  1.00  0.00    -0.744 OA
ENDBRANCH  65  69
ENDBRANCH  39  62
ENDBRANCH  13  14
ENDBRANCH   6   8
ENDBRANCH   3   4
ENDBRANCH   2   3
ENDBRANCH   1   2
BRANCH   1  73
ATOM     73  C   UNL A   1      33.641  27.343  25.390  1.00  0.00     0.002 C 
BRANCH  73  74
ATOM     74  C   UNL A   1      32.545  26.702  26.242  1.00  0.00     0.021 C 
BRANCH  74  75
ATOM     75  C   UNL A   1      32.684  25.196  26.452  1.00  0.00     0.116 C 
BRANCH  75  76
ATOM     76  N   UNL A   1      31.446  24.636  26.950  1.00  0.00    -0.354 N 
ATOM     77  C   UNL A   1      30.837  23.439  26.730  1.00  0.00     0.242 C 
ATOM     78  H   UNL A   1      30.954  25.230  27.561  1.00  0.00     0.163 HD
ATOM     79  O   UNL A   1      29.668  23.353  27.134  1.00  0.00    -0.273 OA
BRANCH  77  80
ATOM     80  C   UNL A   1      31.498  22.226  26.021  1.00  0.00     0.173 C 
BRANCH  80  81
ATOM     81  C   UNL A   1      31.444  22.293  24.469  1.00  0.00     0.070 C 
BRANCH  81  82
ATOM     82  C   UNL A   1      31.913  23.503  23.688  1.00  0.00    -0.045 A 
ATOM     83  C   UNL A   1      33.283  23.649  23.403  1.00  0.00     0.007 A 
ATOM     84  C   UNL A   1      31.047  24.538  23.309  1.00  0.00     0.007 A 
ATOM     85  C   UNL A   1      33.753  24.730  22.649  1.00  0.00     0.046 A 
ATOM     86  C   UNL A   1      31.507  25.601  22.526  1.00  0.00     0.046 A 
ATOM     87  C   UNL A   1      32.850  25.677  22.184  1.00  0.00     0.115 A 
BRANCH  87  88
ATOM     88  O   UNL A   1      33.244  26.692  21.366  1.00  0.00    -0.508 OA
ATOM     89  H   UNL A   1      33.196  27.578  21.663  1.00  0.00     0.293 HD
ENDBRANCH  87  88
ENDBRANCH  81  82
ENDBRANCH  80  81
BRANCH  80  90
ATOM     90  N   UNL A   1      32.819  21.898  26.576  1.00  0.00    -0.372 N 
ATOM     91  H   UNL A   1      33.000  22.226  27.486  1.00  0.00     0.161 HD
BRANCH  90  92
ATOM     92  C   UNL A   1      33.853  21.173  25.964  1.00  0.00     0.054 A 
ATOM     93  C   UNL A   1      33.720  19.824  25.493  1.00  0.00     0.024 A 
ATOM     94  C   UNL A   1      35.120  21.832  25.791  1.00  0.00     0.024 A 
ATOM     95  C   UNL A   1      32.554  19.014  25.558  1.00  0.00     0.012 A 
ATOM     96  C   UNL A   1      34.838  19.248  24.852  1.00  0.00     0.073 A 
ATOM     97  C   UNL A   1      36.136  21.133  25.108  1.00  0.00     0.073 A 
ATOM     98  C   UNL A   1      35.434  23.136  26.262  1.00  0.00     0.012 A 
ATOM     99  C   UNL A   1      32.506  17.707  25.069  1.00  0.00     0.001 A 
ATOM    100  C   UNL A   1      34.771  17.952  24.354  1.00  0.00     0.029 A 
ATOM    101  N   UNL A   1      35.994  19.884  24.662  1.00  0.00    -0.248 NA
ATOM    102  C   UNL A   1      37.359  21.743  24.873  1.00  0.00     0.029 A 
ATOM    103  C   UNL A   1      36.677  23.729  26.027  1.00  0.00     0.001 A 
ATOM    104  C   UNL A   1      33.623  17.171  24.462  1.00  0.00     0.002 A 
ATOM    105  C   UNL A   1      37.641  23.033  25.318  1.00  0.00     0.002 A 
ENDBRANCH  90  92
ENDBRANCH  80  90
ENDBRANCH  77  80
ENDBRANCH  75  76
ENDBRANCH  74  75
ENDBRANCH  73  74
ENDBRANCH   1  73
TORSDOF 21
ENDMDL
MODEL 2
REMARK VINA RESULT:     -12.5      5.493      9.288
REMARK SMILES O=C(NCCCCCCNC(=O)[C@@H](Cc1ccc(O)cc1)Nc1c2ccccc2nc2ccccc12)c1ccc(-c2c3nc(c(-c4cc(S(=O)(=O)[O-])ccc4F)c4ccc([nH]4)c(-c4cc(S(=O)(=O)[O-])ccc4F)c4nc(c(-c5cc(S(=O)(=O)[O-])ccc5F)c5ccc2[nH]5)C=C4)C=C3)cc1
REMARK SMILES IDX 6 1 5 2 4 3 3 4 1 5 2 6 37 8 38 9 99 10 39 11 98 12 40 13
REMARK SMILES IDX 41 14 42 15 92 16 43 17 97 18 91 19 93 20 44 21 96 22 90 23
REMARK SMILES IDX 89 24 45 26 77 27 57 28 76 29 58 30 61 31 75 32 94 33 59 34
REMARK SMILES IDX 60 35 74 37 95 38 62 39 46 40 47 41 55 42 48 43 54 44 56 45
REMARK SMILES IDX 53 46 49 47 50 48 51 49 52 50 78 51 79 52 87 53 80 54 86 55
REMARK SMILES IDX 88 56 85 57 81 58 82 59 83 60 84 61 63 62 64 63 72 64 65 65
REMARK SMILES IDX 71 66 73 67 70 68 66 69 67 70 68 71 69 72 7 73 8 74 9 75
REMARK SMILES IDX 10 76 11 77 12 79 13 80 14 81 15 82 16 83 21 84 17 85 20 86
REMARK SMILES IDX 18 87 19 88 22 90 23 92 24 93 36 94 25 95 29 96 31 97 35 98
REMARK SMILES IDX 26 99 28 100 30 101 32 102 34 103 27 104 33 105
REMARK H PARENT 3 7 93 25 61 36 10 78 19 89 22 91
REMARK Flexibility Score: inf
ROOT
ATOM      1  C   UNL A   1      41.895  20.758  27.997  1.00  0.00     0.002 C 
ENDROOT
BRANCH   1   2
ATOM      2  C   UNL A   1      42.233  19.467  27.249  1.00  0.00     0.021 C 
BRANCH   2   3
ATOM      3  C   UNL A   1      42.139  19.559  25.730  1.00  0.00     0.116 C 
BRANCH   3   4
ATOM      4  N   UNL A   1      43.317  19.016  25.073  1.00  0.00    -0.352 N 
ATOM      5  O   UNL A   1      45.233  19.075  23.885  1.00  0.00    -0.269 OA
ATOM      6  C   UNL A   1      44.429  19.669  24.592  1.00  0.00     0.251 C 
ATOM      7  H   UNL A   1      43.320  18.038  24.954  1.00  0.00     0.163 HD
BRANCH   6   8
ATOM      8  C   UNL A   1      44.644  21.094  24.932  1.00  0.00     0.039 A 
ATOM      9  C   UNL A   1      45.218  21.447  26.153  1.00  0.00     0.014 A 
ATOM     10  C   UNL A   1      44.287  22.087  24.013  1.00  0.00     0.014 A 
ATOM     11  C   UNL A   1      45.297  22.783  26.519  1.00  0.00     0.010 A 
ATOM     12  C   UNL A   1      44.465  23.436  24.343  1.00  0.00     0.010 A 
ATOM     13  C   UNL A   1      44.951  23.796  25.609  1.00  0.00    -0.014 A 
BRANCH  13  14
ATOM     14  C   UNL A   1      45.202  25.211  25.995  1.00  0.00     0.031 A 
ATOM     15  C   UNL A   1      44.110  26.083  26.550  1.00  0.00     0.074 A 
ATOM     16  C   UNL A   1      46.463  25.680  25.897  1.00  0.00     0.049 A 
ATOM     17  N   UNL A   1      44.185  27.314  26.988  1.00  0.00    -0.248 NA
ATOM     18  C   UNL A   1      42.759  25.506  26.610  1.00  0.00     0.031 C 
ATOM     19  C   UNL A   1      47.597  24.925  25.353  1.00  0.00     0.029 A 
ATOM     20  N   UNL A   1      47.016  26.876  26.272  1.00  0.00    -0.354 N 
ATOM     21  C   UNL A   1      42.897  27.663  27.380  1.00  0.00     0.074 A 
ATOM     22  C   UNL A   1      42.051  26.526  27.081  1.00  0.00     0.031 C 
ATOM     23  C   UNL A   1      48.715  25.649  25.488  1.00  0.00     0.029 A 
ATOM     24  C   UNL A   1      48.372  26.949  26.051  1.00  0.00     0.049 A 
ATOM     25  H   UNL A   1      46.493  27.613  26.663  1.00  0.00     0.167 HD
ATOM     26  C   UNL A   1      42.468  28.819  27.947  1.00  0.00     0.034 A 
ATOM     27  C   UNL A   1      49.244  27.954  26.256  1.00  0.00     0.034 A 
ATOM     28  C   UNL A   1      43.327  29.947  28.228  1.00  0.00     0.049 A 
ATOM     29  C   UNL A   1      48.731  29.235  26.857  1.00  0.00     0.074 A 
ATOM     30  C   UNL A   1      42.996  31.163  28.801  1.00  0.00     0.029 A 
ATOM     31  N   UNL A   1      44.689  30.001  27.954  1.00  0.00    -0.354 N 
ATOM     32  N   UNL A   1      47.510  29.540  27.232  1.00  0.00    -0.248 NA
ATOM     33  C   UNL A   1      49.714  30.303  27.070  1.00  0.00     0.031 C 
ATOM     34  C   UNL A   1      44.138  31.973  28.814  1.00  0.00     0.029 A 
ATOM     35  C   UNL A   1      45.204  31.237  28.322  1.00  0.00     0.049 A 
ATOM     36  H   UNL A   1      45.214  29.269  27.556  1.00  0.00     0.167 HD
ATOM     37  C   UNL A   1      47.583  30.833  27.737  1.00  0.00     0.074 A 
ATOM     38  C   UNL A   1      48.974  31.230  27.658  1.00  0.00     0.031 C 
ATOM     39  C   UNL A   1      46.590  31.628  28.213  1.00  0.00     0.034 A 
BRANCH  26  40
ATOM     40  C   UNL A   1      40.995  28.934  28.272  1.00  0.00     0.023 A 
ATOM     41  C   UNL A   1      40.519  28.820  29.591  1.00  0.00     0.031 A 
ATOM     42  C   UNL A   1      40.056  29.168  27.253  1.00  0.00     0.131 A 
ATOM     43  C   UNL A   1      39.141  28.886  29.846  1.00  0.00     0.055 A 
ATOM     44  C   UNL A   1      38.692  29.307  27.523  1.00  0.00     0.041 A 
ATOM     45  F   UNL A   1      40.447  29.266  25.971  1.00  0.00    -0.206 F 
ATOM     46  C   UNL A   1      38.226  29.155  28.826  1.00  0.00     0.022 A 
BRANCH  43  47
ATOM     47  S   UNL A   1      38.547  28.500  31.516  1.00  0.00     0.124 S 
ATOM     48  O   UNL A   1      39.459  29.288  32.343  1.00  0.00    -0.237 OA
ATOM     49  O   UNL A   1      37.164  28.960  31.475  1.00  0.00    -0.237 OA
ATOM     50  O   UNL A   1      38.721  27.053  31.618  1.00  0.00    -0.744 OA
ENDBRANCH  43  47
ENDBRANCH  26  40
BRANCH  27  51
ATOM     51  C   UNL A   1      50.672  27.809  25.850  1.00  0.00     0.023 A 
ATOM     52  C   UNL A   1      51.066  27.919  24.509  1.00  0.00     0.031 A 
ATOM     53  C   UNL A   1      51.661  27.508  26.805  1.00  0.00     0.131 A 
ATOM     54  C   UNL A   1      52.402  27.677  24.152  1.00  0.00     0.055 A 
ATOM     55  C   UNL A   1      53.000  27.336  26.454  1.00  0.00     0.041 A 
ATOM     56  F   UNL A   1      51.341  27.394  28.104  1.00  0.00    -0.206 F 
ATOM     57  C   UNL A   1      53.374  27.403  25.117  1.00  0.00     0.022 A 
BRANCH  54  58
ATOM     58  S   UNL A   1      52.831  27.618  22.391  1.00  0.00     0.124 S 
ATOM     59  O   UNL A   1      51.516  27.533  21.766  1.00  0.00    -0.237 OA
ATOM     60  O   UNL A   1      53.546  28.877  22.213  1.00  0.00    -0.237 OA
ATOM     61  O   UNL A   1      53.654  26.415  22.283  1.00  0.00    -0.744 OA
ENDBRANCH  54  58
ENDBRANCH  27  51
BRANCH  39  62
ATOM     62  C   UNL A   1      47.001  32.996  28.702  1.00  0.00     0.023 A 
ATOM     63  C   UNL A   1      47.340  33.224  30.049  1.00  0.00     0.031 A 
ATOM     64  C   UNL A   1      46.998  34.096  27.827  1.00  0.00     0.131 A 
ATOM     65  C   UNL A   1      47.581  34.530  30.498  1.00  0.00     0.055 A 
ATOM     66  C   UNL A   1      47.309  35.384  28.266  1.00  0.00     0.041 A 
ATOM     67  F   UNL A   1      46.679  33.940  26.532  1.00  0.00    -0.206 F 
ATOM     68  C   UNL A   1      47.584  35.610  29.612  1.00  0.00     0.022 A 
BRANCH  65  69
ATOM     69  S   UNL A   1      47.757  34.815  32.281  1.00  0.00     0.124 S 
ATOM     70  O   UNL A   1      49.185  34.600  32.483  1.00  0.00    -0.237 OA
ATOM     71  O   UNL A   1      47.292  36.191  32.424  1.00  0.00    -0.237 OA
ATOM     72  O   UNL A   1      46.887  33.802  32.876  1.00  0.00    -0.744 OA
ENDBRANCH  65  69
ENDBRANCH  39  62
ENDBRANCH  13  14
ENDBRANCH   6   8
ENDBRANCH   3   4
ENDBRANCH   2   3
ENDBRANCH   1   2
BRANCH   1  73
ATOM     73  C   UNL A   1      41.649  21.990  27.118  1.00  0.00     0.002 C 
BRANCH  73  74
ATOM     74  C   UNL A   1      40.508  22.898  27.580  1.00  0.00     0.021 C 
BRANCH  74  75
ATOM     75  C   UNL A   1      39.394  23.111  26.558  1.00  0.00     0.116 C 
BRANCH  75  76
ATOM     76  N   UNL A   1      39.141  21.893  25.819  1.00  0.00    -0.354 N 
ATOM     77  C   UNL A   1      37.991  21.334  25.354  1.00  0.00     0.242 C 
ATOM     78  H   UNL A   1      39.952  21.371  25.616  1.00  0.00     0.163 HD
ATOM     79  O   UNL A   1      38.090  20.166  24.951  1.00  0.00    -0.273 OA
BRANCH  77  80
ATOM     80  C   UNL A   1      36.614  22.050  25.310  1.00  0.00     0.173 C 
BRANCH  80  81
ATOM     81  C   UNL A   1      36.147  22.438  23.879  1.00  0.00     0.070 C 
BRANCH  81  82
ATOM     82  C   UNL A   1      34.995  23.388  23.626  1.00  0.00    -0.045 A 
ATOM     83  C   UNL A   1      33.980  23.015  22.727  1.00  0.00     0.007 A 
ATOM     84  C   UNL A   1      34.940  24.671  24.187  1.00  0.00     0.007 A 
ATOM     85  C   UNL A   1      32.878  23.847  22.497  1.00  0.00     0.046 A 
ATOM     86  C   UNL A   1      33.824  25.489  23.987  1.00  0.00     0.046 A 
ATOM     87  C   UNL A   1      32.792  25.062  23.162  1.00  0.00     0.115 A 
BRANCH  87  88
ATOM     88  O   UNL A   1      31.695  25.860  23.047  1.00  0.00    -0.508 OA
ATOM     89  H   UNL A   1      31.262  26.174  23.815  1.00  0.00     0.293 HD
ENDBRANCH  87  88
ENDBRANCH  81  82
ENDBRANCH  80  81
BRANCH  80  90
ATOM     90  N   UNL A   1      35.598  21.369  26.125  1.00  0.00    -0.372 N 
ATOM     91  H   UNL A   1      35.881  21.090  27.026  1.00  0.00     0.161 HD
BRANCH  90  92
ATOM     92  C   UNL A   1      34.273  21.068  25.772  1.00  0.00     0.054 A 
ATOM     93  C   UNL A   1      33.152  21.918  26.057  1.00  0.00     0.024 A 
ATOM     94  C   UNL A   1      34.030  19.835  25.074  1.00  0.00     0.024 A 
ATOM     95  C   UNL A   1      33.188  23.175  26.720  1.00  0.00     0.012 A 
ATOM     96  C   UNL A   1      31.887  21.500  25.592  1.00  0.00     0.073 A 
ATOM     97  C   UNL A   1      32.712  19.567  24.652  1.00  0.00     0.073 A 
ATOM     98  C   UNL A   1      35.017  18.855  24.778  1.00  0.00     0.012 A 
ATOM     99  C   UNL A   1      32.048  23.946  26.954  1.00  0.00     0.001 A 
ATOM    100  C   UNL A   1      30.762  22.286  25.816  1.00  0.00     0.029 A 
ATOM    101  N   UNL A   1      31.681  20.373  24.911  1.00  0.00    -0.248 NA
ATOM    102  C   UNL A   1      32.435  18.414  23.933  1.00  0.00     0.029 A 
ATOM    103  C   UNL A   1      34.716  17.693  24.064  1.00  0.00     0.001 A 
ATOM    104  C   UNL A   1      30.824  23.498  26.499  1.00  0.00     0.002 A 
ATOM    105  C   UNL A   1      33.420  17.477  23.628  1.00  0.00     0.002 A 
ENDBRANCH  90  92
ENDBRANCH  80  90
ENDBRANCH  77  80
ENDBRANCH  75  76
ENDBRANCH  74  75
ENDBRANCH  73  74
ENDBRANCH   1  73
TORSDOF 21
ENDMDL
MODEL 3
REMARK VINA RESULT:     -12.5      5.756      9.467
REMARK SMILES O=C(NCCCCCCNC(=O)[C@@H](Cc1ccc(O)cc1)Nc1c2ccccc2nc2ccccc12)c1ccc(-c2c3nc(c(-c4cc(S(=O)(=O)[O-])ccc4F)c4ccc([nH]4)c(-c4cc(S(=O)(=O)[O-])ccc4F)c4nc(c(-c5cc(S(=O)(=O)[O-])ccc5F)c5ccc2[nH]5)C=C4)C=C3)cc1
REMARK SMILES IDX 6 1 5 2 4 3 3 4 1 5 2 6 37 8 38 9 99 10 39 11 98 12 40 13
REMARK SMILES IDX 41 14 42 15 92 16 43 17 97 18 91 19 93 20 44 21 96 22 90 23
REMARK SMILES IDX 89 24 45 26 77 27 57 28 76 29 58 30 61 31 75 32 94 33 59 34
REMARK SMILES IDX 60 35 74 37 95 38 62 39 46 40 47 41 55 42 48 43 54 44 56 45
REMARK SMILES IDX 53 46 49 47 50 48 51 49 52 50 78 51 79 52 87 53 80 54 86 55
REMARK SMILES IDX 88 56 85 57 81 58 82 59 83 60 84 61 63 62 64 63 72 64 65 65
REMARK SMILES IDX 71 66 73 67 70 68 66 69 67 70 68 71 69 72 7 73 8 74 9 75
REMARK SMILES IDX 10 76 11 77 12 79 13 80 14 81 15 82 16 83 21 84 17 85 20 86
REMARK SMILES IDX 18 87 19 88 22 90 23 92 24 93 36 94 25 95 29 96 31 97 35 98
REMARK SMILES IDX 26 99 28 100 30 101 32 102 34 103 27 104 33 105
REMARK H PARENT 3 7 93 25 61 36 10 78 19 89 22 91
REMARK Flexibility Score: inf
ROOT
ATOM      1  C   UNL A   1      42.072  20.880  27.858  1.00  0.00     0.002 C 
ENDROOT
BRANCH   1   2
ATOM      2  C   UNL A   1      42.263  19.531  27.161  1.00  0.00     0.021 C 
BRANCH   2   3
ATOM      3  C   UNL A   1      42.183  19.575  25.639  1.00  0.00     0.116 C 
BRANCH   3   4
ATOM      4  N   UNL A   1      43.375  19.029  25.010  1.00  0.00    -0.352 N 
ATOM      5  O   UNL A   1      45.316  19.082  23.864  1.00  0.00    -0.269 OA
ATOM      6  C   UNL A   1      44.498  19.680  24.551  1.00  0.00     0.251 C 
ATOM      7  H   UNL A   1      43.380  18.051  24.895  1.00  0.00     0.163 HD
BRANCH   6   8
ATOM      8  C   UNL A   1      44.706  21.106  24.890  1.00  0.00     0.039 A 
ATOM      9  C   UNL A   1      45.284  21.461  26.108  1.00  0.00     0.014 A 
ATOM     10  C   UNL A   1      44.338  22.097  23.974  1.00  0.00     0.014 A 
ATOM     11  C   UNL A   1      45.357  22.798  26.474  1.00  0.00     0.010 A 
ATOM     12  C   UNL A   1      44.509  23.446  24.303  1.00  0.00     0.010 A 
ATOM     13  C   UNL A   1      45.000  23.810  25.566  1.00  0.00    -0.014 A 
BRANCH  13  14
ATOM     14  C   UNL A   1      45.244  25.225  25.951  1.00  0.00     0.031 A 
ATOM     15  C   UNL A   1      44.146  26.095  26.499  1.00  0.00     0.074 A 
ATOM     16  C   UNL A   1      46.504  25.698  25.860  1.00  0.00     0.049 A 
ATOM     17  N   UNL A   1      44.216  27.327  26.935  1.00  0.00    -0.248 NA
ATOM     18  C   UNL A   1      42.797  25.514  26.552  1.00  0.00     0.031 C 
ATOM     19  C   UNL A   1      47.643  24.946  25.323  1.00  0.00     0.029 A 
ATOM     20  N   UNL A   1      47.052  26.897  26.235  1.00  0.00    -0.354 N 
ATOM     21  C   UNL A   1      42.924  27.673  27.319  1.00  0.00     0.074 A 
ATOM     22  C   UNL A   1      42.084  26.532  27.018  1.00  0.00     0.031 C 
ATOM     23  C   UNL A   1      48.759  25.674  25.462  1.00  0.00     0.029 A 
ATOM     24  C   UNL A   1      48.408  26.974  26.022  1.00  0.00     0.049 A 
ATOM     25  H   UNL A   1      46.524  27.633  26.622  1.00  0.00     0.167 HD
ATOM     26  C   UNL A   1      42.488  28.828  27.883  1.00  0.00     0.034 A 
ATOM     27  C   UNL A   1      49.276  27.982  26.229  1.00  0.00     0.034 A 
ATOM     28  C   UNL A   1      43.343  29.959  28.166  1.00  0.00     0.049 A 
ATOM     29  C   UNL A   1      48.756  29.262  26.825  1.00  0.00     0.074 A 
ATOM     30  C   UNL A   1      43.005  31.176  28.735  1.00  0.00     0.029 A 
ATOM     31  N   UNL A   1      44.706  30.018  27.899  1.00  0.00    -0.354 N 
ATOM     32  N   UNL A   1      47.532  29.563  27.193  1.00  0.00    -0.248 NA
ATOM     33  C   UNL A   1      49.735  30.333  27.042  1.00  0.00     0.031 C 
ATOM     34  C   UNL A   1      44.144  31.989  28.753  1.00  0.00     0.029 A 
ATOM     35  C   UNL A   1      45.216  31.256  28.268  1.00  0.00     0.049 A 
ATOM     36  H   UNL A   1      45.235  29.286  27.505  1.00  0.00     0.167 HD
ATOM     37  C   UNL A   1      47.599  30.858  27.696  1.00  0.00     0.074 A 
ATOM     38  C   UNL A   1      48.989  31.259  27.624  1.00  0.00     0.031 C 
ATOM     39  C   UNL A   1      46.601  31.651  28.166  1.00  0.00     0.034 A 
BRANCH  26  40
ATOM     40  C   UNL A   1      41.014  28.940  28.199  1.00  0.00     0.023 A 
ATOM     41  C   UNL A   1      40.530  28.817  29.514  1.00  0.00     0.031 A 
ATOM     42  C   UNL A   1      40.080  29.178  27.175  1.00  0.00     0.131 A 
ATOM     43  C   UNL A   1      39.150  28.879  29.762  1.00  0.00     0.055 A 
ATOM     44  C   UNL A   1      38.714  29.313  27.438  1.00  0.00     0.041 A 
ATOM     45  F   UNL A   1      40.479  29.284  25.897  1.00  0.00    -0.206 F 
ATOM     46  C   UNL A   1      38.241  29.153  28.737  1.00  0.00     0.022 A 
BRANCH  43  47
ATOM     47  S   UNL A   1      38.547  28.484  31.426  1.00  0.00     0.124 S 
ATOM     48  O   UNL A   1      39.476  29.240  32.264  1.00  0.00    -0.237 OA
ATOM     49  O   UNL A   1      37.175  28.975  31.391  1.00  0.00    -0.237 OA
ATOM     50  O   UNL A   1      38.689  27.032  31.507  1.00  0.00    -0.744 OA
ENDBRANCH  43  47
ENDBRANCH  26  40
BRANCH  27  51
ATOM     51  C   UNL A   1      50.707  27.840  25.832  1.00  0.00     0.023 A 
ATOM     52  C   UNL A   1      51.106  27.934  24.490  1.00  0.00     0.031 A 
ATOM     53  C   UNL A   1      51.694  27.559  26.795  1.00  0.00     0.131 A 
ATOM     54  C   UNL A   1      52.445  27.696  24.143  1.00  0.00     0.055 A 
ATOM     55  C   UNL A   1      53.035  27.392  26.452  1.00  0.00     0.041 A 
ATOM     56  F   UNL A   1      51.369  27.461  28.094  1.00  0.00    -0.206 F 
ATOM     57  C   UNL A   1      53.414  27.442  25.116  1.00  0.00     0.022 A 
BRANCH  54  58
ATOM     58  S   UNL A   1      52.882  27.616  22.384  1.00  0.00     0.124 S 
ATOM     59  O   UNL A   1      51.571  27.496  21.756  1.00  0.00    -0.237 OA
ATOM     60  O   UNL A   1      53.575  28.884  22.188  1.00  0.00    -0.237 OA
ATOM     61  O   UNL A   1      53.727  26.426  22.300  1.00  0.00    -0.744 OA
ENDBRANCH  54  58
ENDBRANCH  27  51
BRANCH  39  62
ATOM     62  C   UNL A   1      47.005  33.021  28.655  1.00  0.00     0.023 A 
ATOM     63  C   UNL A   1      46.980  34.141  27.805  1.00  0.00     0.031 A 
ATOM     64  C   UNL A   1      47.474  33.198  29.968  1.00  0.00     0.131 A 
ATOM     65  C   UNL A   1      47.493  35.368  28.250  1.00  0.00     0.055 A 
ATOM     66  C   UNL A   1      47.916  34.440  30.428  1.00  0.00     0.041 A 
ATOM     67  F   UNL A   1      47.523  32.164  30.823  1.00  0.00    -0.206 F 
ATOM     68  C   UNL A   1      47.945  35.529  29.562  1.00  0.00     0.022 A 
BRANCH  65  69
ATOM     69  S   UNL A   1      47.685  36.715  27.048  1.00  0.00     0.124 S 
ATOM     70  O   UNL A   1      48.115  37.819  27.897  1.00  0.00    -0.237 OA
ATOM     71  O   UNL A   1      48.692  36.179  26.139  1.00  0.00    -0.237 OA
ATOM     72  O   UNL A   1      46.346  36.855  26.477  1.00  0.00    -0.744 OA
ENDBRANCH  65  69
ENDBRANCH  39  62
ENDBRANCH  13  14
ENDBRANCH   6   8
ENDBRANCH   3   4
ENDBRANCH   2   3
ENDBRANCH   1   2
BRANCH   1  73
ATOM     73  C   UNL A   1      41.686  22.049  26.945  1.00  0.00     0.002 C 
BRANCH  73  74
ATOM     74  C   UNL A   1      40.689  23.039  27.549  1.00  0.00     0.021 C 
BRANCH  74  75
ATOM     75  C   UNL A   1      39.324  23.084  26.864  1.00  0.00     0.116 C 
BRANCH  75  76
ATOM     76  N   UNL A   1      39.136  21.918  26.029  1.00  0.00    -0.354 N 
ATOM     77  C   UNL A   1      38.030  21.394  25.434  1.00  0.00     0.242 C 
ATOM     78  H   UNL A   1      39.962  21.409  25.858  1.00  0.00     0.163 HD
ATOM     79  O   UNL A   1      38.165  20.255  24.964  1.00  0.00    -0.273 OA
BRANCH  77  80
ATOM     80  C   UNL A   1      36.658  22.114  25.326  1.00  0.00     0.173 C 
BRANCH  80  81
ATOM     81  C   UNL A   1      36.240  22.464  23.870  1.00  0.00     0.070 C 
BRANCH  81  82
ATOM     82  C   UNL A   1      35.077  23.381  23.554  1.00  0.00    -0.045 A 
ATOM     83  C   UNL A   1      35.003  24.640  24.178  1.00  0.00     0.007 A 
ATOM     84  C   UNL A   1      34.015  22.993  22.725  1.00  0.00     0.007 A 
ATOM     85  C   UNL A   1      33.967  25.533  23.882  1.00  0.00     0.046 A 
ATOM     86  C   UNL A   1      32.998  23.896  22.400  1.00  0.00     0.046 A 
ATOM     87  C   UNL A   1      32.994  25.165  22.963  1.00  0.00     0.115 A 
BRANCH  87  88
ATOM     88  O   UNL A   1      32.024  26.035  22.570  1.00  0.00    -0.508 OA
ATOM     89  H   UNL A   1      31.187  26.025  22.990  1.00  0.00     0.293 HD
ENDBRANCH  87  88
ENDBRANCH  81  82
ENDBRANCH  80  81
BRANCH  80  90
ATOM     90  N   UNL A   1      35.613  21.461  26.126  1.00  0.00    -0.372 N 
ATOM     91  H   UNL A   1      35.835  21.284  27.069  1.00  0.00     0.161 HD
BRANCH  90  92
ATOM     92  C   UNL A   1      34.335  21.057  25.707  1.00  0.00     0.054 A 
ATOM     93  C   UNL A   1      34.066  19.825  25.023  1.00  0.00     0.024 A 
ATOM     94  C   UNL A   1      33.230  21.932  25.991  1.00  0.00     0.024 A 
ATOM     95  C   UNL A   1      35.014  18.827  24.667  1.00  0.00     0.012 A 
ATOM     96  C   UNL A   1      32.720  19.536  24.712  1.00  0.00     0.073 A 
ATOM     97  C   UNL A   1      31.938  21.494  25.639  1.00  0.00     0.073 A 
ATOM     98  C   UNL A   1      33.338  23.214  26.596  1.00  0.00     0.012 A 
ATOM     99  C   UNL A   1      34.667  17.648  24.005  1.00  0.00     0.001 A 
ATOM    100  C   UNL A   1      32.386  18.350  24.068  1.00  0.00     0.029 A 
ATOM    101  N   UNL A   1      31.699  20.338  25.017  1.00  0.00    -0.248 NA
ATOM    102  C   UNL A   1      30.834  22.280  25.937  1.00  0.00     0.029 A 
ATOM    103  C   UNL A   1      32.215  23.997  26.876  1.00  0.00     0.001 A 
ATOM    104  C   UNL A   1      33.342  17.407  23.703  1.00  0.00     0.002 A 
ATOM    105  C   UNL A   1      30.956  23.522  26.555  1.00  0.00     0.002 A 
ENDBRANCH  90  92
ENDBRANCH  80  90
ENDBRANCH  77  80
ENDBRANCH  75  76
ENDBRANCH  74  75
ENDBRANCH  73  74
ENDBRANCH   1  73
TORSDOF 21
ENDMDL
