MODEL 1
REMARK VINA RESULT:     -10.7      0.000      0.000
REMARK SMILES C=CCN(CC(=O)NCCCCCCNC(=O)c1ccc(-c2c3nc(c(-c4cc(S(=O)(=O)[O-])ccc4F)c4ccc([nH]4)c(-c4cc(S(=O)(=O)[O-])ccc4F)c4nc(c(-c5cc(S(=O)(=O)[O-])ccc5F)c5ccc2[nH]5)C=C4)C=C3)cc1)C(=O)N1CC[C@@H]([NH+]2CCCCC2)C1
REMARK SMILES IDX 11 1 10 2 9 3 8 4 6 5 7 6 5 8 4 9 3 10 2 11 1 12 81 13 82 14
REMARK SMILES IDX 83 15 84 16 93 17 85 18 86 19 87 20 88 21 92 22 89 24 91 25
REMARK SMILES IDX 90 26 12 27 13 28 14 29 15 30 16 31 17 33 18 34 19 35 80 36
REMARK SMILES IDX 20 37 79 38 21 39 22 40 23 41 73 42 24 43 78 44 72 45 74 46
REMARK SMILES IDX 25 47 77 48 71 49 70 50 26 52 58 53 38 54 57 55 39 56 42 57
REMARK SMILES IDX 56 58 75 59 40 60 41 61 55 63 76 64 43 65 27 66 28 67 36 68
REMARK SMILES IDX 29 69 35 70 37 71 34 72 30 73 31 74 32 75 33 76 59 77 60 78
REMARK SMILES IDX 68 79 61 80 67 81 69 82 66 83 62 84 63 85 64 86 65 87 44 88
REMARK SMILES IDX 45 89 53 90 46 91 52 92 54 93 51 94 47 95 48 96 49 97 50 98
REMARK H PARENT 8 7 87 23 15 32 74 51 42 62
REMARK Flexibility Score: inf
ROOT
ATOM      1  C   UNL A   1      33.374  29.719  26.266  1.00  0.00     0.002 C 
ENDROOT
BRANCH   1   2
ATOM      2  C   UNL A   1      33.300  28.232  26.645  1.00  0.00     0.021 C 
BRANCH   2   3
ATOM      3  C   UNL A   1      32.154  27.850  27.582  1.00  0.00     0.116 C 
BRANCH   3   4
ATOM      4  N   UNL A   1      31.085  27.120  26.948  1.00  0.00    -0.355 N 
ATOM      5  C   UNL A   1      31.091  25.893  26.354  1.00  0.00     0.239 C 
ATOM      6  O   UNL A   1      29.984  25.365  26.177  1.00  0.00    -0.273 OA
ATOM      7  H   UNL A   1      30.216  27.581  26.942  1.00  0.00     0.163 HD
BRANCH   5   8
ATOM      8  C   UNL A   1      32.380  25.128  25.962  1.00  0.00     0.221 C 
BRANCH   8   9
ATOM      9  N   UNL A   1      32.612  24.610  24.594  1.00  0.00    -0.312 N 
BRANCH   9  10
ATOM     10  C   UNL A   1      33.838  25.043  23.934  1.00  0.00     0.149 C 
BRANCH  10  11
ATOM     11  C   UNL A   1      33.756  26.455  23.444  1.00  0.00    -0.013 C 
ATOM     12  C   UNL A   1      32.925  26.828  22.460  1.00  0.00     0.006 C 
ENDBRANCH  10  11
ENDBRANCH   9  10
BRANCH   9  13
ATOM     13  C   UNL A   1      31.903  23.549  24.013  1.00  0.00     0.320 C 
ATOM     14  O   UNL A   1      31.052  23.708  23.139  1.00  0.00    -0.248 OA
BRANCH  13  15
ATOM     15  N   UNL A   1      32.220  22.284  24.419  1.00  0.00    -0.318 N 
ATOM     16  C   UNL A   1      31.929  21.744  25.705  1.00  0.00     0.128 C 
ATOM     17  C   UNL A   1      32.519  21.154  23.536  1.00  0.00     0.186 C 
ATOM     18  C   UNL A   1      33.068  20.774  25.864  1.00  0.00     0.088 C 
ATOM     19  C   UNL A   1      33.055  20.033  24.513  1.00  0.00     0.205 C 
BRANCH  19  20
ATOM     20  N   UNL A   1      32.351  18.730  24.484  1.00  0.00    -0.331 N 
ATOM     21  C   UNL A   1      32.739  17.705  25.457  1.00  0.00     0.262 C 
ATOM     22  C   UNL A   1      32.252  18.130  23.146  1.00  0.00     0.262 C 
ATOM     23  H   UNL A   1      31.430  19.040  24.795  1.00  0.00     0.348 HD
ATOM     24  C   UNL A   1      34.013  16.915  25.124  1.00  0.00     0.062 C 
ATOM     25  C   UNL A   1      33.511  17.417  22.653  1.00  0.00     0.062 C 
ATOM     26  C   UNL A   1      34.093  16.443  23.676  1.00  0.00     0.012 C 
ENDBRANCH  19  20
ENDBRANCH  13  15
ENDBRANCH   9  13
ENDBRANCH   8   9
ENDBRANCH   5   8
ENDBRANCH   3   4
ENDBRANCH   2   3
ENDBRANCH   1   2
BRANCH   1  27
ATOM     27  C   UNL A   1      32.036  30.407  25.971  1.00  0.00     0.002 C 
BRANCH  27  28
ATOM     28  C   UNL A   1      31.719  31.638  26.824  1.00  0.00     0.021 C 
BRANCH  28  29
ATOM     29  C   UNL A   1      32.937  32.346  27.406  1.00  0.00     0.116 C 
BRANCH  29  30
ATOM     30  N   UNL A   1      32.679  33.755  27.661  1.00  0.00    -0.352 N 
ATOM     31  C   UNL A   1      33.224  34.576  28.618  1.00  0.00     0.251 C 
ATOM     32  H   UNL A   1      32.022  34.179  27.063  1.00  0.00     0.163 HD
ATOM     33  O   UNL A   1      32.733  35.685  28.824  1.00  0.00    -0.269 OA
BRANCH  31  34
ATOM     34  C   UNL A   1      34.382  34.112  29.412  1.00  0.00     0.039 A 
ATOM     35  C   UNL A   1      34.174  33.226  30.473  1.00  0.00     0.014 A 
ATOM     36  C   UNL A   1      35.676  34.539  29.101  1.00  0.00     0.014 A 
ATOM     37  C   UNL A   1      35.269  32.710  31.171  1.00  0.00     0.010 A 
ATOM     38  C   UNL A   1      36.768  33.967  29.746  1.00  0.00     0.010 A 
ATOM     39  C   UNL A   1      36.578  33.043  30.786  1.00  0.00    -0.014 A 
BRANCH  39  40
ATOM     40  C   UNL A   1      37.768  32.452  31.458  1.00  0.00     0.031 A 
ATOM     41  C   UNL A   1      38.497  31.305  30.811  1.00  0.00     0.074 A 
ATOM     42  C   UNL A   1      38.143  32.892  32.677  1.00  0.00     0.049 A 
ATOM     43  N   UNL A   1      39.459  30.559  31.291  1.00  0.00    -0.248 NA
ATOM     44  C   UNL A   1      38.066  30.935  29.455  1.00  0.00     0.031 C 
ATOM     45  C   UNL A   1      37.509  33.986  33.413  1.00  0.00     0.029 A 
ATOM     46  N   UNL A   1      39.141  32.463  33.518  1.00  0.00    -0.354 N 
ATOM     47  C   UNL A   1      39.744  29.628  30.298  1.00  0.00     0.074 A 
ATOM     48  C   UNL A   1      38.805  29.861  29.222  1.00  0.00     0.031 C 
ATOM     49  C   UNL A   1      38.142  34.152  34.587  1.00  0.00     0.029 A 
ATOM     50  C   UNL A   1      39.186  33.140  34.716  1.00  0.00     0.049 A 
ATOM     51  H   UNL A   1      39.766  31.738  33.286  1.00  0.00     0.167 HD
ATOM     52  C   UNL A   1      40.718  28.683  30.274  1.00  0.00     0.034 A 
ATOM     53  C   UNL A   1      39.960  32.951  35.804  1.00  0.00     0.034 A 
ATOM     54  C   UNL A   1      41.647  28.462  31.354  1.00  0.00     0.049 A 
ATOM     55  C   UNL A   1      40.986  31.841  35.785  1.00  0.00     0.074 A 
ATOM     56  C   UNL A   1      42.682  27.545  31.426  1.00  0.00     0.029 A 
ATOM     57  N   UNL A   1      41.652  29.160  32.554  1.00  0.00    -0.354 N 
ATOM     58  N   UNL A   1      41.257  30.983  34.829  1.00  0.00    -0.248 NA
ATOM     59  C   UNL A   1      41.812  31.678  36.989  1.00  0.00     0.031 C 
ATOM     60  C   UNL A   1      43.264  27.640  32.694  1.00  0.00     0.029 A 
ATOM     61  C   UNL A   1      42.654  28.676  33.382  1.00  0.00     0.049 A 
ATOM     62  H   UNL A   1      41.035  29.893  32.784  1.00  0.00     0.167 HD
ATOM     63  C   UNL A   1      42.317  30.211  35.301  1.00  0.00     0.074 A 
ATOM     64  C   UNL A   1      42.638  30.709  36.621  1.00  0.00     0.031 C 
ATOM     65  C   UNL A   1      42.969  29.188  34.695  1.00  0.00     0.034 A 
BRANCH  52  66
ATOM     66  C   UNL A   1      40.808  27.810  29.045  1.00  0.00     0.023 A 
ATOM     67  C   UNL A   1      41.728  28.083  28.018  1.00  0.00     0.031 A 
ATOM     68  C   UNL A   1      39.955  26.704  28.885  1.00  0.00     0.131 A 
ATOM     69  C   UNL A   1      41.722  27.311  26.847  1.00  0.00     0.055 A 
ATOM     70  C   UNL A   1      40.015  25.885  27.757  1.00  0.00     0.041 A 
ATOM     71  F   UNL A   1      39.040  26.405  29.822  1.00  0.00    -0.206 F 
ATOM     72  C   UNL A   1      40.891  26.196  26.721  1.00  0.00     0.022 A 
BRANCH  69  73
ATOM     73  S   UNL A   1      42.709  27.877  25.435  1.00  0.00     0.124 S 
ATOM     74  O   UNL A   1      41.881  28.962  24.914  1.00  0.00    -0.237 OA
ATOM     75  O   UNL A   1      43.963  28.275  26.065  1.00  0.00    -0.237 OA
ATOM     76  O   UNL A   1      42.788  26.696  24.577  1.00  0.00    -0.744 OA
ENDBRANCH  69  73
ENDBRANCH  52  66
BRANCH  53  77
ATOM     77  C   UNL A   1      39.792  33.803  37.020  1.00  0.00     0.023 A 
ATOM     78  C   UNL A   1      40.720  34.810  37.328  1.00  0.00     0.031 A 
ATOM     79  C   UNL A   1      38.746  33.573  37.932  1.00  0.00     0.131 A 
ATOM     80  C   UNL A   1      40.625  35.502  38.546  1.00  0.00     0.055 A 
ATOM     81  C   UNL A   1      38.616  34.312  39.110  1.00  0.00     0.041 A 
ATOM     82  F   UNL A   1      37.830  32.621  37.692  1.00  0.00    -0.206 F 
ATOM     83  C   UNL A   1      39.571  35.272  39.432  1.00  0.00     0.022 A 
BRANCH  80  84
ATOM     84  S   UNL A   1      41.977  36.618  39.014  1.00  0.00     0.124 S 
ATOM     85  O   UNL A   1      42.330  36.114  40.337  1.00  0.00    -0.237 OA
ATOM     86  O   UNL A   1      42.949  36.377  37.954  1.00  0.00    -0.237 OA
ATOM     87  O   UNL A   1      41.349  37.937  38.995  1.00  0.00    -0.744 OA
ENDBRANCH  80  84
ENDBRANCH  53  77
BRANCH  65  88
ATOM     88  C   UNL A   1      44.145  28.585  35.423  1.00  0.00     0.023 A 
ATOM     89  C   UNL A   1      44.018  27.442  36.231  1.00  0.00     0.031 A 
ATOM     90  C   UNL A   1      45.422  29.160  35.290  1.00  0.00     0.131 A 
ATOM     91  C   UNL A   1      45.139  26.937  36.910  1.00  0.00     0.055 A 
ATOM     92  C   UNL A   1      46.544  28.619  35.917  1.00  0.00     0.041 A 
ATOM     93  F   UNL A   1      45.602  30.256  34.535  1.00  0.00    -0.206 F 
ATOM     94  C   UNL A   1      46.404  27.506  36.741  1.00  0.00     0.022 A 
BRANCH  91  95
ATOM     95  S   UNL A   1      44.909  25.570  38.079  1.00  0.00     0.124 S 
ATOM     96  O   UNL A   1      46.109  24.772  37.854  1.00  0.00    -0.237 OA
ATOM     97  O   UNL A   1      44.836  26.263  39.361  1.00  0.00    -0.237 OA
ATOM     98  O   UNL A   1      43.660  24.950  37.640  1.00  0.00    -0.744 OA
ENDBRANCH  91  95
ENDBRANCH  65  88
ENDBRANCH  39  40
ENDBRANCH  31  34
ENDBRANCH  29  30
ENDBRANCH  28  29
ENDBRANCH  27  28
ENDBRANCH   1  27
TORSDOF 22
ENDMDL
MODEL 2
REMARK VINA RESULT:     -10.6      5.848     10.753
REMARK SMILES C=CCN(CC(=O)NCCCCCCNC(=O)c1ccc(-c2c3nc(c(-c4cc(S(=O)(=O)[O-])ccc4F)c4ccc([nH]4)c(-c4cc(S(=O)(=O)[O-])ccc4F)c4nc(c(-c5cc(S(=O)(=O)[O-])ccc5F)c5ccc2[nH]5)C=C4)C=C3)cc1)C(=O)N1CC[C@@H]([NH+]2CCCCC2)C1
REMARK SMILES IDX 11 1 10 2 9 3 8 4 6 5 7 6 5 8 4 9 3 10 2 11 1 12 81 13 82 14
REMARK SMILES IDX 83 15 84 16 93 17 85 18 86 19 87 20 88 21 92 22 89 24 91 25
REMARK SMILES IDX 90 26 12 27 13 28 14 29 15 30 16 31 17 33 18 34 19 35 80 36
REMARK SMILES IDX 20 37 79 38 21 39 22 40 23 41 73 42 24 43 78 44 72 45 74 46
REMARK SMILES IDX 25 47 77 48 71 49 70 50 26 52 58 53 38 54 57 55 39 56 42 57
REMARK SMILES IDX 56 58 75 59 40 60 41 61 55 63 76 64 43 65 27 66 28 67 36 68
REMARK SMILES IDX 29 69 35 70 37 71 34 72 30 73 31 74 32 75 33 76 59 77 60 78
REMARK SMILES IDX 68 79 61 80 67 81 69 82 66 83 62 84 63 85 64 86 65 87 44 88
REMARK SMILES IDX 45 89 53 90 46 91 52 92 54 93 51 94 47 95 48 96 49 97 50 98
REMARK H PARENT 8 7 87 23 15 32 74 51 42 62
REMARK Flexibility Score: inf
ROOT
ATOM      1  C   UNL A   1      38.475  23.796  26.471  1.00  0.00     0.002 C 
ENDROOT
BRANCH   1   2
ATOM      2  C   UNL A   1      37.529  23.315  25.362  1.00  0.00     0.021 C 
BRANCH   2   3
ATOM      3  C   UNL A   1      36.199  22.732  25.841  1.00  0.00     0.116 C 
BRANCH   3   4
ATOM      4  N   UNL A   1      35.236  23.718  26.263  1.00  0.00    -0.355 N 
ATOM      5  C   UNL A   1      34.222  24.309  25.570  1.00  0.00     0.239 C 
ATOM      6  O   UNL A   1      33.351  24.873  26.247  1.00  0.00    -0.273 OA
ATOM      7  H   UNL A   1      35.325  24.010  27.198  1.00  0.00     0.163 HD
BRANCH   5   8
ATOM      8  C   UNL A   1      34.082  24.255  24.027  1.00  0.00     0.221 C 
BRANCH   8   9
ATOM      9  N   UNL A   1      32.765  24.241  23.349  1.00  0.00    -0.312 N 
BRANCH   9  10
ATOM     10  C   UNL A   1      32.659  25.020  22.120  1.00  0.00     0.149 C 
BRANCH  10  11
ATOM     11  C   UNL A   1      32.470  26.482  22.384  1.00  0.00    -0.013 C 
ATOM     12  C   UNL A   1      31.289  27.096  22.219  1.00  0.00     0.006 C 
ENDBRANCH  10  11
ENDBRANCH   9  10
BRANCH   9  13
ATOM     13  C   UNL A   1      31.729  23.343  23.639  1.00  0.00     0.320 C 
ATOM     14  O   UNL A   1      30.539  23.624  23.502  1.00  0.00    -0.248 OA
BRANCH  13  15
ATOM     15  N   UNL A   1      32.080  22.089  24.047  1.00  0.00    -0.318 N 
ATOM     16  C   UNL A   1      31.789  21.536  25.328  1.00  0.00     0.128 C 
ATOM     17  C   UNL A   1      32.427  20.970  23.166  1.00  0.00     0.186 C 
ATOM     18  C   UNL A   1      32.956  20.603  25.501  1.00  0.00     0.088 C 
ATOM     19  C   UNL A   1      32.985  19.864  24.149  1.00  0.00     0.205 C 
BRANCH  19  20
ATOM     20  N   UNL A   1      32.323  18.540  24.108  1.00  0.00    -0.331 N 
ATOM     21  C   UNL A   1      32.409  17.680  25.291  1.00  0.00     0.262 C 
ATOM     22  C   UNL A   1      32.624  17.755  22.902  1.00  0.00     0.262 C 
ATOM     23  H   UNL A   1      31.351  18.849  24.088  1.00  0.00     0.348 HD
ATOM     24  C   UNL A   1      33.726  16.909  25.464  1.00  0.00     0.062 C 
ATOM     25  C   UNL A   1      33.974  17.038  22.908  1.00  0.00     0.062 C 
ATOM     26  C   UNL A   1      34.230  16.243  24.187  1.00  0.00     0.012 C 
ENDBRANCH  19  20
ENDBRANCH  13  15
ENDBRANCH   9  13
ENDBRANCH   8   9
ENDBRANCH   5   8
ENDBRANCH   3   4
ENDBRANCH   2   3
ENDBRANCH   1   2
BRANCH   1  27
ATOM     27  C   UNL A   1      39.654  22.871  26.799  1.00  0.00     0.002 C 
BRANCH  27  28
ATOM     28  C   UNL A   1      39.628  21.498  26.124  1.00  0.00     0.021 C 
BRANCH  28  29
ATOM     29  C   UNL A   1      40.141  20.349  26.985  1.00  0.00     0.116 C 
BRANCH  29  30
ATOM     30  N   UNL A   1      41.124  19.538  26.283  1.00  0.00    -0.352 N 
ATOM     31  C   UNL A   1      42.350  19.902  25.781  1.00  0.00     0.251 C 
ATOM     32  H   UNL A   1      40.875  18.594  26.150  1.00  0.00     0.163 HD
ATOM     33  O   UNL A   1      42.955  19.138  25.031  1.00  0.00    -0.269 OA
BRANCH  31  34
ATOM     34  C   UNL A   1      42.922  21.221  26.126  1.00  0.00     0.039 A 
ATOM     35  C   UNL A   1      43.096  22.176  25.120  1.00  0.00     0.014 A 
ATOM     36  C   UNL A   1      43.273  21.522  27.445  1.00  0.00     0.014 A 
ATOM     37  C   UNL A   1      43.551  23.456  25.450  1.00  0.00     0.010 A 
ATOM     38  C   UNL A   1      43.652  22.818  27.783  1.00  0.00     0.010 A 
ATOM     39  C   UNL A   1      43.792  23.801  26.790  1.00  0.00    -0.014 A 
BRANCH  39  40
ATOM     40  C   UNL A   1      44.202  25.176  27.185  1.00  0.00     0.031 A 
ATOM     41  C   UNL A   1      43.172  26.141  27.708  1.00  0.00     0.074 A 
ATOM     42  C   UNL A   1      45.476  25.580  27.002  1.00  0.00     0.049 A 
ATOM     43  N   UNL A   1      43.289  27.418  27.969  1.00  0.00    -0.248 NA
ATOM     44  C   UNL A   1      41.825  25.599  27.941  1.00  0.00     0.031 C 
ATOM     45  C   UNL A   1      46.563  24.744  26.490  1.00  0.00     0.029 A 
ATOM     46  N   UNL A   1      46.070  26.801  27.212  1.00  0.00    -0.354 N 
ATOM     47  C   UNL A   1      42.031  27.833  28.393  1.00  0.00     0.074 A 
ATOM     48  C   UNL A   1      41.152  26.688  28.283  1.00  0.00     0.031 C 
ATOM     49  C   UNL A   1      47.692  25.471  26.441  1.00  0.00     0.029 A 
ATOM     50  C   UNL A   1      47.400  26.839  26.859  1.00  0.00     0.049 A 
ATOM     51  H   UNL A   1      45.589  27.577  27.581  1.00  0.00     0.167 HD
ATOM     52  C   UNL A   1      41.650  29.050  28.855  1.00  0.00     0.034 A 
ATOM     53  C   UNL A   1      48.278  27.863  26.846  1.00  0.00     0.034 A 
ATOM     54  C   UNL A   1      42.536  30.182  28.959  1.00  0.00     0.049 A 
ATOM     55  C   UNL A   1      47.810  29.230  27.292  1.00  0.00     0.074 A 
ATOM     56  C   UNL A   1      42.259  31.454  29.430  1.00  0.00     0.029 A 
ATOM     57  N   UNL A   1      43.873  30.184  28.580  1.00  0.00    -0.354 N 
ATOM     58  N   UNL A   1      46.621  29.600  27.710  1.00  0.00    -0.248 NA
ATOM     59  C   UNL A   1      48.802  30.313  27.270  1.00  0.00     0.031 C 
ATOM     60  C   UNL A   1      43.404  32.241  29.269  1.00  0.00     0.029 A 
ATOM     61  C   UNL A   1      44.423  31.440  28.782  1.00  0.00     0.049 A 
ATOM     62  H   UNL A   1      44.359  29.406  28.221  1.00  0.00     0.167 HD
ATOM     63  C   UNL A   1      46.740  30.948  28.044  1.00  0.00     0.074 A 
ATOM     64  C   UNL A   1      48.113  31.321  27.785  1.00  0.00     0.031 C 
ATOM     65  C   UNL A   1      45.799  31.797  28.527  1.00  0.00     0.034 A 
BRANCH  52  66
ATOM     66  C   UNL A   1      40.206  29.216  29.266  1.00  0.00     0.023 A 
ATOM     67  C   UNL A   1      39.820  29.187  30.617  1.00  0.00     0.031 A 
ATOM     68  C   UNL A   1      39.199  29.386  28.299  1.00  0.00     0.131 A 
ATOM     69  C   UNL A   1      38.462  29.247  30.960  1.00  0.00     0.055 A 
ATOM     70  C   UNL A   1      37.857  29.536  28.652  1.00  0.00     0.041 A 
ATOM     71  F   UNL A   1      39.503  29.400  26.991  1.00  0.00    -0.206 F 
ATOM     72  C   UNL A   1      37.480  29.450  29.989  1.00  0.00     0.022 A 
BRANCH  69  73
ATOM     73  S   UNL A   1      37.989  28.907  32.678  1.00  0.00     0.124 S 
ATOM     74  O   UNL A   1      36.734  29.647  32.788  1.00  0.00    -0.237 OA
ATOM     75  O   UNL A   1      37.879  27.453  32.693  1.00  0.00    -0.237 OA
ATOM     76  O   UNL A   1      39.099  29.458  33.453  1.00  0.00    -0.744 OA
ENDBRANCH  69  73
ENDBRANCH  52  66
BRANCH  53  77
ATOM     77  C   UNL A   1      49.680  27.662  26.374  1.00  0.00     0.023 A 
ATOM     78  C   UNL A   1      50.732  27.490  27.289  1.00  0.00     0.031 A 
ATOM     79  C   UNL A   1      50.005  27.717  25.006  1.00  0.00     0.131 A 
ATOM     80  C   UNL A   1      52.058  27.448  26.833  1.00  0.00     0.055 A 
ATOM     81  C   UNL A   1      51.321  27.605  24.553  1.00  0.00     0.041 A 
ATOM     82  F   UNL A   1      49.042  27.883  24.085  1.00  0.00    -0.206 F 
ATOM     83  C   UNL A   1      52.360  27.488  25.471  1.00  0.00     0.022 A 
BRANCH  80  84
ATOM     84  S   UNL A   1      53.395  27.471  28.060  1.00  0.00     0.124 S 
ATOM     85  O   UNL A   1      52.839  26.633  29.116  1.00  0.00    -0.237 OA
ATOM     86  O   UNL A   1      54.507  26.904  27.306  1.00  0.00    -0.237 OA
ATOM     87  O   UNL A   1      53.527  28.889  28.390  1.00  0.00    -0.744 OA
ENDBRANCH  80  84
ENDBRANCH  53  77
BRANCH  65  88
ATOM     88  C   UNL A   1      46.241  33.197  28.878  1.00  0.00     0.023 A 
ATOM     89  C   UNL A   1      46.157  34.259  27.960  1.00  0.00     0.031 A 
ATOM     90  C   UNL A   1      46.741  33.473  30.163  1.00  0.00     0.131 A 
ATOM     91  C   UNL A   1      46.609  35.537  28.328  1.00  0.00     0.055 A 
ATOM     92  C   UNL A   1      47.129  34.757  30.543  1.00  0.00     0.041 A 
ATOM     93  F   UNL A   1      46.847  32.496  31.078  1.00  0.00    -0.206 F 
ATOM     94  C   UNL A   1      47.074  35.797  29.619  1.00  0.00     0.022 A 
BRANCH  91  95
ATOM     95  S   UNL A   1      46.652  36.843  27.070  1.00  0.00     0.124 S 
ATOM     96  O   UNL A   1      46.733  36.072  25.834  1.00  0.00    -0.237 OA
ATOM     97  O   UNL A   1      45.392  37.542  27.303  1.00  0.00    -0.237 OA
ATOM     98  O   UNL A   1      47.853  37.605  27.407  1.00  0.00    -0.744 OA
ENDBRANCH  91  95
ENDBRANCH  65  88
ENDBRANCH  39  40
ENDBRANCH  31  34
ENDBRANCH  29  30
ENDBRANCH  28  29
ENDBRANCH  27  28
ENDBRANCH   1  27
TORSDOF 22
ENDMDL
MODEL 3
REMARK VINA RESULT:     -10.4      5.862      9.992
REMARK SMILES C=CCN(CC(=O)NCCCCCCNC(=O)c1ccc(-c2c3nc(c(-c4cc(S(=O)(=O)[O-])ccc4F)c4ccc([nH]4)c(-c4cc(S(=O)(=O)[O-])ccc4F)c4nc(c(-c5cc(S(=O)(=O)[O-])ccc5F)c5ccc2[nH]5)C=C4)C=C3)cc1)C(=O)N1CC[C@@H]([NH+]2CCCCC2)C1
REMARK SMILES IDX 11 1 10 2 9 3 8 4 6 5 7 6 5 8 4 9 3 10 2 11 1 12 81 13 82 14
REMARK SMILES IDX 83 15 84 16 93 17 85 18 86 19 87 20 88 21 92 22 89 24 91 25
REMARK SMILES IDX 90 26 12 27 13 28 14 29 15 30 16 31 17 33 18 34 19 35 80 36
REMARK SMILES IDX 20 37 79 38 21 39 22 40 23 41 73 42 24 43 78 44 72 45 74 46
REMARK SMILES IDX 25 47 77 48 71 49 70 50 26 52 58 53 38 54 57 55 39 56 42 57
REMARK SMILES IDX 56 58 75 59 40 60 41 61 55 63 76 64 43 65 27 66 28 67 36 68
REMARK SMILES IDX 29 69 35 70 37 71 34 72 30 73 31 74 32 75 33 76 59 77 60 78
REMARK SMILES IDX 68 79 61 80 67 81 69 82 66 83 62 84 63 85 64 86 65 87 44 88
REMARK SMILES IDX 45 89 53 90 46 91 52 92 54 93 51 94 47 95 48 96 49 97 50 98
REMARK H PARENT 8 7 87 23 15 32 74 51 42 62
REMARK Flexibility Score: inf
ROOT
ATOM      1  C   UNL A   1      38.027  23.281  26.107  1.00  0.00     0.002 C 
ENDROOT
BRANCH   1   2
ATOM      2  C   UNL A   1      37.336  22.668  24.880  1.00  0.00     0.021 C 
BRANCH   2   3
ATOM      3  C   UNL A   1      36.446  21.457  25.165  1.00  0.00     0.116 C 
BRANCH   3   4
ATOM      4  N   UNL A   1      35.824  21.469  26.465  1.00  0.00    -0.355 N 
ATOM      5  C   UNL A   1      34.626  21.983  26.861  1.00  0.00     0.239 C 
ATOM      6  O   UNL A   1      34.189  21.580  27.948  1.00  0.00    -0.273 OA
ATOM      7  H   UNL A   1      36.348  21.040  27.179  1.00  0.00     0.163 HD
BRANCH   5   8
ATOM      8  C   UNL A   1      33.782  22.966  26.010  1.00  0.00     0.221 C 
BRANCH   8   9
ATOM      9  N   UNL A   1      32.320  22.813  25.837  1.00  0.00    -0.312 N 
BRANCH   9  10
ATOM     10  C   UNL A   1      31.866  21.595  25.174  1.00  0.00     0.149 C 
BRANCH  10  11
ATOM     11  C   UNL A   1      32.547  21.372  23.859  1.00  0.00    -0.013 C 
ATOM     12  C   UNL A   1      32.327  22.156  22.794  1.00  0.00     0.006 C 
ENDBRANCH  10  11
ENDBRANCH   9  10
BRANCH   9  13
ATOM     13  C   UNL A   1      31.354  23.594  26.487  1.00  0.00     0.320 C 
ATOM     14  O   UNL A   1      30.705  23.193  27.452  1.00  0.00    -0.248 OA
BRANCH  13  15
ATOM     15  N   UNL A   1      31.174  24.872  26.041  1.00  0.00    -0.318 N 
ATOM     16  C   UNL A   1      31.890  26.009  26.514  1.00  0.00     0.128 C 
ATOM     17  C   UNL A   1      30.558  25.252  24.767  1.00  0.00     0.186 C 
ATOM     18  C   UNL A   1      30.860  27.088  26.316  1.00  0.00     0.088 C 
ATOM     19  C   UNL A   1      30.378  26.819  24.878  1.00  0.00     0.205 C 
BRANCH  19  20
ATOM     20  N   UNL A   1      30.998  27.639  23.812  1.00  0.00    -0.331 N 
ATOM     21  C   UNL A   1      31.636  28.904  24.185  1.00  0.00     0.262 C 
ATOM     22  C   UNL A   1      30.138  27.846  22.637  1.00  0.00     0.262 C 
ATOM     23  H   UNL A   1      31.775  27.023  23.570  1.00  0.00     0.348 HD
ATOM     24  C   UNL A   1      30.688  30.090  24.413  1.00  0.00     0.062 C 
ATOM     25  C   UNL A   1      29.067  28.925  22.791  1.00  0.00     0.062 C 
ATOM     26  C   UNL A   1      29.613  30.242  23.342  1.00  0.00     0.012 C 
ENDBRANCH  19  20
ENDBRANCH  13  15
ENDBRANCH   9  13
ENDBRANCH   8   9
ENDBRANCH   5   8
ENDBRANCH   3   4
ENDBRANCH   2   3
ENDBRANCH   1   2
BRANCH   1  27
ATOM     27  C   UNL A   1      39.390  22.687  26.479  1.00  0.00     0.002 C 
BRANCH  27  28
ATOM     28  C   UNL A   1      39.676  21.286  25.932  1.00  0.00     0.021 C 
BRANCH  28  29
ATOM     29  C   UNL A   1      40.497  20.392  26.854  1.00  0.00     0.116 C 
BRANCH  29  30
ATOM     30  N   UNL A   1      41.632  19.794  26.168  1.00  0.00    -0.352 N 
ATOM     31  C   UNL A   1      42.778  20.394  25.705  1.00  0.00     0.251 C 
ATOM     32  H   UNL A   1      41.570  18.824  26.015  1.00  0.00     0.163 HD
ATOM     33  O   UNL A   1      43.534  19.772  24.960  1.00  0.00    -0.269 OA
BRANCH  31  34
ATOM     34  C   UNL A   1      43.081  21.791  26.083  1.00  0.00     0.039 A 
ATOM     35  C   UNL A   1      43.029  22.791  25.108  1.00  0.00     0.014 A 
ATOM     36  C   UNL A   1      43.403  22.116  27.404  1.00  0.00     0.014 A 
ATOM     37  C   UNL A   1      43.224  24.126  25.473  1.00  0.00     0.010 A 
ATOM     38  C   UNL A   1      43.521  23.451  27.779  1.00  0.00     0.010 A 
ATOM     39  C   UNL A   1      43.430  24.472  26.819  1.00  0.00    -0.014 A 
BRANCH  39  40
ATOM     40  C   UNL A   1      43.564  25.890  27.253  1.00  0.00     0.031 A 
ATOM     41  C   UNL A   1      44.921  26.542  27.262  1.00  0.00     0.074 A 
ATOM     42  C   UNL A   1      42.488  26.562  27.708  1.00  0.00     0.049 A 
ATOM     43  N   UNL A   1      45.277  27.708  27.735  1.00  0.00    -0.248 NA
ATOM     44  C   UNL A   1      46.027  25.763  26.685  1.00  0.00     0.031 C 
ATOM     45  C   UNL A   1      41.123  26.036  27.763  1.00  0.00     0.029 A 
ATOM     46  N   UNL A   1      42.373  27.830  28.226  1.00  0.00    -0.354 N 
ATOM     47  C   UNL A   1      46.647  27.802  27.518  1.00  0.00     0.074 A 
ATOM     48  C   UNL A   1      47.067  26.544  26.937  1.00  0.00     0.031 C 
ATOM     49  C   UNL A   1      40.308  26.977  28.269  1.00  0.00     0.029 A 
ATOM     50  C   UNL A   1      41.097  28.150  28.633  1.00  0.00     0.049 A 
ATOM     51  H   UNL A   1      43.133  28.451  28.301  1.00  0.00     0.167 HD
ATOM     52  C   UNL A   1      47.475  28.849  27.756  1.00  0.00     0.034 A 
ATOM     53  C   UNL A   1      40.622  29.250  29.252  1.00  0.00     0.034 A 
ATOM     54  C   UNL A   1      47.045  30.097  28.336  1.00  0.00     0.049 A 
ATOM     55  C   UNL A   1      41.579  30.374  29.578  1.00  0.00     0.074 A 
ATOM     56  C   UNL A   1      47.796  31.228  28.603  1.00  0.00     0.029 A 
ATOM     57  N   UNL A   1      45.747  30.377  28.744  1.00  0.00    -0.354 N 
ATOM     58  N   UNL A   1      42.869  30.454  29.346  1.00  0.00    -0.248 NA
ATOM     59  C   UNL A   1      41.015  31.555  30.244  1.00  0.00     0.031 C 
ATOM     60  C   UNL A   1      46.971  32.163  29.237  1.00  0.00     0.029 A 
ATOM     61  C   UNL A   1      45.684  31.653  29.285  1.00  0.00     0.049 A 
ATOM     62  H   UNL A   1      44.983  29.762  28.661  1.00  0.00     0.167 HD
ATOM     63  C   UNL A   1      43.258  31.714  29.797  1.00  0.00     0.074 A 
ATOM     64  C   UNL A   1      42.067  32.359  30.306  1.00  0.00     0.031 C 
ATOM     65  C   UNL A   1      44.487  32.288  29.783  1.00  0.00     0.034 A 
BRANCH  52  66
ATOM     66  C   UNL A   1      48.934  28.675  27.403  1.00  0.00     0.023 A 
ATOM     67  C   UNL A   1      49.365  28.633  26.066  1.00  0.00     0.031 A 
ATOM     68  C   UNL A   1      49.904  28.531  28.410  1.00  0.00     0.131 A 
ATOM     69  C   UNL A   1      50.711  28.375  25.770  1.00  0.00     0.055 A 
ATOM     70  C   UNL A   1      51.257  28.364  28.110  1.00  0.00     0.041 A 
ATOM     71  F   UNL A   1      49.552  28.541  29.706  1.00  0.00    -0.206 F 
ATOM     72  C   UNL A   1      51.665  28.269  26.783  1.00  0.00     0.022 A 
BRANCH  69  73
ATOM     73  S   UNL A   1      51.166  28.032  24.048  1.00  0.00     0.124 S 
ATOM     74  O   UNL A   1      49.909  28.301  23.354  1.00  0.00    -0.237 OA
ATOM     75  O   UNL A   1      52.244  28.985  23.811  1.00  0.00    -0.237 OA
ATOM     76  O   UNL A   1      51.567  26.627  24.074  1.00  0.00    -0.744 OA
ENDBRANCH  69  73
ENDBRANCH  52  66
BRANCH  53  77
ATOM     77  C   UNL A   1      39.182  29.349  29.635  1.00  0.00     0.023 A 
ATOM     78  C   UNL A   1      38.287  30.125  28.880  1.00  0.00     0.031 A 
ATOM     79  C   UNL A   1      38.694  28.736  30.803  1.00  0.00     0.131 A 
ATOM     80  C   UNL A   1      36.974  30.323  29.336  1.00  0.00     0.055 A 
ATOM     81  C   UNL A   1      37.367  28.879  31.215  1.00  0.00     0.041 A 
ATOM     82  F   UNL A   1      39.503  27.984  31.566  1.00  0.00    -0.206 F 
ATOM     83  C   UNL A   1      36.503  29.693  30.488  1.00  0.00     0.022 A 
BRANCH  80  84
ATOM     84  S   UNL A   1      35.929  31.524  28.465  1.00  0.00     0.124 S 
ATOM     85  O   UNL A   1      35.438  30.728  27.345  1.00  0.00    -0.237 OA
ATOM     86  O   UNL A   1      34.948  31.869  29.487  1.00  0.00    -0.237 OA
ATOM     87  O   UNL A   1      36.862  32.592  28.112  1.00  0.00    -0.744 OA
ENDBRANCH  80  84
ENDBRANCH  53  77
BRANCH  65  88
ATOM     88  C   UNL A   1      44.594  33.713  30.269  1.00  0.00     0.023 A 
ATOM     89  C   UNL A   1      44.388  34.810  29.415  1.00  0.00     0.031 A 
ATOM     90  C   UNL A   1      44.893  33.973  31.619  1.00  0.00     0.131 A 
ATOM     91  C   UNL A   1      44.528  36.117  29.911  1.00  0.00     0.055 A 
ATOM     92  C   UNL A   1      44.969  35.272  32.120  1.00  0.00     0.041 A 
ATOM     93  F   UNL A   1      45.104  32.962  32.478  1.00  0.00    -0.206 F 
ATOM     94  C   UNL A   1      44.796  36.354  31.262  1.00  0.00     0.022 A 
BRANCH  91  95
ATOM     95  S   UNL A   1      44.429  37.507  28.750  1.00  0.00     0.124 S 
ATOM     96  O   UNL A   1      43.200  38.170  29.174  1.00  0.00    -0.237 OA
ATOM     97  O   UNL A   1      45.668  38.228  29.019  1.00  0.00    -0.237 OA
ATOM     98  O   UNL A   1      44.364  36.857  27.442  1.00  0.00    -0.744 OA
ENDBRANCH  91  95
ENDBRANCH  65  88
ENDBRANCH  39  40
ENDBRANCH  31  34
ENDBRANCH  29  30
ENDBRANCH  28  29
ENDBRANCH  27  28
ENDBRANCH   1  27
TORSDOF 22
ENDMDL
