MODEL 1
REMARK VINA RESULT:     -10.5      0.000      0.000
REMARK SMILES CC(C)C[C@@H](C[C@H](O)c1ccccc1)C(=O)NCCCCCCNC(=O)c1ccc(-c2c3nc(c(-c4cc(S(=O)(=O)[O-])ccc4F)c4ccc([nH]4)c(-c4cc(S(=O)(=O)[O-])ccc4F)c4nc(c(-c5cc(S(=O)(=O)[O-])ccc5F)c5ccc2[nH]5)C=C4)C=C3)cc1
REMARK SMILES IDX 20 1 19 2 18 3 17 4 15 5 16 6 5 8 4 9 2 10 1 11 3 12 6 13
REMARK SMILES IDX 7 14 9 15 10 16 14 17 11 18 13 19 12 20 8 21 21 23 22 24
REMARK SMILES IDX 23 25 24 26 25 27 26 29 27 30 28 31 89 32 29 33 88 34 30 35
REMARK SMILES IDX 31 36 32 37 82 38 33 39 87 40 81 41 83 42 34 43 86 44 80 45
REMARK SMILES IDX 79 46 35 48 67 49 47 50 66 51 48 52 51 53 65 54 84 55 49 56
REMARK SMILES IDX 50 57 64 59 85 60 52 61 36 62 37 63 45 64 38 65 44 66 46 67
REMARK SMILES IDX 43 68 39 69 40 70 41 71 42 72 68 73 69 74 77 75 70 76 76 77
REMARK SMILES IDX 78 78 75 79 71 80 72 81 73 82 74 83 53 84 54 85 62 86 55 87
REMARK SMILES IDX 61 88 63 89 60 90 56 91 57 92 58 93 59 94
REMARK H PARENT 17 7 8 22 24 28 83 47 51 58
REMARK Flexibility Score: inf
ROOT
ATOM      1  C   UNL A   1      34.975  23.346  23.155  1.00  0.00     0.002 C 
ENDROOT
BRANCH   1   2
ATOM      2  C   UNL A   1      34.276  24.565  23.768  1.00  0.00     0.021 C 
BRANCH   2   3
ATOM      3  C   UNL A   1      33.301  25.335  22.877  1.00  0.00     0.116 C 
BRANCH   3   4
ATOM      4  N   UNL A   1      31.913  25.278  23.308  1.00  0.00    -0.356 N 
ATOM      5  C   UNL A   1      31.289  25.521  24.494  1.00  0.00     0.223 C 
ATOM      6  O   UNL A   1      30.053  25.597  24.452  1.00  0.00    -0.275 OA
ATOM      7  H   UNL A   1      31.294  25.006  22.591  1.00  0.00     0.163 HD
BRANCH   5   8
ATOM      8  C   UNL A   1      31.990  25.700  25.856  1.00  0.00     0.081 C 
BRANCH   8   9
ATOM      9  C   UNL A   1      31.804  27.100  26.452  1.00  0.00     0.016 C 
BRANCH   9  10
ATOM     10  C   UNL A   1      32.526  28.284  25.780  1.00  0.00    -0.017 C 
ATOM     11  C   UNL A   1      31.609  29.428  25.356  1.00  0.00     0.007 C 
ATOM     12  C   UNL A   1      33.592  28.800  26.754  1.00  0.00     0.007 C 
ENDBRANCH   9  10
ENDBRANCH   8   9
BRANCH   8  13
ATOM     13  C   UNL A   1      31.893  24.526  26.857  1.00  0.00     0.050 C 
BRANCH  13  14
ATOM     14  C   UNL A   1      31.264  23.203  26.395  1.00  0.00     0.145 C 
BRANCH  14  15
ATOM     15  C   UNL A   1      32.177  22.205  25.710  1.00  0.00    -0.020 A 
ATOM     16  C   UNL A   1      31.904  21.673  24.442  1.00  0.00     0.006 A 
ATOM     17  C   UNL A   1      33.299  21.717  26.403  1.00  0.00     0.006 A 
ATOM     18  C   UNL A   1      32.596  20.558  23.970  1.00  0.00     0.000 A 
ATOM     19  C   UNL A   1      34.020  20.631  25.906  1.00  0.00     0.000 A 
ATOM     20  C   UNL A   1      33.635  20.020  24.716  1.00  0.00     0.000 A 
ENDBRANCH  14  15
BRANCH  14  21
ATOM     21  O   UNL A   1      30.689  22.579  27.546  1.00  0.00    -0.388 OA
ATOM     22  H   UNL A   1      29.722  22.573  27.461  1.00  0.00     0.211 HD
ENDBRANCH  14  21
ENDBRANCH  13  14
ENDBRANCH   8  13
ENDBRANCH   5   8
ENDBRANCH   3   4
ENDBRANCH   2   3
ENDBRANCH   1   2
BRANCH   1  23
ATOM     23  C   UNL A   1      36.481  23.187  23.380  1.00  0.00     0.002 C 
BRANCH  23  24
ATOM     24  C   UNL A   1      36.959  21.951  24.143  1.00  0.00     0.021 C 
BRANCH  24  25
ATOM     25  C   UNL A   1      37.360  22.197  25.591  1.00  0.00     0.116 C 
BRANCH  25  26
ATOM     26  N   UNL A   1      38.334  21.225  26.059  1.00  0.00    -0.352 N 
ATOM     27  C   UNL A   1      39.617  21.417  26.513  1.00  0.00     0.251 C 
ATOM     28  H   UNL A   1      38.030  20.288  26.048  1.00  0.00     0.163 HD
ATOM     29  O   UNL A   1      40.370  20.455  26.614  1.00  0.00    -0.269 OA
BRANCH  27  30
ATOM     30  C   UNL A   1      40.085  22.776  26.875  1.00  0.00     0.039 A 
ATOM     31  C   UNL A   1      39.603  23.875  26.158  1.00  0.00     0.014 A 
ATOM     32  C   UNL A   1      41.031  22.962  27.886  1.00  0.00     0.014 A 
ATOM     33  C   UNL A   1      40.050  25.159  26.478  1.00  0.00     0.010 A 
ATOM     34  C   UNL A   1      41.400  24.247  28.268  1.00  0.00     0.010 A 
ATOM     35  C   UNL A   1      40.937  25.356  27.548  1.00  0.00    -0.014 A 
BRANCH  35  36
ATOM     36  C   UNL A   1      41.431  26.710  27.902  1.00  0.00     0.031 A 
ATOM     37  C   UNL A   1      42.828  27.121  27.521  1.00  0.00     0.074 A 
ATOM     38  C   UNL A   1      40.638  27.539  28.608  1.00  0.00     0.049 A 
ATOM     39  N   UNL A   1      43.459  28.241  27.760  1.00  0.00    -0.248 NA
ATOM     40  C   UNL A   1      43.639  26.119  26.812  1.00  0.00     0.031 C 
ATOM     41  C   UNL A   1      39.285  27.221  29.072  1.00  0.00     0.029 A 
ATOM     42  N   UNL A   1      40.848  28.818  29.054  1.00  0.00    -0.354 N 
ATOM     43  C   UNL A   1      44.744  28.069  27.251  1.00  0.00     0.074 A 
ATOM     44  C   UNL A   1      44.821  26.711  26.764  1.00  0.00     0.031 C 
ATOM     45  C   UNL A   1      38.768  28.294  29.688  1.00  0.00     0.029 A 
ATOM     46  C   UNL A   1      39.764  29.359  29.705  1.00  0.00     0.049 A 
ATOM     47  H   UNL A   1      41.694  29.303  28.920  1.00  0.00     0.167 HD
ATOM     48  C   UNL A   1      45.754  28.972  27.174  1.00  0.00     0.034 A 
ATOM     49  C   UNL A   1      39.596  30.581  30.246  1.00  0.00     0.034 A 
ATOM     50  C   UNL A   1      45.638  30.328  27.654  1.00  0.00     0.049 A 
ATOM     51  C   UNL A   1      40.733  31.567  30.156  1.00  0.00     0.074 A 
ATOM     52  C   UNL A   1      46.557  31.357  27.570  1.00  0.00     0.029 A 
ATOM     53  N   UNL A   1      44.529  30.840  28.321  1.00  0.00    -0.354 N 
ATOM     54  N   UNL A   1      41.918  31.416  29.608  1.00  0.00    -0.248 NA
ATOM     55  C   UNL A   1      40.502  32.890  30.744  1.00  0.00     0.031 C 
ATOM     56  C   UNL A   1      46.040  32.463  28.255  1.00  0.00     0.029 A 
ATOM     57  C   UNL A   1      44.759  32.157  28.690  1.00  0.00     0.049 A 
ATOM     58  H   UNL A   1      43.701  30.340  28.504  1.00  0.00     0.167 HD
ATOM     59  C   UNL A   1      42.564  32.639  29.760  1.00  0.00     0.074 A 
ATOM     60  C   UNL A   1      41.624  33.519  30.428  1.00  0.00     0.031 C 
ATOM     61  C   UNL A   1      43.816  33.008  29.380  1.00  0.00     0.034 A 
BRANCH  48  62
ATOM     62  C   UNL A   1      47.067  28.501  26.585  1.00  0.00     0.023 A 
ATOM     63  C   UNL A   1      47.262  28.389  25.196  1.00  0.00     0.031 A 
ATOM     64  C   UNL A   1      48.122  28.102  27.425  1.00  0.00     0.131 A 
ATOM     65  C   UNL A   1      48.432  27.797  24.694  1.00  0.00     0.055 A 
ATOM     66  C   UNL A   1      49.324  27.605  26.915  1.00  0.00     0.041 A 
ATOM     67  F   UNL A   1      47.994  28.162  28.760  1.00  0.00    -0.206 F 
ATOM     68  C   UNL A   1      49.476  27.429  25.544  1.00  0.00     0.022 A 
BRANCH  65  69
ATOM     69  S   UNL A   1      48.488  27.344  22.937  1.00  0.00     0.124 S 
ATOM     70  O   UNL A   1      47.360  28.104  22.402  1.00  0.00    -0.237 OA
ATOM     71  O   UNL A   1      49.813  27.798  22.537  1.00  0.00    -0.237 OA
ATOM     72  O   UNL A   1      48.300  25.895  22.951  1.00  0.00    -0.744 OA
ENDBRANCH  65  69
ENDBRANCH  48  62
BRANCH  49  73
ATOM     73  C   UNL A   1      38.303  30.953  30.889  1.00  0.00     0.023 A 
ATOM     74  C   UNL A   1      37.295  31.594  30.152  1.00  0.00     0.031 A 
ATOM     75  C   UNL A   1      38.062  30.696  32.250  1.00  0.00     0.131 A 
ATOM     76  C   UNL A   1      36.109  31.994  30.787  1.00  0.00     0.055 A 
ATOM     77  C   UNL A   1      36.858  31.049  32.865  1.00  0.00     0.041 A 
ATOM     78  F   UNL A   1      38.989  30.079  33.001  1.00  0.00    -0.206 F 
ATOM     79  C   UNL A   1      35.877  31.713  32.134  1.00  0.00     0.022 A 
BRANCH  76  80
ATOM     80  S   UNL A   1      34.900  32.957  29.838  1.00  0.00     0.124 S 
ATOM     81  O   UNL A   1      34.342  31.944  28.950  1.00  0.00    -0.237 OA
ATOM     82  O   UNL A   1      34.014  33.449  30.888  1.00  0.00    -0.237 OA
ATOM     83  O   UNL A   1      35.716  33.980  29.186  1.00  0.00    -0.744 OA
ENDBRANCH  76  80
ENDBRANCH  49  73
BRANCH  61  84
ATOM     84  C   UNL A   1      44.214  34.437  29.658  1.00  0.00     0.023 A 
ATOM     85  C   UNL A   1      44.016  35.456  28.710  1.00  0.00     0.031 A 
ATOM     86  C   UNL A   1      44.833  34.777  30.875  1.00  0.00     0.131 A 
ATOM     87  C   UNL A   1      44.505  36.746  28.960  1.00  0.00     0.055 A 
ATOM     88  C   UNL A   1      45.247  36.081  31.149  1.00  0.00     0.041 A 
ATOM     89  F   UNL A   1      45.049  33.845  31.816  1.00  0.00    -0.206 F 
ATOM     90  C   UNL A   1      45.101  37.071  30.180  1.00  0.00     0.022 A 
BRANCH  87  91
ATOM     91  S   UNL A   1      44.470  37.961  27.613  1.00  0.00     0.124 S 
ATOM     92  O   UNL A   1      45.545  37.485  26.749  1.00  0.00    -0.237 OA
ATOM     93  O   UNL A   1      43.116  37.807  27.090  1.00  0.00    -0.237 OA
ATOM     94  O   UNL A   1      44.733  39.230  28.290  1.00  0.00    -0.744 OA
ENDBRANCH  87  91
ENDBRANCH  61  84
ENDBRANCH  35  36
ENDBRANCH  27  30
ENDBRANCH  25  26
ENDBRANCH  24  25
ENDBRANCH  23  24
ENDBRANCH   1  23
TORSDOF 22
ENDMDL
MODEL 2
REMARK VINA RESULT:     -10.3      2.838      3.966
REMARK SMILES CC(C)C[C@@H](C[C@H](O)c1ccccc1)C(=O)NCCCCCCNC(=O)c1ccc(-c2c3nc(c(-c4cc(S(=O)(=O)[O-])ccc4F)c4ccc([nH]4)c(-c4cc(S(=O)(=O)[O-])ccc4F)c4nc(c(-c5cc(S(=O)(=O)[O-])ccc5F)c5ccc2[nH]5)C=C4)C=C3)cc1
REMARK SMILES IDX 20 1 19 2 18 3 17 4 15 5 16 6 5 8 4 9 2 10 1 11 3 12 6 13
REMARK SMILES IDX 7 14 9 15 10 16 14 17 11 18 13 19 12 20 8 21 21 23 22 24
REMARK SMILES IDX 23 25 24 26 25 27 26 29 27 30 28 31 89 32 29 33 88 34 30 35
REMARK SMILES IDX 31 36 32 37 82 38 33 39 87 40 81 41 83 42 34 43 86 44 80 45
REMARK SMILES IDX 79 46 35 48 67 49 47 50 66 51 48 52 51 53 65 54 84 55 49 56
REMARK SMILES IDX 50 57 64 59 85 60 52 61 36 62 37 63 45 64 38 65 44 66 46 67
REMARK SMILES IDX 43 68 39 69 40 70 41 71 42 72 68 73 69 74 77 75 70 76 76 77
REMARK SMILES IDX 78 78 75 79 71 80 72 81 73 82 74 83 53 84 54 85 62 86 55 87
REMARK SMILES IDX 61 88 63 89 60 90 56 91 57 92 58 93 59 94
REMARK H PARENT 17 7 8 22 24 28 83 47 51 58
REMARK Flexibility Score: inf
ROOT
ATOM      1  C   UNL A   1      33.837  21.892  23.978  1.00  0.00     0.002 C 
ENDROOT
BRANCH   1   2
ATOM      2  C   UNL A   1      32.882  22.496  22.944  1.00  0.00     0.021 C 
BRANCH   2   3
ATOM      3  C   UNL A   1      32.382  23.919  23.198  1.00  0.00     0.116 C 
BRANCH   3   4
ATOM      4  N   UNL A   1      32.941  24.925  22.309  1.00  0.00    -0.356 N 
ATOM      5  C   UNL A   1      33.240  26.246  22.458  1.00  0.00     0.223 C 
ATOM      6  O   UNL A   1      33.924  26.753  21.558  1.00  0.00    -0.275 OA
ATOM      7  H   UNL A   1      33.147  24.579  21.411  1.00  0.00     0.163 HD
BRANCH   5   8
ATOM      8  C   UNL A   1      32.797  27.138  23.635  1.00  0.00     0.081 C 
BRANCH   8   9
ATOM      9  C   UNL A   1      33.744  27.066  24.839  1.00  0.00     0.016 C 
BRANCH   9  10
ATOM     10  C   UNL A   1      33.131  26.936  26.246  1.00  0.00    -0.017 C 
ATOM     11  C   UNL A   1      32.912  28.263  26.967  1.00  0.00     0.007 C 
ATOM     12  C   UNL A   1      31.800  26.186  26.112  1.00  0.00     0.007 C 
ENDBRANCH   9  10
ENDBRANCH   8   9
BRANCH   8  13
ATOM     13  C   UNL A   1      32.258  28.545  23.288  1.00  0.00     0.050 C 
BRANCH  13  14
ATOM     14  C   UNL A   1      31.090  28.672  22.298  1.00  0.00     0.145 C 
BRANCH  14  15
ATOM     15  C   UNL A   1      29.688  28.597  22.869  1.00  0.00    -0.020 A 
ATOM     16  C   UNL A   1      29.164  27.430  23.443  1.00  0.00     0.006 A 
ATOM     17  C   UNL A   1      28.838  29.709  22.741  1.00  0.00     0.006 A 
ATOM     18  C   UNL A   1      27.797  27.306  23.691  1.00  0.00     0.000 A 
ATOM     19  C   UNL A   1      27.478  29.598  23.035  1.00  0.00     0.000 A 
ATOM     20  C   UNL A   1      26.950  28.381  23.460  1.00  0.00     0.000 A 
ENDBRANCH  14  15
BRANCH  14  21
ATOM     21  O   UNL A   1      31.241  29.922  21.619  1.00  0.00    -0.388 OA
ATOM     22  H   UNL A   1      30.419  30.136  21.150  1.00  0.00     0.211 HD
ENDBRANCH  14  21
ENDBRANCH  13  14
ENDBRANCH   8  13
ENDBRANCH   5   8
ENDBRANCH   3   4
ENDBRANCH   2   3
ENDBRANCH   1   2
BRANCH   1  23
ATOM     23  C   UNL A   1      34.979  22.766  24.504  1.00  0.00     0.002 C 
BRANCH  23  24
ATOM     24  C   UNL A   1      36.394  22.187  24.465  1.00  0.00     0.021 C 
BRANCH  24  25
ATOM     25  C   UNL A   1      37.389  22.842  25.413  1.00  0.00     0.116 C 
BRANCH  25  26
ATOM     26  N   UNL A   1      38.327  21.880  25.967  1.00  0.00    -0.352 N 
ATOM     27  C   UNL A   1      39.547  22.089  26.565  1.00  0.00     0.251 C 
ATOM     28  H   UNL A   1      38.047  20.938  25.904  1.00  0.00     0.163 HD
ATOM     29  O   UNL A   1      40.306  21.140  26.731  1.00  0.00    -0.269 OA
BRANCH  27  30
ATOM     30  C   UNL A   1      39.941  23.448  27.003  1.00  0.00     0.039 A 
ATOM     31  C   UNL A   1      39.601  24.546  26.205  1.00  0.00     0.014 A 
ATOM     32  C   UNL A   1      40.682  23.638  28.172  1.00  0.00     0.014 A 
ATOM     33  C   UNL A   1      39.982  25.831  26.599  1.00  0.00     0.010 A 
ATOM     34  C   UNL A   1      40.975  24.924  28.611  1.00  0.00     0.010 A 
ATOM     35  C   UNL A   1      40.655  26.031  27.814  1.00  0.00    -0.014 A 
BRANCH  35  36
ATOM     36  C   UNL A   1      41.075  27.386  28.249  1.00  0.00     0.031 A 
ATOM     37  C   UNL A   1      42.528  27.777  28.183  1.00  0.00     0.074 A 
ATOM     38  C   UNL A   1      40.156  28.235  28.748  1.00  0.00     0.049 A 
ATOM     39  N   UNL A   1      43.105  28.895  28.539  1.00  0.00    -0.248 NA
ATOM     40  C   UNL A   1      43.462  26.755  27.687  1.00  0.00     0.031 C 
ATOM     41  C   UNL A   1      38.731  27.938  28.904  1.00  0.00     0.029 A 
ATOM     42  N   UNL A   1      40.279  29.519  29.211  1.00  0.00    -0.354 N 
ATOM     43  C   UNL A   1      44.468  28.702  28.332  1.00  0.00     0.074 A 
ATOM     44  C   UNL A   1      44.634  27.334  27.895  1.00  0.00     0.031 C 
ATOM     45  C   UNL A   1      38.103  29.027  29.373  1.00  0.00     0.029 A 
ATOM     46  C   UNL A   1      39.085  30.082  29.596  1.00  0.00     0.049 A 
ATOM     47  H   UNL A   1      41.140  29.994  29.262  1.00  0.00     0.167 HD
ATOM     48  C   UNL A   1      45.482  29.594  28.469  1.00  0.00     0.034 A 
ATOM     49  C   UNL A   1      38.817  31.315  30.068  1.00  0.00     0.034 A 
ATOM     50  C   UNL A   1      45.279  30.959  28.891  1.00  0.00     0.049 A 
ATOM     51  C   UNL A   1      39.958  32.288  30.218  1.00  0.00     0.074 A 
ATOM     52  C   UNL A   1      46.208  31.977  28.999  1.00  0.00     0.029 A 
ATOM     53  N   UNL A   1      44.057  31.493  29.286  1.00  0.00    -0.354 N 
ATOM     54  N   UNL A   1      41.233  32.116  29.951  1.00  0.00    -0.248 NA
ATOM     55  C   UNL A   1      39.619  33.623  30.720  1.00  0.00     0.031 C 
ATOM     56  C   UNL A   1      45.566  33.099  29.535  1.00  0.00     0.029 A 
ATOM     57  C   UNL A   1      44.217  32.814  29.678  1.00  0.00     0.049 A 
ATOM     58  H   UNL A   1      43.202  31.004  29.288  1.00  0.00     0.167 HD
ATOM     59  C   UNL A   1      41.846  33.335  30.224  1.00  0.00     0.074 A 
ATOM     60  C   UNL A   1      40.792  34.236  30.654  1.00  0.00     0.031 C 
ATOM     61  C   UNL A   1      43.155  33.686  30.127  1.00  0.00     0.034 A 
BRANCH  48  62
ATOM     62  C   UNL A   1      46.886  29.100  28.194  1.00  0.00     0.023 A 
ATOM     63  C   UNL A   1      47.708  28.587  29.215  1.00  0.00     0.031 A 
ATOM     64  C   UNL A   1      47.436  29.197  26.903  1.00  0.00     0.131 A 
ATOM     65  C   UNL A   1      49.056  28.292  28.953  1.00  0.00     0.055 A 
ATOM     66  C   UNL A   1      48.749  28.807  26.628  1.00  0.00     0.041 A 
ATOM     67  F   UNL A   1      46.714  29.698  25.889  1.00  0.00    -0.206 F 
ATOM     68  C   UNL A   1      49.574  28.372  27.660  1.00  0.00     0.022 A 
BRANCH  65  69
ATOM     69  S   UNL A   1      50.163  27.983  30.358  1.00  0.00     0.124 S 
ATOM     70  O   UNL A   1      51.451  27.820  29.686  1.00  0.00    -0.237 OA
ATOM     71  O   UNL A   1      50.006  29.193  31.154  1.00  0.00    -0.237 OA
ATOM     72  O   UNL A   1      49.624  26.764  30.958  1.00  0.00    -0.744 OA
ENDBRANCH  65  69
ENDBRANCH  48  62
BRANCH  49  73
ATOM     73  C   UNL A   1      37.418  31.710  30.401  1.00  0.00     0.023 A 
ATOM     74  C   UNL A   1      36.535  32.136  29.396  1.00  0.00     0.031 A 
ATOM     75  C   UNL A   1      36.948  31.692  31.726  1.00  0.00     0.131 A 
ATOM     76  C   UNL A   1      35.242  32.564  29.734  1.00  0.00     0.055 A 
ATOM     77  C   UNL A   1      35.643  32.070  32.050  1.00  0.00     0.041 A 
ATOM     78  F   UNL A   1      37.748  31.288  32.726  1.00  0.00    -0.206 F 
ATOM     79  C   UNL A   1      34.785  32.520  31.052  1.00  0.00     0.022 A 
BRANCH  76  80
ATOM     80  S   UNL A   1      34.188  33.253  28.428  1.00  0.00     0.124 S 
ATOM     81  O   UNL A   1      33.620  32.048  27.837  1.00  0.00    -0.237 OA
ATOM     82  O   UNL A   1      33.268  34.089  29.192  1.00  0.00    -0.237 OA
ATOM     83  O   UNL A   1      35.130  33.982  27.580  1.00  0.00    -0.744 OA
ENDBRANCH  76  80
ENDBRANCH  49  73
BRANCH  61  84
ATOM     84  C   UNL A   1      43.500  35.116  30.466  1.00  0.00     0.023 A 
ATOM     85  C   UNL A   1      43.733  35.524  31.791  1.00  0.00     0.031 A 
ATOM     86  C   UNL A   1      43.559  36.090  29.454  1.00  0.00     0.131 A 
ATOM     87  C   UNL A   1      43.935  36.881  32.078  1.00  0.00     0.055 A 
ATOM     88  C   UNL A   1      43.839  37.428  29.737  1.00  0.00     0.041 A 
ATOM     89  F   UNL A   1      43.342  35.759  28.171  1.00  0.00    -0.206 F 
ATOM     90  C   UNL A   1      44.010  37.833  31.058  1.00  0.00     0.022 A 
BRANCH  87  91
ATOM     91  S   UNL A   1      43.968  37.404  33.814  1.00  0.00     0.124 S 
ATOM     92  O   UNL A   1      45.220  38.151  33.881  1.00  0.00    -0.237 OA
ATOM     93  O   UNL A   1      42.747  38.195  33.925  1.00  0.00    -0.237 OA
ATOM     94  O   UNL A   1      43.958  36.141  34.552  1.00  0.00    -0.744 OA
ENDBRANCH  87  91
ENDBRANCH  61  84
ENDBRANCH  35  36
ENDBRANCH  27  30
ENDBRANCH  25  26
ENDBRANCH  24  25
ENDBRANCH  23  24
ENDBRANCH   1  23
TORSDOF 22
ENDMDL
MODEL 3
REMARK VINA RESULT:     -10.3      2.186      3.754
REMARK SMILES CC(C)C[C@@H](C[C@H](O)c1ccccc1)C(=O)NCCCCCCNC(=O)c1ccc(-c2c3nc(c(-c4cc(S(=O)(=O)[O-])ccc4F)c4ccc([nH]4)c(-c4cc(S(=O)(=O)[O-])ccc4F)c4nc(c(-c5cc(S(=O)(=O)[O-])ccc5F)c5ccc2[nH]5)C=C4)C=C3)cc1
REMARK SMILES IDX 20 1 19 2 18 3 17 4 15 5 16 6 5 8 4 9 2 10 1 11 3 12 6 13
REMARK SMILES IDX 7 14 9 15 10 16 14 17 11 18 13 19 12 20 8 21 21 23 22 24
REMARK SMILES IDX 23 25 24 26 25 27 26 29 27 30 28 31 89 32 29 33 88 34 30 35
REMARK SMILES IDX 31 36 32 37 82 38 33 39 87 40 81 41 83 42 34 43 86 44 80 45
REMARK SMILES IDX 79 46 35 48 67 49 47 50 66 51 48 52 51 53 65 54 84 55 49 56
REMARK SMILES IDX 50 57 64 59 85 60 52 61 36 62 37 63 45 64 38 65 44 66 46 67
REMARK SMILES IDX 43 68 39 69 40 70 41 71 42 72 68 73 69 74 77 75 70 76 76 77
REMARK SMILES IDX 78 78 75 79 71 80 72 81 73 82 74 83 53 84 54 85 62 86 55 87
REMARK SMILES IDX 61 88 63 89 60 90 56 91 57 92 58 93 59 94
REMARK H PARENT 17 7 8 22 24 28 83 47 51 58
REMARK Flexibility Score: inf
ROOT
ATOM      1  C   UNL A   1      34.445  21.816  24.709  1.00  0.00     0.002 C 
ENDROOT
BRANCH   1   2
ATOM      2  C   UNL A   1      33.072  22.064  24.074  1.00  0.00     0.021 C 
BRANCH   2   3
ATOM      3  C   UNL A   1      32.621  23.518  23.925  1.00  0.00     0.116 C 
BRANCH   3   4
ATOM      4  N   UNL A   1      32.968  24.132  22.654  1.00  0.00    -0.356 N 
ATOM      5  C   UNL A   1      32.995  25.421  22.212  1.00  0.00     0.223 C 
ATOM      6  O   UNL A   1      33.565  25.612  21.128  1.00  0.00    -0.275 OA
ATOM      7  H   UNL A   1      33.243  23.481  21.969  1.00  0.00     0.163 HD
BRANCH   5   8
ATOM      8  C   UNL A   1      32.377  26.631  22.940  1.00  0.00     0.081 C 
BRANCH   8   9
ATOM      9  C   UNL A   1      33.381  27.763  23.191  1.00  0.00     0.016 C 
BRANCH   9  10
ATOM     10  C   UNL A   1      33.795  28.065  24.644  1.00  0.00    -0.017 C 
ATOM     11  C   UNL A   1      33.132  29.300  25.248  1.00  0.00     0.007 C 
ATOM     12  C   UNL A   1      33.471  26.829  25.493  1.00  0.00     0.007 C 
ENDBRANCH   9  10
ENDBRANCH   8   9
BRANCH   8  13
ATOM     13  C   UNL A   1      30.963  27.074  22.496  1.00  0.00     0.050 C 
BRANCH  13  14
ATOM     14  C   UNL A   1      29.943  27.490  23.566  1.00  0.00     0.145 C 
BRANCH  14  15
ATOM     15  C   UNL A   1      29.255  28.828  23.382  1.00  0.00    -0.020 A 
ATOM     16  C   UNL A   1      29.904  30.052  23.600  1.00  0.00     0.006 A 
ATOM     17  C   UNL A   1      27.884  28.854  23.069  1.00  0.00     0.006 A 
ATOM     18  C   UNL A   1      29.178  31.238  23.706  1.00  0.00     0.000 A 
ATOM     19  C   UNL A   1      27.168  30.051  23.128  1.00  0.00     0.000 A 
ATOM     20  C   UNL A   1      27.806  31.232  23.498  1.00  0.00     0.000 A 
ENDBRANCH  14  15
BRANCH  14  21
ATOM     21  O   UNL A   1      28.944  26.467  23.623  1.00  0.00    -0.388 OA
ATOM     22  H   UNL A   1      28.264  26.642  22.954  1.00  0.00     0.211 HD
ENDBRANCH  14  21
ENDBRANCH  13  14
ENDBRANCH   8  13
ENDBRANCH   5   8
ENDBRANCH   3   4
ENDBRANCH   2   3
ENDBRANCH   1   2
BRANCH   1  23
ATOM     23  C   UNL A   1      34.735  22.451  26.072  1.00  0.00     0.002 C 
BRANCH  23  24
ATOM     24  C   UNL A   1      35.585  23.722  26.097  1.00  0.00     0.021 C 
BRANCH  24  25
ATOM     25  C   UNL A   1      36.907  23.632  25.346  1.00  0.00     0.116 C 
BRANCH  25  26
ATOM     26  N   UNL A   1      37.796  22.638  25.925  1.00  0.00    -0.352 N 
ATOM     27  C   UNL A   1      39.008  22.805  26.551  1.00  0.00     0.251 C 
ATOM     28  H   UNL A   1      37.483  21.707  25.858  1.00  0.00     0.163 HD
ATOM     29  O   UNL A   1      39.727  21.830  26.738  1.00  0.00    -0.269 OA
BRANCH  27  30
ATOM     30  C   UNL A   1      39.440  24.151  26.995  1.00  0.00     0.039 A 
ATOM     31  C   UNL A   1      40.057  25.005  26.076  1.00  0.00     0.014 A 
ATOM     32  C   UNL A   1      39.281  24.552  28.324  1.00  0.00     0.014 A 
ATOM     33  C   UNL A   1      40.484  26.270  26.486  1.00  0.00     0.010 A 
ATOM     34  C   UNL A   1      39.617  25.846  28.706  1.00  0.00     0.010 A 
ATOM     35  C   UNL A   1      40.250  26.707  27.800  1.00  0.00    -0.014 A 
BRANCH  35  36
ATOM     36  C   UNL A   1      40.701  28.044  28.261  1.00  0.00     0.031 A 
ATOM     37  C   UNL A   1      42.173  28.358  28.320  1.00  0.00     0.074 A 
ATOM     38  C   UNL A   1      39.788  28.945  28.670  1.00  0.00     0.049 A 
ATOM     39  N   UNL A   1      42.775  29.448  28.719  1.00  0.00    -0.248 NA
ATOM     40  C   UNL A   1      43.092  27.282  27.917  1.00  0.00     0.031 C 
ATOM     41  C   UNL A   1      38.340  28.724  28.700  1.00  0.00     0.029 A 
ATOM     42  N   UNL A   1      39.937  30.227  29.131  1.00  0.00    -0.354 N 
ATOM     43  C   UNL A   1      44.138  29.182  28.635  1.00  0.00     0.074 A 
ATOM     44  C   UNL A   1      44.270  27.802  28.224  1.00  0.00     0.031 C 
ATOM     45  C   UNL A   1      37.732  29.850  29.104  1.00  0.00     0.029 A 
ATOM     46  C   UNL A   1      38.745  30.856  29.405  1.00  0.00     0.049 A 
ATOM     47  H   UNL A   1      40.814  30.657  29.256  1.00  0.00     0.167 HD
ATOM     48  C   UNL A   1      45.182  30.021  28.855  1.00  0.00     0.034 A 
ATOM     49  C   UNL A   1      38.502  32.106  29.842  1.00  0.00     0.034 A 
ATOM     50  C   UNL A   1      45.015  31.400  29.247  1.00  0.00     0.049 A 
ATOM     51  C   UNL A   1      39.675  33.020  30.086  1.00  0.00     0.074 A 
ATOM     52  C   UNL A   1      45.984  32.370  29.430  1.00  0.00     0.029 A 
ATOM     53  N   UNL A   1      43.793  32.002  29.528  1.00  0.00    -0.354 N 
ATOM     54  N   UNL A   1      40.958  32.779  29.934  1.00  0.00    -0.248 NA
ATOM     55  C   UNL A   1      39.364  34.377  30.547  1.00  0.00     0.031 C 
ATOM     56  C   UNL A   1      45.357  33.530  29.898  1.00  0.00     0.029 A 
ATOM     57  C   UNL A   1      43.987  33.317  29.923  1.00  0.00     0.049 A 
ATOM     58  H   UNL A   1      42.917  31.558  29.458  1.00  0.00     0.167 HD
ATOM     59  C   UNL A   1      41.608  33.968  30.252  1.00  0.00     0.074 A 
ATOM     60  C   UNL A   1      40.569  34.927  30.580  1.00  0.00     0.031 C 
ATOM     61  C   UNL A   1      42.937  34.249  30.270  1.00  0.00     0.034 A 
BRANCH  48  62
ATOM     62  C   UNL A   1      46.577  29.452  28.710  1.00  0.00     0.023 A 
ATOM     63  C   UNL A   1      47.152  29.203  27.450  1.00  0.00     0.031 A 
ATOM     64  C   UNL A   1      47.324  29.096  29.848  1.00  0.00     0.131 A 
ATOM     65  C   UNL A   1      48.379  28.526  27.356  1.00  0.00     0.055 A 
ATOM     66  C   UNL A   1      48.589  28.513  29.748  1.00  0.00     0.041 A 
ATOM     67  F   UNL A   1      46.825  29.286  31.079  1.00  0.00    -0.206 F 
ATOM     68  C   UNL A   1      49.114  28.203  28.498  1.00  0.00     0.022 A 
BRANCH  65  69
ATOM     69  S   UNL A   1      48.905  27.908  25.733  1.00  0.00     0.124 S 
ATOM     70  O   UNL A   1      47.776  28.298  24.890  1.00  0.00    -0.237 OA
ATOM     71  O   UNL A   1      50.150  28.632  25.509  1.00  0.00    -0.237 OA
ATOM     72  O   UNL A   1      49.046  26.469  25.943  1.00  0.00    -0.744 OA
ENDBRANCH  65  69
ENDBRANCH  48  62
BRANCH  49  73
ATOM     73  C   UNL A   1      37.102  32.578  30.047  1.00  0.00     0.023 A 
ATOM     74  C   UNL A   1      36.620  32.851  31.337  1.00  0.00     0.031 A 
ATOM     75  C   UNL A   1      36.219  32.741  28.966  1.00  0.00     0.131 A 
ATOM     76  C   UNL A   1      35.282  33.234  31.519  1.00  0.00     0.055 A 
ATOM     77  C   UNL A   1      34.903  33.173  29.148  1.00  0.00     0.041 A 
ATOM     78  F   UNL A   1      36.629  32.500  27.710  1.00  0.00    -0.206 F 
ATOM     79  C   UNL A   1      34.425  33.411  30.433  1.00  0.00     0.022 A 
BRANCH  76  80
ATOM     80  S   UNL A   1      34.658  33.425  33.212  1.00  0.00     0.124 S 
ATOM     81  O   UNL A   1      35.545  32.540  33.958  1.00  0.00    -0.237 OA
ATOM     82  O   UNL A   1      34.836  34.855  33.440  1.00  0.00    -0.237 OA
ATOM     83  O   UNL A   1      33.268  32.981  33.113  1.00  0.00    -0.744 OA
ENDBRANCH  76  80
ENDBRANCH  49  73
BRANCH  61  84
ATOM     84  C   UNL A   1      43.326  35.662  30.628  1.00  0.00     0.023 A 
ATOM     85  C   UNL A   1      43.429  36.669  29.651  1.00  0.00     0.031 A 
ATOM     86  C   UNL A   1      43.634  35.998  31.958  1.00  0.00     0.131 A 
ATOM     87  C   UNL A   1      43.906  37.938  30.005  1.00  0.00     0.055 A 
ATOM     88  C   UNL A   1      44.033  37.287  32.317  1.00  0.00     0.041 A 
ATOM     89  F   UNL A   1      43.556  35.078  32.932  1.00  0.00    -0.206 F 
ATOM     90  C   UNL A   1      44.189  38.260  31.335  1.00  0.00     0.022 A 
BRANCH  87  91
ATOM     91  S   UNL A   1      44.276  39.124  28.683  1.00  0.00     0.124 S 
ATOM     92  O   UNL A   1      45.706  39.345  28.868  1.00  0.00    -0.237 OA
ATOM     93  O   UNL A   1      43.895  38.384  27.485  1.00  0.00    -0.237 OA
ATOM     94  O   UNL A   1      43.424  40.269  29.002  1.00  0.00    -0.744 OA
ENDBRANCH  87  91
ENDBRANCH  61  84
ENDBRANCH  35  36
ENDBRANCH  27  30
ENDBRANCH  25  26
ENDBRANCH  24  25
ENDBRANCH  23  24
ENDBRANCH   1  23
TORSDOF 22
ENDMDL
