MODEL 1
REMARK VINA RESULT:     -11.7      0.000      0.000
REMARK SMILES CC(=O)Nc1cc(NC(C)=O)cc(C(=O)Nc2ccc(Br)cc2C(=O)NCCCCCCNC(=O)c2ccc(-c3c4nc(c(-c5cc(S(=O)(=O)[O-])ccc5F)c5ccc([nH]5)c(-c5cc(S(=O)(=O)[O-])ccc5F)c5nc(c(-c6cc(S(=O)(=O)[O-])ccc6F)c6ccc3[nH]6)C=C5)C=C4)cc2)c1
REMARK SMILES IDX 29 1 28 2 27 3 26 4 24 5 25 6 23 8 17 9 18 10 19 11 22 12
REMARK SMILES IDX 20 13 21 14 16 15 14 16 15 17 13 19 5 20 6 21 99 22 7 23
REMARK SMILES IDX 12 24 4 25 1 26 2 27 3 28 8 30 9 31 10 33 11 34 30 35 31 36
REMARK SMILES IDX 32 37 33 38 34 39 35 41 36 42 37 43 98 44 38 45 97 46 39 47
REMARK SMILES IDX 40 48 41 49 91 50 42 51 96 52 90 53 92 54 43 55 95 56 89 57
REMARK SMILES IDX 88 58 44 60 76 61 56 62 75 63 57 64 60 65 74 66 93 67 58 68
REMARK SMILES IDX 59 69 73 71 94 72 61 73 45 74 46 75 54 76 47 77 53 78 55 79
REMARK SMILES IDX 52 80 48 81 49 82 50 83 51 84 77 85 78 86 86 87 79 88 85 89
REMARK SMILES IDX 87 90 84 91 80 92 81 93 82 94 83 95 62 96 63 97 71 98 64 99
REMARK SMILES IDX 70 100 72 101 69 102 65 103 66 104 67 105 68 106
REMARK H PARENT 26 7 16 18 4 29 8 32 33 40 92 59 60 70
REMARK Flexibility Score: inf
ROOT
ATOM      1  C   UNL A   1      39.819  22.925  26.797  1.00  0.00     0.002 C 
ENDROOT
BRANCH   1   2
ATOM      2  C   UNL A   1      38.372  22.543  26.466  1.00  0.00     0.021 C 
BRANCH   2   3
ATOM      3  C   UNL A   1      37.557  23.590  25.718  1.00  0.00     0.116 C 
BRANCH   3   4
ATOM      4  N   UNL A   1      37.382  23.307  24.310  1.00  0.00    -0.352 N 
ATOM      5  C   UNL A   1      36.228  23.261  23.572  1.00  0.00     0.253 C 
ATOM      6  O   UNL A   1      36.304  22.955  22.382  1.00  0.00    -0.269 OA
ATOM      7  H   UNL A   1      38.210  23.120  23.812  1.00  0.00     0.163 HD
BRANCH   5   8
ATOM      8  C   UNL A   1      34.885  23.479  24.179  1.00  0.00     0.064 A 
ATOM      9  C   UNL A   1      33.792  24.164  23.606  1.00  0.00     0.054 A 
ATOM     10  C   UNL A   1      32.680  24.454  24.417  1.00  0.00     0.028 A 
ATOM     11  C   UNL A   1      32.571  23.931  25.707  1.00  0.00     0.018 A 
ATOM     12  C   UNL A   1      34.748  22.928  25.471  1.00  0.00     0.031 A 
ATOM     13  C   UNL A   1      33.590  23.136  26.213  1.00  0.00     0.018 A 
ATOM     14  Br  UNL A   1      33.395  22.323  27.907  1.00  0.00    -0.051 Br
BRANCH   9  15
ATOM     15  N   UNL A   1      33.628  24.534  22.251  1.00  0.00    -0.321 N 
ATOM     16  C   UNL A   1      32.978  25.603  21.665  1.00  0.00     0.255 C 
ATOM     17  O   UNL A   1      32.757  25.591  20.454  1.00  0.00    -0.269 OA
ATOM     18  H   UNL A   1      34.054  23.919  21.610  1.00  0.00     0.170 HD
BRANCH  16  19
ATOM     19  C   UNL A   1      32.605  26.804  22.447  1.00  0.00     0.044 A 
ATOM     20  C   UNL A   1      33.200  28.489  24.066  1.00  0.00     0.044 A 
ATOM     21  C   UNL A   1      31.850  28.871  24.118  1.00  0.00     0.052 A 
ATOM     22  C   UNL A   1      33.576  27.508  23.163  1.00  0.00     0.040 A 
ATOM     23  C   UNL A   1      30.889  28.284  23.283  1.00  0.00     0.044 A 
ATOM     24  C   UNL A   1      31.271  27.220  22.465  1.00  0.00     0.040 A 
BRANCH  20  25
ATOM     25  N   UNL A   1      34.064  29.047  25.027  1.00  0.00    -0.326 N 
ATOM     26  C   UNL A   1      33.155  28.198  27.197  1.00  0.00     0.114 C 
ATOM     27  C   UNL A   1      34.041  29.103  26.390  1.00  0.00     0.221 C 
ATOM     28  O   UNL A   1      34.801  29.889  26.962  1.00  0.00    -0.275 OA
ATOM     29  H   UNL A   1      34.851  29.489  24.632  1.00  0.00     0.169 HD
ENDBRANCH  20  25
BRANCH  23  30
ATOM     30  N   UNL A   1      29.540  28.698  23.223  1.00  0.00    -0.326 N 
ATOM     31  C   UNL A   1      28.964  29.533  22.284  1.00  0.00     0.221 C 
ATOM     32  H   UNL A   1      28.945  28.352  23.927  1.00  0.00     0.169 HD
ATOM     33  C   UNL A   1      27.481  29.727  22.488  1.00  0.00     0.114 C 
ATOM     34  O   UNL A   1      29.528  30.075  21.338  1.00  0.00    -0.275 OA
ENDBRANCH  23  30
ENDBRANCH  16  19
ENDBRANCH   9  15
ENDBRANCH   5   8
ENDBRANCH   3   4
ENDBRANCH   2   3
ENDBRANCH   1   2
BRANCH   1  35
ATOM     35  C   UNL A   1      40.772  21.802  27.218  1.00  0.00     0.002 C 
BRANCH  35  36
ATOM     36  C   UNL A   1      40.790  20.530  26.367  1.00  0.00     0.021 C 
BRANCH  36  37
ATOM     37  C   UNL A   1      41.866  19.498  26.692  1.00  0.00     0.116 C 
BRANCH  37  38
ATOM     38  N   UNL A   1      42.801  19.281  25.607  1.00  0.00    -0.352 N 
ATOM     39  C   UNL A   1      43.659  20.154  24.987  1.00  0.00     0.251 C 
ATOM     40  H   UNL A   1      42.823  18.361  25.259  1.00  0.00     0.163 HD
ATOM     41  O   UNL A   1      44.296  19.757  24.013  1.00  0.00    -0.269 OA
BRANCH  39  42
ATOM     42  C   UNL A   1      43.804  21.560  25.443  1.00  0.00     0.039 A 
ATOM     43  C   UNL A   1      44.287  21.780  26.737  1.00  0.00     0.014 A 
ATOM     44  C   UNL A   1      43.439  22.653  24.651  1.00  0.00     0.014 A 
ATOM     45  C   UNL A   1      44.446  23.082  27.215  1.00  0.00     0.010 A 
ATOM     46  C   UNL A   1      43.664  23.956  25.104  1.00  0.00     0.010 A 
ATOM     47  C   UNL A   1      44.163  24.186  26.393  1.00  0.00    -0.014 A 
BRANCH  47  48
ATOM     48  C   UNL A   1      44.396  25.569  26.891  1.00  0.00     0.031 A 
ATOM     49  C   UNL A   1      45.760  26.201  26.803  1.00  0.00     0.074 A 
ATOM     50  C   UNL A   1      43.369  26.254  27.432  1.00  0.00     0.049 A 
ATOM     51  N   UNL A   1      46.137  27.407  27.144  1.00  0.00    -0.248 NA
ATOM     52  C   UNL A   1      46.848  25.358  26.288  1.00  0.00     0.031 C 
ATOM     53  C   UNL A   1      42.015  25.729  27.624  1.00  0.00     0.029 A 
ATOM     54  N   UNL A   1      43.296  27.538  27.911  1.00  0.00    -0.354 N 
ATOM     55  C   UNL A   1      47.503  27.470  26.887  1.00  0.00     0.074 A 
ATOM     56  C   UNL A   1      47.897  26.155  26.424  1.00  0.00     0.031 C 
ATOM     57  C   UNL A   1      41.236  26.694  28.138  1.00  0.00     0.029 A 
ATOM     58  C   UNL A   1      42.039  27.894  28.346  1.00  0.00     0.049 A 
ATOM     59  H   UNL A   1      44.069  28.146  27.941  1.00  0.00     0.167 HD
ATOM     60  C   UNL A   1      48.343  28.529  27.001  1.00  0.00     0.034 A 
ATOM     61  C   UNL A   1      41.583  29.059  28.849  1.00  0.00     0.034 A 
ATOM     62  C   UNL A   1      47.931  29.835  27.459  1.00  0.00     0.049 A 
ATOM     63  C   UNL A   1      42.534  30.223  28.958  1.00  0.00     0.074 A 
ATOM     64  C   UNL A   1      48.687  30.991  27.570  1.00  0.00     0.029 A 
ATOM     65  N   UNL A   1      46.652  30.160  27.892  1.00  0.00    -0.354 N 
ATOM     66  N   UNL A   1      43.809  30.282  28.649  1.00  0.00    -0.248 NA
ATOM     67  C   UNL A   1      41.976  31.483  29.464  1.00  0.00     0.031 C 
ATOM     68  C   UNL A   1      47.884  31.993  28.128  1.00  0.00     0.029 A 
ATOM     69  C   UNL A   1      46.604  31.488  28.295  1.00  0.00     0.049 A 
ATOM     70  H   UNL A   1      45.888  29.539  27.910  1.00  0.00     0.167 HD
ATOM     71  C   UNL A   1      44.198  31.594  28.900  1.00  0.00     0.074 A 
ATOM     72  C   UNL A   1      43.015  32.296  29.354  1.00  0.00     0.031 C 
ATOM     73  C   UNL A   1      45.423  32.169  28.770  1.00  0.00     0.034 A 
BRANCH  60  74
ATOM     74  C   UNL A   1      49.795  28.306  26.643  1.00  0.00     0.023 A 
ATOM     75  C   UNL A   1      50.281  28.542  25.343  1.00  0.00     0.031 A 
ATOM     76  C   UNL A   1      50.704  27.830  27.604  1.00  0.00     0.131 A 
ATOM     77  C   UNL A   1      51.611  28.231  25.022  1.00  0.00     0.055 A 
ATOM     78  C   UNL A   1      52.048  27.601  27.299  1.00  0.00     0.041 A 
ATOM     79  F   UNL A   1      50.300  27.566  28.856  1.00  0.00    -0.206 F 
ATOM     80  C   UNL A   1      52.506  27.786  25.997  1.00  0.00     0.022 A 
BRANCH  77  81
ATOM     81  S   UNL A   1      52.117  28.279  23.281  1.00  0.00     0.124 S 
ATOM     82  O   UNL A   1      51.370  29.434  22.789  1.00  0.00    -0.237 OA
ATOM     83  O   UNL A   1      53.562  28.446  23.376  1.00  0.00    -0.237 OA
ATOM     84  O   UNL A   1      51.671  26.989  22.758  1.00  0.00    -0.744 OA
ENDBRANCH  77  81
ENDBRANCH  60  74
BRANCH  61  85
ATOM     85  C   UNL A   1      40.161  29.193  29.276  1.00  0.00     0.023 A 
ATOM     86  C   UNL A   1      39.802  29.131  30.633  1.00  0.00     0.031 A 
ATOM     87  C   UNL A   1      39.132  29.340  28.330  1.00  0.00     0.131 A 
ATOM     88  C   UNL A   1      38.449  29.163  31.002  1.00  0.00     0.055 A 
ATOM     89  C   UNL A   1      37.791  29.427  28.705  1.00  0.00     0.041 A 
ATOM     90  F   UNL A   1      39.419  29.412  27.020  1.00  0.00    -0.206 F 
ATOM     91  C   UNL A   1      37.441  29.324  30.048  1.00  0.00     0.022 A 
BRANCH  88  92
ATOM     92  S   UNL A   1      38.016  28.902  32.744  1.00  0.00     0.124 S 
ATOM     93  O   UNL A   1      36.653  29.418  32.794  1.00  0.00    -0.237 OA
ATOM     94  O   UNL A   1      38.161  27.456  32.877  1.00  0.00    -0.237 OA
ATOM     95  O   UNL A   1      39.012  29.694  33.464  1.00  0.00    -0.744 OA
ENDBRANCH  88  92
ENDBRANCH  61  85
BRANCH  73  96
ATOM     96  C   UNL A   1      45.518  33.640  29.104  1.00  0.00     0.023 A 
ATOM     97  C   UNL A   1      45.815  34.082  30.406  1.00  0.00     0.031 A 
ATOM     98  C   UNL A   1      45.256  34.611  28.122  1.00  0.00     0.131 A 
ATOM     99  C   UNL A   1      45.759  35.450  30.711  1.00  0.00     0.055 A 
ATOM    100  C   UNL A   1      45.274  35.976  28.415  1.00  0.00     0.041 A 
ATOM    101  F   UNL A   1      44.966  34.249  26.862  1.00  0.00    -0.206 F 
ATOM    102  C   UNL A   1      45.506  36.401  29.720  1.00  0.00     0.022 A 
BRANCH  99 103
ATOM    103  S   UNL A   1      45.889  35.958  32.448  1.00  0.00     0.124 S 
ATOM    104  O   UNL A   1      45.631  34.706  33.150  1.00  0.00    -0.237 OA
ATOM    105  O   UNL A   1      47.258  36.460  32.523  1.00  0.00    -0.237 OA
ATOM    106  O   UNL A   1      44.848  36.974  32.586  1.00  0.00    -0.744 OA
ENDBRANCH  99 103
ENDBRANCH  73  96
ENDBRANCH  47  48
ENDBRANCH  39  42
ENDBRANCH  37  38
ENDBRANCH  36  37
ENDBRANCH  35  36
ENDBRANCH   1  35
TORSDOF 20
ENDMDL
MODEL 2
REMARK VINA RESULT:     -11.1      1.816      2.054
REMARK SMILES CC(=O)Nc1cc(NC(C)=O)cc(C(=O)Nc2ccc(Br)cc2C(=O)NCCCCCCNC(=O)c2ccc(-c3c4nc(c(-c5cc(S(=O)(=O)[O-])ccc5F)c5ccc([nH]5)c(-c5cc(S(=O)(=O)[O-])ccc5F)c5nc(c(-c6cc(S(=O)(=O)[O-])ccc6F)c6ccc3[nH]6)C=C5)C=C4)cc2)c1
REMARK SMILES IDX 29 1 28 2 27 3 26 4 24 5 25 6 23 8 17 9 18 10 19 11 22 12
REMARK SMILES IDX 20 13 21 14 16 15 14 16 15 17 13 19 5 20 6 21 99 22 7 23
REMARK SMILES IDX 12 24 4 25 1 26 2 27 3 28 8 30 9 31 10 33 11 34 30 35 31 36
REMARK SMILES IDX 32 37 33 38 34 39 35 41 36 42 37 43 98 44 38 45 97 46 39 47
REMARK SMILES IDX 40 48 41 49 91 50 42 51 96 52 90 53 92 54 43 55 95 56 89 57
REMARK SMILES IDX 88 58 44 60 76 61 56 62 75 63 57 64 60 65 74 66 93 67 58 68
REMARK SMILES IDX 59 69 73 71 94 72 61 73 45 74 46 75 54 76 47 77 53 78 55 79
REMARK SMILES IDX 52 80 48 81 49 82 50 83 51 84 77 85 78 86 86 87 79 88 85 89
REMARK SMILES IDX 87 90 84 91 80 92 81 93 82 94 83 95 62 96 63 97 71 98 64 99
REMARK SMILES IDX 70 100 72 101 69 102 65 103 66 104 67 105 68 106
REMARK H PARENT 26 7 16 18 4 29 8 32 33 40 92 59 60 70
REMARK Flexibility Score: inf
ROOT
ATOM      1  C   UNL A   1      39.753  22.145  26.521  1.00  0.00     0.002 C 
ENDROOT
BRANCH   1   2
ATOM      2  C   UNL A   1      38.478  21.401  26.110  1.00  0.00     0.021 C 
BRANCH   2   3
ATOM      3  C   UNL A   1      37.296  22.272  25.705  1.00  0.00     0.116 C 
BRANCH   3   4
ATOM      4  N   UNL A   1      37.262  22.604  24.298  1.00  0.00    -0.352 N 
ATOM      5  C   UNL A   1      36.246  23.159  23.562  1.00  0.00     0.253 C 
ATOM      6  O   UNL A   1      36.418  23.320  22.354  1.00  0.00    -0.269 OA
ATOM      7  H   UNL A   1      38.084  22.402  23.797  1.00  0.00     0.163 HD
BRANCH   5   8
ATOM      8  C   UNL A   1      34.920  23.488  24.156  1.00  0.00     0.064 A 
ATOM      9  C   UNL A   1      33.890  24.252  23.568  1.00  0.00     0.054 A 
ATOM     10  C   UNL A   1      32.797  24.637  24.367  1.00  0.00     0.028 A 
ATOM     11  C   UNL A   1      32.638  24.137  25.661  1.00  0.00     0.018 A 
ATOM     12  C   UNL A   1      34.731  22.963  25.451  1.00  0.00     0.031 A 
ATOM     13  C   UNL A   1      33.586  23.268  26.182  1.00  0.00     0.018 A 
ATOM     14  Br  UNL A   1      33.314  22.488  27.881  1.00  0.00    -0.051 Br
BRANCH   9  15
ATOM     15  N   UNL A   1      33.766  24.622  22.208  1.00  0.00    -0.321 N 
ATOM     16  C   UNL A   1      33.105  25.672  21.600  1.00  0.00     0.255 C 
ATOM     17  O   UNL A   1      32.932  25.657  20.382  1.00  0.00    -0.269 OA
ATOM     18  H   UNL A   1      34.235  24.023  21.583  1.00  0.00     0.170 HD
BRANCH  16  19
ATOM     19  C   UNL A   1      32.665  26.857  22.370  1.00  0.00     0.044 A 
ATOM     20  C   UNL A   1      33.162  28.590  23.972  1.00  0.00     0.044 A 
ATOM     21  C   UNL A   1      31.793  28.895  24.020  1.00  0.00     0.052 A 
ATOM     22  C   UNL A   1      33.593  27.622  23.079  1.00  0.00     0.040 A 
ATOM     23  C   UNL A   1      30.867  28.247  23.190  1.00  0.00     0.044 A 
ATOM     24  C   UNL A   1      31.309  27.198  22.383  1.00  0.00     0.040 A 
BRANCH  20  25
ATOM     25  N   UNL A   1      33.993  29.205  24.928  1.00  0.00    -0.326 N 
ATOM     26  C   UNL A   1      33.854  27.671  26.898  1.00  0.00     0.114 C 
ATOM     27  C   UNL A   1      34.235  28.971  26.250  1.00  0.00     0.221 C 
ATOM     28  O   UNL A   1      34.818  29.838  26.906  1.00  0.00    -0.275 OA
ATOM     29  H   UNL A   1      34.507  29.963  24.566  1.00  0.00     0.169 HD
ENDBRANCH  20  25
BRANCH  23  30
ATOM     30  N   UNL A   1      29.497  28.584  23.126  1.00  0.00    -0.326 N 
ATOM     31  C   UNL A   1      28.891  29.448  22.233  1.00  0.00     0.221 C 
ATOM     32  H   UNL A   1      28.909  28.155  23.790  1.00  0.00     0.169 HD
ATOM     33  C   UNL A   1      27.395  29.538  22.413  1.00  0.00     0.114 C 
ATOM     34  O   UNL A   1      29.441  30.087  21.340  1.00  0.00    -0.275 OA
ENDBRANCH  23  30
ENDBRANCH  16  19
ENDBRANCH   9  15
ENDBRANCH   5   8
ENDBRANCH   3   4
ENDBRANCH   2   3
ENDBRANCH   1   2
BRANCH   1  35
ATOM     35  C   UNL A   1      40.993  21.305  26.842  1.00  0.00     0.002 C 
BRANCH  35  36
ATOM     36  C   UNL A   1      41.094  19.915  26.207  1.00  0.00     0.021 C 
BRANCH  36  37
ATOM     37  C   UNL A   1      42.355  19.111  26.504  1.00  0.00     0.116 C 
BRANCH  37  38
ATOM     38  N   UNL A   1      43.226  18.964  25.356  1.00  0.00    -0.352 N 
ATOM     39  C   UNL A   1      44.021  19.885  24.722  1.00  0.00     0.251 C 
ATOM     40  H   UNL A   1      43.251  18.058  24.970  1.00  0.00     0.163 HD
ATOM     41  O   UNL A   1      44.607  19.545  23.696  1.00  0.00    -0.269 OA
BRANCH  39  42
ATOM     42  C   UNL A   1      44.157  21.275  25.226  1.00  0.00     0.039 A 
ATOM     43  C   UNL A   1      44.774  21.462  26.466  1.00  0.00     0.014 A 
ATOM     44  C   UNL A   1      43.657  22.382  24.533  1.00  0.00     0.014 A 
ATOM     45  C   UNL A   1      44.930  22.749  26.986  1.00  0.00     0.010 A 
ATOM     46  C   UNL A   1      43.876  23.674  25.019  1.00  0.00     0.010 A 
ATOM     47  C   UNL A   1      44.509  23.872  26.255  1.00  0.00    -0.014 A 
BRANCH  47  48
ATOM     48  C   UNL A   1      44.736  25.242  26.789  1.00  0.00     0.031 A 
ATOM     49  C   UNL A   1      46.106  25.867  26.749  1.00  0.00     0.074 A 
ATOM     50  C   UNL A   1      43.700  25.922  27.320  1.00  0.00     0.049 A 
ATOM     51  N   UNL A   1      46.481  27.063  27.127  1.00  0.00    -0.248 NA
ATOM     52  C   UNL A   1      47.202  25.029  26.243  1.00  0.00     0.031 C 
ATOM     53  C   UNL A   1      42.339  25.401  27.466  1.00  0.00     0.029 A 
ATOM     54  N   UNL A   1      43.623  27.195  27.826  1.00  0.00    -0.354 N 
ATOM     55  C   UNL A   1      47.854  27.123  26.905  1.00  0.00     0.074 A 
ATOM     56  C   UNL A   1      48.252  25.816  26.423  1.00  0.00     0.031 C 
ATOM     57  C   UNL A   1      41.554  26.360  27.982  1.00  0.00     0.029 A 
ATOM     58  C   UNL A   1      42.358  27.549  28.237  1.00  0.00     0.049 A 
ATOM     59  H   UNL A   1      44.398  27.798  27.888  1.00  0.00     0.167 HD
ATOM     60  C   UNL A   1      48.698  28.174  27.064  1.00  0.00     0.034 A 
ATOM     61  C   UNL A   1      41.896  28.706  28.754  1.00  0.00     0.034 A 
ATOM     62  C   UNL A   1      48.282  29.472  27.541  1.00  0.00     0.049 A 
ATOM     63  C   UNL A   1      42.851  29.861  28.913  1.00  0.00     0.074 A 
ATOM     64  C   UNL A   1      49.041  30.620  27.696  1.00  0.00     0.029 A 
ATOM     65  N   UNL A   1      46.993  29.796  27.949  1.00  0.00    -0.354 N 
ATOM     66  N   UNL A   1      44.134  29.918  28.637  1.00  0.00    -0.248 NA
ATOM     67  C   UNL A   1      42.288  31.112  29.433  1.00  0.00     0.031 C 
ATOM     68  C   UNL A   1      48.230  31.614  28.256  1.00  0.00     0.029 A 
ATOM     69  C   UNL A   1      46.944  31.114  28.381  1.00  0.00     0.049 A 
ATOM     70  H   UNL A   1      46.226  29.179  27.934  1.00  0.00     0.167 HD
ATOM     71  C   UNL A   1      44.524  31.222  28.928  1.00  0.00     0.074 A 
ATOM     72  C   UNL A   1      43.334  31.922  29.368  1.00  0.00     0.031 C 
ATOM     73  C   UNL A   1      45.755  31.792  28.841  1.00  0.00     0.034 A 
BRANCH  60  74
ATOM     74  C   UNL A   1      50.157  27.950  26.737  1.00  0.00     0.023 A 
ATOM     75  C   UNL A   1      51.107  27.683  27.740  1.00  0.00     0.031 A 
ATOM     76  C   UNL A   1      50.612  28.025  25.409  1.00  0.00     0.131 A 
ATOM     77  C   UNL A   1      52.467  27.579  27.412  1.00  0.00     0.055 A 
ATOM     78  C   UNL A   1      51.956  27.837  25.078  1.00  0.00     0.041 A 
ATOM     79  F   UNL A   1      49.760  28.296  24.408  1.00  0.00    -0.206 F 
ATOM     80  C   UNL A   1      52.896  27.628  26.083  1.00  0.00     0.022 A 
BRANCH  77  81
ATOM     81  S   UNL A   1      53.683  27.521  28.756  1.00  0.00     0.124 S 
ATOM     82  O   UNL A   1      52.885  26.973  29.850  1.00  0.00    -0.237 OA
ATOM     83  O   UNL A   1      54.713  26.643  28.213  1.00  0.00    -0.237 OA
ATOM     84  O   UNL A   1      54.078  28.918  28.922  1.00  0.00    -0.744 OA
ENDBRANCH  77  81
ENDBRANCH  60  74
BRANCH  61  85
ATOM     85  C   UNL A   1      40.464  28.840  29.149  1.00  0.00     0.023 A 
ATOM     86  C   UNL A   1      40.071  28.747  30.494  1.00  0.00     0.031 A 
ATOM     87  C   UNL A   1      39.461  29.017  28.181  1.00  0.00     0.131 A 
ATOM     88  C   UNL A   1      38.709  28.779  30.829  1.00  0.00     0.055 A 
ATOM     89  C   UNL A   1      38.111  29.104  28.524  1.00  0.00     0.041 A 
ATOM     90  F   UNL A   1      39.782  29.118  26.880  1.00  0.00    -0.206 F 
ATOM     91  C   UNL A   1      37.727  28.970  29.855  1.00  0.00     0.022 A 
BRANCH  88  92
ATOM     92  S   UNL A   1      38.231  28.479  32.554  1.00  0.00     0.124 S 
ATOM     93  O   UNL A   1      36.927  29.128  32.619  1.00  0.00    -0.237 OA
ATOM     94  O   UNL A   1      38.227  27.021  32.615  1.00  0.00    -0.237 OA
ATOM     95  O   UNL A   1      39.293  29.130  33.319  1.00  0.00    -0.744 OA
ENDBRANCH  88  92
ENDBRANCH  61  85
BRANCH  73  96
ATOM     96  C   UNL A   1      45.850  33.255  29.210  1.00  0.00     0.023 A 
ATOM     97  C   UNL A   1      45.498  34.268  28.300  1.00  0.00     0.031 A 
ATOM     98  C   UNL A   1      46.349  33.641  30.467  1.00  0.00     0.131 A 
ATOM     99  C   UNL A   1      45.729  35.613  28.627  1.00  0.00     0.055 A 
ATOM    100  C   UNL A   1      46.509  34.984  30.812  1.00  0.00     0.041 A 
ATOM    101  F   UNL A   1      46.703  32.718  31.375  1.00  0.00    -0.206 F 
ATOM    102  C   UNL A   1      46.218  35.978  29.882  1.00  0.00     0.022 A 
BRANCH  99 103
ATOM    103  S   UNL A   1      45.509  36.869  27.336  1.00  0.00     0.124 S 
ATOM    104  O   UNL A   1      45.544  38.106  28.107  1.00  0.00    -0.237 OA
ATOM    105  O   UNL A   1      46.657  36.626  26.467  1.00  0.00    -0.237 OA
ATOM    106  O   UNL A   1      44.210  36.537  26.753  1.00  0.00    -0.744 OA
ENDBRANCH  99 103
ENDBRANCH  73  96
ENDBRANCH  47  48
ENDBRANCH  39  42
ENDBRANCH  37  38
ENDBRANCH  36  37
ENDBRANCH  35  36
ENDBRANCH   1  35
TORSDOF 20
ENDMDL
MODEL 3
REMARK VINA RESULT:     -10.8      1.372      2.515
REMARK SMILES CC(=O)Nc1cc(NC(C)=O)cc(C(=O)Nc2ccc(Br)cc2C(=O)NCCCCCCNC(=O)c2ccc(-c3c4nc(c(-c5cc(S(=O)(=O)[O-])ccc5F)c5ccc([nH]5)c(-c5cc(S(=O)(=O)[O-])ccc5F)c5nc(c(-c6cc(S(=O)(=O)[O-])ccc6F)c6ccc3[nH]6)C=C5)C=C4)cc2)c1
REMARK SMILES IDX 29 1 28 2 27 3 26 4 24 5 25 6 23 8 17 9 18 10 19 11 22 12
REMARK SMILES IDX 20 13 21 14 16 15 14 16 15 17 13 19 5 20 6 21 99 22 7 23
REMARK SMILES IDX 12 24 4 25 1 26 2 27 3 28 8 30 9 31 10 33 11 34 30 35 31 36
REMARK SMILES IDX 32 37 33 38 34 39 35 41 36 42 37 43 98 44 38 45 97 46 39 47
REMARK SMILES IDX 40 48 41 49 91 50 42 51 96 52 90 53 92 54 43 55 95 56 89 57
REMARK SMILES IDX 88 58 44 60 76 61 56 62 75 63 57 64 60 65 74 66 93 67 58 68
REMARK SMILES IDX 59 69 73 71 94 72 61 73 45 74 46 75 54 76 47 77 53 78 55 79
REMARK SMILES IDX 52 80 48 81 49 82 50 83 51 84 77 85 78 86 86 87 79 88 85 89
REMARK SMILES IDX 87 90 84 91 80 92 81 93 82 94 83 95 62 96 63 97 71 98 64 99
REMARK SMILES IDX 70 100 72 101 69 102 65 103 66 104 67 105 68 106
REMARK H PARENT 26 7 16 18 4 29 8 32 33 40 92 59 60 70
REMARK Flexibility Score: inf
ROOT
ATOM      1  C   UNL A   1      39.652  22.155  26.312  1.00  0.00     0.002 C 
ENDROOT
BRANCH   1   2
ATOM      2  C   UNL A   1      38.440  21.256  26.040  1.00  0.00     0.021 C 
BRANCH   2   3
ATOM      3  C   UNL A   1      37.143  21.971  25.685  1.00  0.00     0.116 C 
BRANCH   3   4
ATOM      4  N   UNL A   1      37.203  22.725  24.452  1.00  0.00    -0.352 N 
ATOM      5  C   UNL A   1      36.214  23.434  23.820  1.00  0.00     0.253 C 
ATOM      6  O   UNL A   1      36.474  23.973  22.745  1.00  0.00    -0.269 OA
ATOM      7  H   UNL A   1      38.078  22.728  24.003  1.00  0.00     0.163 HD
BRANCH   5   8
ATOM      8  C   UNL A   1      34.821  23.497  24.345  1.00  0.00     0.064 A 
ATOM      9  C   UNL A   1      33.694  24.051  23.701  1.00  0.00     0.054 A 
ATOM     10  C   UNL A   1      32.508  24.214  24.442  1.00  0.00     0.028 A 
ATOM     11  C   UNL A   1      32.383  23.685  25.728  1.00  0.00     0.018 A 
ATOM     12  C   UNL A   1      34.671  22.938  25.631  1.00  0.00     0.031 A 
ATOM     13  C   UNL A   1      33.454  23.013  26.301  1.00  0.00     0.018 A 
ATOM     14  Br  UNL A   1      33.251  22.186  27.988  1.00  0.00    -0.051 Br
BRANCH   9  15
ATOM     15  N   UNL A   1      33.570  24.397  22.335  1.00  0.00    -0.321 N 
ATOM     16  C   UNL A   1      32.951  25.463  21.712  1.00  0.00     0.255 C 
ATOM     17  O   UNL A   1      32.762  25.430  20.496  1.00  0.00    -0.269 OA
ATOM     18  H   UNL A   1      34.004  23.764  21.717  1.00  0.00     0.170 HD
BRANCH  16  19
ATOM     19  C   UNL A   1      32.575  26.684  22.461  1.00  0.00     0.044 A 
ATOM     20  C   UNL A   1      31.118  28.588  22.723  1.00  0.00     0.044 A 
ATOM     21  C   UNL A   1      32.018  29.106  23.667  1.00  0.00     0.052 A 
ATOM     22  C   UNL A   1      31.369  27.334  22.189  1.00  0.00     0.040 A 
ATOM     23  C   UNL A   1      33.151  28.387  24.074  1.00  0.00     0.044 A 
ATOM     24  C   UNL A   1      33.443  27.181  23.437  1.00  0.00     0.040 A 
BRANCH  20  25
ATOM     25  N   UNL A   1      30.079  29.434  22.290  1.00  0.00    -0.326 N 
ATOM     26  C   UNL A   1      28.014  28.313  23.145  1.00  0.00     0.114 C 
ATOM     27  C   UNL A   1      28.720  29.327  22.291  1.00  0.00     0.221 C 
ATOM     28  O   UNL A   1      28.064  30.115  21.604  1.00  0.00    -0.275 OA
ATOM     29  H   UNL A   1      30.404  30.281  21.906  1.00  0.00     0.169 HD
ENDBRANCH  20  25
BRANCH  23  30
ATOM     30  N   UNL A   1      34.033  28.817  25.089  1.00  0.00    -0.326 N 
ATOM     31  C   UNL A   1      33.747  28.967  26.434  1.00  0.00     0.221 C 
ATOM     32  H   UNL A   1      34.952  29.032  24.809  1.00  0.00     0.169 HD
ATOM     33  C   UNL A   1      34.941  29.396  27.252  1.00  0.00     0.114 C 
ATOM     34  O   UNL A   1      32.669  28.763  26.983  1.00  0.00    -0.275 OA
ENDBRANCH  23  30
ENDBRANCH  16  19
ENDBRANCH   9  15
ENDBRANCH   5   8
ENDBRANCH   3   4
ENDBRANCH   2   3
ENDBRANCH   1   2
BRANCH   1  35
ATOM     35  C   UNL A   1      41.026  21.484  26.414  1.00  0.00     0.002 C 
BRANCH  35  36
ATOM     36  C   UNL A   1      41.107  19.983  26.120  1.00  0.00     0.021 C 
BRANCH  36  37
ATOM     37  C   UNL A   1      42.424  19.287  26.446  1.00  0.00     0.116 C 
BRANCH  37  38
ATOM     38  N   UNL A   1      43.295  19.139  25.297  1.00  0.00    -0.352 N 
ATOM     39  C   UNL A   1      44.081  20.061  24.655  1.00  0.00     0.251 C 
ATOM     40  H   UNL A   1      43.327  18.231  24.918  1.00  0.00     0.163 HD
ATOM     41  O   UNL A   1      44.668  19.718  23.630  1.00  0.00    -0.269 OA
BRANCH  39  42
ATOM     42  C   UNL A   1      44.206  21.456  25.148  1.00  0.00     0.039 A 
ATOM     43  C   UNL A   1      44.749  21.653  26.422  1.00  0.00     0.014 A 
ATOM     44  C   UNL A   1      43.766  22.560  24.411  1.00  0.00     0.014 A 
ATOM     45  C   UNL A   1      44.891  22.945  26.933  1.00  0.00     0.010 A 
ATOM     46  C   UNL A   1      43.974  23.856  24.893  1.00  0.00     0.010 A 
ATOM     47  C   UNL A   1      44.532  24.063  26.162  1.00  0.00    -0.014 A 
BRANCH  47  48
ATOM     48  C   UNL A   1      44.747  25.437  26.691  1.00  0.00     0.031 A 
ATOM     49  C   UNL A   1      46.103  26.088  26.618  1.00  0.00     0.074 A 
ATOM     50  C   UNL A   1      43.711  26.096  27.248  1.00  0.00     0.049 A 
ATOM     51  N   UNL A   1      46.464  27.291  26.987  1.00  0.00    -0.248 NA
ATOM     52  C   UNL A   1      47.202  25.271  26.084  1.00  0.00     0.031 C 
ATOM     53  C   UNL A   1      42.364  25.550  27.428  1.00  0.00     0.029 A 
ATOM     54  N   UNL A   1      43.622  27.368  27.757  1.00  0.00    -0.354 N 
ATOM     55  C   UNL A   1      47.829  27.377  26.731  1.00  0.00     0.074 A 
ATOM     56  C   UNL A   1      48.240  26.078  26.238  1.00  0.00     0.031 C 
ATOM     57  C   UNL A   1      41.574  26.493  27.964  1.00  0.00     0.029 A 
ATOM     58  C   UNL A   1      42.361  27.698  28.200  1.00  0.00     0.049 A 
ATOM     59  H   UNL A   1      44.387  27.985  27.800  1.00  0.00     0.167 HD
ATOM     60  C   UNL A   1      48.656  28.444  26.869  1.00  0.00     0.034 A 
ATOM     61  C   UNL A   1      41.890  28.845  28.729  1.00  0.00     0.034 A 
ATOM     62  C   UNL A   1      48.228  29.734  27.358  1.00  0.00     0.049 A 
ATOM     63  C   UNL A   1      42.826  30.018  28.865  1.00  0.00     0.074 A 
ATOM     64  C   UNL A   1      48.968  30.896  27.495  1.00  0.00     0.029 A 
ATOM     65  N   UNL A   1      46.944  30.033  27.798  1.00  0.00    -0.354 N 
ATOM     66  N   UNL A   1      44.101  30.100  28.557  1.00  0.00    -0.248 NA
ATOM     67  C   UNL A   1      42.253  31.258  29.400  1.00  0.00     0.031 C 
ATOM     68  C   UNL A   1      48.153  31.875  28.075  1.00  0.00     0.029 A 
ATOM     69  C   UNL A   1      46.880  31.349  28.231  1.00  0.00     0.049 A 
ATOM     70  H   UNL A   1      46.189  29.401  27.802  1.00  0.00     0.167 HD
ATOM     71  C   UNL A   1      44.473  31.412  28.839  1.00  0.00     0.074 A 
ATOM     72  C   UNL A   1      43.281  32.088  29.309  1.00  0.00     0.031 C 
ATOM     73  C   UNL A   1      45.690  32.005  28.722  1.00  0.00     0.034 A 
BRANCH  60  74
ATOM     74  C   UNL A   1      50.111  28.248  26.506  1.00  0.00     0.023 A 
ATOM     75  C   UNL A   1      50.604  28.572  25.229  1.00  0.00     0.031 A 
ATOM     76  C   UNL A   1      51.015  27.710  27.439  1.00  0.00     0.131 A 
ATOM     77  C   UNL A   1      51.937  28.285  24.895  1.00  0.00     0.055 A 
ATOM     78  C   UNL A   1      52.361  27.503  27.127  1.00  0.00     0.041 A 
ATOM     79  F   UNL A   1      50.603  27.360  28.667  1.00  0.00    -0.206 F 
ATOM     80  C   UNL A   1      52.827  27.777  25.844  1.00  0.00     0.022 A 
BRANCH  77  81
ATOM     81  S   UNL A   1      52.453  28.452  23.165  1.00  0.00     0.124 S 
ATOM     82  O   UNL A   1      52.300  27.083  22.679  1.00  0.00    -0.237 OA
ATOM     83  O   UNL A   1      51.502  29.426  22.644  1.00  0.00    -0.237 OA
ATOM     84  O   UNL A   1      53.834  28.920  23.262  1.00  0.00    -0.744 OA
ENDBRANCH  77  81
ENDBRANCH  60  74
BRANCH  61  85
ATOM     85  C   UNL A   1      40.466  28.951  29.160  1.00  0.00     0.023 A 
ATOM     86  C   UNL A   1      40.109  28.852  30.514  1.00  0.00     0.031 A 
ATOM     87  C   UNL A   1      39.436  29.108  28.217  1.00  0.00     0.131 A 
ATOM     88  C   UNL A   1      38.755  28.858  30.884  1.00  0.00     0.055 A 
ATOM     89  C   UNL A   1      38.093  29.169  28.594  1.00  0.00     0.041 A 
ATOM     90  F   UNL A   1      39.722  29.214  26.909  1.00  0.00    -0.206 F 
ATOM     91  C   UNL A   1      37.746  29.029  29.934  1.00  0.00     0.022 A 
BRANCH  88  92
ATOM     92  S   UNL A   1      38.327  28.550  32.620  1.00  0.00     0.124 S 
ATOM     93  O   UNL A   1      37.029  29.207  32.727  1.00  0.00    -0.237 OA
ATOM     94  O   UNL A   1      38.315  27.092  32.673  1.00  0.00    -0.237 OA
ATOM     95  O   UNL A   1      39.415  29.189  33.357  1.00  0.00    -0.744 OA
ENDBRANCH  88  92
ENDBRANCH  61  85
BRANCH  73  96
ATOM     96  C   UNL A   1      45.766  33.469  29.090  1.00  0.00     0.023 A 
ATOM     97  C   UNL A   1      45.376  34.475  28.188  1.00  0.00     0.031 A 
ATOM     98  C   UNL A   1      46.286  33.864  30.335  1.00  0.00     0.131 A 
ATOM     99  C   UNL A   1      45.589  35.824  28.510  1.00  0.00     0.055 A 
ATOM    100  C   UNL A   1      46.428  35.210  30.677  1.00  0.00     0.041 A 
ATOM    101  F   UNL A   1      46.676  32.948  31.235  1.00  0.00    -0.206 F 
ATOM    102  C   UNL A   1      46.098  36.198  29.754  1.00  0.00     0.022 A 
BRANCH  99 103
ATOM    103  S   UNL A   1      45.317  37.076  27.224  1.00  0.00     0.124 S 
ATOM    104  O   UNL A   1      45.411  38.317  27.984  1.00  0.00    -0.237 OA
ATOM    105  O   UNL A   1      46.413  36.812  26.297  1.00  0.00    -0.237 OA
ATOM    106  O   UNL A   1      43.985  36.759  26.714  1.00  0.00    -0.744 OA
ENDBRANCH  99 103
ENDBRANCH  73  96
ENDBRANCH  47  48
ENDBRANCH  39  42
ENDBRANCH  37  38
ENDBRANCH  36  37
ENDBRANCH  35  36
ENDBRANCH   1  35
TORSDOF 20
ENDMDL
