MODEL 1
REMARK VINA RESULT:     -11.7      0.000      0.000
REMARK SMILES COc1c(C(=O)NCCCCCCNC(=O)c2ccc(-c3c4nc(c(-c5cc(S(=O)(=O)[O-])ccc5F)c5ccc([nH]5)c(-c5cc(S(=O)(=O)[O-])ccc5F)c5nc(c(-c6cc(S(=O)(=O)[O-])ccc6F)c6ccc3[nH]6)C=C5)C=C4)cc2)cccc1-c1cc(C)ccc1C
REMARK SMILES IDX 11 1 10 2 9 3 8 4 7 5 5 6 6 7 4 9 3 10 83 11 80 12 82 13
REMARK SMILES IDX 81 14 2 15 1 16 84 17 85 18 90 19 86 20 89 21 91 22 87 23
REMARK SMILES IDX 88 24 12 25 13 26 14 27 15 28 16 30 17 31 18 32 79 33 19 34
REMARK SMILES IDX 78 35 20 36 21 37 22 38 72 39 23 40 77 41 71 42 73 43 24 44
REMARK SMILES IDX 76 45 70 46 69 47 25 49 57 50 37 51 56 52 38 53 41 54 55 55
REMARK SMILES IDX 74 56 39 57 40 58 54 60 75 61 42 62 26 63 27 64 35 65 28 66
REMARK SMILES IDX 34 67 36 68 33 69 29 70 30 71 31 72 32 73 58 74 59 75 67 76
REMARK SMILES IDX 60 77 66 78 68 79 65 80 61 81 62 82 63 83 64 84 43 85 44 86
REMARK SMILES IDX 52 87 45 88 51 89 53 90 50 91 46 92 47 93 48 94 49 95
REMARK H PARENT 7 8 14 29 73 48 41 59
REMARK Flexibility Score: inf
ROOT
ATOM      1  C   UNL A   1      36.270  20.463  24.918  1.00  0.00     0.002 C 
ENDROOT
BRANCH   1   2
ATOM      2  C   UNL A   1      34.895  19.793  24.965  1.00  0.00     0.002 C 
BRANCH   2   3
ATOM      3  C   UNL A   1      33.691  20.571  24.443  1.00  0.00     0.021 C 
BRANCH   3   4
ATOM      4  C   UNL A   1      32.514  20.768  25.381  1.00  0.00     0.116 C 
BRANCH   4   5
ATOM      5  N   UNL A   1      32.784  21.140  26.736  1.00  0.00    -0.352 N 
ATOM      6  C   UNL A   1      33.050  22.398  27.234  1.00  0.00     0.255 C 
ATOM      7  O   UNL A   1      33.165  22.484  28.463  1.00  0.00    -0.269 OA
ATOM      8  H   UNL A   1      32.777  20.409  27.395  1.00  0.00     0.163 HD
BRANCH   6   9
ATOM      9  C   UNL A   1      33.301  23.639  26.410  1.00  0.00     0.082 A 
ATOM     10  C   UNL A   1      32.461  24.761  26.201  1.00  0.00     0.139 A 
ATOM     11  C   UNL A   1      32.945  25.905  25.490  1.00  0.00     0.025 A 
ATOM     12  C   UNL A   1      34.597  23.669  25.846  1.00  0.00     0.018 A 
ATOM     13  C   UNL A   1      34.246  25.874  24.955  1.00  0.00     0.012 A 
ATOM     14  C   UNL A   1      35.063  24.764  25.122  1.00  0.00     0.002 A 
BRANCH  10  15
ATOM     15  O   UNL A   1      31.215  24.805  26.787  1.00  0.00    -0.495 OA
ATOM     16  C   UNL A   1      30.220  24.002  26.125  1.00  0.00     0.278 C 
ENDBRANCH  10  15
BRANCH  11  17
ATOM     17  C   UNL A   1      32.132  27.124  25.266  1.00  0.00    -0.011 A 
ATOM     18  C   UNL A   1      32.309  28.210  26.153  1.00  0.00     0.012 A 
ATOM     19  C   UNL A   1      31.277  27.299  24.153  1.00  0.00    -0.043 A 
ATOM     20  C   UNL A   1      31.733  29.464  25.915  1.00  0.00    -0.050 A 
ATOM     21  C   UNL A   1      30.716  28.566  23.911  1.00  0.00     0.004 A 
ATOM     22  C   UNL A   1      31.035  26.225  23.125  1.00  0.00     0.045 C 
ATOM     23  C   UNL A   1      32.012  30.605  26.845  1.00  0.00     0.044 C 
ATOM     24  C   UNL A   1      30.951  29.638  24.774  1.00  0.00     0.004 A 
ENDBRANCH  11  17
ENDBRANCH   6   9
ENDBRANCH   4   5
ENDBRANCH   3   4
ENDBRANCH   2   3
ENDBRANCH   1   2
BRANCH   1  25
ATOM     25  C   UNL A   1      37.518  19.582  25.022  1.00  0.00     0.021 C 
BRANCH  25  26
ATOM     26  C   UNL A   1      38.776  20.211  25.612  1.00  0.00     0.116 C 
BRANCH  26  27
ATOM     27  N   UNL A   1      39.844  19.256  25.839  1.00  0.00    -0.352 N 
ATOM     28  C   UNL A   1      41.158  19.454  26.189  1.00  0.00     0.251 C 
ATOM     29  H   UNL A   1      39.585  18.314  25.724  1.00  0.00     0.163 HD
ATOM     30  O   UNL A   1      41.918  18.491  26.211  1.00  0.00    -0.269 OA
BRANCH  28  31
ATOM     31  C   UNL A   1      41.673  20.809  26.503  1.00  0.00     0.039 A 
ATOM     32  C   UNL A   1      41.917  21.689  25.444  1.00  0.00     0.014 A 
ATOM     33  C   UNL A   1      41.952  21.211  27.812  1.00  0.00     0.014 A 
ATOM     34  C   UNL A   1      42.379  22.983  25.698  1.00  0.00     0.010 A 
ATOM     35  C   UNL A   1      42.347  22.525  28.071  1.00  0.00     0.010 A 
ATOM     36  C   UNL A   1      42.567  23.425  27.018  1.00  0.00    -0.014 A 
BRANCH  36  37
ATOM     37  C   UNL A   1      42.991  24.824  27.304  1.00  0.00     0.031 A 
ATOM     38  C   UNL A   1      42.050  25.785  27.977  1.00  0.00     0.074 A 
ATOM     39  C   UNL A   1      44.211  25.241  26.911  1.00  0.00     0.049 A 
ATOM     40  N   UNL A   1      42.224  27.048  28.273  1.00  0.00    -0.248 NA
ATOM     41  C   UNL A   1      40.725  25.262  28.338  1.00  0.00     0.031 C 
ATOM     42  C   UNL A   1      45.204  24.414  26.221  1.00  0.00     0.029 A 
ATOM     43  N   UNL A   1      44.826  26.462  27.035  1.00  0.00    -0.354 N 
ATOM     44  C   UNL A   1      41.027  27.476  28.839  1.00  0.00     0.074 A 
ATOM     45  C   UNL A   1      40.118  26.350  28.787  1.00  0.00     0.031 C 
ATOM     46  C   UNL A   1      46.315  25.140  26.018  1.00  0.00     0.029 A 
ATOM     47  C   UNL A   1      46.101  26.495  26.517  1.00  0.00     0.049 A 
ATOM     48  H   UNL A   1      44.395  27.242  27.455  1.00  0.00     0.167 HD
ATOM     49  C   UNL A   1      40.723  28.688  29.371  1.00  0.00     0.034 A 
ATOM     50  C   UNL A   1      46.993  27.502  26.447  1.00  0.00     0.034 A 
ATOM     51  C   UNL A   1      41.647  29.796  29.425  1.00  0.00     0.049 A 
ATOM     52  C   UNL A   1      46.621  28.849  27.010  1.00  0.00     0.074 A 
ATOM     53  C   UNL A   1      41.469  31.042  30.003  1.00  0.00     0.029 A 
ATOM     54  N   UNL A   1      42.919  29.802  28.864  1.00  0.00    -0.354 N 
ATOM     55  N   UNL A   1      45.507  29.221  27.598  1.00  0.00    -0.248 NA
ATOM     56  C   UNL A   1      47.631  29.909  26.906  1.00  0.00     0.031 C 
ATOM     57  C   UNL A   1      42.598  31.822  29.725  1.00  0.00     0.029 A 
ATOM     58  C   UNL A   1      43.518  31.042  29.045  1.00  0.00     0.049 A 
ATOM     59  H   UNL A   1      43.336  29.037  28.404  1.00  0.00     0.167 HD
ATOM     60  C   UNL A   1      45.698  30.550  27.965  1.00  0.00     0.074 A 
ATOM     61  C   UNL A   1      47.037  30.908  27.542  1.00  0.00     0.031 C 
ATOM     62  C   UNL A   1      44.847  31.396  28.601  1.00  0.00     0.034 A 
BRANCH  49  63
ATOM     63  C   UNL A   1      39.317  28.881  29.898  1.00  0.00     0.023 A 
ATOM     64  C   UNL A   1      38.298  29.439  29.107  1.00  0.00     0.031 A 
ATOM     65  C   UNL A   1      39.004  28.543  31.227  1.00  0.00     0.131 A 
ATOM     66  C   UNL A   1      37.048  29.732  29.675  1.00  0.00     0.055 A 
ATOM     67  C   UNL A   1      37.728  28.752  31.760  1.00  0.00     0.041 A 
ATOM     68  F   UNL A   1      39.936  28.024  32.040  1.00  0.00    -0.206 F 
ATOM     69  C   UNL A   1      36.748  29.368  30.989  1.00  0.00     0.022 A 
BRANCH  66  70
ATOM     70  S   UNL A   1      35.887  30.756  28.729  1.00  0.00     0.124 S 
ATOM     71  O   UNL A   1      36.797  31.579  27.936  1.00  0.00    -0.237 OA
ATOM     72  O   UNL A   1      35.117  29.760  27.993  1.00  0.00    -0.237 OA
ATOM     73  O   UNL A   1      35.148  31.479  29.762  1.00  0.00    -0.744 OA
ENDBRANCH  66  70
ENDBRANCH  49  63
BRANCH  50  74
ATOM     74  C   UNL A   1      48.332  27.282  25.828  1.00  0.00     0.023 A 
ATOM     75  C   UNL A   1      48.520  27.454  24.447  1.00  0.00     0.031 A 
ATOM     76  C   UNL A   1      49.433  26.865  26.597  1.00  0.00     0.131 A 
ATOM     77  C   UNL A   1      49.767  27.172  23.870  1.00  0.00     0.055 A 
ATOM     78  C   UNL A   1      50.686  26.635  26.026  1.00  0.00     0.041 A 
ATOM     79  F   UNL A   1      49.308  26.690  27.922  1.00  0.00    -0.206 F 
ATOM     80  C   UNL A   1      50.855  26.778  24.652  1.00  0.00     0.022 A 
BRANCH  77  81
ATOM     81  S   UNL A   1      49.929  27.259  22.065  1.00  0.00     0.124 S 
ATOM     82  O   UNL A   1      51.272  26.731  21.862  1.00  0.00    -0.237 OA
ATOM     83  O   UNL A   1      48.830  26.407  21.623  1.00  0.00    -0.237 OA
ATOM     84  O   UNL A   1      49.766  28.682  21.778  1.00  0.00    -0.744 OA
ENDBRANCH  77  81
ENDBRANCH  50  74
BRANCH  62  85
ATOM     85  C   UNL A   1      45.364  32.781  28.912  1.00  0.00     0.023 A 
ATOM     86  C   UNL A   1      45.178  33.859  28.027  1.00  0.00     0.031 A 
ATOM     87  C   UNL A   1      46.077  33.019  30.100  1.00  0.00     0.131 A 
ATOM     88  C   UNL A   1      45.751  35.107  28.314  1.00  0.00     0.055 A 
ATOM     89  C   UNL A   1      46.588  34.281  30.412  1.00  0.00     0.041 A 
ATOM     90  F   UNL A   1      46.289  32.028  30.981  1.00  0.00    -0.206 F 
ATOM     91  C   UNL A   1      46.440  35.329  29.509  1.00  0.00     0.022 A 
BRANCH  88  92
ATOM     92  S   UNL A   1      45.677  36.411  27.055  1.00  0.00     0.124 S 
ATOM     93  O   UNL A   1      46.138  35.708  25.862  1.00  0.00    -0.237 OA
ATOM     94  O   UNL A   1      44.265  36.780  27.071  1.00  0.00    -0.237 OA
ATOM     95  O   UNL A   1      46.589  37.433  27.564  1.00  0.00    -0.744 OA
ENDBRANCH  88  92
ENDBRANCH  62  85
ENDBRANCH  36  37
ENDBRANCH  28  31
ENDBRANCH  26  27
ENDBRANCH  25  26
ENDBRANCH   1  25
TORSDOF 18
ENDMDL
MODEL 2
REMARK VINA RESULT:     -11.6      1.290      7.530
REMARK SMILES COc1c(C(=O)NCCCCCCNC(=O)c2ccc(-c3c4nc(c(-c5cc(S(=O)(=O)[O-])ccc5F)c5ccc([nH]5)c(-c5cc(S(=O)(=O)[O-])ccc5F)c5nc(c(-c6cc(S(=O)(=O)[O-])ccc6F)c6ccc3[nH]6)C=C5)C=C4)cc2)cccc1-c1cc(C)ccc1C
REMARK SMILES IDX 11 1 10 2 9 3 8 4 7 5 5 6 6 7 4 9 3 10 83 11 80 12 82 13
REMARK SMILES IDX 81 14 2 15 1 16 84 17 85 18 90 19 86 20 89 21 91 22 87 23
REMARK SMILES IDX 88 24 12 25 13 26 14 27 15 28 16 30 17 31 18 32 79 33 19 34
REMARK SMILES IDX 78 35 20 36 21 37 22 38 72 39 23 40 77 41 71 42 73 43 24 44
REMARK SMILES IDX 76 45 70 46 69 47 25 49 57 50 37 51 56 52 38 53 41 54 55 55
REMARK SMILES IDX 74 56 39 57 40 58 54 60 75 61 42 62 26 63 27 64 35 65 28 66
REMARK SMILES IDX 34 67 36 68 33 69 29 70 30 71 31 72 32 73 58 74 59 75 67 76
REMARK SMILES IDX 60 77 66 78 68 79 65 80 61 81 62 82 63 83 64 84 43 85 44 86
REMARK SMILES IDX 52 87 45 88 51 89 53 90 50 91 46 92 47 93 48 94 49 95
REMARK H PARENT 7 8 14 29 73 48 41 59
REMARK Flexibility Score: inf
ROOT
ATOM      1  C   UNL A   1      35.695  20.989  24.906  1.00  0.00     0.002 C 
ENDROOT
BRANCH   1   2
ATOM      2  C   UNL A   1      34.459  20.088  24.850  1.00  0.00     0.002 C 
BRANCH   2   3
ATOM      3  C   UNL A   1      33.201  20.625  24.175  1.00  0.00     0.021 C 
BRANCH   3   4
ATOM      4  C   UNL A   1      32.086  21.143  25.066  1.00  0.00     0.116 C 
BRANCH   4   5
ATOM      5  N   UNL A   1      32.373  21.366  26.450  1.00  0.00    -0.352 N 
ATOM      6  C   UNL A   1      32.743  22.545  27.060  1.00  0.00     0.255 C 
ATOM      7  O   UNL A   1      32.853  22.509  28.292  1.00  0.00    -0.269 OA
ATOM      8  H   UNL A   1      32.297  20.581  27.039  1.00  0.00     0.163 HD
BRANCH   6   9
ATOM      9  C   UNL A   1      33.107  23.830  26.353  1.00  0.00     0.082 A 
ATOM     10  C   UNL A   1      32.400  25.057  26.300  1.00  0.00     0.139 A 
ATOM     11  C   UNL A   1      32.988  26.205  25.683  1.00  0.00     0.025 A 
ATOM     12  C   UNL A   1      34.375  23.771  25.730  1.00  0.00     0.018 A 
ATOM     13  C   UNL A   1      34.254  26.083  25.083  1.00  0.00     0.012 A 
ATOM     14  C   UNL A   1      34.940  24.876  25.096  1.00  0.00     0.002 A 
BRANCH  10  15
ATOM     15  O   UNL A   1      31.191  25.180  26.950  1.00  0.00    -0.495 OA
ATOM     16  C   UNL A   1      30.067  24.662  26.214  1.00  0.00     0.278 C 
ENDBRANCH  10  15
BRANCH  11  17
ATOM     17  C   UNL A   1      32.317  27.527  25.624  1.00  0.00    -0.011 A 
ATOM     18  C   UNL A   1      32.743  28.527  26.528  1.00  0.00     0.012 A 
ATOM     19  C   UNL A   1      31.360  27.873  24.642  1.00  0.00    -0.043 A 
ATOM     20  C   UNL A   1      32.309  29.853  26.424  1.00  0.00    -0.050 A 
ATOM     21  C   UNL A   1      30.941  29.212  24.535  1.00  0.00     0.004 A 
ATOM     22  C   UNL A   1      30.854  26.902  23.609  1.00  0.00     0.045 C 
ATOM     23  C   UNL A   1      32.847  30.893  27.361  1.00  0.00     0.044 C 
ATOM     24  C   UNL A   1      31.419  30.192  25.407  1.00  0.00     0.004 A 
ENDBRANCH  11  17
ENDBRANCH   6   9
ENDBRANCH   4   5
ENDBRANCH   3   4
ENDBRANCH   2   3
ENDBRANCH   1   2
BRANCH   1  25
ATOM     25  C   UNL A   1      37.077  20.346  24.762  1.00  0.00     0.021 C 
BRANCH  25  26
ATOM     26  C   UNL A   1      38.270  21.108  25.330  1.00  0.00     0.116 C 
BRANCH  26  27
ATOM     27  N   UNL A   1      39.205  20.261  26.047  1.00  0.00    -0.352 N 
ATOM     28  C   UNL A   1      40.308  20.588  26.798  1.00  0.00     0.251 C 
ATOM     29  H   UNL A   1      39.018  19.297  25.986  1.00  0.00     0.163 HD
ATOM     30  O   UNL A   1      41.027  19.687  27.221  1.00  0.00    -0.269 OA
BRANCH  28  31
ATOM     31  C   UNL A   1      40.658  22.003  27.074  1.00  0.00     0.039 A 
ATOM     32  C   UNL A   1      41.581  22.273  28.089  1.00  0.00     0.014 A 
ATOM     33  C   UNL A   1      40.066  23.061  26.380  1.00  0.00     0.014 A 
ATOM     34  C   UNL A   1      41.956  23.591  28.364  1.00  0.00     0.010 A 
ATOM     35  C   UNL A   1      40.491  24.372  26.608  1.00  0.00     0.010 A 
ATOM     36  C   UNL A   1      41.440  24.652  27.603  1.00  0.00    -0.014 A 
BRANCH  36  37
ATOM     37  C   UNL A   1      41.885  26.053  27.840  1.00  0.00     0.031 A 
ATOM     38  C   UNL A   1      43.213  26.530  27.320  1.00  0.00     0.074 A 
ATOM     39  C   UNL A   1      41.111  26.880  28.570  1.00  0.00     0.049 A 
ATOM     40  N   UNL A   1      43.788  27.698  27.459  1.00  0.00    -0.248 NA
ATOM     41  C   UNL A   1      44.013  25.554  26.567  1.00  0.00     0.031 C 
ATOM     42  C   UNL A   1      39.817  26.527  29.157  1.00  0.00     0.029 A 
ATOM     43  N   UNL A   1      41.297  28.188  28.943  1.00  0.00    -0.354 N 
ATOM     44  C   UNL A   1      45.024  27.593  26.827  1.00  0.00     0.074 A 
ATOM     45  C   UNL A   1      45.134  26.227  26.359  1.00  0.00     0.031 C 
ATOM     46  C   UNL A   1      39.310  27.601  29.782  1.00  0.00     0.029 A 
ATOM     47  C   UNL A   1      40.260  28.706  29.684  1.00  0.00     0.049 A 
ATOM     48  H   UNL A   1      42.099  28.708  28.703  1.00  0.00     0.167 HD
ATOM     49  C   UNL A   1      45.967  28.551  26.637  1.00  0.00     0.034 A 
ATOM     50  C   UNL A   1      40.093  29.928  30.227  1.00  0.00     0.034 A 
ATOM     51  C   UNL A   1      45.833  29.912  27.102  1.00  0.00     0.049 A 
ATOM     52  C   UNL A   1      41.170  30.965  30.035  1.00  0.00     0.074 A 
ATOM     53  C   UNL A   1      46.691  30.981  26.903  1.00  0.00     0.029 A 
ATOM     54  N   UNL A   1      44.781  30.392  27.874  1.00  0.00    -0.354 N 
ATOM     55  N   UNL A   1      42.305  30.869  29.382  1.00  0.00    -0.248 NA
ATOM     56  C   UNL A   1      40.936  32.278  30.649  1.00  0.00     0.031 C 
ATOM     57  C   UNL A   1      46.200  32.080  27.618  1.00  0.00     0.029 A 
ATOM     58  C   UNL A   1      44.992  31.726  28.196  1.00  0.00     0.049 A 
ATOM     59  H   UNL A   1      43.999  29.862  28.153  1.00  0.00     0.167 HD
ATOM     60  C   UNL A   1      42.905  32.121  29.479  1.00  0.00     0.074 A 
ATOM     61  C   UNL A   1      41.999  32.956  30.241  1.00  0.00     0.031 C 
ATOM     62  C   UNL A   1      44.093  32.546  28.975  1.00  0.00     0.034 A 
BRANCH  49  63
ATOM     63  C   UNL A   1      47.241  28.141  25.931  1.00  0.00     0.023 A 
ATOM     64  C   UNL A   1      47.392  28.268  24.538  1.00  0.00     0.031 A 
ATOM     65  C   UNL A   1      48.304  27.573  26.655  1.00  0.00     0.131 A 
ATOM     66  C   UNL A   1      48.530  27.747  23.905  1.00  0.00     0.055 A 
ATOM     67  C   UNL A   1      49.476  27.141  26.028  1.00  0.00     0.041 A 
ATOM     68  F   UNL A   1      48.217  27.407  27.984  1.00  0.00    -0.206 F 
ATOM     69  C   UNL A   1      49.586  27.207  24.643  1.00  0.00     0.022 A 
BRANCH  66  70
ATOM     70  S   UNL A   1      48.531  27.620  22.095  1.00  0.00     0.124 S 
ATOM     71  O   UNL A   1      48.718  26.183  21.900  1.00  0.00    -0.237 OA
ATOM     72  O   UNL A   1      47.218  28.148  21.742  1.00  0.00    -0.237 OA
ATOM     73  O   UNL A   1      49.666  28.446  21.693  1.00  0.00    -0.744 OA
ENDBRANCH  66  70
ENDBRANCH  49  63
BRANCH  50  74
ATOM     74  C   UNL A   1      38.858  30.249  30.998  1.00  0.00     0.023 A 
ATOM     75  C   UNL A   1      37.872  31.090  30.455  1.00  0.00     0.031 A 
ATOM     76  C   UNL A   1      38.657  29.750  32.297  1.00  0.00     0.131 A 
ATOM     77  C   UNL A   1      36.752  31.440  31.223  1.00  0.00     0.055 A 
ATOM     78  C   UNL A   1      37.515  30.060  33.037  1.00  0.00     0.041 A 
ATOM     79  F   UNL A   1      39.566  28.938  32.860  1.00  0.00    -0.206 F 
ATOM     80  C   UNL A   1      36.559  30.920  32.504  1.00  0.00     0.022 A 
BRANCH  77  81
ATOM     81  S   UNL A   1      35.580  32.649  30.547  1.00  0.00     0.124 S 
ATOM     82  O   UNL A   1      36.249  33.909  30.845  1.00  0.00    -0.237 OA
ATOM     83  O   UNL A   1      35.529  32.266  29.140  1.00  0.00    -0.237 OA
ATOM     84  O   UNL A   1      34.356  32.395  31.304  1.00  0.00    -0.744 OA
ENDBRANCH  77  81
ENDBRANCH  50  74
BRANCH  62  85
ATOM     85  C   UNL A   1      44.454  33.995  29.203  1.00  0.00     0.023 A 
ATOM     86  C   UNL A   1      43.997  35.017  28.352  1.00  0.00     0.031 A 
ATOM     87  C   UNL A   1      45.289  34.355  30.276  1.00  0.00     0.131 A 
ATOM     88  C   UNL A   1      44.428  36.338  28.549  1.00  0.00     0.055 A 
ATOM     89  C   UNL A   1      45.662  35.681  30.506  1.00  0.00     0.041 A 
ATOM     90  F   UNL A   1      45.760  33.422  31.120  1.00  0.00    -0.206 F 
ATOM     91  C   UNL A   1      45.243  36.678  29.631  1.00  0.00     0.022 A 
BRANCH  88  92
ATOM     92  S   UNL A   1      43.996  37.590  27.310  1.00  0.00     0.124 S 
ATOM     93  O   UNL A   1      45.271  37.799  26.631  1.00  0.00    -0.237 OA
ATOM     94  O   UNL A   1      42.963  36.914  26.530  1.00  0.00    -0.237 OA
ATOM     95  O   UNL A   1      43.527  38.719  28.111  1.00  0.00    -0.744 OA
ENDBRANCH  88  92
ENDBRANCH  62  85
ENDBRANCH  36  37
ENDBRANCH  28  31
ENDBRANCH  26  27
ENDBRANCH  25  26
ENDBRANCH   1  25
TORSDOF 18
ENDMDL
MODEL 3
REMARK VINA RESULT:     -11.6      2.245      3.424
REMARK SMILES COc1c(C(=O)NCCCCCCNC(=O)c2ccc(-c3c4nc(c(-c5cc(S(=O)(=O)[O-])ccc5F)c5ccc([nH]5)c(-c5cc(S(=O)(=O)[O-])ccc5F)c5nc(c(-c6cc(S(=O)(=O)[O-])ccc6F)c6ccc3[nH]6)C=C5)C=C4)cc2)cccc1-c1cc(C)ccc1C
REMARK SMILES IDX 11 1 10 2 9 3 8 4 7 5 5 6 6 7 4 9 3 10 83 11 80 12 82 13
REMARK SMILES IDX 81 14 2 15 1 16 84 17 85 18 90 19 86 20 89 21 91 22 87 23
REMARK SMILES IDX 88 24 12 25 13 26 14 27 15 28 16 30 17 31 18 32 79 33 19 34
REMARK SMILES IDX 78 35 20 36 21 37 22 38 72 39 23 40 77 41 71 42 73 43 24 44
REMARK SMILES IDX 76 45 70 46 69 47 25 49 57 50 37 51 56 52 38 53 41 54 55 55
REMARK SMILES IDX 74 56 39 57 40 58 54 60 75 61 42 62 26 63 27 64 35 65 28 66
REMARK SMILES IDX 34 67 36 68 33 69 29 70 30 71 31 72 32 73 58 74 59 75 67 76
REMARK SMILES IDX 60 77 66 78 68 79 65 80 61 81 62 82 63 83 64 84 43 85 44 86
REMARK SMILES IDX 52 87 45 88 51 89 53 90 50 91 46 92 47 93 48 94 49 95
REMARK H PARENT 7 8 14 29 73 48 41 59
REMARK Flexibility Score: inf
ROOT
ATOM      1  C   UNL A   1      34.803  24.390  23.989  1.00  0.00     0.002 C 
ENDROOT
BRANCH   1   2
ATOM      2  C   UNL A   1      33.340  24.022  23.734  1.00  0.00     0.002 C 
BRANCH   2   3
ATOM      3  C   UNL A   1      32.762  24.273  22.344  1.00  0.00     0.021 C 
BRANCH   3   4
ATOM      4  C   UNL A   1      32.941  25.655  21.742  1.00  0.00     0.116 C 
BRANCH   4   5
ATOM      5  N   UNL A   1      31.774  26.455  21.525  1.00  0.00    -0.352 N 
ATOM      6  C   UNL A   1      31.147  27.301  22.414  1.00  0.00     0.255 C 
ATOM      7  O   UNL A   1      30.200  27.957  21.966  1.00  0.00    -0.269 OA
ATOM      8  H   UNL A   1      31.370  26.395  20.629  1.00  0.00     0.163 HD
BRANCH   6   9
ATOM      9  C   UNL A   1      31.458  27.421  23.888  1.00  0.00     0.082 A 
ATOM     10  C   UNL A   1      32.306  28.340  24.554  1.00  0.00     0.139 A 
ATOM     11  C   UNL A   1      32.358  28.373  25.983  1.00  0.00     0.025 A 
ATOM     12  C   UNL A   1      30.721  26.510  24.679  1.00  0.00     0.018 A 
ATOM     13  C   UNL A   1      31.597  27.441  26.714  1.00  0.00     0.012 A 
ATOM     14  C   UNL A   1      30.792  26.511  26.070  1.00  0.00     0.002 A 
BRANCH  10  15
ATOM     15  O   UNL A   1      32.993  29.289  23.830  1.00  0.00    -0.495 OA
ATOM     16  C   UNL A   1      34.178  28.794  23.177  1.00  0.00     0.278 C 
ENDBRANCH  10  15
BRANCH  11  17
ATOM     17  C   UNL A   1      33.196  29.331  26.743  1.00  0.00    -0.011 A 
ATOM     18  C   UNL A   1      34.487  28.913  27.139  1.00  0.00     0.012 A 
ATOM     19  C   UNL A   1      32.819  30.671  26.992  1.00  0.00    -0.043 A 
ATOM     20  C   UNL A   1      35.419  29.801  27.688  1.00  0.00    -0.050 A 
ATOM     21  C   UNL A   1      33.767  31.562  27.529  1.00  0.00     0.004 A 
ATOM     22  C   UNL A   1      31.484  31.238  26.589  1.00  0.00     0.045 C 
ATOM     23  C   UNL A   1      36.800  29.326  28.022  1.00  0.00     0.044 C 
ATOM     24  C   UNL A   1      35.054  31.135  27.862  1.00  0.00     0.004 A 
ENDBRANCH  11  17
ENDBRANCH   6   9
ENDBRANCH   4   5
ENDBRANCH   3   4
ENDBRANCH   2   3
ENDBRANCH   1   2
BRANCH   1  25
ATOM     25  C   UNL A   1      35.831  23.262  24.108  1.00  0.00     0.021 C 
BRANCH  25  26
ATOM     26  C   UNL A   1      36.305  22.887  25.509  1.00  0.00     0.116 C 
BRANCH  26  27
ATOM     27  N   UNL A   1      37.184  21.733  25.529  1.00  0.00    -0.352 N 
ATOM     28  C   UNL A   1      38.509  21.627  25.878  1.00  0.00     0.251 C 
ATOM     29  H   UNL A   1      36.763  20.889  25.248  1.00  0.00     0.163 HD
ATOM     30  O   UNL A   1      39.086  20.558  25.704  1.00  0.00    -0.269 OA
BRANCH  28  31
ATOM     31  C   UNL A   1      39.253  22.787  26.426  1.00  0.00     0.039 A 
ATOM     32  C   UNL A   1      40.243  22.548  27.385  1.00  0.00     0.014 A 
ATOM     33  C   UNL A   1      38.968  24.100  26.041  1.00  0.00     0.014 A 
ATOM     34  C   UNL A   1      40.984  23.612  27.909  1.00  0.00     0.010 A 
ATOM     35  C   UNL A   1      39.755  25.154  26.512  1.00  0.00     0.010 A 
ATOM     36  C   UNL A   1      40.770  24.922  27.452  1.00  0.00    -0.014 A 
BRANCH  36  37
ATOM     37  C   UNL A   1      41.601  26.053  27.951  1.00  0.00     0.031 A 
ATOM     38  C   UNL A   1      41.023  27.063  28.904  1.00  0.00     0.074 A 
ATOM     39  C   UNL A   1      42.864  26.195  27.503  1.00  0.00     0.049 A 
ATOM     40  N   UNL A   1      41.577  28.133  29.416  1.00  0.00    -0.248 NA
ATOM     41  C   UNL A   1      39.627  26.856  29.313  1.00  0.00     0.031 C 
ATOM     42  C   UNL A   1      43.530  25.301  26.553  1.00  0.00     0.029 A 
ATOM     43  N   UNL A   1      43.816  27.143  27.786  1.00  0.00    -0.354 N 
ATOM     44  C   UNL A   1      40.593  28.737  30.193  1.00  0.00     0.074 A 
ATOM     45  C   UNL A   1      39.393  27.942  30.033  1.00  0.00     0.031 C 
ATOM     46  C   UNL A   1      44.790  25.722  26.363  1.00  0.00     0.029 A 
ATOM     47  C   UNL A   1      45.012  26.940  27.136  1.00  0.00     0.049 A 
ATOM     48  H   UNL A   1      43.658  27.900  28.398  1.00  0.00     0.167 HD
ATOM     49  C   UNL A   1      40.688  29.838  30.982  1.00  0.00     0.034 A 
ATOM     50  C   UNL A   1      46.154  27.653  27.157  1.00  0.00     0.034 A 
ATOM     51  C   UNL A   1      41.898  30.611  31.138  1.00  0.00     0.049 A 
ATOM     52  C   UNL A   1      46.226  28.893  28.011  1.00  0.00     0.074 A 
ATOM     53  C   UNL A   1      42.127  31.699  31.964  1.00  0.00     0.029 A 
ATOM     54  N   UNL A   1      43.081  30.392  30.442  1.00  0.00    -0.354 N 
ATOM     55  N   UNL A   1      45.306  29.417  28.788  1.00  0.00    -0.248 NA
ATOM     56  C   UNL A   1      47.494  29.632  27.994  1.00  0.00     0.031 C 
ATOM     57  C   UNL A   1      43.416  32.182  31.709  1.00  0.00     0.029 A 
ATOM     58  C   UNL A   1      44.025  31.349  30.786  1.00  0.00     0.049 A 
ATOM     59  H   UNL A   1      43.228  29.662  29.796  1.00  0.00     0.167 HD
ATOM     60  C   UNL A   1      45.899  30.529  29.379  1.00  0.00     0.074 A 
ATOM     61  C   UNL A   1      47.257  30.591  28.878  1.00  0.00     0.031 C 
ATOM     62  C   UNL A   1      45.371  31.415  30.264  1.00  0.00     0.034 A 
BRANCH  49  63
ATOM     63  C   UNL A   1      39.434  30.288  31.700  1.00  0.00     0.023 A 
ATOM     64  C   UNL A   1      38.541  31.210  31.128  1.00  0.00     0.031 A 
ATOM     65  C   UNL A   1      39.151  29.821  32.996  1.00  0.00     0.131 A 
ATOM     66  C   UNL A   1      37.467  31.709  31.881  1.00  0.00     0.055 A 
ATOM     67  C   UNL A   1      38.026  30.251  33.706  1.00  0.00     0.041 A 
ATOM     68  F   UNL A   1      39.973  28.953  33.606  1.00  0.00    -0.206 F 
ATOM     69  C   UNL A   1      37.188  31.216  33.157  1.00  0.00     0.022 A 
BRANCH  66  70
ATOM     70  S   UNL A   1      36.550  33.138  31.240  1.00  0.00     0.124 S 
ATOM     71  O   UNL A   1      37.006  34.204  32.130  1.00  0.00    -0.237 OA
ATOM     72  O   UNL A   1      37.013  33.215  29.859  1.00  0.00    -0.237 OA
ATOM     73  O   UNL A   1      35.151  32.753  31.410  1.00  0.00    -0.744 OA
ENDBRANCH  66  70
ENDBRANCH  49  63
BRANCH  50  74
ATOM     74  C   UNL A   1      47.331  27.217  26.352  1.00  0.00     0.023 A 
ATOM     75  C   UNL A   1      47.465  27.605  25.009  1.00  0.00     0.031 A 
ATOM     76  C   UNL A   1      48.321  26.382  26.899  1.00  0.00     0.131 A 
ATOM     77  C   UNL A   1      48.539  27.125  24.246  1.00  0.00     0.055 A 
ATOM     78  C   UNL A   1      49.417  25.949  26.150  1.00  0.00     0.041 A 
ATOM     79  F   UNL A   1      48.244  25.986  28.180  1.00  0.00    -0.206 F 
ATOM     80  C   UNL A   1      49.524  26.312  24.811  1.00  0.00     0.022 A 
BRANCH  77  81
ATOM     81  S   UNL A   1      48.594  27.523  22.477  1.00  0.00     0.124 S 
ATOM     82  O   UNL A   1      49.833  28.285  22.382  1.00  0.00    -0.237 OA
ATOM     83  O   UNL A   1      48.607  26.197  21.869  1.00  0.00    -0.237 OA
ATOM     84  O   UNL A   1      47.369  28.291  22.264  1.00  0.00    -0.744 OA
ENDBRANCH  77  81
ENDBRANCH  50  74
BRANCH  62  85
ATOM     85  C   UNL A   1      46.289  32.501  30.773  1.00  0.00     0.023 A 
ATOM     86  C   UNL A   1      46.395  33.747  30.127  1.00  0.00     0.031 A 
ATOM     87  C   UNL A   1      47.089  32.278  31.908  1.00  0.00     0.131 A 
ATOM     88  C   UNL A   1      47.323  34.695  30.582  1.00  0.00     0.055 A 
ATOM     89  C   UNL A   1      47.964  33.251  32.396  1.00  0.00     0.041 A 
ATOM     90  F   UNL A   1      47.034  31.107  32.564  1.00  0.00    -0.206 F 
ATOM     91  C   UNL A   1      48.096  34.461  31.723  1.00  0.00     0.022 A 
BRANCH  88  92
ATOM     92  S   UNL A   1      47.586  36.198  29.601  1.00  0.00     0.124 S 
ATOM     93  O   UNL A   1      48.571  35.752  28.621  1.00  0.00    -0.237 OA
ATOM     94  O   UNL A   1      46.249  36.470  29.082  1.00  0.00    -0.237 OA
ATOM     95  O   UNL A   1      48.079  37.166  30.579  1.00  0.00    -0.744 OA
ENDBRANCH  88  92
ENDBRANCH  62  85
ENDBRANCH  36  37
ENDBRANCH  28  31
ENDBRANCH  26  27
ENDBRANCH  25  26
ENDBRANCH   1  25
TORSDOF 18
ENDMDL
