MODEL 1
REMARK VINA RESULT:     -11.3      0.000      0.000
REMARK SMILES O=C(NCCCCCCNC(=O)c1cc(-c2ccn(C(F)F)c(=O)c2)ccc1O)c1ccc(-c2c3nc(c(-c4cc(S(=O)(=O)[O-])ccc4F)c4ccc([nH]4)c(-c4cc(S(=O)(=O)[O-])ccc4F)c4nc(c(-c5cc(S(=O)(=O)[O-])ccc5F)c5ccc2[nH]5)C=C4)C=C3)cc1
REMARK SMILES IDX 6 1 5 2 4 3 3 4 1 5 2 6 30 8 31 9 92 10 32 11 91 12 33 13
REMARK SMILES IDX 34 14 35 15 85 16 36 17 90 18 84 19 86 20 37 21 89 22 83 23
REMARK SMILES IDX 82 24 38 26 70 27 50 28 69 29 51 30 54 31 68 32 87 33 52 34
REMARK SMILES IDX 53 35 67 37 88 38 55 39 39 40 40 41 48 42 41 43 47 44 49 45
REMARK SMILES IDX 46 46 42 47 43 48 44 49 45 50 71 51 72 52 80 53 73 54 79 55
REMARK SMILES IDX 81 56 78 57 74 58 75 59 76 60 77 61 56 62 57 63 65 64 58 65
REMARK SMILES IDX 64 66 66 67 63 68 59 69 60 70 61 71 62 72 7 73 8 74 9 75
REMARK SMILES IDX 10 76 11 77 12 79 13 80 14 81 28 82 15 83 27 84 26 85 29 86
REMARK SMILES IDX 16 88 17 89 25 90 18 91 23 92 19 93 24 94 20 95 21 96 22 97
REMARK H PARENT 3 7 86 25 54 36 10 78 29 87
REMARK Flexibility Score: inf
ROOT
ATOM      1  C   UNL A   1      35.006  24.039  24.376  1.00  0.00     0.002 C 
ENDROOT
BRANCH   1   2
ATOM      2  C   UNL A   1      35.676  22.665  24.456  1.00  0.00     0.021 C 
BRANCH   2   3
ATOM      3  C   UNL A   1      36.170  22.260  25.841  1.00  0.00     0.116 C 
BRANCH   3   4
ATOM      4  N   UNL A   1      37.134  21.176  25.788  1.00  0.00    -0.352 N 
ATOM      5  O   UNL A   1      39.158  20.205  25.685  1.00  0.00    -0.269 OA
ATOM      6  C   UNL A   1      38.496  21.210  25.947  1.00  0.00     0.251 C 
ATOM      7  H   UNL A   1      36.755  20.285  25.611  1.00  0.00     0.163 HD
BRANCH   6   8
ATOM      8  C   UNL A   1      39.174  22.435  26.425  1.00  0.00     0.039 A 
ATOM      9  C   UNL A   1      38.806  23.666  25.872  1.00  0.00     0.014 A 
ATOM     10  C   UNL A   1      40.211  22.376  27.361  1.00  0.00     0.014 A 
ATOM     11  C   UNL A   1      39.467  24.833  26.264  1.00  0.00     0.010 A 
ATOM     12  C   UNL A   1      40.819  23.549  27.806  1.00  0.00     0.010 A 
ATOM     13  C   UNL A   1      40.478  24.785  27.238  1.00  0.00    -0.014 A 
BRANCH  13  14
ATOM     14  C   UNL A   1      41.242  26.001  27.615  1.00  0.00     0.031 A 
ATOM     15  C   UNL A   1      40.567  27.087  28.411  1.00  0.00     0.074 A 
ATOM     16  C   UNL A   1      42.522  26.147  27.223  1.00  0.00     0.049 A 
ATOM     17  N   UNL A   1      41.036  28.246  28.792  1.00  0.00    -0.248 NA
ATOM     18  C   UNL A   1      39.171  26.846  28.812  1.00  0.00     0.031 C 
ATOM     19  C   UNL A   1      43.274  25.171  26.434  1.00  0.00     0.029 A 
ATOM     20  N   UNL A   1      43.417  27.168  27.430  1.00  0.00    -0.354 N 
ATOM     21  C   UNL A   1      39.995  28.873  29.466  1.00  0.00     0.074 A 
ATOM     22  C   UNL A   1      38.849  27.997  29.383  1.00  0.00     0.031 C 
ATOM     23  C   UNL A   1      44.522  25.627  26.249  1.00  0.00     0.029 A 
ATOM     24  C   UNL A   1      44.651  26.947  26.863  1.00  0.00     0.049 A 
ATOM     25  H   UNL A   1      43.196  27.982  27.938  1.00  0.00     0.167 HD
ATOM     26  C   UNL A   1      40.002  30.056  30.125  1.00  0.00     0.034 A 
ATOM     27  C   UNL A   1      45.759  27.718  26.840  1.00  0.00     0.034 A 
ATOM     28  C   UNL A   1      41.162  30.904  30.226  1.00  0.00     0.049 A 
ATOM     29  C   UNL A   1      45.739  29.044  27.563  1.00  0.00     0.074 A 
ATOM     30  C   UNL A   1      41.285  32.102  30.905  1.00  0.00     0.029 A 
ATOM     31  N   UNL A   1      42.394  30.643  29.645  1.00  0.00    -0.354 N 
ATOM     32  N   UNL A   1      44.767  29.592  28.253  1.00  0.00    -0.248 NA
ATOM     33  C   UNL A   1      46.965  29.853  27.517  1.00  0.00     0.031 C 
ATOM     34  C   UNL A   1      42.571  32.595  30.687  1.00  0.00     0.029 A 
ATOM     35  C   UNL A   1      43.277  31.669  29.933  1.00  0.00     0.049 A 
ATOM     36  H   UNL A   1      42.610  29.845  29.109  1.00  0.00     0.167 HD
ATOM     37  C   UNL A   1      45.272  30.793  28.746  1.00  0.00     0.074 A 
ATOM     38  C   UNL A   1      46.645  30.881  28.293  1.00  0.00     0.031 C 
ATOM     39  C   UNL A   1      44.653  31.736  29.501  1.00  0.00     0.034 A 
BRANCH  26  40
ATOM     40  C   UNL A   1      38.740  30.502  30.821  1.00  0.00     0.023 A 
ATOM     41  C   UNL A   1      37.712  31.127  30.092  1.00  0.00     0.031 A 
ATOM     42  C   UNL A   1      38.607  30.420  32.220  1.00  0.00     0.131 A 
ATOM     43  C   UNL A   1      36.612  31.673  30.766  1.00  0.00     0.055 A 
ATOM     44  C   UNL A   1      37.485  30.922  32.882  1.00  0.00     0.041 A 
ATOM     45  F   UNL A   1      39.560  29.835  32.963  1.00  0.00    -0.206 F 
ATOM     46  C   UNL A   1      36.488  31.564  32.154  1.00  0.00     0.022 A 
BRANCH  43  47
ATOM     47  S   UNL A   1      35.332  32.600  29.878  1.00  0.00     0.124 S 
ATOM     48  O   UNL A   1      34.954  31.659  28.826  1.00  0.00    -0.237 OA
ATOM     49  O   UNL A   1      34.329  32.810  30.918  1.00  0.00    -0.237 OA
ATOM     50  O   UNL A   1      36.023  33.800  29.417  1.00  0.00    -0.744 OA
ENDBRANCH  43  47
ENDBRANCH  26  40
BRANCH  27  51
ATOM     51  C   UNL A   1      46.990  27.208  26.164  1.00  0.00     0.023 A 
ATOM     52  C   UNL A   1      47.945  26.451  26.865  1.00  0.00     0.031 A 
ATOM     53  C   UNL A   1      47.275  27.560  24.833  1.00  0.00     0.131 A 
ATOM     54  C   UNL A   1      49.167  26.130  26.255  1.00  0.00     0.055 A 
ATOM     55  C   UNL A   1      48.461  27.176  24.206  1.00  0.00     0.041 A 
ATOM     56  F   UNL A   1      46.400  28.293  24.126  1.00  0.00    -0.206 F 
ATOM     57  C   UNL A   1      49.423  26.473  24.924  1.00  0.00     0.022 A 
BRANCH  54  58
ATOM     58  S   UNL A   1      50.514  25.376  27.209  1.00  0.00     0.124 S 
ATOM     59  O   UNL A   1      51.429  24.944  26.158  1.00  0.00    -0.237 OA
ATOM     60  O   UNL A   1      50.971  26.501  28.021  1.00  0.00    -0.237 OA
ATOM     61  O   UNL A   1      49.855  24.305  27.952  1.00  0.00    -0.744 OA
ENDBRANCH  54  58
ENDBRANCH  27  51
BRANCH  39  62
ATOM     62  C   UNL A   1      45.431  32.963  29.919  1.00  0.00     0.023 A 
ATOM     63  C   UNL A   1      45.408  34.116  29.110  1.00  0.00     0.031 A 
ATOM     64  C   UNL A   1      46.323  32.929  31.003  1.00  0.00     0.131 A 
ATOM     65  C   UNL A   1      46.301  35.165  29.366  1.00  0.00     0.055 A 
ATOM     66  C   UNL A   1      47.174  33.999  31.285  1.00  0.00     0.041 A 
ATOM     67  F   UNL A   1      46.391  31.848  31.797  1.00  0.00    -0.206 F 
ATOM     68  C   UNL A   1      47.177  35.116  30.454  1.00  0.00     0.022 A 
BRANCH  65  69
ATOM     69  S   UNL A   1      46.431  36.580  28.238  1.00  0.00     0.124 S 
ATOM     70  O   UNL A   1      45.137  37.234  28.424  1.00  0.00    -0.237 OA
ATOM     71  O   UNL A   1      47.578  37.302  28.781  1.00  0.00    -0.237 OA
ATOM     72  O   UNL A   1      46.636  35.970  26.927  1.00  0.00    -0.744 OA
ENDBRANCH  65  69
ENDBRANCH  39  62
ENDBRANCH  13  14
ENDBRANCH   6   8
ENDBRANCH   3   4
ENDBRANCH   2   3
ENDBRANCH   1   2
BRANCH   1  73
ATOM     73  C   UNL A   1      34.315  24.364  23.049  1.00  0.00     0.002 C 
BRANCH  73  74
ATOM     74  C   UNL A   1      33.956  25.836  22.830  1.00  0.00     0.021 C 
BRANCH  74  75
ATOM     75  C   UNL A   1      33.034  26.445  23.882  1.00  0.00     0.116 C 
BRANCH  75  76
ATOM     76  N   UNL A   1      31.631  26.230  23.579  1.00  0.00    -0.352 N 
ATOM     77  C   UNL A   1      30.797  25.254  24.063  1.00  0.00     0.255 C 
ATOM     78  H   UNL A   1      31.226  26.865  22.945  1.00  0.00     0.163 HD
ATOM     79  O   UNL A   1      29.639  25.162  23.659  1.00  0.00    -0.269 OA
BRANCH  77  80
ATOM     80  C   UNL A   1      31.315  24.248  25.010  1.00  0.00     0.082 A 
ATOM     81  C   UNL A   1      31.568  22.965  24.506  1.00  0.00     0.026 A 
ATOM     82  C   UNL A   1      31.541  24.529  26.362  1.00  0.00     0.128 A 
ATOM     83  C   UNL A   1      32.098  21.975  25.339  1.00  0.00    -0.017 A 
ATOM     84  C   UNL A   1      32.073  23.550  27.197  1.00  0.00     0.047 A 
ATOM     85  C   UNL A   1      32.354  22.281  26.685  1.00  0.00     0.012 A 
BRANCH  82  86
ATOM     86  O   UNL A   1      31.248  25.763  26.870  1.00  0.00    -0.507 OA
ATOM     87  H   UNL A   1      30.902  25.843  27.737  1.00  0.00     0.293 HD
ENDBRANCH  82  86
BRANCH  83  88
ATOM     88  C   UNL A   1      32.371  20.615  24.836  1.00  0.00    -0.011 A 
ATOM     89  C   UNL A   1      32.905  19.569  25.687  1.00  0.00     0.027 A 
ATOM     90  C   UNL A   1      32.148  20.347  23.537  1.00  0.00     0.080 A 
ATOM     91  C   UNL A   1      33.204  18.367  25.186  1.00  0.00     0.095 A 
ATOM     92  C   UNL A   1      32.461  19.006  22.967  1.00  0.00     0.255 A 
ATOM     93  N   UNL A   1      32.999  18.084  23.848  1.00  0.00    -0.258 N 
ATOM     94  O   UNL A   1      32.234  18.807  21.776  1.00  0.00    -0.269 OA
BRANCH  93  95
ATOM     95  C   UNL A   1      33.354  16.796  23.312  1.00  0.00     0.451 C 
ATOM     96  F   UNL A   1      34.688  16.703  23.089  1.00  0.00    -0.185 F 
ATOM     97  F   UNL A   1      32.998  15.799  24.158  1.00  0.00    -0.185 F 
ENDBRANCH  93  95
ENDBRANCH  83  88
ENDBRANCH  77  80
ENDBRANCH  75  76
ENDBRANCH  74  75
ENDBRANCH  73  74
ENDBRANCH   1  73
TORSDOF 19
ENDMDL
MODEL 2
REMARK VINA RESULT:     -11.1      3.125      8.781
REMARK SMILES O=C(NCCCCCCNC(=O)c1cc(-c2ccn(C(F)F)c(=O)c2)ccc1O)c1ccc(-c2c3nc(c(-c4cc(S(=O)(=O)[O-])ccc4F)c4ccc([nH]4)c(-c4cc(S(=O)(=O)[O-])ccc4F)c4nc(c(-c5cc(S(=O)(=O)[O-])ccc5F)c5ccc2[nH]5)C=C4)C=C3)cc1
REMARK SMILES IDX 6 1 5 2 4 3 3 4 1 5 2 6 30 8 31 9 92 10 32 11 91 12 33 13
REMARK SMILES IDX 34 14 35 15 85 16 36 17 90 18 84 19 86 20 37 21 89 22 83 23
REMARK SMILES IDX 82 24 38 26 70 27 50 28 69 29 51 30 54 31 68 32 87 33 52 34
REMARK SMILES IDX 53 35 67 37 88 38 55 39 39 40 40 41 48 42 41 43 47 44 49 45
REMARK SMILES IDX 46 46 42 47 43 48 44 49 45 50 71 51 72 52 80 53 73 54 79 55
REMARK SMILES IDX 81 56 78 57 74 58 75 59 76 60 77 61 56 62 57 63 65 64 58 65
REMARK SMILES IDX 64 66 66 67 63 68 59 69 60 70 61 71 62 72 7 73 8 74 9 75
REMARK SMILES IDX 10 76 11 77 12 79 13 80 14 81 28 82 15 83 27 84 26 85 29 86
REMARK SMILES IDX 16 88 17 89 25 90 18 91 23 92 19 93 24 94 20 95 21 96 22 97
REMARK H PARENT 3 7 86 25 54 36 10 78 29 87
REMARK Flexibility Score: inf
ROOT
ATOM      1  C   UNL A   1      34.464  21.680  24.418  1.00  0.00     0.002 C 
ENDROOT
BRANCH   1   2
ATOM      2  C   UNL A   1      34.890  22.176  25.802  1.00  0.00     0.021 C 
BRANCH   2   3
ATOM      3  C   UNL A   1      36.327  22.675  25.903  1.00  0.00     0.116 C 
BRANCH   3   4
ATOM      4  N   UNL A   1      37.294  21.597  25.802  1.00  0.00    -0.352 N 
ATOM      5  O   UNL A   1      39.320  20.633  25.688  1.00  0.00    -0.269 OA
ATOM      6  C   UNL A   1      38.650  21.618  25.999  1.00  0.00     0.251 C 
ATOM      7  H   UNL A   1      36.920  20.720  25.556  1.00  0.00     0.163 HD
BRANCH   6   8
ATOM      8  C   UNL A   1      39.315  22.808  26.577  1.00  0.00     0.039 A 
ATOM      9  C   UNL A   1      38.964  24.074  26.095  1.00  0.00     0.014 A 
ATOM     10  C   UNL A   1      40.323  22.685  27.538  1.00  0.00     0.014 A 
ATOM     11  C   UNL A   1      39.613  25.211  26.583  1.00  0.00     0.010 A 
ATOM     12  C   UNL A   1      40.917  23.825  28.077  1.00  0.00     0.010 A 
ATOM     13  C   UNL A   1      40.594  25.096  27.582  1.00  0.00    -0.014 A 
BRANCH  13  14
ATOM     14  C   UNL A   1      41.347  26.283  28.060  1.00  0.00     0.031 A 
ATOM     15  C   UNL A   1      42.783  26.470  27.646  1.00  0.00     0.074 A 
ATOM     16  C   UNL A   1      40.760  27.173  28.884  1.00  0.00     0.049 A 
ATOM     17  N   UNL A   1      43.630  27.402  27.997  1.00  0.00    -0.248 NA
ATOM     18  C   UNL A   1      43.348  25.461  26.735  1.00  0.00     0.031 C 
ATOM     19  C   UNL A   1      39.382  27.086  29.366  1.00  0.00     0.029 A 
ATOM     20  N   UNL A   1      41.244  28.321  29.462  1.00  0.00    -0.354 N 
ATOM     21  C   UNL A   1      44.825  27.087  27.359  1.00  0.00     0.074 A 
ATOM     22  C   UNL A   1      44.614  25.842  26.656  1.00  0.00     0.031 C 
ATOM     23  C   UNL A   1      39.123  28.150  30.142  1.00  0.00     0.029 A 
ATOM     24  C   UNL A   1      40.326  28.972  30.254  1.00  0.00     0.049 A 
ATOM     25  H   UNL A   1      42.162  28.648  29.322  1.00  0.00     0.167 HD
ATOM     26  C   UNL A   1      45.982  27.789  27.332  1.00  0.00     0.034 A 
ATOM     27  C   UNL A   1      40.441  30.100  30.986  1.00  0.00     0.034 A 
ATOM     28  C   UNL A   1      46.167  29.045  28.012  1.00  0.00     0.049 A 
ATOM     29  C   UNL A   1      41.747  30.857  30.960  1.00  0.00     0.074 A 
ATOM     30  C   UNL A   1      47.286  29.856  28.014  1.00  0.00     0.029 A 
ATOM     31  N   UNL A   1      45.213  29.676  28.798  1.00  0.00    -0.354 N 
ATOM     32  N   UNL A   1      42.846  30.582  30.297  1.00  0.00    -0.248 NA
ATOM     33  C   UNL A   1      41.831  32.082  31.768  1.00  0.00     0.031 C 
ATOM     34  C   UNL A   1      47.032  30.946  28.847  1.00  0.00     0.029 A 
ATOM     35  C   UNL A   1      45.727  30.856  29.307  1.00  0.00     0.049 A 
ATOM     36  H   UNL A   1      44.304  29.335  28.966  1.00  0.00     0.167 HD
ATOM     37  C   UNL A   1      43.739  31.611  30.584  1.00  0.00     0.074 A 
ATOM     38  C   UNL A   1      43.044  32.528  31.464  1.00  0.00     0.031 C 
ATOM     39  C   UNL A   1      45.018  31.778  30.162  1.00  0.00     0.034 A 
BRANCH  26  40
ATOM     40  C   UNL A   1      47.135  27.251  26.521  1.00  0.00     0.023 A 
ATOM     41  C   UNL A   1      47.322  27.671  25.192  1.00  0.00     0.031 A 
ATOM     42  C   UNL A   1      47.971  26.235  27.020  1.00  0.00     0.131 A 
ATOM     43  C   UNL A   1      48.301  27.058  24.398  1.00  0.00     0.055 A 
ATOM     44  C   UNL A   1      48.976  25.661  26.241  1.00  0.00     0.041 A 
ATOM     45  F   UNL A   1      47.832  25.795  28.282  1.00  0.00    -0.206 F 
ATOM     46  C   UNL A   1      49.134  26.063  24.918  1.00  0.00     0.022 A 
BRANCH  43  47
ATOM     47  S   UNL A   1      48.486  27.478  22.644  1.00  0.00     0.124 S 
ATOM     48  O   UNL A   1      47.266  28.238  22.387  1.00  0.00    -0.237 OA
ATOM     49  O   UNL A   1      49.720  28.259  22.647  1.00  0.00    -0.237 OA
ATOM     50  O   UNL A   1      48.562  26.182  21.978  1.00  0.00    -0.744 OA
ENDBRANCH  43  47
ENDBRANCH  26  40
BRANCH  27  51
ATOM     51  C   UNL A   1      39.254  30.604  31.741  1.00  0.00     0.023 A 
ATOM     52  C   UNL A   1      38.444  31.630  31.224  1.00  0.00     0.031 A 
ATOM     53  C   UNL A   1      38.977  30.135  33.037  1.00  0.00     0.131 A 
ATOM     54  C   UNL A   1      37.441  32.199  32.024  1.00  0.00     0.055 A 
ATOM     55  C   UNL A   1      37.932  30.654  33.803  1.00  0.00     0.041 A 
ATOM     56  F   UNL A   1      39.730  29.165  33.580  1.00  0.00    -0.206 F 
ATOM     57  C   UNL A   1      37.169  31.705  33.303  1.00  0.00     0.022 A 
BRANCH  54  58
ATOM     58  S   UNL A   1      36.549  33.683  31.482  1.00  0.00     0.124 S 
ATOM     59  O   UNL A   1      35.163  33.228  31.491  1.00  0.00    -0.237 OA
ATOM     60  O   UNL A   1      36.906  34.643  32.523  1.00  0.00    -0.237 OA
ATOM     61  O   UNL A   1      37.111  33.963  30.163  1.00  0.00    -0.744 OA
ENDBRANCH  54  58
ENDBRANCH  27  51
BRANCH  39  62
ATOM     62  C   UNL A   1      45.784  33.000  30.614  1.00  0.00     0.023 A 
ATOM     63  C   UNL A   1      45.838  34.139  29.787  1.00  0.00     0.031 A 
ATOM     64  C   UNL A   1      46.596  32.971  31.760  1.00  0.00     0.131 A 
ATOM     65  C   UNL A   1      46.728  35.178  30.089  1.00  0.00     0.055 A 
ATOM     66  C   UNL A   1      47.442  34.033  32.085  1.00  0.00     0.041 A 
ATOM     67  F   UNL A   1      46.590  31.904  32.574  1.00  0.00    -0.206 F 
ATOM     68  C   UNL A   1      47.523  35.135  31.237  1.00  0.00     0.022 A 
BRANCH  65  69
ATOM     69  S   UNL A   1      46.962  36.571  28.950  1.00  0.00     0.124 S 
ATOM     70  O   UNL A   1      48.413  36.577  28.774  1.00  0.00    -0.237 OA
ATOM     71  O   UNL A   1      46.194  36.146  27.782  1.00  0.00    -0.237 OA
ATOM     72  O   UNL A   1      46.419  37.715  29.676  1.00  0.00    -0.744 OA
ENDBRANCH  65  69
ENDBRANCH  39  62
ENDBRANCH  13  14
ENDBRANCH   6   8
ENDBRANCH   3   4
ENDBRANCH   2   3
ENDBRANCH   1   2
BRANCH   1  73
ATOM     73  C   UNL A   1      32.979  21.347  24.260  1.00  0.00     0.002 C 
BRANCH  73  74
ATOM     74  C   UNL A   1      32.193  22.253  23.308  1.00  0.00     0.021 C 
BRANCH  74  75
ATOM     75  C   UNL A   1      31.813  23.618  23.874  1.00  0.00     0.116 C 
BRANCH  75  76
ATOM     76  N   UNL A   1      31.083  23.515  25.125  1.00  0.00    -0.352 N 
ATOM     77  C   UNL A   1      30.532  24.525  25.872  1.00  0.00     0.255 C 
ATOM     78  H   UNL A   1      30.970  22.605  25.483  1.00  0.00     0.163 HD
ATOM     79  O   UNL A   1      29.995  24.284  26.952  1.00  0.00    -0.269 OA
BRANCH  77  80
ATOM     80  C   UNL A   1      30.659  25.925  25.424  1.00  0.00     0.082 A 
ATOM     81  C   UNL A   1      31.628  26.715  26.060  1.00  0.00     0.026 A 
ATOM     82  C   UNL A   1      29.854  26.473  24.420  1.00  0.00     0.128 A 
ATOM     83  C   UNL A   1      31.829  28.039  25.657  1.00  0.00    -0.017 A 
ATOM     84  C   UNL A   1      30.052  27.790  24.010  1.00  0.00     0.047 A 
ATOM     85  C   UNL A   1      31.039  28.565  24.623  1.00  0.00     0.012 A 
BRANCH  82  86
ATOM     86  O   UNL A   1      28.874  25.723  23.832  1.00  0.00    -0.507 OA
ATOM     87  H   UNL A   1      28.191  25.352  24.354  1.00  0.00     0.293 HD
ENDBRANCH  82  86
BRANCH  83  88
ATOM     88  C   UNL A   1      32.838  28.894  26.310  1.00  0.00    -0.011 A 
ATOM     89  C   UNL A   1      34.173  28.417  26.618  1.00  0.00     0.027 A 
ATOM     90  C   UNL A   1      32.497  30.146  26.662  1.00  0.00     0.080 A 
ATOM     91  C   UNL A   1      35.042  29.195  27.270  1.00  0.00     0.095 A 
ATOM     92  C   UNL A   1      33.461  31.031  27.375  1.00  0.00     0.255 A 
ATOM     93  N   UNL A   1      34.699  30.477  27.655  1.00  0.00    -0.258 N 
ATOM     94  O   UNL A   1      33.106  32.170  27.670  1.00  0.00    -0.269 OA
BRANCH  93  95
ATOM     95  C   UNL A   1      35.632  31.295  28.385  1.00  0.00     0.451 C 
ATOM     96  F   UNL A   1      36.709  30.578  28.788  1.00  0.00    -0.185 F 
ATOM     97  F   UNL A   1      36.073  32.329  27.627  1.00  0.00    -0.185 F 
ENDBRANCH  93  95
ENDBRANCH  83  88
ENDBRANCH  77  80
ENDBRANCH  75  76
ENDBRANCH  74  75
ENDBRANCH  73  74
ENDBRANCH   1  73
TORSDOF 19
ENDMDL
MODEL 3
REMARK VINA RESULT:     -11.1      3.435      8.842
REMARK SMILES O=C(NCCCCCCNC(=O)c1cc(-c2ccn(C(F)F)c(=O)c2)ccc1O)c1ccc(-c2c3nc(c(-c4cc(S(=O)(=O)[O-])ccc4F)c4ccc([nH]4)c(-c4cc(S(=O)(=O)[O-])ccc4F)c4nc(c(-c5cc(S(=O)(=O)[O-])ccc5F)c5ccc2[nH]5)C=C4)C=C3)cc1
REMARK SMILES IDX 6 1 5 2 4 3 3 4 1 5 2 6 30 8 31 9 92 10 32 11 91 12 33 13
REMARK SMILES IDX 34 14 35 15 85 16 36 17 90 18 84 19 86 20 37 21 89 22 83 23
REMARK SMILES IDX 82 24 38 26 70 27 50 28 69 29 51 30 54 31 68 32 87 33 52 34
REMARK SMILES IDX 53 35 67 37 88 38 55 39 39 40 40 41 48 42 41 43 47 44 49 45
REMARK SMILES IDX 46 46 42 47 43 48 44 49 45 50 71 51 72 52 80 53 73 54 79 55
REMARK SMILES IDX 81 56 78 57 74 58 75 59 76 60 77 61 56 62 57 63 65 64 58 65
REMARK SMILES IDX 64 66 66 67 63 68 59 69 60 70 61 71 62 72 7 73 8 74 9 75
REMARK SMILES IDX 10 76 11 77 12 79 13 80 14 81 28 82 15 83 27 84 26 85 29 86
REMARK SMILES IDX 16 88 17 89 25 90 18 91 23 92 19 93 24 94 20 95 21 96 22 97
REMARK H PARENT 3 7 86 25 54 36 10 78 29 87
REMARK Flexibility Score: inf
ROOT
ATOM      1  C   UNL A   1      35.093  20.809  25.247  1.00  0.00     0.002 C 
ENDROOT
BRANCH   1   2
ATOM      2  C   UNL A   1      35.914  21.927  25.894  1.00  0.00     0.021 C 
BRANCH   2   3
ATOM      3  C   UNL A   1      37.281  22.180  25.268  1.00  0.00     0.116 C 
BRANCH   3   4
ATOM      4  N   UNL A   1      38.265  21.194  25.675  1.00  0.00    -0.352 N 
ATOM      5  O   UNL A   1      40.259  20.413  26.355  1.00  0.00    -0.269 OA
ATOM      6  C   UNL A   1      39.496  21.374  26.251  1.00  0.00     0.251 C 
ATOM      7  H   UNL A   1      38.011  20.256  25.513  1.00  0.00     0.163 HD
BRANCH   6   8
ATOM      8  C   UNL A   1      39.916  22.705  26.743  1.00  0.00     0.039 A 
ATOM      9  C   UNL A   1      39.399  23.846  26.120  1.00  0.00     0.014 A 
ATOM     10  C   UNL A   1      40.861  22.840  27.765  1.00  0.00     0.014 A 
ATOM     11  C   UNL A   1      39.819  25.115  26.527  1.00  0.00     0.010 A 
ATOM     12  C   UNL A   1      41.223  24.106  28.221  1.00  0.00     0.010 A 
ATOM     13  C   UNL A   1      40.733  25.256  27.585  1.00  0.00    -0.014 A 
BRANCH  13  14
ATOM     14  C   UNL A   1      41.247  26.590  27.984  1.00  0.00     0.031 A 
ATOM     15  C   UNL A   1      42.681  26.952  27.695  1.00  0.00     0.074 A 
ATOM     16  C   UNL A   1      40.447  27.462  28.626  1.00  0.00     0.049 A 
ATOM     17  N   UNL A   1      43.340  28.037  28.009  1.00  0.00    -0.248 NA
ATOM     18  C   UNL A   1      43.487  25.949  26.979  1.00  0.00     0.031 C 
ATOM     19  C   UNL A   1      39.048  27.216  28.975  1.00  0.00     0.029 A 
ATOM     20  N   UNL A   1      40.691  28.728  29.102  1.00  0.00    -0.354 N 
ATOM     21  C   UNL A   1      44.634  27.844  27.539  1.00  0.00     0.074 A 
ATOM     22  C   UNL A   1      44.686  26.512  26.980  1.00  0.00     0.031 C 
ATOM     23  C   UNL A   1      38.551  28.304  29.582  1.00  0.00     0.029 A 
ATOM     24  C   UNL A   1      39.603  29.311  29.710  1.00  0.00     0.049 A 
ATOM     25  H   UNL A   1      41.563  29.176  29.015  1.00  0.00     0.167 HD
ATOM     26  C   UNL A   1      45.674  28.710  27.540  1.00  0.00     0.034 A 
ATOM     27  C   UNL A   1      39.469  30.516  30.303  1.00  0.00     0.034 A 
ATOM     28  C   UNL A   1      45.596  30.046  28.072  1.00  0.00     0.049 A 
ATOM     29  C   UNL A   1      40.648  31.459  30.313  1.00  0.00     0.074 A 
ATOM     30  C   UNL A   1      46.581  31.016  28.085  1.00  0.00     0.029 A 
ATOM     31  N   UNL A   1      44.477  30.602  28.673  1.00  0.00    -0.354 N 
ATOM     32  N   UNL A   1      41.845  31.287  29.803  1.00  0.00    -0.248 NA
ATOM     33  C   UNL A   1      40.461  32.763  30.965  1.00  0.00     0.031 C 
ATOM     34  C   UNL A   1      46.078  32.137  28.745  1.00  0.00     0.029 A 
ATOM     35  C   UNL A   1      44.754  31.896  29.080  1.00  0.00     0.049 A 
ATOM     36  H   UNL A   1      43.612  30.145  28.792  1.00  0.00     0.167 HD
ATOM     37  C   UNL A   1      42.543  32.468  30.047  1.00  0.00     0.074 A 
ATOM     38  C   UNL A   1      41.625  33.356  30.731  1.00  0.00     0.031 C 
ATOM     39  C   UNL A   1      43.825  32.785  29.737  1.00  0.00     0.034 A 
BRANCH  26  40
ATOM     40  C   UNL A   1      46.979  28.272  26.923  1.00  0.00     0.023 A 
ATOM     41  C   UNL A   1      47.113  28.206  25.524  1.00  0.00     0.031 A 
ATOM     42  C   UNL A   1      48.044  27.805  27.715  1.00  0.00     0.131 A 
ATOM     43  C   UNL A   1      48.272  27.657  24.960  1.00  0.00     0.055 A 
ATOM     44  C   UNL A   1      49.217  27.304  27.148  1.00  0.00     0.041 A 
ATOM     45  F   UNL A   1      47.966  27.844  29.055  1.00  0.00    -0.206 F 
ATOM     46  C   UNL A   1      49.328  27.216  25.764  1.00  0.00     0.022 A 
BRANCH  43  47
ATOM     47  S   UNL A   1      48.429  27.433  23.168  1.00  0.00     0.124 S 
ATOM     48  O   UNL A   1      47.284  28.189  22.669  1.00  0.00    -0.237 OA
ATOM     49  O   UNL A   1      49.736  28.028  22.899  1.00  0.00    -0.237 OA
ATOM     50  O   UNL A   1      48.345  25.988  22.985  1.00  0.00    -0.744 OA
ENDBRANCH  43  47
ENDBRANCH  26  40
BRANCH  27  51
ATOM     51  C   UNL A   1      38.142  30.908  30.866  1.00  0.00     0.023 A 
ATOM     52  C   UNL A   1      37.189  31.584  30.084  1.00  0.00     0.031 A 
ATOM     53  C   UNL A   1      37.851  30.703  32.226  1.00  0.00     0.131 A 
ATOM     54  C   UNL A   1      36.025  32.089  30.681  1.00  0.00     0.055 A 
ATOM     55  C   UNL A   1      36.658  31.143  32.801  1.00  0.00     0.041 A 
ATOM     56  F   UNL A   1      38.734  30.074  33.018  1.00  0.00    -0.206 F 
ATOM     57  C   UNL A   1      35.745  31.857  32.031  1.00  0.00     0.022 A 
BRANCH  54  58
ATOM     58  S   UNL A   1      34.901  33.176  29.759  1.00  0.00     0.124 S 
ATOM     59  O   UNL A   1      34.087  33.749  30.824  1.00  0.00    -0.237 OA
ATOM     60  O   UNL A   1      35.837  34.094  29.114  1.00  0.00    -0.237 OA
ATOM     61  O   UNL A   1      34.205  32.266  28.853  1.00  0.00    -0.744 OA
ENDBRANCH  54  58
ENDBRANCH  27  51
BRANCH  39  62
ATOM     62  C   UNL A   1      44.350  34.152  30.108  1.00  0.00     0.023 A 
ATOM     63  C   UNL A   1      44.864  34.379  31.400  1.00  0.00     0.031 A 
ATOM     64  C   UNL A   1      44.178  35.257  29.258  1.00  0.00     0.131 A 
ATOM     65  C   UNL A   1      45.134  35.686  31.824  1.00  0.00     0.055 A 
ATOM     66  C   UNL A   1      44.499  36.553  29.667  1.00  0.00     0.041 A 
ATOM     67  F   UNL A   1      43.681  35.096  28.021  1.00  0.00    -0.206 F 
ATOM     68  C   UNL A   1      44.963  36.773  30.962  1.00  0.00     0.022 A 
BRANCH  65  69
ATOM     69  S   UNL A   1      45.616  36.034  33.538  1.00  0.00     0.124 S 
ATOM     70  O   UNL A   1      45.859  37.476  33.496  1.00  0.00    -0.237 OA
ATOM     71  O   UNL A   1      44.429  35.623  34.281  1.00  0.00    -0.237 OA
ATOM     72  O   UNL A   1      46.804  35.211  33.745  1.00  0.00    -0.744 OA
ENDBRANCH  65  69
ENDBRANCH  39  62
ENDBRANCH  13  14
ENDBRANCH   6   8
ENDBRANCH   3   4
ENDBRANCH   2   3
ENDBRANCH   1   2
BRANCH   1  73
ATOM     73  C   UNL A   1      33.577  21.018  25.240  1.00  0.00     0.002 C 
BRANCH  73  74
ATOM     74  C   UNL A   1      32.915  21.031  23.859  1.00  0.00     0.021 C 
BRANCH  74  75
ATOM     75  C   UNL A   1      32.713  22.415  23.248  1.00  0.00     0.116 C 
BRANCH  75  76
ATOM     76  N   UNL A   1      33.769  23.342  23.615  1.00  0.00    -0.352 N 
ATOM     77  C   UNL A   1      33.656  24.535  24.282  1.00  0.00     0.255 C 
ATOM     78  H   UNL A   1      34.681  23.081  23.351  1.00  0.00     0.163 HD
ATOM     79  O   UNL A   1      34.644  25.245  24.465  1.00  0.00    -0.269 OA
BRANCH  77  80
ATOM     80  C   UNL A   1      32.329  25.018  24.709  1.00  0.00     0.082 A 
ATOM     81  C   UNL A   1      31.756  26.057  23.963  1.00  0.00     0.026 A 
ATOM     82  C   UNL A   1      31.652  24.489  25.813  1.00  0.00     0.128 A 
ATOM     83  C   UNL A   1      30.483  26.535  24.287  1.00  0.00    -0.017 A 
ATOM     84  C   UNL A   1      30.381  24.956  26.139  1.00  0.00     0.047 A 
ATOM     85  C   UNL A   1      29.799  25.971  25.375  1.00  0.00     0.012 A 
BRANCH  82  86
ATOM     86  O   UNL A   1      32.227  23.510  26.574  1.00  0.00    -0.507 OA
ATOM     87  H   UNL A   1      32.807  23.740  27.273  1.00  0.00     0.293 HD
ENDBRANCH  82  86
BRANCH  83  88
ATOM     88  C   UNL A   1      29.857  27.630  23.522  1.00  0.00    -0.011 A 
ATOM     89  C   UNL A   1      30.636  28.564  22.732  1.00  0.00     0.027 A 
ATOM     90  C   UNL A   1      28.523  27.787  23.589  1.00  0.00     0.080 A 
ATOM     91  C   UNL A   1      30.045  29.586  22.105  1.00  0.00     0.095 A 
ATOM     92  C   UNL A   1      27.848  28.911  22.881  1.00  0.00     0.255 A 
ATOM     93  N   UNL A   1      28.677  29.771  22.180  1.00  0.00    -0.258 N 
ATOM     94  O   UNL A   1      26.626  29.010  22.965  1.00  0.00    -0.269 OA
BRANCH  93  95
ATOM     95  C   UNL A   1      28.055  30.893  21.526  1.00  0.00     0.451 C 
ATOM     96  F   UNL A   1      28.883  31.965  21.487  1.00  0.00    -0.185 F 
ATOM     97  F   UNL A   1      27.704  30.584  20.254  1.00  0.00    -0.185 F 
ENDBRANCH  93  95
ENDBRANCH  83  88
ENDBRANCH  77  80
ENDBRANCH  75  76
ENDBRANCH  74  75
ENDBRANCH  73  74
ENDBRANCH   1  73
TORSDOF 19
ENDMDL
