MODEL 1
REMARK VINA RESULT:      -9.8      0.000      0.000
REMARK SMILES O=C(CN1C(=O)/C(=C\c2cccs2)SC1=S)Nc1ccccc1C(=O)NCCCCCCNC(=O)c1ccc(-c2c3nc(c(-c4cc(S(=O)(=O)[O-])ccc4F)c4ccc([nH]4)c(-c4cc(S(=O)(=O)[O-])ccc4F)c4nc(c(-c5cc(S(=O)(=O)[O-])ccc5F)c5ccc2[nH]5)C=C4)C=C3)cc1
REMARK SMILES IDX 29 1 28 2 27 3 26 4 24 5 25 6 23 8 18 9 19 10 20 11 22 12
REMARK SMILES IDX 21 13 17 14 1 15 2 16 3 18 4 19 5 20 15 21 6 22 7 23 14 24
REMARK SMILES IDX 16 25 8 26 9 27 10 28 13 29 11 30 12 31 30 32 31 33 32 34
REMARK SMILES IDX 33 35 34 36 35 38 36 39 37 40 98 41 38 42 97 43 39 44 40 45
REMARK SMILES IDX 41 46 91 47 42 48 96 49 90 50 92 51 43 52 95 53 89 54 88 55
REMARK SMILES IDX 44 57 76 58 56 59 75 60 57 61 60 62 74 63 93 64 58 65 59 66
REMARK SMILES IDX 73 68 94 69 61 70 45 71 46 72 54 73 47 74 53 75 55 76 52 77
REMARK SMILES IDX 48 78 49 79 50 80 51 81 77 82 78 83 86 84 79 85 85 86 87 87
REMARK SMILES IDX 84 88 80 89 81 90 82 91 83 92 62 93 63 94 71 95 64 96 70 97
REMARK SMILES IDX 72 98 69 99 65 100 66 101 67 102 68 103
REMARK H PARENT 26 7 17 17 33 37 92 56 60 67
REMARK Flexibility Score: inf
ROOT
ATOM      1  C   UNL A   1      48.841  38.689  27.041  1.00  0.00     0.002 C 
ENDROOT
BRANCH   1   2
ATOM      2  C   UNL A   1      47.371  38.408  26.683  1.00  0.00     0.021 C 
BRANCH   2   3
ATOM      3  C   UNL A   1      46.781  39.139  25.480  1.00  0.00     0.116 C 
BRANCH   3   4
ATOM      4  N   UNL A   1      46.569  40.555  25.581  1.00  0.00    -0.352 N 
ATOM      5  C   UNL A   1      45.464  41.256  26.035  1.00  0.00     0.253 C 
ATOM      6  O   UNL A   1      45.663  42.443  26.315  1.00  0.00    -0.269 OA
ATOM      7  H   UNL A   1      47.323  41.114  25.282  1.00  0.00     0.163 HD
BRANCH   5   8
ATOM      8  C   UNL A   1      44.037  40.759  26.026  1.00  0.00     0.063 A 
ATOM      9  C   UNL A   1      42.841  41.358  25.566  1.00  0.00     0.054 A 
ATOM     10  C   UNL A   1      41.602  40.751  25.876  1.00  0.00     0.027 A 
ATOM     11  C   UNL A   1      41.529  39.511  26.512  1.00  0.00     0.002 A 
ATOM     12  C   UNL A   1      43.925  39.490  26.656  1.00  0.00     0.016 A 
ATOM     13  C   UNL A   1      42.695  38.866  26.879  1.00  0.00     0.001 A 
BRANCH   9  14
ATOM     14  N   UNL A   1      42.706  42.510  24.755  1.00  0.00    -0.324 N 
ATOM     15  O   UNL A   1      41.872  41.507  22.858  1.00  0.00    -0.273 OA
ATOM     16  C   UNL A   1      42.304  42.501  23.434  1.00  0.00     0.244 C 
ATOM     17  H   UNL A   1      42.913  43.383  25.163  1.00  0.00     0.170 HD
BRANCH  16  18
ATOM     18  C   UNL A   1      42.696  43.771  22.670  1.00  0.00     0.227 C 
BRANCH  18  19
ATOM     19  N   UNL A   1      43.965  43.795  21.976  1.00  0.00    -0.283 N 
ATOM     20  C   UNL A   1      43.982  43.214  20.729  1.00  0.00     0.266 C 
ATOM     21  C   UNL A   1      45.195  44.136  22.502  1.00  0.00     0.148 C 
ATOM     22  O   UNL A   1      43.080  42.572  20.229  1.00  0.00    -0.268 OA
ATOM     23  C   UNL A   1      45.294  43.499  20.103  1.00  0.00     0.081 C 
ATOM     24  S   UNL A   1      46.467  43.711  21.346  1.00  0.00    -0.054 SA
ATOM     25  S   UNL A   1      45.506  44.873  23.965  1.00  0.00    -0.052 S 
ATOM     26  C   UNL A   1      45.419  44.008  18.869  1.00  0.00     0.040 C 
BRANCH  26  27
ATOM     27  C   UNL A   1      44.243  44.507  18.240  1.00  0.00     0.028 A 
ATOM     28  C   UNL A   1      43.468  43.839  17.301  1.00  0.00     0.020 A 
ATOM     29  S   UNL A   1      43.678  46.101  18.484  1.00  0.00    -0.144 S 
ATOM     30  C   UNL A   1      42.504  44.682  16.688  1.00  0.00     0.012 A 
ATOM     31  C   UNL A   1      42.522  45.947  17.228  1.00  0.00     0.065 A 
ENDBRANCH  26  27
ENDBRANCH  18  19
ENDBRANCH  16  18
ENDBRANCH   9  14
ENDBRANCH   5   8
ENDBRANCH   3   4
ENDBRANCH   2   3
ENDBRANCH   1   2
BRANCH   1  32
ATOM     32  C   UNL A   1      49.841  37.523  27.139  1.00  0.00     0.002 C 
BRANCH  32  33
ATOM     33  C   UNL A   1      51.133  37.579  26.323  1.00  0.00     0.021 C 
BRANCH  33  34
ATOM     34  C   UNL A   1      52.166  36.473  26.487  1.00  0.00     0.116 C 
BRANCH  34  35
ATOM     35  N   UNL A   1      52.260  35.611  25.331  1.00  0.00    -0.352 N 
ATOM     36  C   UNL A   1      51.484  34.547  24.934  1.00  0.00     0.251 C 
ATOM     37  H   UNL A   1      53.006  35.822  24.723  1.00  0.00     0.163 HD
ATOM     38  O   UNL A   1      51.867  33.880  23.974  1.00  0.00    -0.269 OA
BRANCH  36  39
ATOM     39  C   UNL A   1      50.225  34.158  25.636  1.00  0.00     0.039 A 
ATOM     40  C   UNL A   1      49.021  34.711  25.179  1.00  0.00     0.014 A 
ATOM     41  C   UNL A   1      50.201  33.342  26.771  1.00  0.00     0.014 A 
ATOM     42  C   UNL A   1      47.810  34.421  25.823  1.00  0.00     0.010 A 
ATOM     43  C   UNL A   1      48.982  32.999  27.375  1.00  0.00     0.010 A 
ATOM     44  C   UNL A   1      47.773  33.546  26.918  1.00  0.00    -0.014 A 
BRANCH  44  45
ATOM     45  C   UNL A   1      46.487  33.236  27.613  1.00  0.00     0.031 A 
ATOM     46  C   UNL A   1      45.926  34.190  28.638  1.00  0.00     0.074 A 
ATOM     47  C   UNL A   1      45.831  32.088  27.348  1.00  0.00     0.049 A 
ATOM     48  N   UNL A   1      44.851  34.075  29.379  1.00  0.00    -0.248 NA
ATOM     49  C   UNL A   1      46.686  35.425  28.873  1.00  0.00     0.031 C 
ATOM     50  C   UNL A   1      46.267  31.068  26.394  1.00  0.00     0.029 A 
ATOM     51  N   UNL A   1      44.658  31.584  27.858  1.00  0.00    -0.354 N 
ATOM     52  C   UNL A   1      44.812  35.216  30.176  1.00  0.00     0.074 A 
ATOM     53  C   UNL A   1      46.004  35.978  29.865  1.00  0.00     0.031 C 
ATOM     54  C   UNL A   1      45.364  30.073  26.371  1.00  0.00     0.029 A 
ATOM     55  C   UNL A   1      44.306  30.360  27.337  1.00  0.00     0.049 A 
ATOM     56  H   UNL A   1      44.119  32.055  28.534  1.00  0.00     0.167 HD
ATOM     57  C   UNL A   1      43.865  35.607  31.067  1.00  0.00     0.034 A 
ATOM     58  C   UNL A   1      43.259  29.555  27.607  1.00  0.00     0.034 A 
ATOM     59  C   UNL A   1      42.672  34.850  31.363  1.00  0.00     0.049 A 
ATOM     60  C   UNL A   1      42.234  29.992  28.625  1.00  0.00     0.074 A 
ATOM     61  C   UNL A   1      41.630  35.181  32.216  1.00  0.00     0.029 A 
ATOM     62  N   UNL A   1      42.359  33.609  30.824  1.00  0.00    -0.354 N 
ATOM     63  N   UNL A   1      42.200  31.090  29.344  1.00  0.00    -0.248 NA
ATOM     64  C   UNL A   1      41.103  29.083  28.861  1.00  0.00     0.031 C 
ATOM     65  C   UNL A   1      40.723  34.115  32.240  1.00  0.00     0.029 A 
ATOM     66  C   UNL A   1      41.160  33.149  31.347  1.00  0.00     0.049 A 
ATOM     67  H   UNL A   1      42.910  33.126  30.166  1.00  0.00     0.167 HD
ATOM     68  C   UNL A   1      41.026  31.017  30.091  1.00  0.00     0.074 A 
ATOM     69  C   UNL A   1      40.378  29.773  29.729  1.00  0.00     0.031 C 
ATOM     70  C   UNL A   1      40.526  31.902  30.990  1.00  0.00     0.034 A 
BRANCH  57  71
ATOM     71  C   UNL A   1      44.102  36.904  31.805  1.00  0.00     0.023 A 
ATOM     72  C   UNL A   1      43.750  38.146  31.247  1.00  0.00     0.031 A 
ATOM     73  C   UNL A   1      44.714  36.903  33.071  1.00  0.00     0.131 A 
ATOM     74  C   UNL A   1      44.087  39.334  31.913  1.00  0.00     0.055 A 
ATOM     75  C   UNL A   1      44.971  38.088  33.767  1.00  0.00     0.041 A 
ATOM     76  F   UNL A   1      45.090  35.751  33.649  1.00  0.00    -0.206 F 
ATOM     77  C   UNL A   1      44.673  39.314  33.180  1.00  0.00     0.022 A 
BRANCH  74  78
ATOM     78  S   UNL A   1      43.887  40.907  31.030  1.00  0.00     0.124 S 
ATOM     79  O   UNL A   1      45.265  41.205  30.645  1.00  0.00    -0.237 OA
ATOM     80  O   UNL A   1      42.983  40.546  29.944  1.00  0.00    -0.237 OA
ATOM     81  O   UNL A   1      43.324  41.798  32.042  1.00  0.00    -0.744 OA
ENDBRANCH  74  78
ENDBRANCH  57  71
BRANCH  58  82
ATOM     82  C   UNL A   1      43.117  28.243  26.914  1.00  0.00     0.023 A 
ATOM     83  C   UNL A   1      43.746  27.090  27.412  1.00  0.00     0.031 A 
ATOM     84  C   UNL A   1      42.390  28.131  25.715  1.00  0.00     0.131 A 
ATOM     85  C   UNL A   1      43.675  25.888  26.692  1.00  0.00     0.055 A 
ATOM     86  C   UNL A   1      42.280  26.921  25.029  1.00  0.00     0.041 A 
ATOM     87  F   UNL A   1      41.767  29.203  25.197  1.00  0.00    -0.206 F 
ATOM     88  C   UNL A   1      42.936  25.792  25.511  1.00  0.00     0.022 A 
BRANCH  85  89
ATOM     89  S   UNL A   1      44.633  24.465  27.281  1.00  0.00     0.124 S 
ATOM     90  O   UNL A   1      43.980  24.173  28.553  1.00  0.00    -0.237 OA
ATOM     91  O   UNL A   1      44.420  23.494  26.213  1.00  0.00    -0.237 OA
ATOM     92  O   UNL A   1      45.993  24.989  27.383  1.00  0.00    -0.744 OA
ENDBRANCH  85  89
ENDBRANCH  58  82
BRANCH  70  93
ATOM     93  C   UNL A   1      39.189  31.573  31.609  1.00  0.00     0.023 A 
ATOM     94  C   UNL A   1      37.985  32.072  31.082  1.00  0.00     0.031 A 
ATOM     95  C   UNL A   1      39.122  30.757  32.754  1.00  0.00     0.131 A 
ATOM     96  C   UNL A   1      36.770  31.792  31.728  1.00  0.00     0.055 A 
ATOM     97  C   UNL A   1      37.906  30.439  33.360  1.00  0.00     0.041 A 
ATOM     98  F   UNL A   1      40.241  30.256  33.300  1.00  0.00    -0.206 F 
ATOM     99  C   UNL A   1      36.722  30.967  32.854  1.00  0.00     0.022 A 
BRANCH  96 100
ATOM    100  S   UNL A   1      35.256  32.589  31.122  1.00  0.00     0.124 S 
ATOM    101  O   UNL A   1      35.699  33.964  30.912  1.00  0.00    -0.237 OA
ATOM    102  O   UNL A   1      34.961  31.824  29.915  1.00  0.00    -0.237 OA
ATOM    103  O   UNL A   1      34.307  32.404  32.219  1.00  0.00    -0.744 OA
ENDBRANCH  96 100
ENDBRANCH  70  93
ENDBRANCH  44  45
ENDBRANCH  36  39
ENDBRANCH  34  35
ENDBRANCH  33  34
ENDBRANCH  32  33
ENDBRANCH   1  32
TORSDOF 20
ENDMDL
MODEL 2
REMARK VINA RESULT:      -9.5      5.989     13.919
REMARK SMILES O=C(CN1C(=O)/C(=C\c2cccs2)SC1=S)Nc1ccccc1C(=O)NCCCCCCNC(=O)c1ccc(-c2c3nc(c(-c4cc(S(=O)(=O)[O-])ccc4F)c4ccc([nH]4)c(-c4cc(S(=O)(=O)[O-])ccc4F)c4nc(c(-c5cc(S(=O)(=O)[O-])ccc5F)c5ccc2[nH]5)C=C4)C=C3)cc1
REMARK SMILES IDX 29 1 28 2 27 3 26 4 24 5 25 6 23 8 18 9 19 10 20 11 22 12
REMARK SMILES IDX 21 13 17 14 1 15 2 16 3 18 4 19 5 20 15 21 6 22 7 23 14 24
REMARK SMILES IDX 16 25 8 26 9 27 10 28 13 29 11 30 12 31 30 32 31 33 32 34
REMARK SMILES IDX 33 35 34 36 35 38 36 39 37 40 98 41 38 42 97 43 39 44 40 45
REMARK SMILES IDX 41 46 91 47 42 48 96 49 90 50 92 51 43 52 95 53 89 54 88 55
REMARK SMILES IDX 44 57 76 58 56 59 75 60 57 61 60 62 74 63 93 64 58 65 59 66
REMARK SMILES IDX 73 68 94 69 61 70 45 71 46 72 54 73 47 74 53 75 55 76 52 77
REMARK SMILES IDX 48 78 49 79 50 80 51 81 77 82 78 83 86 84 79 85 85 86 87 87
REMARK SMILES IDX 84 88 80 89 81 90 82 91 83 92 62 93 63 94 71 95 64 96 70 97
REMARK SMILES IDX 72 98 69 99 65 100 66 101 67 102 68 103
REMARK H PARENT 26 7 17 17 33 37 92 56 60 67
REMARK Flexibility Score: inf
ROOT
ATOM      1  C   UNL A   1      40.137  28.157  27.383  1.00  0.00     0.002 C 
ENDROOT
BRANCH   1   2
ATOM      2  C   UNL A   1      39.100  28.191  28.519  1.00  0.00     0.021 C 
BRANCH   2   3
ATOM      3  C   UNL A   1      39.423  29.031  29.751  1.00  0.00     0.116 C 
BRANCH   3   4
ATOM      4  N   UNL A   1      38.425  29.145  30.778  1.00  0.00    -0.352 N 
ATOM      5  C   UNL A   1      37.150  29.680  30.719  1.00  0.00     0.253 C 
ATOM      6  O   UNL A   1      36.394  29.364  31.645  1.00  0.00    -0.269 OA
ATOM      7  H   UNL A   1      38.687  28.787  31.658  1.00  0.00     0.163 HD
BRANCH   5   8
ATOM      8  C   UNL A   1      36.681  30.746  29.755  1.00  0.00     0.063 A 
ATOM      9  C   UNL A   1      36.780  32.157  29.801  1.00  0.00     0.054 A 
ATOM     10  C   UNL A   1      36.062  32.928  28.858  1.00  0.00     0.027 A 
ATOM     11  C   UNL A   1      35.361  32.339  27.805  1.00  0.00     0.002 A 
ATOM     12  C   UNL A   1      35.973  30.182  28.661  1.00  0.00     0.016 A 
ATOM     13  C   UNL A   1      35.339  30.961  27.690  1.00  0.00     0.001 A 
BRANCH   9  14
ATOM     14  N   UNL A   1      37.575  32.942  30.669  1.00  0.00    -0.324 N 
ATOM     15  O   UNL A   1      39.649  32.155  30.051  1.00  0.00    -0.273 OA
ATOM     16  C   UNL A   1      38.946  32.836  30.792  1.00  0.00     0.244 C 
ATOM     17  H   UNL A   1      37.117  33.613  31.226  1.00  0.00     0.170 HD
BRANCH  16  18
ATOM     18  C   UNL A   1      39.487  33.428  32.098  1.00  0.00     0.227 C 
BRANCH  18  19
ATOM     19  N   UNL A   1      38.804  33.114  33.334  1.00  0.00    -0.283 N 
ATOM     20  C   UNL A   1      37.953  34.080  33.817  1.00  0.00     0.266 C 
ATOM     21  C   UNL A   1      39.069  32.059  34.185  1.00  0.00     0.148 C 
ATOM     22  O   UNL A   1      37.833  35.207  33.380  1.00  0.00    -0.268 OA
ATOM     23  C   UNL A   1      37.211  33.512  34.966  1.00  0.00     0.081 C 
ATOM     24  S   UNL A   1      38.175  32.286  35.697  1.00  0.00    -0.054 SA
ATOM     25  S   UNL A   1      40.028  30.728  33.888  1.00  0.00    -0.052 S 
ATOM     26  C   UNL A   1      35.875  33.570  35.074  1.00  0.00     0.040 C 
BRANCH  26  27
ATOM     27  C   UNL A   1      35.139  33.985  33.929  1.00  0.00     0.028 A 
ATOM     28  C   UNL A   1      34.815  33.198  32.832  1.00  0.00     0.020 A 
ATOM     29  S   UNL A   1      34.639  35.603  33.697  1.00  0.00    -0.144 S 
ATOM     30  C   UNL A   1      34.285  33.955  31.753  1.00  0.00     0.012 A 
ATOM     31  C   UNL A   1      34.151  35.283  32.085  1.00  0.00     0.065 A 
ENDBRANCH  26  27
ENDBRANCH  18  19
ENDBRANCH  16  18
ENDBRANCH   9  14
ENDBRANCH   5   8
ENDBRANCH   3   4
ENDBRANCH   2   3
ENDBRANCH   1   2
BRANCH   1  32
ATOM     32  C   UNL A   1      41.032  26.919  27.201  1.00  0.00     0.002 C 
BRANCH  32  33
ATOM     33  C   UNL A   1      40.832  25.713  28.120  1.00  0.00     0.021 C 
BRANCH  33  34
ATOM     34  C   UNL A   1      41.073  24.313  27.575  1.00  0.00     0.116 C 
BRANCH  34  35
ATOM     35  N   UNL A   1      41.816  23.472  28.486  1.00  0.00    -0.352 N 
ATOM     36  C   UNL A   1      43.129  23.526  28.895  1.00  0.00     0.251 C 
ATOM     37  H   UNL A   1      41.295  22.736  28.882  1.00  0.00     0.163 HD
ATOM     38  O   UNL A   1      43.560  22.594  29.573  1.00  0.00    -0.269 OA
BRANCH  36  39
ATOM     39  C   UNL A   1      44.046  24.644  28.526  1.00  0.00     0.039 A 
ATOM     40  C   UNL A   1      44.410  25.553  29.528  1.00  0.00     0.014 A 
ATOM     41  C   UNL A   1      44.489  24.873  27.220  1.00  0.00     0.014 A 
ATOM     42  C   UNL A   1      45.232  26.651  29.236  1.00  0.00     0.010 A 
ATOM     43  C   UNL A   1      45.365  25.932  26.940  1.00  0.00     0.010 A 
ATOM     44  C   UNL A   1      45.735  26.844  27.942  1.00  0.00    -0.014 A 
BRANCH  44  45
ATOM     45  C   UNL A   1      46.608  28.013  27.620  1.00  0.00     0.031 A 
ATOM     46  C   UNL A   1      48.108  27.860  27.602  1.00  0.00     0.074 A 
ATOM     47  C   UNL A   1      46.061  29.219  27.368  1.00  0.00     0.049 A 
ATOM     48  N   UNL A   1      49.033  28.765  27.392  1.00  0.00    -0.248 NA
ATOM     49  C   UNL A   1      48.637  26.518  27.878  1.00  0.00     0.031 C 
ATOM     50  C   UNL A   1      44.628  29.514  27.368  1.00  0.00     0.029 A 
ATOM     51  N   UNL A   1      46.648  30.426  27.064  1.00  0.00    -0.354 N 
ATOM     52  C   UNL A   1      50.252  28.104  27.521  1.00  0.00     0.074 A 
ATOM     53  C   UNL A   1      49.943  26.736  27.885  1.00  0.00     0.031 C 
ATOM     54  C   UNL A   1      44.446  30.809  27.058  1.00  0.00     0.029 A 
ATOM     55  C   UNL A   1      45.746  31.449  26.877  1.00  0.00     0.049 A 
ATOM     56  H   UNL A   1      47.621  30.547  26.988  1.00  0.00     0.167 HD
ATOM     57  C   UNL A   1      51.509  28.581  27.334  1.00  0.00     0.034 A 
ATOM     58  C   UNL A   1      45.941  32.754  26.598  1.00  0.00     0.034 A 
ATOM     59  C   UNL A   1      51.810  29.942  26.957  1.00  0.00     0.049 A 
ATOM     60  C   UNL A   1      47.347  33.272  26.426  1.00  0.00     0.074 A 
ATOM     61  C   UNL A   1      53.047  30.512  26.699  1.00  0.00     0.029 A 
ATOM     62  N   UNL A   1      50.870  30.950  26.790  1.00  0.00    -0.354 N 
ATOM     63  N   UNL A   1      48.484  32.623  26.521  1.00  0.00    -0.248 NA
ATOM     64  C   UNL A   1      47.494  34.698  26.102  1.00  0.00     0.031 C 
ATOM     65  C   UNL A   1      52.860  31.875  26.439  1.00  0.00     0.029 A 
ATOM     66  C   UNL A   1      51.500  32.142  26.463  1.00  0.00     0.049 A 
ATOM     67  H   UNL A   1      49.897  30.836  26.889  1.00  0.00     0.167 HD
ATOM     68  C   UNL A   1      49.478  33.556  26.233  1.00  0.00     0.074 A 
ATOM     69  C   UNL A   1      48.806  34.809  25.954  1.00  0.00     0.031 C 
ATOM     70  C   UNL A   1      50.824  33.390  26.197  1.00  0.00     0.034 A 
BRANCH  57  71
ATOM     71  C   UNL A   1      52.655  27.622  27.562  1.00  0.00     0.023 A 
ATOM     72  C   UNL A   1      53.099  26.749  26.553  1.00  0.00     0.031 A 
ATOM     73  C   UNL A   1      53.294  27.559  28.813  1.00  0.00     0.131 A 
ATOM     74  C   UNL A   1      54.089  25.797  26.836  1.00  0.00     0.055 A 
ATOM     75  C   UNL A   1      54.337  26.664  29.063  1.00  0.00     0.041 A 
ATOM     76  F   UNL A   1      52.903  28.354  29.822  1.00  0.00    -0.206 F 
ATOM     77  C   UNL A   1      54.730  25.764  28.077  1.00  0.00     0.022 A 
BRANCH  74  78
ATOM     78  S   UNL A   1      54.421  24.502  25.609  1.00  0.00     0.124 S 
ATOM     79  O   UNL A   1      55.003  25.277  24.515  1.00  0.00    -0.237 OA
ATOM     80  O   UNL A   1      55.334  23.617  26.323  1.00  0.00    -0.237 OA
ATOM     81  O   UNL A   1      53.099  23.945  25.333  1.00  0.00    -0.744 OA
ENDBRANCH  74  78
ENDBRANCH  57  71
BRANCH  58  82
ATOM     82  C   UNL A   1      44.778  33.679  26.469  1.00  0.00     0.023 A 
ATOM     83  C   UNL A   1      44.278  34.371  27.584  1.00  0.00     0.031 A 
ATOM     84  C   UNL A   1      44.118  33.846  25.238  1.00  0.00     0.131 A 
ATOM     85  C   UNL A   1      43.126  35.163  27.457  1.00  0.00     0.055 A 
ATOM     86  C   UNL A   1      43.004  34.675  25.106  1.00  0.00     0.041 A 
ATOM     87  F   UNL A   1      44.558  33.209  24.140  1.00  0.00    -0.206 F 
ATOM     88  C   UNL A   1      42.493  35.329  26.223  1.00  0.00     0.022 A 
BRANCH  85  89
ATOM     89  S   UNL A   1      42.417  35.910  28.949  1.00  0.00     0.124 S 
ATOM     90  O   UNL A   1      42.718  37.323  28.746  1.00  0.00    -0.237 OA
ATOM     91  O   UNL A   1      41.012  35.532  28.838  1.00  0.00    -0.237 OA
ATOM     92  O   UNL A   1      43.151  35.265  30.035  1.00  0.00    -0.744 OA
ENDBRANCH  85  89
ENDBRANCH  58  82
BRANCH  70  93
ATOM     93  C   UNL A   1      51.655  34.585  25.797  1.00  0.00     0.023 A 
ATOM     94  C   UNL A   1      52.019  35.579  26.722  1.00  0.00     0.031 A 
ATOM     95  C   UNL A   1      52.076  34.738  24.463  1.00  0.00     0.131 A 
ATOM     96  C   UNL A   1      52.737  36.706  26.292  1.00  0.00     0.055 A 
ATOM     97  C   UNL A   1      52.836  35.833  24.052  1.00  0.00     0.041 A 
ATOM     98  F   UNL A   1      51.755  33.819  23.537  1.00  0.00    -0.206 F 
ATOM     99  C   UNL A   1      53.161  36.831  24.966  1.00  0.00     0.022 A 
BRANCH  96 100
ATOM    100  S   UNL A   1      53.044  38.049  27.473  1.00  0.00     0.124 S 
ATOM    101  O   UNL A   1      52.327  39.163  26.859  1.00  0.00    -0.237 OA
ATOM    102  O   UNL A   1      52.466  37.521  28.704  1.00  0.00    -0.237 OA
ATOM    103  O   UNL A   1      54.500  38.178  27.478  1.00  0.00    -0.744 OA
ENDBRANCH  96 100
ENDBRANCH  70  93
ENDBRANCH  44  45
ENDBRANCH  36  39
ENDBRANCH  34  35
ENDBRANCH  33  34
ENDBRANCH  32  33
ENDBRANCH   1  32
TORSDOF 20
ENDMDL
MODEL 3
REMARK VINA RESULT:      -9.5      6.028     14.037
REMARK SMILES O=C(CN1C(=O)/C(=C\c2cccs2)SC1=S)Nc1ccccc1C(=O)NCCCCCCNC(=O)c1ccc(-c2c3nc(c(-c4cc(S(=O)(=O)[O-])ccc4F)c4ccc([nH]4)c(-c4cc(S(=O)(=O)[O-])ccc4F)c4nc(c(-c5cc(S(=O)(=O)[O-])ccc5F)c5ccc2[nH]5)C=C4)C=C3)cc1
REMARK SMILES IDX 29 1 28 2 27 3 26 4 24 5 25 6 23 8 18 9 19 10 20 11 22 12
REMARK SMILES IDX 21 13 17 14 1 15 2 16 3 18 4 19 5 20 15 21 6 22 7 23 14 24
REMARK SMILES IDX 16 25 8 26 9 27 10 28 13 29 11 30 12 31 30 32 31 33 32 34
REMARK SMILES IDX 33 35 34 36 35 38 36 39 37 40 98 41 38 42 97 43 39 44 40 45
REMARK SMILES IDX 41 46 91 47 42 48 96 49 90 50 92 51 43 52 95 53 89 54 88 55
REMARK SMILES IDX 44 57 76 58 56 59 75 60 57 61 60 62 74 63 93 64 58 65 59 66
REMARK SMILES IDX 73 68 94 69 61 70 45 71 46 72 54 73 47 74 53 75 55 76 52 77
REMARK SMILES IDX 48 78 49 79 50 80 51 81 77 82 78 83 86 84 79 85 85 86 87 87
REMARK SMILES IDX 84 88 80 89 81 90 82 91 83 92 62 93 63 94 71 95 64 96 70 97
REMARK SMILES IDX 72 98 69 99 65 100 66 101 67 102 68 103
REMARK H PARENT 26 7 17 17 33 37 92 56 60 67
REMARK Flexibility Score: inf
ROOT
ATOM      1  C   UNL A   1      37.689  22.072  24.664  1.00  0.00     0.002 C 
ENDROOT
BRANCH   1   2
ATOM      2  C   UNL A   1      36.283  21.636  24.216  1.00  0.00     0.021 C 
BRANCH   2   3
ATOM      3  C   UNL A   1      35.429  22.654  23.465  1.00  0.00     0.116 C 
BRANCH   3   4
ATOM      4  N   UNL A   1      35.344  23.989  23.987  1.00  0.00    -0.352 N 
ATOM      5  C   UNL A   1      34.854  24.435  25.203  1.00  0.00     0.253 C 
ATOM      6  O   UNL A   1      35.191  25.580  25.526  1.00  0.00    -0.269 OA
ATOM      7  H   UNL A   1      35.685  24.694  23.390  1.00  0.00     0.163 HD
BRANCH   5   8
ATOM      8  C   UNL A   1      33.813  23.738  26.047  1.00  0.00     0.063 A 
ATOM      9  C   UNL A   1      32.428  23.977  26.210  1.00  0.00     0.054 A 
ATOM     10  C   UNL A   1      31.728  23.299  27.235  1.00  0.00     0.027 A 
ATOM     11  C   UNL A   1      32.332  22.307  28.008  1.00  0.00     0.002 A 
ATOM     12  C   UNL A   1      34.390  22.710  26.840  1.00  0.00     0.016 A 
ATOM     13  C   UNL A   1      33.662  21.992  27.791  1.00  0.00     0.001 A 
BRANCH   9  14
ATOM     14  N   UNL A   1      31.593  24.802  25.421  1.00  0.00    -0.324 N 
ATOM     15  O   UNL A   1      30.959  23.250  23.843  1.00  0.00    -0.273 OA
ATOM     16  C   UNL A   1      30.975  24.408  24.251  1.00  0.00     0.244 C 
ATOM     17  H   UNL A   1      31.440  25.726  25.729  1.00  0.00     0.170 HD
BRANCH  16  18
ATOM     18  C   UNL A   1      30.544  25.582  23.365  1.00  0.00     0.227 C 
BRANCH  18  19
ATOM     19  N   UNL A   1      31.541  26.553  22.971  1.00  0.00    -0.283 N 
ATOM     20  C   UNL A   1      31.343  27.839  23.417  1.00  0.00     0.266 C 
ATOM     21  C   UNL A   1      32.540  26.385  22.033  1.00  0.00     0.148 C 
ATOM     22  O   UNL A   1      30.350  28.251  23.984  1.00  0.00    -0.268 OA
ATOM     23  C   UNL A   1      32.545  28.637  23.081  1.00  0.00     0.081 C 
ATOM     24  S   UNL A   1      33.296  27.949  21.692  1.00  0.00    -0.054 SA
ATOM     25  S   UNL A   1      33.039  24.961  21.323  1.00  0.00    -0.052 S 
ATOM     26  C   UNL A   1      33.192  29.394  23.979  1.00  0.00     0.040 C 
BRANCH  26  27
ATOM     27  C   UNL A   1      32.845  29.234  25.350  1.00  0.00     0.028 A 
ATOM     28  C   UNL A   1      33.106  28.122  26.139  1.00  0.00     0.020 A 
ATOM     29  S   UNL A   1      31.919  30.391  26.202  1.00  0.00    -0.144 S 
ATOM     30  C   UNL A   1      32.431  28.166  27.388  1.00  0.00     0.012 A 
ATOM     31  C   UNL A   1      31.734  29.341  27.544  1.00  0.00     0.065 A 
ENDBRANCH  26  27
ENDBRANCH  18  19
ENDBRANCH  16  18
ENDBRANCH   9  14
ENDBRANCH   5   8
ENDBRANCH   3   4
ENDBRANCH   2   3
ENDBRANCH   1   2
BRANCH   1  32
ATOM     32  C   UNL A   1      37.945  22.433  26.137  1.00  0.00     0.002 C 
BRANCH  32  33
ATOM     33  C   UNL A   1      39.348  22.870  26.565  1.00  0.00     0.021 C 
BRANCH  33  34
ATOM     34  C   UNL A   1      40.377  21.811  26.933  1.00  0.00     0.116 C 
BRANCH  34  35
ATOM     35  N   UNL A   1      41.482  21.750  26.002  1.00  0.00    -0.352 N 
ATOM     36  C   UNL A   1      42.405  22.701  25.635  1.00  0.00     0.251 C 
ATOM     37  H   UNL A   1      41.593  20.879  25.556  1.00  0.00     0.163 HD
ATOM     38  O   UNL A   1      43.164  22.438  24.703  1.00  0.00    -0.269 OA
BRANCH  36  39
ATOM     39  C   UNL A   1      42.500  24.035  26.299  1.00  0.00     0.039 A 
ATOM     40  C   UNL A   1      42.302  25.176  25.510  1.00  0.00     0.014 A 
ATOM     41  C   UNL A   1      42.856  24.200  27.641  1.00  0.00     0.014 A 
ATOM     42  C   UNL A   1      42.421  26.459  26.063  1.00  0.00     0.010 A 
ATOM     43  C   UNL A   1      42.910  25.481  28.210  1.00  0.00     0.010 A 
ATOM     44  C   UNL A   1      42.709  26.627  27.425  1.00  0.00    -0.014 A 
BRANCH  44  45
ATOM     45  C   UNL A   1      42.842  27.990  28.022  1.00  0.00     0.031 A 
ATOM     46  C   UNL A   1      44.196  28.646  28.128  1.00  0.00     0.074 A 
ATOM     47  C   UNL A   1      41.756  28.635  28.494  1.00  0.00     0.049 A 
ATOM     48  N   UNL A   1      44.522  29.800  28.656  1.00  0.00    -0.248 NA
ATOM     49  C   UNL A   1      45.336  27.892  27.589  1.00  0.00     0.031 C 
ATOM     50  C   UNL A   1      40.389  28.114  28.471  1.00  0.00     0.029 A 
ATOM     51  N   UNL A   1      41.630  29.869  29.086  1.00  0.00    -0.354 N 
ATOM     52  C   UNL A   1      45.904  29.907  28.521  1.00  0.00     0.074 A 
ATOM     53  C   UNL A   1      46.356  28.671  27.915  1.00  0.00     0.031 C 
ATOM     54  C   UNL A   1      39.561  29.028  29.004  1.00  0.00     0.029 A 
ATOM     55  C   UNL A   1      40.338  30.184  29.444  1.00  0.00     0.049 A 
ATOM     56  H   UNL A   1      42.392  30.472  29.241  1.00  0.00     0.167 HD
ATOM     57  C   UNL A   1      46.719  30.942  28.850  1.00  0.00     0.034 A 
ATOM     58  C   UNL A   1      39.835  31.272  30.061  1.00  0.00     0.034 A 
ATOM     59  C   UNL A   1      46.261  32.177  29.441  1.00  0.00     0.049 A 
ATOM     60  C   UNL A   1      40.763  32.397  30.448  1.00  0.00     0.074 A 
ATOM     61  C   UNL A   1      47.000  33.303  29.768  1.00  0.00     0.029 A 
ATOM     62  N   UNL A   1      44.948  32.451  29.799  1.00  0.00    -0.354 N 
ATOM     63  N   UNL A   1      42.061  32.492  30.283  1.00  0.00    -0.248 NA
ATOM     64  C   UNL A   1      40.153  33.566  31.098  1.00  0.00     0.031 C 
ATOM     65  C   UNL A   1      46.147  34.228  30.381  1.00  0.00     0.029 A 
ATOM     66  C   UNL A   1      44.861  33.712  30.371  1.00  0.00     0.049 A 
ATOM     67  H   UNL A   1      44.188  31.838  29.667  1.00  0.00     0.167 HD
ATOM     68  C   UNL A   1      42.417  33.745  30.777  1.00  0.00     0.074 A 
ATOM     69  C   UNL A   1      41.195  34.372  31.239  1.00  0.00     0.031 C 
ATOM     70  C   UNL A   1      43.641  34.326  30.839  1.00  0.00     0.034 A 
BRANCH  57  71
ATOM     71  C   UNL A   1      48.199  30.764  28.598  1.00  0.00     0.023 A 
ATOM     72  C   UNL A   1      49.025  30.077  29.505  1.00  0.00     0.031 A 
ATOM     73  C   UNL A   1      48.798  31.313  27.450  1.00  0.00     0.131 A 
ATOM     74  C   UNL A   1      50.411  30.029  29.293  1.00  0.00     0.055 A 
ATOM     75  C   UNL A   1      50.167  31.189  27.203  1.00  0.00     0.041 A 
ATOM     76  F   UNL A   1      48.065  31.995  26.555  1.00  0.00    -0.206 F 
ATOM     77  C   UNL A   1      50.985  30.559  28.135  1.00  0.00     0.022 A 
BRANCH  74  78
ATOM     78  S   UNL A   1      51.468  29.399  30.625  1.00  0.00     0.124 S 
ATOM     79  O   UNL A   1      51.354  27.955  30.434  1.00  0.00    -0.237 OA
ATOM     80  O   UNL A   1      52.764  29.987  30.304  1.00  0.00    -0.237 OA
ATOM     81  O   UNL A   1      50.834  29.912  31.838  1.00  0.00    -0.744 OA
ENDBRANCH  74  78
ENDBRANCH  57  71
BRANCH  58  82
ATOM     82  C   UNL A   1      38.378  31.360  30.366  1.00  0.00     0.023 A 
ATOM     83  C   UNL A   1      37.493  32.005  29.487  1.00  0.00     0.031 A 
ATOM     84  C   UNL A   1      37.857  30.842  31.566  1.00  0.00     0.131 A 
ATOM     85  C   UNL A   1      36.144  32.156  29.840  1.00  0.00     0.055 A 
ATOM     86  C   UNL A   1      36.504  30.950  31.889  1.00  0.00     0.041 A 
ATOM     87  F   UNL A   1      38.661  30.213  32.439  1.00  0.00    -0.206 F 
ATOM     88  C   UNL A   1      35.640  31.622  31.029  1.00  0.00     0.022 A 
BRANCH  85  89
ATOM     89  S   UNL A   1      35.067  33.135  28.758  1.00  0.00     0.124 S 
ATOM     90  O   UNL A   1      35.038  34.419  29.449  1.00  0.00    -0.237 OA
ATOM     91  O   UNL A   1      35.796  33.102  27.495  1.00  0.00    -0.237 OA
ATOM     92  O   UNL A   1      33.808  32.392  28.768  1.00  0.00    -0.744 OA
ENDBRANCH  85  89
ENDBRANCH  58  82
BRANCH  70  93
ATOM     93  C   UNL A   1      43.709  35.732  31.385  1.00  0.00     0.023 A 
ATOM     94  C   UNL A   1      43.775  36.854  30.539  1.00  0.00     0.031 A 
ATOM     95  C   UNL A   1      43.721  35.950  32.775  1.00  0.00     0.131 A 
ATOM     96  C   UNL A   1      43.901  38.138  31.091  1.00  0.00     0.055 A 
ATOM     97  C   UNL A   1      43.792  37.234  33.317  1.00  0.00     0.041 A 
ATOM     98  F   UNL A   1      43.661  34.915  33.628  1.00  0.00    -0.206 F 
ATOM     99  C   UNL A   1      43.895  38.336  32.474  1.00  0.00     0.022 A 
BRANCH  96 100
ATOM    100  S   UNL A   1      44.155  39.546  29.974  1.00  0.00     0.124 S 
ATOM    101  O   UNL A   1      44.506  38.882  28.722  1.00  0.00    -0.237 OA
ATOM    102  O   UNL A   1      42.855  40.206  30.002  1.00  0.00    -0.237 OA
ATOM    103  O   UNL A   1      45.242  40.294  30.605  1.00  0.00    -0.744 OA
ENDBRANCH  96 100
ENDBRANCH  70  93
ENDBRANCH  44  45
ENDBRANCH  36  39
ENDBRANCH  34  35
ENDBRANCH  33  34
ENDBRANCH  32  33
ENDBRANCH   1  32
TORSDOF 20
ENDMDL
