MODEL 1
REMARK VINA RESULT:     -12.2      0.000      0.000
REMARK SMILES Cc1ccc(-c2c[nH]c(=O)cc2C(=O)NCCCCCCNC(=O)c2ccc(-c3c4nc(c(-c5cc(S(=O)(=O)[O-])ccc5F)c5ccc([nH]5)c(-c5cc(S(=O)(=O)[O-])ccc5F)c5nc(c(-c6cc(S(=O)(=O)[O-])ccc6F)c6ccc3[nH]6)C=C5)C=C4)cc2)cc1Cl
REMARK SMILES IDX 19 1 18 2 17 3 16 4 15 5 13 6 14 7 12 9 6 10 7 11 8 12 11 13
REMARK SMILES IDX 9 14 10 16 5 17 1 18 2 19 3 20 89 21 4 22 88 23 90 24 20 25
REMARK SMILES IDX 21 26 22 27 23 28 24 30 25 31 26 32 87 33 27 34 86 35 28 36
REMARK SMILES IDX 29 37 30 38 80 39 31 40 85 41 79 42 81 43 32 44 84 45 78 46
REMARK SMILES IDX 77 47 33 49 65 50 45 51 64 52 46 53 49 54 63 55 82 56 47 57
REMARK SMILES IDX 48 58 62 60 83 61 50 62 34 63 35 64 43 65 36 66 42 67 44 68
REMARK SMILES IDX 41 69 37 70 38 71 39 72 40 73 66 74 67 75 75 76 68 77 74 78
REMARK SMILES IDX 76 79 73 80 69 81 70 82 71 83 72 84 51 85 52 86 60 87 53 88
REMARK SMILES IDX 59 89 61 90 58 91 54 92 55 93 56 94 57 95
REMARK H PARENT 15 8 8 15 22 29 81 48 49 59
REMARK Flexibility Score: inf
ROOT
ATOM      1  C   UNL A   1      31.833  30.460  26.918  1.00  0.00     0.002 C 
ENDROOT
BRANCH   1   2
ATOM      2  C   UNL A   1      31.771  29.729  25.570  1.00  0.00     0.002 C 
BRANCH   2   3
ATOM      3  C   UNL A   1      33.125  29.219  25.049  1.00  0.00     0.021 C 
BRANCH   3   4
ATOM      4  C   UNL A   1      33.841  28.298  26.037  1.00  0.00     0.116 C 
BRANCH   4   5
ATOM      5  N   UNL A   1      32.955  27.233  26.457  1.00  0.00    -0.352 N 
ATOM      6  C   UNL A   1      32.477  26.078  25.940  1.00  0.00     0.252 C 
ATOM      7  O   UNL A   1      31.686  25.504  26.695  1.00  0.00    -0.269 OA
ATOM      8  H   UNL A   1      32.605  27.393  27.363  1.00  0.00     0.163 HD
BRANCH   6   9
ATOM      9  C   UNL A   1      32.873  25.463  24.614  1.00  0.00     0.054 A 
ATOM     10  C   UNL A   1      31.953  25.579  23.448  1.00  0.00     0.011 A 
ATOM     11  C   UNL A   1      32.239  24.902  22.317  1.00  0.00     0.095 A 
ATOM     12  N   UNL A   1      33.366  24.138  22.210  1.00  0.00    -0.328 N 
ATOM     13  C   UNL A   1      34.036  24.812  24.429  1.00  0.00     0.086 A 
ATOM     14  C   UNL A   1      34.315  24.051  23.190  1.00  0.00     0.248 A 
ATOM     15  H   UNL A   1      33.503  23.623  21.383  1.00  0.00     0.169 HD
ATOM     16  O   UNL A   1      35.327  23.378  23.073  1.00  0.00    -0.270 OA
BRANCH  10  17
ATOM     17  C   UNL A   1      30.763  26.456  23.362  1.00  0.00    -0.015 A 
ATOM     18  C   UNL A   1      27.220  28.919  23.064  1.00  0.00     0.046 C 
ATOM     19  C   UNL A   1      28.466  28.088  23.174  1.00  0.00    -0.032 A 
ATOM     20  C   UNL A   1      28.416  26.861  23.849  1.00  0.00     0.005 A 
ATOM     21  C   UNL A   1      29.687  28.498  22.615  1.00  0.00     0.044 A 
ATOM     22  C   UNL A   1      29.557  26.062  23.955  1.00  0.00     0.009 A 
ATOM     23  C   UNL A   1      30.822  27.688  22.699  1.00  0.00     0.029 A 
ATOM     24  Cl  UNL A   1      29.842  30.019  21.808  1.00  0.00    -0.084 Cl
ENDBRANCH  10  17
ENDBRANCH   6   9
ENDBRANCH   4   5
ENDBRANCH   3   4
ENDBRANCH   2   3
ENDBRANCH   1   2
BRANCH   1  25
ATOM     25  C   UNL A   1      31.722  31.984  26.822  1.00  0.00     0.021 C 
BRANCH  25  26
ATOM     26  C   UNL A   1      33.002  32.720  27.199  1.00  0.00     0.116 C 
BRANCH  26  27
ATOM     27  N   UNL A   1      32.719  34.074  27.646  1.00  0.00    -0.352 N 
ATOM     28  C   UNL A   1      33.179  34.726  28.762  1.00  0.00     0.251 C 
ATOM     29  H   UNL A   1      32.113  34.594  27.069  1.00  0.00     0.163 HD
ATOM     30  O   UNL A   1      32.631  35.758  29.136  1.00  0.00    -0.269 OA
BRANCH  28  31
ATOM     31  C   UNL A   1      34.326  34.168  29.509  1.00  0.00     0.039 A 
ATOM     32  C   UNL A   1      34.086  33.333  30.602  1.00  0.00     0.014 A 
ATOM     33  C   UNL A   1      35.637  34.480  29.133  1.00  0.00     0.014 A 
ATOM     34  C   UNL A   1      35.164  32.773  31.290  1.00  0.00     0.010 A 
ATOM     35  C   UNL A   1      36.706  33.856  29.768  1.00  0.00     0.010 A 
ATOM     36  C   UNL A   1      36.481  33.008  30.863  1.00  0.00    -0.014 A 
BRANCH  36  37
ATOM     37  C   UNL A   1      37.639  32.402  31.568  1.00  0.00     0.031 A 
ATOM     38  C   UNL A   1      38.390  31.263  30.931  1.00  0.00     0.074 A 
ATOM     39  C   UNL A   1      37.984  32.842  32.794  1.00  0.00     0.049 A 
ATOM     40  N   UNL A   1      39.382  30.554  31.407  1.00  0.00    -0.248 NA
ATOM     41  C   UNL A   1      37.945  30.847  29.593  1.00  0.00     0.031 C 
ATOM     42  C   UNL A   1      37.312  33.919  33.523  1.00  0.00     0.029 A 
ATOM     43  N   UNL A   1      38.982  32.439  33.645  1.00  0.00    -0.354 N 
ATOM     44  C   UNL A   1      39.672  29.605  30.433  1.00  0.00     0.074 A 
ATOM     45  C   UNL A   1      38.702  29.784  29.373  1.00  0.00     0.031 C 
ATOM     46  C   UNL A   1      37.937  34.112  34.696  1.00  0.00     0.029 A 
ATOM     47  C   UNL A   1      39.018  33.140  34.827  1.00  0.00     0.049 A 
ATOM     48  H   UNL A   1      39.612  31.713  33.430  1.00  0.00     0.167 HD
ATOM     49  C   UNL A   1      40.672  28.689  30.410  1.00  0.00     0.034 A 
ATOM     50  C   UNL A   1      39.823  33.007  35.900  1.00  0.00     0.034 A 
ATOM     51  C   UNL A   1      41.632  28.530  31.475  1.00  0.00     0.049 A 
ATOM     52  C   UNL A   1      40.897  31.948  35.874  1.00  0.00     0.074 A 
ATOM     53  C   UNL A   1      42.708  27.662  31.543  1.00  0.00     0.029 A 
ATOM     54  N   UNL A   1      41.627  29.247  32.666  1.00  0.00    -0.354 N 
ATOM     55  N   UNL A   1      41.186  31.085  34.927  1.00  0.00    -0.248 NA
ATOM     56  C   UNL A   1      41.761  31.853  37.057  1.00  0.00     0.031 C 
ATOM     57  C   UNL A   1      43.305  27.800  32.801  1.00  0.00     0.029 A 
ATOM     58  C   UNL A   1      42.660  28.819  33.485  1.00  0.00     0.049 A 
ATOM     59  H   UNL A   1      40.984  29.957  32.893  1.00  0.00     0.167 HD
ATOM     60  C   UNL A   1      42.291  30.372  35.387  1.00  0.00     0.074 A 
ATOM     61  C   UNL A   1      42.621  30.916  36.688  1.00  0.00     0.031 C 
ATOM     62  C   UNL A   1      42.975  29.365  34.786  1.00  0.00     0.034 A 
BRANCH  49  63
ATOM     63  C   UNL A   1      40.751  27.776  29.207  1.00  0.00     0.023 A 
ATOM     64  C   UNL A   1      41.694  27.984  28.184  1.00  0.00     0.031 A 
ATOM     65  C   UNL A   1      39.853  26.705  29.063  1.00  0.00     0.131 A 
ATOM     66  C   UNL A   1      41.660  27.192  27.027  1.00  0.00     0.055 A 
ATOM     67  C   UNL A   1      39.886  25.861  27.950  1.00  0.00     0.041 A 
ATOM     68  F   UNL A   1      38.916  26.467  29.992  1.00  0.00    -0.206 F 
ATOM     69  C   UNL A   1      40.782  26.113  26.916  1.00  0.00     0.022 A 
BRANCH  66  70
ATOM     70  S   UNL A   1      42.668  27.695  25.604  1.00  0.00     0.124 S 
ATOM     71  O   UNL A   1      43.938  28.026  26.247  1.00  0.00    -0.237 OA
ATOM     72  O   UNL A   1      42.665  26.496  24.776  1.00  0.00    -0.237 OA
ATOM     73  O   UNL A   1      41.940  28.837  25.056  1.00  0.00    -0.744 OA
ENDBRANCH  66  70
ENDBRANCH  49  63
BRANCH  50  74
ATOM     74  C   UNL A   1      39.650  33.888  37.092  1.00  0.00     0.023 A 
ATOM     75  C   UNL A   1      39.022  33.416  38.254  1.00  0.00     0.031 A 
ATOM     76  C   UNL A   1      40.069  35.231  37.069  1.00  0.00     0.131 A 
ATOM     77  C   UNL A   1      38.780  34.291  39.325  1.00  0.00     0.055 A 
ATOM     78  C   UNL A   1      39.883  36.081  38.161  1.00  0.00     0.041 A 
ATOM     79  F   UNL A   1      40.679  35.735  35.984  1.00  0.00    -0.206 F 
ATOM     80  C   UNL A   1      39.221  35.616  39.292  1.00  0.00     0.022 A 
BRANCH  77  81
ATOM     81  S   UNL A   1      37.792  33.698  40.726  1.00  0.00     0.124 S 
ATOM     82  O   UNL A   1      38.763  32.881  41.446  1.00  0.00    -0.237 OA
ATOM     83  O   UNL A   1      37.399  34.947  41.369  1.00  0.00    -0.237 OA
ATOM     84  O   UNL A   1      36.706  32.960  40.086  1.00  0.00    -0.744 OA
ENDBRANCH  77  81
ENDBRANCH  50  74
BRANCH  62  85
ATOM     85  C   UNL A   1      44.186  28.826  35.509  1.00  0.00     0.023 A 
ATOM     86  C   UNL A   1      44.099  27.752  36.412  1.00  0.00     0.031 A 
ATOM     87  C   UNL A   1      45.450  29.407  35.295  1.00  0.00     0.131 A 
ATOM     88  C   UNL A   1      45.240  27.331  37.111  1.00  0.00     0.055 A 
ATOM     89  C   UNL A   1      46.595  28.938  35.940  1.00  0.00     0.041 A 
ATOM     90  F   UNL A   1      45.593  30.438  34.448  1.00  0.00    -0.206 F 
ATOM     91  C   UNL A   1      46.491  27.904  36.866  1.00  0.00     0.022 A 
BRANCH  88  92
ATOM     92  S   UNL A   1      45.052  26.095  38.424  1.00  0.00     0.124 S 
ATOM     93  O   UNL A   1      44.804  24.877  37.660  1.00  0.00    -0.237 OA
ATOM     94  O   UNL A   1      46.338  26.168  39.109  1.00  0.00    -0.237 OA
ATOM     95  O   UNL A   1      43.911  26.586  39.197  1.00  0.00    -0.744 OA
ENDBRANCH  88  92
ENDBRANCH  62  85
ENDBRANCH  36  37
ENDBRANCH  28  31
ENDBRANCH  26  27
ENDBRANCH  25  26
ENDBRANCH   1  25
TORSDOF 17
ENDMDL
MODEL 2
REMARK VINA RESULT:     -12.1      2.166      8.134
REMARK SMILES Cc1ccc(-c2c[nH]c(=O)cc2C(=O)NCCCCCCNC(=O)c2ccc(-c3c4nc(c(-c5cc(S(=O)(=O)[O-])ccc5F)c5ccc([nH]5)c(-c5cc(S(=O)(=O)[O-])ccc5F)c5nc(c(-c6cc(S(=O)(=O)[O-])ccc6F)c6ccc3[nH]6)C=C5)C=C4)cc2)cc1Cl
REMARK SMILES IDX 19 1 18 2 17 3 16 4 15 5 13 6 14 7 12 9 6 10 7 11 8 12 11 13
REMARK SMILES IDX 9 14 10 16 5 17 1 18 2 19 3 20 89 21 4 22 88 23 90 24 20 25
REMARK SMILES IDX 21 26 22 27 23 28 24 30 25 31 26 32 87 33 27 34 86 35 28 36
REMARK SMILES IDX 29 37 30 38 80 39 31 40 85 41 79 42 81 43 32 44 84 45 78 46
REMARK SMILES IDX 77 47 33 49 65 50 45 51 64 52 46 53 49 54 63 55 82 56 47 57
REMARK SMILES IDX 48 58 62 60 83 61 50 62 34 63 35 64 43 65 36 66 42 67 44 68
REMARK SMILES IDX 41 69 37 70 38 71 39 72 40 73 66 74 67 75 75 76 68 77 74 78
REMARK SMILES IDX 76 79 73 80 69 81 70 82 71 83 72 84 51 85 52 86 60 87 53 88
REMARK SMILES IDX 59 89 61 90 58 91 54 92 55 93 56 94 57 95
REMARK H PARENT 15 8 8 15 22 29 81 48 49 59
REMARK Flexibility Score: inf
ROOT
ATOM      1  C   UNL A   1      31.535  30.656  25.790  1.00  0.00     0.002 C 
ENDROOT
BRANCH   1   2
ATOM      2  C   UNL A   1      32.890  29.943  25.897  1.00  0.00     0.002 C 
BRANCH   2   3
ATOM      3  C   UNL A   1      32.857  28.604  26.654  1.00  0.00     0.021 C 
BRANCH   3   4
ATOM      4  C   UNL A   1      31.550  28.376  27.414  1.00  0.00     0.116 C 
BRANCH   4   5
ATOM      5  N   UNL A   1      31.041  27.048  27.141  1.00  0.00    -0.352 N 
ATOM      6  C   UNL A   1      30.748  26.304  26.049  1.00  0.00     0.252 C 
ATOM      7  O   UNL A   1      30.284  25.195  26.334  1.00  0.00    -0.269 OA
ATOM      8  H   UNL A   1      30.858  26.554  27.972  1.00  0.00     0.163 HD
BRANCH   6   9
ATOM      9  C   UNL A   1      30.993  26.698  24.608  1.00  0.00     0.054 A 
ATOM     10  C   UNL A   1      32.204  26.191  23.904  1.00  0.00     0.011 A 
ATOM     11  C   UNL A   1      32.496  26.665  22.676  1.00  0.00     0.095 A 
ATOM     12  N   UNL A   1      31.690  27.575  22.055  1.00  0.00    -0.328 N 
ATOM     13  C   UNL A   1      30.154  27.489  23.915  1.00  0.00     0.086 A 
ATOM     14  C   UNL A   1      30.510  28.022  22.579  1.00  0.00     0.248 A 
ATOM     15  H   UNL A   1      31.973  27.929  21.181  1.00  0.00     0.169 HD
ATOM     16  O   UNL A   1      29.790  28.823  22.004  1.00  0.00    -0.270 OA
BRANCH  10  17
ATOM     17  C   UNL A   1      33.108  25.122  24.387  1.00  0.00    -0.015 A 
ATOM     18  C   UNL A   1      35.844  22.058  25.742  1.00  0.00     0.046 C 
ATOM     19  C   UNL A   1      34.872  23.105  25.280  1.00  0.00    -0.032 A 
ATOM     20  C   UNL A   1      35.136  24.455  25.549  1.00  0.00     0.005 A 
ATOM     21  C   UNL A   1      33.701  22.776  24.580  1.00  0.00     0.044 A 
ATOM     22  C   UNL A   1      34.254  25.450  25.121  1.00  0.00     0.009 A 
ATOM     23  C   UNL A   1      32.831  23.773  24.129  1.00  0.00     0.029 A 
ATOM     24  Cl  UNL A   1      33.280  21.133  24.250  1.00  0.00    -0.084 Cl
ENDBRANCH  10  17
ENDBRANCH   6   9
ENDBRANCH   4   5
ENDBRANCH   3   4
ENDBRANCH   2   3
ENDBRANCH   1   2
BRANCH   1  25
ATOM     25  C   UNL A   1      31.452  31.985  26.544  1.00  0.00     0.021 C 
BRANCH  25  26
ATOM     26  C   UNL A   1      32.770  32.421  27.172  1.00  0.00     0.116 C 
BRANCH  26  27
ATOM     27  N   UNL A   1      32.708  33.801  27.623  1.00  0.00    -0.352 N 
ATOM     28  C   UNL A   1      33.380  34.400  28.659  1.00  0.00     0.251 C 
ATOM     29  H   UNL A   1      32.101  34.387  27.115  1.00  0.00     0.163 HD
ATOM     30  O   UNL A   1      33.009  35.492  29.077  1.00  0.00    -0.269 OA
BRANCH  28  31
ATOM     31  C   UNL A   1      34.538  33.712  29.268  1.00  0.00     0.039 A 
ATOM     32  C   UNL A   1      34.314  32.707  30.211  1.00  0.00     0.014 A 
ATOM     33  C   UNL A   1      35.843  34.069  28.913  1.00  0.00     0.014 A 
ATOM     34  C   UNL A   1      35.401  32.028  30.764  1.00  0.00     0.010 A 
ATOM     35  C   UNL A   1      36.919  33.336  29.404  1.00  0.00     0.010 A 
ATOM     36  C   UNL A   1      36.711  32.318  30.346  1.00  0.00    -0.014 A 
BRANCH  36  37
ATOM     37  C   UNL A   1      37.878  31.589  30.905  1.00  0.00     0.031 A 
ATOM     38  C   UNL A   1      38.392  31.939  32.276  1.00  0.00     0.074 A 
ATOM     39  C   UNL A   1      38.500  30.651  30.165  1.00  0.00     0.049 A 
ATOM     40  N   UNL A   1      39.433  31.472  32.915  1.00  0.00    -0.248 NA
ATOM     41  C   UNL A   1      37.653  32.976  33.012  1.00  0.00     0.031 C 
ATOM     42  C   UNL A   1      38.110  30.248  28.813  1.00  0.00     0.029 A 
ATOM     43  N   UNL A   1      39.591  29.867  30.442  1.00  0.00    -0.354 N 
ATOM     44  C   UNL A   1      39.479  32.163  34.122  1.00  0.00     0.074 A 
ATOM     45  C   UNL A   1      38.404  33.131  34.090  1.00  0.00     0.031 C 
ATOM     46  C   UNL A   1      38.929  29.270  28.392  1.00  0.00     0.029 A 
ATOM     47  C   UNL A   1      39.934  29.013  29.419  1.00  0.00     0.049 A 
ATOM     48  H   UNL A   1      40.085  29.913  31.292  1.00  0.00     0.167 HD
ATOM     49  C   UNL A   1      40.321  31.985  35.170  1.00  0.00     0.034 A 
ATOM     50  C   UNL A   1      40.949  28.132  29.316  1.00  0.00     0.034 A 
ATOM     51  C   UNL A   1      41.384  31.010  35.184  1.00  0.00     0.049 A 
ATOM     52  C   UNL A   1      41.903  27.987  30.475  1.00  0.00     0.074 A 
ATOM     53  C   UNL A   1      42.272  30.717  36.204  1.00  0.00     0.029 A 
ATOM     54  N   UNL A   1      41.711  30.174  34.123  1.00  0.00    -0.354 N 
ATOM     55  N   UNL A   1      41.908  28.618  31.628  1.00  0.00    -0.248 NA
ATOM     56  C   UNL A   1      42.982  27.003  30.325  1.00  0.00     0.031 C 
ATOM     57  C   UNL A   1      43.181  29.763  35.735  1.00  0.00     0.029 A 
ATOM     58  C   UNL A   1      42.807  29.390  34.453  1.00  0.00     0.049 A 
ATOM     59  H   UNL A   1      41.234  30.142  33.263  1.00  0.00     0.167 HD
ATOM     60  C   UNL A   1      42.968  28.076  32.353  1.00  0.00     0.074 A 
ATOM     61  C   UNL A   1      43.567  27.061  31.512  1.00  0.00     0.031 C 
ATOM     62  C   UNL A   1      43.401  28.385  33.602  1.00  0.00     0.034 A 
BRANCH  49  63
ATOM     63  C   UNL A   1      40.136  32.887  36.370  1.00  0.00     0.023 A 
ATOM     64  C   UNL A   1      39.363  32.493  37.477  1.00  0.00     0.031 A 
ATOM     65  C   UNL A   1      40.710  34.170  36.395  1.00  0.00     0.131 A 
ATOM     66  C   UNL A   1      39.115  33.400  38.518  1.00  0.00     0.055 A 
ATOM     67  C   UNL A   1      40.535  35.034  37.478  1.00  0.00     0.041 A 
ATOM     68  F   UNL A   1      41.439  34.614  35.360  1.00  0.00    -0.206 F 
ATOM     69  C   UNL A   1      39.719  34.658  38.540  1.00  0.00     0.022 A 
BRANCH  66  70
ATOM     70  S   UNL A   1      37.860  32.972  39.757  1.00  0.00     0.124 S 
ATOM     71  O   UNL A   1      36.699  32.693  38.915  1.00  0.00    -0.237 OA
ATOM     72  O   UNL A   1      38.456  31.822  40.425  1.00  0.00    -0.237 OA
ATOM     73  O   UNL A   1      37.754  34.182  40.570  1.00  0.00    -0.744 OA
ENDBRANCH  66  70
ENDBRANCH  49  63
BRANCH  50  74
ATOM     74  C   UNL A   1      41.126  27.321  28.077  1.00  0.00     0.023 A 
ATOM     75  C   UNL A   1      40.816  25.953  28.058  1.00  0.00     0.031 A 
ATOM     76  C   UNL A   1      41.654  27.893  26.904  1.00  0.00     0.131 A 
ATOM     77  C   UNL A   1      41.085  25.189  26.911  1.00  0.00     0.055 A 
ATOM     78  C   UNL A   1      41.862  27.142  25.746  1.00  0.00     0.041 A 
ATOM     79  F   UNL A   1      41.966  29.199  26.865  1.00  0.00    -0.206 F 
ATOM     80  C   UNL A   1      41.591  25.778  25.750  1.00  0.00     0.022 A 
BRANCH  77  81
ATOM     81  S   UNL A   1      40.856  23.392  26.992  1.00  0.00     0.124 S 
ATOM     82  O   UNL A   1      41.363  23.089  28.326  1.00  0.00    -0.237 OA
ATOM     83  O   UNL A   1      39.415  23.262  26.807  1.00  0.00    -0.237 OA
ATOM     84  O   UNL A   1      41.671  22.896  25.886  1.00  0.00    -0.744 OA
ENDBRANCH  77  81
ENDBRANCH  50  74
BRANCH  62  85
ATOM     85  C   UNL A   1      44.546  27.571  34.155  1.00  0.00     0.023 A 
ATOM     86  C   UNL A   1      44.342  26.340  34.802  1.00  0.00     0.031 A 
ATOM     87  C   UNL A   1      45.866  28.044  34.038  1.00  0.00     0.131 A 
ATOM     88  C   UNL A   1      45.432  25.653  35.359  1.00  0.00     0.055 A 
ATOM     89  C   UNL A   1      46.954  27.322  34.531  1.00  0.00     0.041 A 
ATOM     90  F   UNL A   1      46.122  29.215  33.433  1.00  0.00    -0.206 F 
ATOM     91  C   UNL A   1      46.738  26.126  35.209  1.00  0.00     0.022 A 
BRANCH  88  92
ATOM     92  S   UNL A   1      45.110  24.185  36.373  1.00  0.00     0.124 S 
ATOM     93  O   UNL A   1      44.944  24.764  37.701  1.00  0.00    -0.237 OA
ATOM     94  O   UNL A   1      43.904  23.640  35.760  1.00  0.00    -0.237 OA
ATOM     95  O   UNL A   1      46.314  23.375  36.196  1.00  0.00    -0.744 OA
ENDBRANCH  88  92
ENDBRANCH  62  85
ENDBRANCH  36  37
ENDBRANCH  28  31
ENDBRANCH  26  27
ENDBRANCH  25  26
ENDBRANCH   1  25
TORSDOF 17
ENDMDL
MODEL 3
REMARK VINA RESULT:     -12.0      1.733      7.770
REMARK SMILES Cc1ccc(-c2c[nH]c(=O)cc2C(=O)NCCCCCCNC(=O)c2ccc(-c3c4nc(c(-c5cc(S(=O)(=O)[O-])ccc5F)c5ccc([nH]5)c(-c5cc(S(=O)(=O)[O-])ccc5F)c5nc(c(-c6cc(S(=O)(=O)[O-])ccc6F)c6ccc3[nH]6)C=C5)C=C4)cc2)cc1Cl
REMARK SMILES IDX 19 1 18 2 17 3 16 4 15 5 13 6 14 7 12 9 6 10 7 11 8 12 11 13
REMARK SMILES IDX 9 14 10 16 5 17 1 18 2 19 3 20 89 21 4 22 88 23 90 24 20 25
REMARK SMILES IDX 21 26 22 27 23 28 24 30 25 31 26 32 87 33 27 34 86 35 28 36
REMARK SMILES IDX 29 37 30 38 80 39 31 40 85 41 79 42 81 43 32 44 84 45 78 46
REMARK SMILES IDX 77 47 33 49 65 50 45 51 64 52 46 53 49 54 63 55 82 56 47 57
REMARK SMILES IDX 48 58 62 60 83 61 50 62 34 63 35 64 43 65 36 66 42 67 44 68
REMARK SMILES IDX 41 69 37 70 38 71 39 72 40 73 66 74 67 75 75 76 68 77 74 78
REMARK SMILES IDX 76 79 73 80 69 81 70 82 71 83 72 84 51 85 52 86 60 87 53 88
REMARK SMILES IDX 59 89 61 90 58 91 54 92 55 93 56 94 57 95
REMARK H PARENT 15 8 8 15 22 29 81 48 49 59
REMARK Flexibility Score: inf
ROOT
ATOM      1  C   UNL A   1      31.213  30.971  26.112  1.00  0.00     0.002 C 
ENDROOT
BRANCH   1   2
ATOM      2  C   UNL A   1      32.229  30.017  26.754  1.00  0.00     0.002 C 
BRANCH   2   3
ATOM      3  C   UNL A   1      33.156  29.297  25.761  1.00  0.00     0.021 C 
BRANCH   3   4
ATOM      4  C   UNL A   1      33.539  27.886  26.211  1.00  0.00     0.116 C 
BRANCH   4   5
ATOM      5  N   UNL A   1      32.360  27.050  26.284  1.00  0.00    -0.352 N 
ATOM      6  C   UNL A   1      31.670  26.234  25.454  1.00  0.00     0.252 C 
ATOM      7  O   UNL A   1      30.665  25.748  25.983  1.00  0.00    -0.269 OA
ATOM      8  H   UNL A   1      31.948  27.085  27.177  1.00  0.00     0.163 HD
BRANCH   6   9
ATOM      9  C   UNL A   1      32.061  25.862  24.039  1.00  0.00     0.054 A 
ATOM     10  C   UNL A   1      31.339  26.480  22.892  1.00  0.00     0.011 A 
ATOM     11  C   UNL A   1      31.587  26.033  21.644  1.00  0.00     0.095 A 
ATOM     12  N   UNL A   1      32.504  25.049  21.409  1.00  0.00    -0.328 N 
ATOM     13  C   UNL A   1      33.049  24.992  23.759  1.00  0.00     0.086 A 
ATOM     14  C   UNL A   1      33.282  24.493  22.385  1.00  0.00     0.248 A 
ATOM     15  H   UNL A   1      32.610  24.722  20.487  1.00  0.00     0.169 HD
ATOM     16  O   UNL A   1      34.111  23.625  22.157  1.00  0.00    -0.270 OA
BRANCH  10  17
ATOM     17  C   UNL A   1      30.412  27.631  22.966  1.00  0.00    -0.015 A 
ATOM     18  C   UNL A   1      27.777  31.049  23.269  1.00  0.00     0.046 C 
ATOM     19  C   UNL A   1      28.672  29.849  23.148  1.00  0.00    -0.032 A 
ATOM     20  C   UNL A   1      30.035  30.032  22.881  1.00  0.00     0.005 A 
ATOM     21  C   UNL A   1      28.186  28.540  23.298  1.00  0.00     0.044 A 
ATOM     22  C   UNL A   1      30.892  28.933  22.775  1.00  0.00     0.009 A 
ATOM     23  C   UNL A   1      29.047  27.442  23.217  1.00  0.00     0.029 A 
ATOM     24  Cl  UNL A   1      26.510  28.229  23.581  1.00  0.00    -0.084 Cl
ENDBRANCH  10  17
ENDBRANCH   6   9
ENDBRANCH   4   5
ENDBRANCH   3   4
ENDBRANCH   2   3
ENDBRANCH   1   2
BRANCH   1  25
ATOM     25  C   UNL A   1      31.360  32.436  26.531  1.00  0.00     0.021 C 
BRANCH  25  26
ATOM     26  C   UNL A   1      32.719  32.772  27.131  1.00  0.00     0.116 C 
BRANCH  26  27
ATOM     27  N   UNL A   1      32.729  34.111  27.697  1.00  0.00    -0.352 N 
ATOM     28  C   UNL A   1      33.450  34.591  28.761  1.00  0.00     0.251 C 
ATOM     29  H   UNL A   1      32.137  34.763  27.256  1.00  0.00     0.163 HD
ATOM     30  O   UNL A   1      33.138  35.659  29.278  1.00  0.00    -0.269 OA
BRANCH  28  31
ATOM     31  C   UNL A   1      34.590  33.806  29.280  1.00  0.00     0.039 A 
ATOM     32  C   UNL A   1      35.889  34.182  28.934  1.00  0.00     0.014 A 
ATOM     33  C   UNL A   1      34.371  32.694  30.100  1.00  0.00     0.014 A 
ATOM     34  C   UNL A   1      36.973  33.467  29.449  1.00  0.00     0.010 A 
ATOM     35  C   UNL A   1      35.453  32.035  30.676  1.00  0.00     0.010 A 
ATOM     36  C   UNL A   1      36.765  32.405  30.345  1.00  0.00    -0.014 A 
BRANCH  36  37
ATOM     37  C   UNL A   1      37.905  31.649  30.922  1.00  0.00     0.031 A 
ATOM     38  C   UNL A   1      38.363  31.941  32.326  1.00  0.00     0.074 A 
ATOM     39  C   UNL A   1      38.555  30.739  30.171  1.00  0.00     0.049 A 
ATOM     40  N   UNL A   1      39.375  31.443  32.989  1.00  0.00    -0.248 NA
ATOM     41  C   UNL A   1      37.596  32.950  33.073  1.00  0.00     0.031 C 
ATOM     42  C   UNL A   1      38.221  30.394  28.788  1.00  0.00     0.029 A 
ATOM     43  N   UNL A   1      39.633  29.941  30.460  1.00  0.00    -0.354 N 
ATOM     44  C   UNL A   1      39.373  32.084  34.223  1.00  0.00     0.074 A 
ATOM     45  C   UNL A   1      38.302  33.057  34.187  1.00  0.00     0.031 C 
ATOM     46  C   UNL A   1      39.055  29.431  28.362  1.00  0.00     0.029 A 
ATOM     47  C   UNL A   1      40.015  29.128  29.419  1.00  0.00     0.049 A 
ATOM     48  H   UNL A   1      40.091  29.949  31.332  1.00  0.00     0.167 HD
ATOM     49  C   UNL A   1      40.169  31.860  35.298  1.00  0.00     0.034 A 
ATOM     50  C   UNL A   1      41.032  28.247  29.322  1.00  0.00     0.034 A 
ATOM     51  C   UNL A   1      41.229  30.881  35.316  1.00  0.00     0.049 A 
ATOM     52  C   UNL A   1      41.937  28.051  30.513  1.00  0.00     0.074 A 
ATOM     53  C   UNL A   1      42.072  30.543  36.359  1.00  0.00     0.029 A 
ATOM     54  N   UNL A   1      41.598  30.087  34.236  1.00  0.00    -0.354 N 
ATOM     55  N   UNL A   1      41.895  28.634  31.689  1.00  0.00    -0.248 NA
ATOM     56  C   UNL A   1      43.018  27.069  30.367  1.00  0.00     0.031 C 
ATOM     57  C   UNL A   1      42.998  29.605  35.889  1.00  0.00     0.029 A 
ATOM     58  C   UNL A   1      42.677  29.286  34.579  1.00  0.00     0.049 A 
ATOM     59  H   UNL A   1      41.157  30.093  33.356  1.00  0.00     0.167 HD
ATOM     60  C   UNL A   1      42.922  28.059  32.435  1.00  0.00     0.074 A 
ATOM     61  C   UNL A   1      43.553  27.076  31.578  1.00  0.00     0.031 C 
ATOM     62  C   UNL A   1      43.303  28.314  33.713  1.00  0.00     0.034 A 
BRANCH  49  63
ATOM     63  C   UNL A   1      39.937  32.713  36.525  1.00  0.00     0.023 A 
ATOM     64  C   UNL A   1      39.076  32.300  37.558  1.00  0.00     0.031 A 
ATOM     65  C   UNL A   1      40.556  33.968  36.650  1.00  0.00     0.131 A 
ATOM     66  C   UNL A   1      38.791  33.168  38.623  1.00  0.00     0.055 A 
ATOM     67  C   UNL A   1      40.340  34.789  37.760  1.00  0.00     0.041 A 
ATOM     68  F   UNL A   1      41.370  34.429  35.689  1.00  0.00    -0.206 F 
ATOM     69  C   UNL A   1      39.440  34.398  38.745  1.00  0.00     0.022 A 
BRANCH  66  70
ATOM     70  S   UNL A   1      37.439  32.736  39.753  1.00  0.00     0.124 S 
ATOM     71  O   UNL A   1      36.296  32.702  38.843  1.00  0.00    -0.237 OA
ATOM     72  O   UNL A   1      37.871  31.449  40.284  1.00  0.00    -0.237 OA
ATOM     73  O   UNL A   1      37.429  33.838  40.713  1.00  0.00    -0.744 OA
ENDBRANCH  66  70
ENDBRANCH  49  63
BRANCH  50  74
ATOM     74  C   UNL A   1      41.259  27.487  28.059  1.00  0.00     0.023 A 
ATOM     75  C   UNL A   1      40.966  26.118  27.977  1.00  0.00     0.031 A 
ATOM     76  C   UNL A   1      41.817  28.110  26.926  1.00  0.00     0.131 A 
ATOM     77  C   UNL A   1      41.281  25.402  26.811  1.00  0.00     0.055 A 
ATOM     78  C   UNL A   1      42.071  27.407  25.748  1.00  0.00     0.041 A 
ATOM     79  F   UNL A   1      42.114  29.419  26.948  1.00  0.00    -0.206 F 
ATOM     80  C   UNL A   1      41.816  26.040  25.691  1.00  0.00     0.022 A 
BRANCH  77  81
ATOM     81  S   UNL A   1      41.071  23.600  26.815  1.00  0.00     0.124 S 
ATOM     82  O   UNL A   1      41.479  23.258  28.173  1.00  0.00    -0.237 OA
ATOM     83  O   UNL A   1      39.649  23.461  26.517  1.00  0.00    -0.237 OA
ATOM     84  O   UNL A   1      41.973  23.150  25.758  1.00  0.00    -0.744 OA
ENDBRANCH  77  81
ENDBRANCH  50  74
BRANCH  62  85
ATOM     85  C   UNL A   1      44.423  27.473  34.279  1.00  0.00     0.023 A 
ATOM     86  C   UNL A   1      44.201  26.182  34.788  1.00  0.00     0.031 A 
ATOM     87  C   UNL A   1      45.734  27.981  34.316  1.00  0.00     0.131 A 
ATOM     88  C   UNL A   1      45.261  25.467  35.366  1.00  0.00     0.055 A 
ATOM     89  C   UNL A   1      46.798  27.237  34.827  1.00  0.00     0.041 A 
ATOM     90  F   UNL A   1      46.005  29.209  33.847  1.00  0.00    -0.206 F 
ATOM     91  C   UNL A   1      46.562  25.977  35.369  1.00  0.00     0.022 A 
BRANCH  88  92
ATOM     92  S   UNL A   1      44.899  23.902  36.207  1.00  0.00     0.124 S 
ATOM     93  O   UNL A   1      46.098  23.121  35.924  1.00  0.00    -0.237 OA
ATOM     94  O   UNL A   1      44.727  24.325  37.593  1.00  0.00    -0.237 OA
ATOM     95  O   UNL A   1      43.682  23.431  35.548  1.00  0.00    -0.744 OA
ENDBRANCH  88  92
ENDBRANCH  62  85
ENDBRANCH  36  37
ENDBRANCH  28  31
ENDBRANCH  26  27
ENDBRANCH  25  26
ENDBRANCH   1  25
TORSDOF 17
ENDMDL
