MODEL 1
REMARK VINA RESULT:     -12.6      0.000      0.000
REMARK SMILES O=C(NCCCCCCNC(=O)c1ccc2nc(-c3c[nH]nc3-c3ccc(F)cc3F)[nH]c2c1)c1ccc(-c2c3nc(c(-c4cc(S(=O)(=O)[O-])ccc4F)c4ccc([nH]4)c(-c4cc(S(=O)(=O)[O-])ccc4F)c4nc(c(-c5cc(S(=O)(=O)[O-])ccc5F)c5ccc2[nH]5)C=C4)C=C3)cc1
REMARK SMILES IDX 6 1 5 2 4 3 3 4 1 5 2 6 35 8 36 9 97 10 37 11 96 12 38 13
REMARK SMILES IDX 39 14 40 15 90 16 41 17 95 18 89 19 91 20 42 21 94 22 88 23
REMARK SMILES IDX 87 24 43 26 75 27 55 28 74 29 56 30 59 31 73 32 92 33 57 34
REMARK SMILES IDX 58 35 72 37 93 38 60 39 44 40 45 41 53 42 46 43 52 44 54 45
REMARK SMILES IDX 51 46 47 47 48 48 49 49 50 50 76 51 77 52 85 53 78 54 84 55
REMARK SMILES IDX 86 56 83 57 79 58 80 59 81 60 82 61 61 62 62 63 70 64 63 65
REMARK SMILES IDX 69 66 71 67 68 68 64 69 65 70 66 71 67 72 7 73 8 74 9 75
REMARK SMILES IDX 10 76 11 77 12 79 13 80 14 81 34 82 15 83 33 84 16 85 32 86
REMARK SMILES IDX 17 87 18 88 19 90 20 91 23 92 21 93 22 94 24 96 25 97 30 98
REMARK SMILES IDX 26 99 29 100 31 101 27 102 28 103
REMARK H PARENT 3 7 91 25 59 36 10 78 32 89 21 95
REMARK Flexibility Score: inf
ROOT
ATOM      1  C   UNL A   1      31.560  29.086  25.992  1.00  0.00     0.002 C 
ENDROOT
BRANCH   1   2
ATOM      2  C   UNL A   1      32.807  28.203  25.992  1.00  0.00     0.021 C 
BRANCH   2   3
ATOM      3  C   UNL A   1      34.111  28.931  26.290  1.00  0.00     0.116 C 
BRANCH   3   4
ATOM      4  N   UNL A   1      33.894  30.278  26.791  1.00  0.00    -0.352 N 
ATOM      5  O   UNL A   1      34.208  32.042  28.161  1.00  0.00    -0.269 OA
ATOM      6  C   UNL A   1      34.621  30.968  27.729  1.00  0.00     0.251 C 
ATOM      7  H   UNL A   1      33.124  30.758  26.409  1.00  0.00     0.163 HD
BRANCH   6   8
ATOM      8  C   UNL A   1      35.897  30.404  28.225  1.00  0.00     0.039 A 
ATOM      9  C   UNL A   1      37.089  30.627  27.531  1.00  0.00     0.014 A 
ATOM     10  C   UNL A   1      35.900  29.656  29.407  1.00  0.00     0.014 A 
ATOM     11  C   UNL A   1      38.263  30.015  27.957  1.00  0.00     0.010 A 
ATOM     12  C   UNL A   1      37.097  29.107  29.876  1.00  0.00     0.010 A 
ATOM     13  C   UNL A   1      38.286  29.274  29.149  1.00  0.00    -0.014 A 
BRANCH  13  14
ATOM     14  C   UNL A   1      39.586  28.780  29.669  1.00  0.00     0.031 A 
ATOM     15  C   UNL A   1      40.287  29.469  30.805  1.00  0.00     0.074 A 
ATOM     16  C   UNL A   1      40.123  27.683  29.098  1.00  0.00     0.049 A 
ATOM     17  N   UNL A   1      41.428  29.165  31.371  1.00  0.00    -0.248 NA
ATOM     18  C   UNL A   1      39.632  30.654  31.377  1.00  0.00     0.031 C 
ATOM     19  C   UNL A   1      39.527  26.944  27.978  1.00  0.00     0.029 A 
ATOM     20  N   UNL A   1      41.271  26.989  29.375  1.00  0.00    -0.354 N 
ATOM     21  C   UNL A   1      41.638  30.126  32.354  1.00  0.00     0.074 A 
ATOM     22  C   UNL A   1      40.513  31.036  32.293  1.00  0.00     0.031 C 
ATOM     23  C   UNL A   1      40.297  25.885  27.689  1.00  0.00     0.029 A 
ATOM     24  C   UNL A   1      41.473  25.907  28.548  1.00  0.00     0.049 A 
ATOM     25  H   UNL A   1      41.892  27.239  30.096  1.00  0.00     0.167 HD
ATOM     26  C   UNL A   1      42.674  30.231  33.222  1.00  0.00     0.034 A 
ATOM     27  C   UNL A   1      42.505  25.045  28.467  1.00  0.00     0.034 A 
ATOM     28  C   UNL A   1      43.782  29.305  33.268  1.00  0.00     0.049 A 
ATOM     29  C   UNL A   1      43.656  25.212  29.421  1.00  0.00     0.074 A 
ATOM     30  C   UNL A   1      44.852  29.287  34.148  1.00  0.00     0.029 A 
ATOM     31  N   UNL A   1      43.974  28.243  32.393  1.00  0.00    -0.354 N 
ATOM     32  N   UNL A   1      43.815  26.103  30.373  1.00  0.00    -0.248 NA
ATOM     33  C   UNL A   1      44.765  24.261  29.292  1.00  0.00     0.031 C 
ATOM     34  C   UNL A   1      45.723  28.262  33.761  1.00  0.00     0.029 A 
ATOM     35  C   UNL A   1      45.164  27.593  32.686  1.00  0.00     0.049 A 
ATOM     36  H   UNL A   1      43.356  27.991  31.670  1.00  0.00     0.167 HD
ATOM     37  C   UNL A   1      45.037  25.806  30.966  1.00  0.00     0.074 A 
ATOM     38  C   UNL A   1      45.556  24.638  30.285  1.00  0.00     0.031 C 
ATOM     39  C   UNL A   1      45.677  26.442  31.980  1.00  0.00     0.034 A 
BRANCH  26  40
ATOM     40  C   UNL A   1      42.691  31.408  34.166  1.00  0.00     0.023 A 
ATOM     41  C   UNL A   1      41.983  31.401  35.378  1.00  0.00     0.031 A 
ATOM     42  C   UNL A   1      43.459  32.546  33.856  1.00  0.00     0.131 A 
ATOM     43  C   UNL A   1      42.026  32.525  36.220  1.00  0.00     0.055 A 
ATOM     44  C   UNL A   1      43.547  33.634  34.725  1.00  0.00     0.041 A 
ATOM     45  F   UNL A   1      44.141  32.614  32.702  1.00  0.00    -0.206 F 
ATOM     46  C   UNL A   1      42.823  33.631  35.912  1.00  0.00     0.022 A 
BRANCH  43  47
ATOM     47  S   UNL A   1      40.958  32.558  37.685  1.00  0.00     0.124 S 
ATOM     48  O   UNL A   1      41.775  31.845  38.664  1.00  0.00    -0.237 OA
ATOM     49  O   UNL A   1      40.785  33.987  37.919  1.00  0.00    -0.237 OA
ATOM     50  O   UNL A   1      39.756  31.848  37.251  1.00  0.00    -0.744 OA
ENDBRANCH  43  47
ENDBRANCH  26  40
BRANCH  27  51
ATOM     51  C   UNL A   1      42.525  23.987  27.418  1.00  0.00     0.023 A 
ATOM     52  C   UNL A   1      41.907  22.745  27.629  1.00  0.00     0.031 A 
ATOM     53  C   UNL A   1      43.210  24.185  26.205  1.00  0.00     0.131 A 
ATOM     54  C   UNL A   1      42.029  21.732  26.665  1.00  0.00     0.055 A 
ATOM     55  C   UNL A   1      43.275  23.196  25.223  1.00  0.00     0.041 A 
ATOM     56  F   UNL A   1      43.818  25.354  25.950  1.00  0.00    -0.206 F 
ATOM     57  C   UNL A   1      42.696  21.953  25.458  1.00  0.00     0.022 A 
BRANCH  54  58
ATOM     58  S   UNL A   1      41.394  20.080  27.061  1.00  0.00     0.124 S 
ATOM     59  O   UNL A   1      40.466  19.844  25.960  1.00  0.00    -0.237 OA
ATOM     60  O   UNL A   1      42.613  19.279  27.054  1.00  0.00    -0.237 OA
ATOM     61  O   UNL A   1      40.774  20.259  28.371  1.00  0.00    -0.744 OA
ENDBRANCH  54  58
ENDBRANCH  27  51
BRANCH  39  62
ATOM     62  C   UNL A   1      46.997  25.858  32.417  1.00  0.00     0.023 A 
ATOM     63  C   UNL A   1      48.184  26.127  31.715  1.00  0.00     0.031 A 
ATOM     64  C   UNL A   1      47.060  24.994  33.522  1.00  0.00     0.131 A 
ATOM     65  C   UNL A   1      49.376  25.488  32.089  1.00  0.00     0.055 A 
ATOM     66  C   UNL A   1      48.259  24.409  33.928  1.00  0.00     0.041 A 
ATOM     67  F   UNL A   1      45.953  24.701  34.225  1.00  0.00    -0.206 F 
ATOM     68  C   UNL A   1      49.423  24.643  33.201  1.00  0.00     0.022 A 
BRANCH  65  69
ATOM     69  S   UNL A   1      50.841  25.699  31.043  1.00  0.00     0.124 S 
ATOM     70  O   UNL A   1      50.362  25.224  29.748  1.00  0.00    -0.237 OA
ATOM     71  O   UNL A   1      51.093  27.133  31.142  1.00  0.00    -0.237 OA
ATOM     72  O   UNL A   1      51.844  24.849  31.683  1.00  0.00    -0.744 OA
ENDBRANCH  65  69
ENDBRANCH  39  62
ENDBRANCH  13  14
ENDBRANCH   6   8
ENDBRANCH   3   4
ENDBRANCH   2   3
ENDBRANCH   1   2
BRANCH   1  73
ATOM     73  C   UNL A   1      31.052  29.506  24.610  1.00  0.00     0.002 C 
BRANCH  73  74
ATOM     74  C   UNL A   1      31.818  28.920  23.417  1.00  0.00     0.021 C 
BRANCH  74  75
ATOM     75  C   UNL A   1      31.088  27.809  22.665  1.00  0.00     0.116 C 
BRANCH  75  76
ATOM     76  N   UNL A   1      29.698  27.715  23.078  1.00  0.00    -0.352 N 
ATOM     77  C   UNL A   1      29.087  26.711  23.779  1.00  0.00     0.251 C 
ATOM     78  H   UNL A   1      29.122  28.471  22.821  1.00  0.00     0.163 HD
ATOM     79  O   UNL A   1      27.867  26.670  23.893  1.00  0.00    -0.269 OA
BRANCH  77  80
ATOM     80  C   UNL A   1      29.915  25.665  24.402  1.00  0.00     0.042 A 
ATOM     81  C   UNL A   1      30.075  25.649  25.795  1.00  0.00     0.016 A 
ATOM     82  C   UNL A   1      30.487  24.689  23.572  1.00  0.00     0.042 A 
ATOM     83  C   UNL A   1      30.802  24.624  26.408  1.00  0.00     0.031 A 
ATOM     84  C   UNL A   1      31.229  23.699  24.216  1.00  0.00     0.067 A 
ATOM     85  C   UNL A   1      31.356  23.623  25.599  1.00  0.00     0.089 A 
ATOM     86  N   UNL A   1      31.959  22.633  23.753  1.00  0.00    -0.338 N 
ATOM     87  N   UNL A   1      32.018  22.484  25.961  1.00  0.00    -0.228 NA
ATOM     88  C   UNL A   1      32.367  21.898  24.836  1.00  0.00     0.142 A 
ATOM     89  H   UNL A   1      32.156  22.432  22.810  1.00  0.00     0.168 HD
BRANCH  88  90
ATOM     90  C   UNL A   1      33.059  20.592  24.775  1.00  0.00     0.063 A 
ATOM     91  C   UNL A   1      32.474  19.353  24.686  1.00  0.00     0.117 A 
ATOM     92  C   UNL A   1      34.463  20.359  24.816  1.00  0.00     0.106 A 
ATOM     93  N   UNL A   1      33.515  18.476  24.580  1.00  0.00    -0.284 N 
ATOM     94  N   UNL A   1      34.722  19.043  24.727  1.00  0.00    -0.175 NA
ATOM     95  H   UNL A   1      33.389  17.514  24.412  1.00  0.00     0.189 HD
BRANCH  92  96
ATOM     96  C   UNL A   1      35.514  21.331  25.091  1.00  0.00     0.039 A 
ATOM     97  C   UNL A   1      35.160  22.645  25.447  1.00  0.00     0.016 A 
ATOM     98  C   UNL A   1      36.867  20.998  24.994  1.00  0.00     0.135 A 
ATOM     99  C   UNL A   1      36.147  23.602  25.687  1.00  0.00     0.040 A 
ATOM    100  C   UNL A   1      37.855  21.950  25.236  1.00  0.00     0.079 A 
ATOM    101  F   UNL A   1      37.249  19.759  24.648  1.00  0.00    -0.206 F 
ATOM    102  C   UNL A   1      37.484  23.244  25.579  1.00  0.00     0.126 A 
ATOM    103  F   UNL A   1      38.429  24.164  25.812  1.00  0.00    -0.207 F 
ENDBRANCH  92  96
ENDBRANCH  88  90
ENDBRANCH  77  80
ENDBRANCH  75  76
ENDBRANCH  74  75
ENDBRANCH  73  74
ENDBRANCH   1  73
TORSDOF 18
ENDMDL
MODEL 2
REMARK VINA RESULT:     -12.5      4.659      8.311
REMARK SMILES O=C(NCCCCCCNC(=O)c1ccc2nc(-c3c[nH]nc3-c3ccc(F)cc3F)[nH]c2c1)c1ccc(-c2c3nc(c(-c4cc(S(=O)(=O)[O-])ccc4F)c4ccc([nH]4)c(-c4cc(S(=O)(=O)[O-])ccc4F)c4nc(c(-c5cc(S(=O)(=O)[O-])ccc5F)c5ccc2[nH]5)C=C4)C=C3)cc1
REMARK SMILES IDX 6 1 5 2 4 3 3 4 1 5 2 6 35 8 36 9 97 10 37 11 96 12 38 13
REMARK SMILES IDX 39 14 40 15 90 16 41 17 95 18 89 19 91 20 42 21 94 22 88 23
REMARK SMILES IDX 87 24 43 26 75 27 55 28 74 29 56 30 59 31 73 32 92 33 57 34
REMARK SMILES IDX 58 35 72 37 93 38 60 39 44 40 45 41 53 42 46 43 52 44 54 45
REMARK SMILES IDX 51 46 47 47 48 48 49 49 50 50 76 51 77 52 85 53 78 54 84 55
REMARK SMILES IDX 86 56 83 57 79 58 80 59 81 60 82 61 61 62 62 63 70 64 63 65
REMARK SMILES IDX 69 66 71 67 68 68 64 69 65 70 66 71 67 72 7 73 8 74 9 75
REMARK SMILES IDX 10 76 11 77 12 79 13 80 14 81 34 82 15 83 33 84 16 85 32 86
REMARK SMILES IDX 17 87 18 88 19 90 20 91 23 92 21 93 22 94 24 96 25 97 30 98
REMARK SMILES IDX 26 99 29 100 31 101 27 102 28 103
REMARK H PARENT 3 7 91 25 59 36 10 78 32 89 21 95
REMARK Flexibility Score: inf
ROOT
ATOM      1  C   UNL A   1      37.590  21.209  24.432  1.00  0.00     0.002 C 
ENDROOT
BRANCH   1   2
ATOM      2  C   UNL A   1      38.274  19.962  24.990  1.00  0.00     0.021 C 
BRANCH   2   3
ATOM      3  C   UNL A   1      39.290  20.226  26.094  1.00  0.00     0.116 C 
BRANCH   3   4
ATOM      4  N   UNL A   1      40.429  19.326  26.027  1.00  0.00    -0.352 N 
ATOM      5  O   UNL A   1      42.605  18.770  25.827  1.00  0.00    -0.269 OA
ATOM      6  C   UNL A   1      41.766  19.637  26.057  1.00  0.00     0.251 C 
ATOM      7  H   UNL A   1      40.215  18.369  25.950  1.00  0.00     0.163 HD
BRANCH   6   8
ATOM      8  C   UNL A   1      42.188  21.025  26.353  1.00  0.00     0.039 A 
ATOM      9  C   UNL A   1      42.463  21.418  27.665  1.00  0.00     0.014 A 
ATOM     10  C   UNL A   1      42.322  21.938  25.303  1.00  0.00     0.014 A 
ATOM     11  C   UNL A   1      42.768  22.747  27.941  1.00  0.00     0.010 A 
ATOM     12  C   UNL A   1      42.706  23.255  25.573  1.00  0.00     0.010 A 
ATOM     13  C   UNL A   1      42.921  23.672  26.896  1.00  0.00    -0.014 A 
BRANCH  13  14
ATOM     14  C   UNL A   1      43.417  25.037  27.205  1.00  0.00     0.031 A 
ATOM     15  C   UNL A   1      42.518  26.078  27.812  1.00  0.00     0.074 A 
ATOM     16  C   UNL A   1      44.707  25.320  26.935  1.00  0.00     0.049 A 
ATOM     17  N   UNL A   1      42.798  27.314  28.138  1.00  0.00    -0.248 NA
ATOM     18  C   UNL A   1      41.127  25.686  28.084  1.00  0.00     0.031 C 
ATOM     19  C   UNL A   1      45.663  24.382  26.333  1.00  0.00     0.029 A 
ATOM     20  N   UNL A   1      45.444  26.458  27.133  1.00  0.00    -0.354 N 
ATOM     21  C   UNL A   1      41.619  27.856  28.637  1.00  0.00     0.074 A 
ATOM     22  C   UNL A   1      40.614  26.816  28.553  1.00  0.00     0.031 C 
ATOM     23  C   UNL A   1      46.863  24.972  26.244  1.00  0.00     0.029 A 
ATOM     24  C   UNL A   1      46.750  26.348  26.711  1.00  0.00     0.049 A 
ATOM     25  H   UNL A   1      45.076  27.276  27.538  1.00  0.00     0.167 HD
ATOM     26  C   UNL A   1      41.404  29.105  29.119  1.00  0.00     0.034 A 
ATOM     27  C   UNL A   1      47.740  27.260  26.675  1.00  0.00     0.034 A 
ATOM     28  C   UNL A   1      42.425  30.124  29.201  1.00  0.00     0.049 A 
ATOM     29  C   UNL A   1      47.457  28.647  27.184  1.00  0.00     0.074 A 
ATOM     30  C   UNL A   1      42.326  31.401  29.728  1.00  0.00     0.029 A 
ATOM     31  N   UNL A   1      43.726  29.991  28.731  1.00  0.00    -0.354 N 
ATOM     32  N   UNL A   1      46.346  29.127  27.693  1.00  0.00    -0.248 NA
ATOM     33  C   UNL A   1      48.558  29.613  27.116  1.00  0.00     0.031 C 
ATOM     34  C   UNL A   1      43.541  32.061  29.513  1.00  0.00     0.029 A 
ATOM     35  C   UNL A   1      44.424  31.175  28.918  1.00  0.00     0.049 A 
ATOM     36  H   UNL A   1      44.097  29.175  28.324  1.00  0.00     0.167 HD
ATOM     37  C   UNL A   1      46.623  30.450  28.020  1.00  0.00     0.074 A 
ATOM     38  C   UNL A   1      48.011  30.680  27.679  1.00  0.00     0.031 C 
ATOM     39  C   UNL A   1      45.803  31.393  28.550  1.00  0.00     0.034 A 
BRANCH  26  40
ATOM     40  C   UNL A   1      40.005  29.464  29.557  1.00  0.00     0.023 A 
ATOM     41  C   UNL A   1      39.641  29.527  30.912  1.00  0.00     0.031 A 
ATOM     42  C   UNL A   1      39.027  29.780  28.597  1.00  0.00     0.131 A 
ATOM     43  C   UNL A   1      38.325  29.860  31.269  1.00  0.00     0.055 A 
ATOM     44  C   UNL A   1      37.737  30.170  28.958  1.00  0.00     0.041 A 
ATOM     45  F   UNL A   1      39.314  29.719  27.286  1.00  0.00    -0.206 F 
ATOM     46  C   UNL A   1      37.377  30.205  30.301  1.00  0.00     0.022 A 
BRANCH  43  47
ATOM     47  S   UNL A   1      37.840  29.753  33.013  1.00  0.00     0.124 S 
ATOM     48  O   UNL A   1      37.351  28.379  33.101  1.00  0.00    -0.237 OA
ATOM     49  O   UNL A   1      39.091  30.031  33.708  1.00  0.00    -0.237 OA
ATOM     50  O   UNL A   1      36.811  30.783  33.148  1.00  0.00    -0.744 OA
ENDBRANCH  43  47
ENDBRANCH  26  40
BRANCH  27  51
ATOM     51  C   UNL A   1      49.067  26.912  26.092  1.00  0.00     0.023 A 
ATOM     52  C   UNL A   1      49.433  27.349  24.810  1.00  0.00     0.031 A 
ATOM     53  C   UNL A   1      49.970  26.090  26.791  1.00  0.00     0.131 A 
ATOM     54  C   UNL A   1      50.645  26.922  24.247  1.00  0.00     0.055 A 
ATOM     55  C   UNL A   1      51.201  25.719  26.251  1.00  0.00     0.041 A 
ATOM     56  F   UNL A   1      49.671  25.645  28.022  1.00  0.00    -0.206 F 
ATOM     57  C   UNL A   1      51.538  26.121  24.963  1.00  0.00     0.022 A 
BRANCH  54  58
ATOM     58  S   UNL A   1      50.990  27.338  22.515  1.00  0.00     0.124 S 
ATOM     59  O   UNL A   1      52.290  26.710  22.309  1.00  0.00    -0.237 OA
ATOM     60  O   UNL A   1      49.863  26.719  21.826  1.00  0.00    -0.237 OA
ATOM     61  O   UNL A   1      50.995  28.799  22.512  1.00  0.00    -0.744 OA
ENDBRANCH  54  58
ENDBRANCH  27  51
BRANCH  39  62
ATOM     62  C   UNL A   1      46.413  32.747  28.811  1.00  0.00     0.023 A 
ATOM     63  C   UNL A   1      46.420  33.749  27.825  1.00  0.00     0.031 A 
ATOM     64  C   UNL A   1      47.027  33.025  30.044  1.00  0.00     0.131 A 
ATOM     65  C   UNL A   1      47.084  34.961  28.066  1.00  0.00     0.055 A 
ATOM     66  C   UNL A   1      47.632  34.255  30.301  1.00  0.00     0.041 A 
ATOM     67  F   UNL A   1      47.051  32.101  31.018  1.00  0.00    -0.206 F 
ATOM     68  C   UNL A   1      47.675  35.226  29.304  1.00  0.00     0.022 A 
BRANCH  65  69
ATOM     69  S   UNL A   1      47.248  36.149  26.706  1.00  0.00     0.124 S 
ATOM     70  O   UNL A   1      48.253  37.070  27.228  1.00  0.00    -0.237 OA
ATOM     71  O   UNL A   1      47.676  35.299  25.600  1.00  0.00    -0.237 OA
ATOM     72  O   UNL A   1      45.904  36.706  26.574  1.00  0.00    -0.744 OA
ENDBRANCH  65  69
ENDBRANCH  39  62
ENDBRANCH  13  14
ENDBRANCH   6   8
ENDBRANCH   3   4
ENDBRANCH   2   3
ENDBRANCH   1   2
BRANCH   1  73
ATOM     73  C   UNL A   1      36.100  21.344  24.761  1.00  0.00     0.002 C 
BRANCH  73  74
ATOM     74  C   UNL A   1      35.778  22.011  26.104  1.00  0.00     0.021 C 
BRANCH  74  75
ATOM     75  C   UNL A   1      34.448  21.593  26.729  1.00  0.00     0.116 C 
BRANCH  75  76
ATOM     76  N   UNL A   1      33.776  20.591  25.920  1.00  0.00    -0.352 N 
ATOM     77  C   UNL A   1      32.514  20.631  25.393  1.00  0.00     0.251 C 
ATOM     78  H   UNL A   1      34.295  19.777  25.727  1.00  0.00     0.163 HD
ATOM     79  O   UNL A   1      32.004  19.635  24.892  1.00  0.00    -0.269 OA
BRANCH  77  80
ATOM     80  C   UNL A   1      31.761  21.897  25.432  1.00  0.00     0.042 A 
ATOM     81  C   UNL A   1      30.898  22.154  26.506  1.00  0.00     0.016 A 
ATOM     82  C   UNL A   1      31.970  22.825  24.400  1.00  0.00     0.042 A 
ATOM     83  C   UNL A   1      30.227  23.378  26.593  1.00  0.00     0.031 A 
ATOM     84  C   UNL A   1      31.263  24.023  24.505  1.00  0.00     0.067 A 
ATOM     85  C   UNL A   1      30.445  24.331  25.589  1.00  0.00     0.089 A 
ATOM     86  N   UNL A   1      31.170  25.124  23.692  1.00  0.00    -0.338 N 
ATOM     87  N   UNL A   1      29.988  25.615  25.499  1.00  0.00    -0.228 NA
ATOM     88  C   UNL A   1      30.440  26.078  24.354  1.00  0.00     0.142 A 
ATOM     89  H   UNL A   1      31.557  25.213  22.791  1.00  0.00     0.168 HD
BRANCH  88  90
ATOM     90  C   UNL A   1      30.224  27.466  23.890  1.00  0.00     0.063 A 
ATOM     91  C   UNL A   1      29.398  27.875  22.872  1.00  0.00     0.117 A 
ATOM     92  C   UNL A   1      30.841  28.647  24.392  1.00  0.00     0.106 A 
ATOM     93  N   UNL A   1      29.478  29.238  22.877  1.00  0.00    -0.284 N 
ATOM     94  N   UNL A   1      30.391  29.728  23.731  1.00  0.00    -0.175 NA
ATOM     95  H   UNL A   1      28.917  29.810  22.304  1.00  0.00     0.189 HD
BRANCH  92  96
ATOM     96  C   UNL A   1      31.934  28.735  25.353  1.00  0.00     0.039 A 
ATOM     97  C   UNL A   1      31.644  28.695  26.729  1.00  0.00     0.016 A 
ATOM     98  C   UNL A   1      33.262  28.876  24.945  1.00  0.00     0.135 A 
ATOM     99  C   UNL A   1      32.669  28.808  27.670  1.00  0.00     0.040 A 
ATOM    100  C   UNL A   1      34.288  28.985  25.881  1.00  0.00     0.079 A 
ATOM    101  F   UNL A   1      33.581  28.928  23.643  1.00  0.00    -0.206 F 
ATOM    102  C   UNL A   1      33.981  28.951  27.236  1.00  0.00     0.126 A 
ATOM    103  F   UNL A   1      34.962  29.056  28.140  1.00  0.00    -0.207 F 
ENDBRANCH  92  96
ENDBRANCH  88  90
ENDBRANCH  77  80
ENDBRANCH  75  76
ENDBRANCH  74  75
ENDBRANCH  73  74
ENDBRANCH   1  73
TORSDOF 18
ENDMDL
MODEL 3
REMARK VINA RESULT:     -12.2      3.924      9.020
REMARK SMILES O=C(NCCCCCCNC(=O)c1ccc2nc(-c3c[nH]nc3-c3ccc(F)cc3F)[nH]c2c1)c1ccc(-c2c3nc(c(-c4cc(S(=O)(=O)[O-])ccc4F)c4ccc([nH]4)c(-c4cc(S(=O)(=O)[O-])ccc4F)c4nc(c(-c5cc(S(=O)(=O)[O-])ccc5F)c5ccc2[nH]5)C=C4)C=C3)cc1
REMARK SMILES IDX 6 1 5 2 4 3 3 4 1 5 2 6 35 8 36 9 97 10 37 11 96 12 38 13
REMARK SMILES IDX 39 14 40 15 90 16 41 17 95 18 89 19 91 20 42 21 94 22 88 23
REMARK SMILES IDX 87 24 43 26 75 27 55 28 74 29 56 30 59 31 73 32 92 33 57 34
REMARK SMILES IDX 58 35 72 37 93 38 60 39 44 40 45 41 53 42 46 43 52 44 54 45
REMARK SMILES IDX 51 46 47 47 48 48 49 49 50 50 76 51 77 52 85 53 78 54 84 55
REMARK SMILES IDX 86 56 83 57 79 58 80 59 81 60 82 61 61 62 62 63 70 64 63 65
REMARK SMILES IDX 69 66 71 67 68 68 64 69 65 70 66 71 67 72 7 73 8 74 9 75
REMARK SMILES IDX 10 76 11 77 12 79 13 80 14 81 34 82 15 83 33 84 16 85 32 86
REMARK SMILES IDX 17 87 18 88 19 90 20 91 23 92 21 93 22 94 24 96 25 97 30 98
REMARK SMILES IDX 26 99 29 100 31 101 27 102 28 103
REMARK H PARENT 3 7 91 25 59 36 10 78 32 89 21 95
REMARK Flexibility Score: inf
ROOT
ATOM      1  C   UNL A   1      35.358  34.427  28.288  1.00  0.00     0.002 C 
ENDROOT
BRANCH   1   2
ATOM      2  C   UNL A   1      34.197  35.343  28.669  1.00  0.00     0.021 C 
BRANCH   2   3
ATOM      3  C   UNL A   1      33.086  34.675  29.468  1.00  0.00     0.116 C 
BRANCH   3   4
ATOM      4  N   UNL A   1      32.646  35.484  30.593  1.00  0.00    -0.352 N 
ATOM      5  O   UNL A   1      32.532  36.121  32.753  1.00  0.00    -0.269 OA
ATOM      6  C   UNL A   1      33.123  35.490  31.880  1.00  0.00     0.251 C 
ATOM      7  H   UNL A   1      31.909  36.110  30.407  1.00  0.00     0.163 HD
BRANCH   6   8
ATOM      8  C   UNL A   1      34.345  34.721  32.210  1.00  0.00     0.039 A 
ATOM      9  C   UNL A   1      35.609  35.291  32.041  1.00  0.00     0.014 A 
ATOM     10  C   UNL A   1      34.221  33.421  32.710  1.00  0.00     0.014 A 
ATOM     11  C   UNL A   1      36.749  34.527  32.267  1.00  0.00     0.010 A 
ATOM     12  C   UNL A   1      35.368  32.681  33.011  1.00  0.00     0.010 A 
ATOM     13  C   UNL A   1      36.641  33.225  32.782  1.00  0.00    -0.014 A 
BRANCH  13  14
ATOM     14  C   UNL A   1      37.875  32.499  33.177  1.00  0.00     0.031 A 
ATOM     15  C   UNL A   1      38.463  31.423  32.309  1.00  0.00     0.074 A 
ATOM     16  C   UNL A   1      38.466  32.839  34.341  1.00  0.00     0.049 A 
ATOM     17  N   UNL A   1      39.530  30.695  32.514  1.00  0.00    -0.248 NA
ATOM     18  C   UNL A   1      37.762  31.118  31.053  1.00  0.00     0.031 C 
ATOM     19  C   UNL A   1      37.968  33.865  35.265  1.00  0.00     0.029 A 
ATOM     20  N   UNL A   1      39.606  32.378  34.944  1.00  0.00    -0.354 N 
ATOM     21  C   UNL A   1      39.625  29.834  31.426  1.00  0.00     0.074 A 
ATOM     22  C   UNL A   1      38.491  30.120  30.570  1.00  0.00     0.031 C 
ATOM     23  C   UNL A   1      38.816  33.976  36.297  1.00  0.00     0.029 A 
ATOM     24  C   UNL A   1      39.875  32.987  36.150  1.00  0.00     0.049 A 
ATOM     25  H   UNL A   1      40.179  31.680  34.554  1.00  0.00     0.167 HD
ATOM     26  C   UNL A   1      40.571  28.897  31.172  1.00  0.00     0.034 A 
ATOM     27  C   UNL A   1      40.847  32.754  37.052  1.00  0.00     0.034 A 
ATOM     28  C   UNL A   1      41.698  28.636  32.037  1.00  0.00     0.049 A 
ATOM     29  C   UNL A   1      41.860  31.682  36.755  1.00  0.00     0.074 A 
ATOM     30  C   UNL A   1      42.746  27.752  31.842  1.00  0.00     0.029 A 
ATOM     31  N   UNL A   1      41.919  29.244  33.267  1.00  0.00    -0.354 N 
ATOM     32  N   UNL A   1      41.957  30.909  35.698  1.00  0.00    -0.248 NA
ATOM     33  C   UNL A   1      42.895  31.453  37.769  1.00  0.00     0.031 C 
ATOM     34  C   UNL A   1      43.558  27.773  32.981  1.00  0.00     0.029 A 
ATOM     35  C   UNL A   1      43.061  28.722  33.858  1.00  0.00     0.049 A 
ATOM     36  H   UNL A   1      41.348  29.942  33.661  1.00  0.00     0.167 HD
ATOM     37  C   UNL A   1      43.075  30.111  35.917  1.00  0.00     0.074 A 
ATOM     38  C   UNL A   1      43.634  30.519  37.188  1.00  0.00     0.031 C 
ATOM     39  C   UNL A   1      43.591  29.126  35.139  1.00  0.00     0.034 A 
BRANCH  26  40
ATOM     40  C   UNL A   1      40.415  28.050  29.933  1.00  0.00     0.023 A 
ATOM     41  C   UNL A   1      41.225  28.230  28.800  1.00  0.00     0.031 A 
ATOM     42  C   UNL A   1      39.455  27.023  29.901  1.00  0.00     0.131 A 
ATOM     43  C   UNL A   1      41.036  27.419  27.669  1.00  0.00     0.055 A 
ATOM     44  C   UNL A   1      39.313  26.180  28.797  1.00  0.00     0.041 A 
ATOM     45  F   UNL A   1      38.641  26.818  30.949  1.00  0.00    -0.206 F 
ATOM     46  C   UNL A   1      40.101  26.381  27.669  1.00  0.00     0.022 A 
BRANCH  43  47
ATOM     47  S   UNL A   1      41.970  27.796  26.160  1.00  0.00     0.124 S 
ATOM     48  O   UNL A   1      43.349  27.667  26.625  1.00  0.00    -0.237 OA
ATOM     49  O   UNL A   1      41.509  26.766  25.237  1.00  0.00    -0.237 OA
ATOM     50  O   UNL A   1      41.557  29.158  25.830  1.00  0.00    -0.744 OA
ENDBRANCH  43  47
ENDBRANCH  26  40
BRANCH  27  51
ATOM     51  C   UNL A   1      40.880  33.507  38.338  1.00  0.00     0.023 A 
ATOM     52  C   UNL A   1      40.238  33.014  39.484  1.00  0.00     0.031 A 
ATOM     53  C   UNL A   1      41.513  34.760  38.425  1.00  0.00     0.131 A 
ATOM     54  C   UNL A   1      40.199  33.792  40.651  1.00  0.00     0.055 A 
ATOM     55  C   UNL A   1      41.524  35.502  39.606  1.00  0.00     0.041 A 
ATOM     56  F   UNL A   1      42.143  35.279  37.359  1.00  0.00    -0.206 F 
ATOM     57  C   UNL A   1      40.849  35.026  40.725  1.00  0.00     0.022 A 
BRANCH  54  58
ATOM     58  S   UNL A   1      39.188  33.215  42.043  1.00  0.00     0.124 S 
ATOM     59  O   UNL A   1      37.908  33.859  41.770  1.00  0.00    -0.237 OA
ATOM     60  O   UNL A   1      39.228  31.768  41.865  1.00  0.00    -0.237 OA
ATOM     61  O   UNL A   1      39.903  33.718  43.213  1.00  0.00    -0.744 OA
ENDBRANCH  54  58
ENDBRANCH  27  51
BRANCH  39  62
ATOM     62  C   UNL A   1      44.840  28.450  35.648  1.00  0.00     0.023 A 
ATOM     63  C   UNL A   1      44.773  27.320  36.480  1.00  0.00     0.031 A 
ATOM     64  C   UNL A   1      46.107  28.966  35.328  1.00  0.00     0.131 A 
ATOM     65  C   UNL A   1      45.950  26.777  37.015  1.00  0.00     0.055 A 
ATOM     66  C   UNL A   1      47.278  28.385  35.814  1.00  0.00     0.041 A 
ATOM     67  F   UNL A   1      46.226  30.047  34.540  1.00  0.00    -0.206 F 
ATOM     68  C   UNL A   1      47.203  27.293  36.674  1.00  0.00     0.022 A 
BRANCH  65  69
ATOM     69  S   UNL A   1      45.816  25.449  38.242  1.00  0.00     0.124 S 
ATOM     70  O   UNL A   1      44.523  24.858  37.910  1.00  0.00    -0.237 OA
ATOM     71  O   UNL A   1      46.986  24.630  37.945  1.00  0.00    -0.237 OA
ATOM     72  O   UNL A   1      45.865  26.156  39.520  1.00  0.00    -0.744 OA
ENDBRANCH  65  69
ENDBRANCH  39  62
ENDBRANCH  13  14
ENDBRANCH   6   8
ENDBRANCH   3   4
ENDBRANCH   2   3
ENDBRANCH   1   2
BRANCH   1  73
ATOM     73  C   UNL A   1      35.366  33.056  28.971  1.00  0.00     0.002 C 
BRANCH  73  74
ATOM     74  C   UNL A   1      35.840  31.886  28.101  1.00  0.00     0.021 C 
BRANCH  74  75
ATOM     75  C   UNL A   1      34.757  30.873  27.737  1.00  0.00     0.116 C 
BRANCH  75  76
ATOM     76  N   UNL A   1      33.454  31.507  27.629  1.00  0.00    -0.352 N 
ATOM     77  C   UNL A   1      32.357  31.080  26.933  1.00  0.00     0.251 C 
ATOM     78  H   UNL A   1      33.348  32.353  28.121  1.00  0.00     0.163 HD
ATOM     79  O   UNL A   1      31.384  31.809  26.772  1.00  0.00    -0.269 OA
BRANCH  77  80
ATOM     80  C   UNL A   1      32.351  29.719  26.368  1.00  0.00     0.042 A 
ATOM     81  C   UNL A   1      31.832  28.660  27.126  1.00  0.00     0.016 A 
ATOM     82  C   UNL A   1      32.834  29.541  25.063  1.00  0.00     0.042 A 
ATOM     83  C   UNL A   1      31.757  27.375  26.579  1.00  0.00     0.031 A 
ATOM     84  C   UNL A   1      32.770  28.241  24.562  1.00  0.00     0.067 A 
ATOM     85  C   UNL A   1      32.207  27.181  25.266  1.00  0.00     0.089 A 
ATOM     86  N   UNL A   1      33.178  27.679  23.378  1.00  0.00    -0.338 N 
ATOM     87  N   UNL A   1      32.153  26.059  24.488  1.00  0.00    -0.228 NA
ATOM     88  C   UNL A   1      32.737  26.380  23.353  1.00  0.00     0.142 A 
ATOM     89  H   UNL A   1      33.697  28.127  22.673  1.00  0.00     0.168 HD
BRANCH  88  90
ATOM     90  C   UNL A   1      32.840  25.462  22.199  1.00  0.00     0.063 A 
ATOM     91  C   UNL A   1      32.337  25.664  20.937  1.00  0.00     0.117 A 
ATOM     92  C   UNL A   1      33.461  24.181  22.172  1.00  0.00     0.106 A 
ATOM     93  N   UNL A   1      32.751  24.583  20.212  1.00  0.00    -0.284 N 
ATOM     94  N   UNL A   1      33.367  23.641  20.943  1.00  0.00    -0.175 NA
ATOM     95  H   UNL A   1      32.610  24.503  19.241  1.00  0.00     0.189 HD
BRANCH  92  96
ATOM     96  C   UNL A   1      33.983  23.425  23.303  1.00  0.00     0.039 A 
ATOM     97  C   UNL A   1      35.333  23.580  23.669  1.00  0.00     0.016 A 
ATOM     98  C   UNL A   1      33.184  22.537  24.026  1.00  0.00     0.135 A 
ATOM     99  C   UNL A   1      35.866  22.847  24.730  1.00  0.00     0.040 A 
ATOM    100  C   UNL A   1      33.712  21.806  25.089  1.00  0.00     0.079 A 
ATOM    101  F   UNL A   1      31.895  22.352  23.706  1.00  0.00    -0.206 F 
ATOM    102  C   UNL A   1      35.049  21.968  25.429  1.00  0.00     0.126 A 
ATOM    103  F   UNL A   1      35.562  21.267  26.449  1.00  0.00    -0.207 F 
ENDBRANCH  92  96
ENDBRANCH  88  90
ENDBRANCH  77  80
ENDBRANCH  75  76
ENDBRANCH  74  75
ENDBRANCH  73  74
ENDBRANCH   1  73
TORSDOF 18
ENDMDL
