MODEL 1
REMARK VINA RESULT:     -11.9      0.000      0.000
REMARK SMILES CC(C)[NH2+][C@]1(C(=O)NCCCCCCNC(=O)c2ccc(-c3c4nc(c(-c5cc(S(=O)(=O)[O-])ccc5F)c5ccc([nH]5)c(-c5cc(S(=O)(=O)[O-])ccc5F)c5nc(c(-c6cc(S(=O)(=O)[O-])ccc6F)c6ccc3[nH]6)C=C5)C=C4)cc2)CC[C@H]([NH+]2CCC(C)(C)CC2)C1
REMARK SMILES IDX 12 1 11 2 10 3 9 4 8 5 6 6 7 7 5 9 81 10 92 11 82 12 83 13
REMARK SMILES IDX 4 14 2 17 1 18 3 19 84 20 85 21 91 22 86 24 90 25 87 26
REMARK SMILES IDX 88 27 89 28 13 29 14 30 15 31 16 32 17 34 18 35 19 36 80 37
REMARK SMILES IDX 20 38 79 39 21 40 22 41 23 42 73 43 24 44 78 45 72 46 74 47
REMARK SMILES IDX 25 48 77 49 71 50 70 51 26 53 58 54 38 55 57 56 39 57 42 58
REMARK SMILES IDX 56 59 75 60 40 61 41 62 55 64 76 65 43 66 27 67 28 68 36 69
REMARK SMILES IDX 29 70 35 71 37 72 34 73 30 74 31 75 32 76 33 77 59 78 60 79
REMARK SMILES IDX 68 80 61 81 67 82 69 83 66 84 62 85 63 86 64 87 65 88 44 89
REMARK SMILES IDX 45 90 53 91 46 92 52 93 54 94 51 95 47 96 48 97 49 98 50 99
REMARK H PARENT 8 8 4 15 4 16 84 23 15 33 74 52 42 63
REMARK Flexibility Score: inf
ROOT
ATOM      1  C   UNL A   1      37.162  20.892  24.794  1.00  0.00     0.002 C 
ENDROOT
BRANCH   1   2
ATOM      2  C   UNL A   1      35.727  20.420  25.008  1.00  0.00     0.002 C 
BRANCH   2   3
ATOM      3  C   UNL A   1      34.853  21.326  25.864  1.00  0.00     0.021 C 
BRANCH   3   4
ATOM      4  C   UNL A   1      34.602  22.757  25.360  1.00  0.00     0.116 C 
BRANCH   4   5
ATOM      5  N   UNL A   1      34.324  22.835  23.922  1.00  0.00    -0.351 N 
ATOM      6  C   UNL A   1      33.686  23.757  23.119  1.00  0.00     0.281 C 
ATOM      7  O   UNL A   1      33.680  23.502  21.908  1.00  0.00    -0.268 OA
ATOM      8  H   UNL A   1      34.669  22.062  23.421  1.00  0.00     0.163 HD
BRANCH   6   9
ATOM      9  C   UNL A   1      32.947  25.029  23.671  1.00  0.00     0.181 C 
ATOM     10  C   UNL A   1      33.909  25.921  24.478  1.00  0.00     0.085 C 
ATOM     11  C   UNL A   1      32.556  26.038  22.535  1.00  0.00     0.144 C 
ATOM     12  C   UNL A   1      33.580  27.395  24.229  1.00  0.00     0.072 C 
ATOM     13  C   UNL A   1      32.477  27.462  23.162  1.00  0.00     0.191 C 
BRANCH   9  14
ATOM     14  N   UNL A   1      31.637  24.701  24.272  1.00  0.00    -0.331 N 
ATOM     15  H   UNL A   1      30.961  25.332  23.843  1.00  0.00     0.347 HD
ATOM     16  H   UNL A   1      31.569  23.698  24.094  1.00  0.00     0.347 HD
BRANCH  14  17
ATOM     17  C   UNL A   1      31.400  24.766  25.695  1.00  0.00     0.176 C 
ATOM     18  C   UNL A   1      30.239  25.715  25.989  1.00  0.00     0.075 C 
ATOM     19  C   UNL A   1      31.062  23.374  26.237  1.00  0.00     0.075 C 
ENDBRANCH  14  17
ENDBRANCH   9  14
BRANCH  13  20
ATOM     20  N   UNL A   1      31.176  28.034  23.647  1.00  0.00    -0.332 N 
ATOM     21  C   UNL A   1      30.066  27.637  22.755  1.00  0.00     0.263 C 
ATOM     22  C   UNL A   1      31.218  29.477  23.906  1.00  0.00     0.263 C 
ATOM     23  H   UNL A   1      31.001  27.624  24.565  1.00  0.00     0.348 HD
ATOM     24  C   UNL A   1      28.734  28.370  22.983  1.00  0.00     0.068 C 
ATOM     25  C   UNL A   1      29.895  30.217  24.092  1.00  0.00     0.068 C 
ATOM     26  C   UNL A   1      28.886  29.901  22.989  1.00  0.00    -0.025 C 
ATOM     27  C   UNL A   1      27.550  30.582  23.328  1.00  0.00     0.011 C 
ATOM     28  C   UNL A   1      29.354  30.439  21.621  1.00  0.00     0.011 C 
ENDBRANCH  13  20
ENDBRANCH   6   9
ENDBRANCH   4   5
ENDBRANCH   3   4
ENDBRANCH   2   3
ENDBRANCH   1   2
BRANCH   1  29
ATOM     29  C   UNL A   1      38.262  19.845  25.018  1.00  0.00     0.021 C 
BRANCH  29  30
ATOM     30  C   UNL A   1      39.434  20.275  25.900  1.00  0.00     0.116 C 
BRANCH  30  31
ATOM     31  N   UNL A   1      40.423  19.223  26.061  1.00  0.00    -0.352 N 
ATOM     32  C   UNL A   1      41.781  19.321  26.211  1.00  0.00     0.251 C 
ATOM     33  H   UNL A   1      40.065  18.305  26.062  1.00  0.00     0.163 HD
ATOM     34  O   UNL A   1      42.483  18.311  26.103  1.00  0.00    -0.269 OA
BRANCH  32  35
ATOM     35  C   UNL A   1      42.406  20.632  26.479  1.00  0.00     0.039 A 
ATOM     36  C   UNL A   1      42.869  21.396  25.406  1.00  0.00     0.014 A 
ATOM     37  C   UNL A   1      42.540  21.106  27.788  1.00  0.00     0.014 A 
ATOM     38  C   UNL A   1      43.407  22.663  25.640  1.00  0.00     0.010 A 
ATOM     39  C   UNL A   1      43.011  22.397  28.013  1.00  0.00     0.010 A 
ATOM     40  C   UNL A   1      43.449  23.190  26.942  1.00  0.00    -0.014 A 
BRANCH  40  41
ATOM     41  C   UNL A   1      43.939  24.572  27.193  1.00  0.00     0.031 A 
ATOM     42  C   UNL A   1      42.998  25.636  27.686  1.00  0.00     0.074 A 
ATOM     43  C   UNL A   1      45.221  24.880  26.916  1.00  0.00     0.049 A 
ATOM     44  N   UNL A   1      43.226  26.904  27.911  1.00  0.00    -0.248 NA
ATOM     45  C   UNL A   1      41.609  25.222  27.926  1.00  0.00     0.031 C 
ATOM     46  C   UNL A   1      46.217  23.947  26.384  1.00  0.00     0.029 A 
ATOM     47  N   UNL A   1      45.905  26.065  27.031  1.00  0.00    -0.354 N 
ATOM     48  C   UNL A   1      42.008  27.444  28.313  1.00  0.00     0.074 A 
ATOM     49  C   UNL A   1      41.034  26.375  28.226  1.00  0.00     0.031 C 
ATOM     50  C   UNL A   1      47.386  24.588  26.239  1.00  0.00     0.029 A 
ATOM     51  C   UNL A   1      47.216  25.986  26.622  1.00  0.00     0.049 A 
ATOM     52  H   UNL A   1      45.496  26.893  27.373  1.00  0.00     0.167 HD
ATOM     53  C   UNL A   1      41.733  28.704  28.736  1.00  0.00     0.034 A 
ATOM     54  C   UNL A   1      48.171  26.935  26.547  1.00  0.00     0.034 A 
ATOM     55  C   UNL A   1      42.720  29.755  28.809  1.00  0.00     0.049 A 
ATOM     56  C   UNL A   1      47.842  28.335  26.990  1.00  0.00     0.074 A 
ATOM     57  C   UNL A   1      42.571  31.048  29.280  1.00  0.00     0.029 A 
ATOM     58  N   UNL A   1      44.038  29.643  28.379  1.00  0.00    -0.354 N 
ATOM     59  N   UNL A   1      46.703  28.815  27.433  1.00  0.00    -0.248 NA
ATOM     60  C   UNL A   1      48.930  29.319  26.934  1.00  0.00     0.031 C 
ATOM     61  C   UNL A   1      43.771  31.737  29.062  1.00  0.00     0.029 A 
ATOM     62  C   UNL A   1      44.699  30.853  28.533  1.00  0.00     0.049 A 
ATOM     63  H   UNL A   1      44.444  28.822  28.018  1.00  0.00     0.167 HD
ATOM     64  C   UNL A   1      46.942  30.154  27.725  1.00  0.00     0.074 A 
ATOM     65  C   UNL A   1      48.340  30.399  27.426  1.00  0.00     0.031 C 
ATOM     66  C   UNL A   1      46.085  31.096  28.201  1.00  0.00     0.034 A 
BRANCH  53  67
ATOM     67  C   UNL A   1      40.300  29.007  29.118  1.00  0.00     0.023 A 
ATOM     68  C   UNL A   1      39.886  29.047  30.461  1.00  0.00     0.031 A 
ATOM     69  C   UNL A   1      39.322  29.203  28.127  1.00  0.00     0.131 A 
ATOM     70  C   UNL A   1      38.525  29.168  30.774  1.00  0.00     0.055 A 
ATOM     71  C   UNL A   1      37.980  29.422  28.449  1.00  0.00     0.041 A 
ATOM     72  F   UNL A   1      39.647  29.159  26.826  1.00  0.00    -0.206 F 
ATOM     73  C   UNL A   1      37.570  29.383  29.779  1.00  0.00     0.022 A 
BRANCH  70  74
ATOM     74  S   UNL A   1      38.000  28.849  32.482  1.00  0.00     0.124 S 
ATOM     75  O   UNL A   1      38.180  27.403  32.581  1.00  0.00    -0.237 OA
ATOM     76  O   UNL A   1      38.930  29.665  33.255  1.00  0.00    -0.237 OA
ATOM     77  O   UNL A   1      36.609  29.298  32.504  1.00  0.00    -0.744 OA
ENDBRANCH  70  74
ENDBRANCH  53  67
BRANCH  54  78
ATOM     78  C   UNL A   1      49.520  26.590  26.016  1.00  0.00     0.023 A 
ATOM     79  C   UNL A   1      49.958  27.065  24.772  1.00  0.00     0.031 A 
ATOM     80  C   UNL A   1      50.396  25.774  26.757  1.00  0.00     0.131 A 
ATOM     81  C   UNL A   1      51.226  26.700  24.290  1.00  0.00     0.055 A 
ATOM     82  C   UNL A   1      51.673  25.452  26.296  1.00  0.00     0.041 A 
ATOM     83  F   UNL A   1      50.028  25.299  27.958  1.00  0.00    -0.206 F 
ATOM     84  C   UNL A   1      52.091  25.909  25.051  1.00  0.00     0.022 A 
BRANCH  81  85
ATOM     85  S   UNL A   1      51.712  27.233  22.626  1.00  0.00     0.124 S 
ATOM     86  O   UNL A   1      52.435  28.468  22.908  1.00  0.00    -0.237 OA
ATOM     87  O   UNL A   1      52.520  26.106  22.170  1.00  0.00    -0.237 OA
ATOM     88  O   UNL A   1      50.435  27.399  21.936  1.00  0.00    -0.744 OA
ENDBRANCH  81  85
ENDBRANCH  54  78
BRANCH  66  89
ATOM     89  C   UNL A   1      46.651  32.474  28.446  1.00  0.00     0.023 A 
ATOM     90  C   UNL A   1      46.838  33.394  27.400  1.00  0.00     0.031 A 
ATOM     91  C   UNL A   1      47.023  32.869  29.745  1.00  0.00     0.131 A 
ATOM     92  C   UNL A   1      47.434  34.639  27.659  1.00  0.00     0.055 A 
ATOM     93  C   UNL A   1      47.554  34.132  30.007  1.00  0.00     0.041 A 
ATOM     94  F   UNL A   1      46.874  32.030  30.783  1.00  0.00    -0.206 F 
ATOM     95  C   UNL A   1      47.775  35.021  28.958  1.00  0.00     0.022 A 
BRANCH  92  96
ATOM     96  S   UNL A   1      47.849  35.715  26.258  1.00  0.00     0.124 S 
ATOM     97  O   UNL A   1      46.907  36.816  26.433  1.00  0.00    -0.237 OA
ATOM     98  O   UNL A   1      49.251  36.028  26.509  1.00  0.00    -0.237 OA
ATOM     99  O   UNL A   1      47.602  34.869  25.091  1.00  0.00    -0.744 OA
ENDBRANCH  92  96
ENDBRANCH  66  89
ENDBRANCH  40  41
ENDBRANCH  32  35
ENDBRANCH  30  31
ENDBRANCH  29  30
ENDBRANCH   1  29
TORSDOF 19
ENDMDL
MODEL 2
REMARK VINA RESULT:     -11.8      5.859     12.021
REMARK SMILES CC(C)[NH2+][C@]1(C(=O)NCCCCCCNC(=O)c2ccc(-c3c4nc(c(-c5cc(S(=O)(=O)[O-])ccc5F)c5ccc([nH]5)c(-c5cc(S(=O)(=O)[O-])ccc5F)c5nc(c(-c6cc(S(=O)(=O)[O-])ccc6F)c6ccc3[nH]6)C=C5)C=C4)cc2)CC[C@H]([NH+]2CCC(C)(C)CC2)C1
REMARK SMILES IDX 12 1 11 2 10 3 9 4 8 5 6 6 7 7 5 9 81 10 92 11 82 12 83 13
REMARK SMILES IDX 4 14 2 17 1 18 3 19 84 20 85 21 91 22 86 24 90 25 87 26
REMARK SMILES IDX 88 27 89 28 13 29 14 30 15 31 16 32 17 34 18 35 19 36 80 37
REMARK SMILES IDX 20 38 79 39 21 40 22 41 23 42 73 43 24 44 78 45 72 46 74 47
REMARK SMILES IDX 25 48 77 49 71 50 70 51 26 53 58 54 38 55 57 56 39 57 42 58
REMARK SMILES IDX 56 59 75 60 40 61 41 62 55 64 76 65 43 66 27 67 28 68 36 69
REMARK SMILES IDX 29 70 35 71 37 72 34 73 30 74 31 75 32 76 33 77 59 78 60 79
REMARK SMILES IDX 68 80 61 81 67 82 69 83 66 84 62 85 63 86 64 87 65 88 44 89
REMARK SMILES IDX 45 90 53 91 46 92 52 93 54 94 51 95 47 96 48 97 49 98 50 99
REMARK H PARENT 8 8 4 15 4 16 84 23 15 33 74 52 42 63
REMARK Flexibility Score: inf
ROOT
ATOM      1  C   UNL A   1      31.820  30.495  26.144  1.00  0.00     0.002 C 
ENDROOT
BRANCH   1   2
ATOM      2  C   UNL A   1      32.569  29.567  27.094  1.00  0.00     0.002 C 
BRANCH   2   3
ATOM      3  C   UNL A   1      31.764  28.405  27.658  1.00  0.00     0.021 C 
BRANCH   3   4
ATOM      4  C   UNL A   1      31.934  27.030  26.989  1.00  0.00     0.116 C 
BRANCH   4   5
ATOM      5  N   UNL A   1      30.907  26.732  25.985  1.00  0.00    -0.351 N 
ATOM      6  C   UNL A   1      30.739  25.726  25.058  1.00  0.00     0.281 C 
ATOM      7  O   UNL A   1      29.698  25.779  24.389  1.00  0.00    -0.268 OA
ATOM      8  H   UNL A   1      30.180  27.395  25.970  1.00  0.00     0.163 HD
BRANCH   6   9
ATOM      9  C   UNL A   1      31.802  24.600  24.792  1.00  0.00     0.181 C 
ATOM     10  C   UNL A   1      33.147  24.939  25.463  1.00  0.00     0.085 C 
ATOM     11  C   UNL A   1      31.469  23.267  25.551  1.00  0.00     0.144 C 
ATOM     12  C   UNL A   1      33.792  23.661  26.006  1.00  0.00     0.072 C 
ATOM     13  C   UNL A   1      32.805  22.503  25.793  1.00  0.00     0.191 C 
BRANCH   9  14
ATOM     14  N   UNL A   1      31.821  24.168  23.379  1.00  0.00    -0.331 N 
ATOM     15  H   UNL A   1      31.733  23.152  23.391  1.00  0.00     0.347 HD
ATOM     16  H   UNL A   1      31.071  24.730  22.977  1.00  0.00     0.347 HD
BRANCH  14  17
ATOM     17  C   UNL A   1      32.922  24.465  22.494  1.00  0.00     0.176 C 
ATOM     18  C   UNL A   1      33.326  23.209  21.721  1.00  0.00     0.075 C 
ATOM     19  C   UNL A   1      32.519  25.559  21.500  1.00  0.00     0.075 C 
ENDBRANCH  14  17
ENDBRANCH   9  14
BRANCH  13  20
ATOM     20  N   UNL A   1      33.285  21.443  24.845  1.00  0.00    -0.332 N 
ATOM     21  C   UNL A   1      32.144  20.685  24.287  1.00  0.00     0.263 C 
ATOM     22  C   UNL A   1      34.334  20.579  25.396  1.00  0.00     0.263 C 
ATOM     23  H   UNL A   1      33.745  21.927  24.073  1.00  0.00     0.348 HD
ATOM     24  C   UNL A   1      32.508  19.405  23.516  1.00  0.00     0.068 C 
ATOM     25  C   UNL A   1      34.669  19.286  24.656  1.00  0.00     0.068 C 
ATOM     26  C   UNL A   1      33.427  18.466  24.315  1.00  0.00    -0.025 C 
ATOM     27  C   UNL A   1      33.847  17.258  23.462  1.00  0.00     0.011 C 
ATOM     28  C   UNL A   1      32.737  17.927  25.585  1.00  0.00     0.011 C 
ENDBRANCH  13  20
ENDBRANCH   6   9
ENDBRANCH   4   5
ENDBRANCH   3   4
ENDBRANCH   2   3
ENDBRANCH   1   2
BRANCH   1  29
ATOM     29  C   UNL A   1      31.656  31.949  26.603  1.00  0.00     0.021 C 
BRANCH  29  30
ATOM     30  C   UNL A   1      32.818  32.540  27.402  1.00  0.00     0.116 C 
BRANCH  30  31
ATOM     31  N   UNL A   1      32.637  33.954  27.683  1.00  0.00    -0.352 N 
ATOM     32  C   UNL A   1      33.220  34.730  28.650  1.00  0.00     0.251 C 
ATOM     33  H   UNL A   1      32.003  34.423  27.093  1.00  0.00     0.163 HD
ATOM     34  O   UNL A   1      32.770  35.857  28.882  1.00  0.00    -0.269 OA
BRANCH  32  35
ATOM     35  C   UNL A   1      34.365  34.215  29.427  1.00  0.00     0.039 A 
ATOM     36  C   UNL A   1      34.122  33.381  30.521  1.00  0.00     0.014 A 
ATOM     37  C   UNL A   1      35.675  34.557  29.080  1.00  0.00     0.014 A 
ATOM     38  C   UNL A   1      35.197  32.839  31.228  1.00  0.00     0.010 A 
ATOM     39  C   UNL A   1      36.745  33.958  29.742  1.00  0.00     0.010 A 
ATOM     40  C   UNL A   1      36.518  33.092  30.822  1.00  0.00    -0.014 A 
BRANCH  40  41
ATOM     41  C   UNL A   1      37.668  32.450  31.513  1.00  0.00     0.031 A 
ATOM     42  C   UNL A   1      38.397  31.302  30.872  1.00  0.00     0.074 A 
ATOM     43  C   UNL A   1      38.014  32.865  32.748  1.00  0.00     0.049 A 
ATOM     44  N   UNL A   1      39.384  30.582  31.340  1.00  0.00    -0.248 NA
ATOM     45  C   UNL A   1      37.928  30.889  29.542  1.00  0.00     0.031 C 
ATOM     46  C   UNL A   1      37.350  33.935  33.494  1.00  0.00     0.029 A 
ATOM     47  N   UNL A   1      39.001  32.431  33.597  1.00  0.00    -0.354 N 
ATOM     48  C   UNL A   1      39.653  29.626  30.365  1.00  0.00     0.074 A 
ATOM     49  C   UNL A   1      38.672  29.818  29.317  1.00  0.00     0.031 C 
ATOM     50  C   UNL A   1      37.960  34.088  34.679  1.00  0.00     0.029 A 
ATOM     51  C   UNL A   1      39.027  33.099  34.799  1.00  0.00     0.049 A 
ATOM     52  H   UNL A   1      39.631  31.709  33.369  1.00  0.00     0.167 HD
ATOM     53  C   UNL A   1      40.639  28.694  30.336  1.00  0.00     0.034 A 
ATOM     54  C   UNL A   1      39.811  32.927  35.882  1.00  0.00     0.034 A 
ATOM     55  C   UNL A   1      41.603  28.517  31.397  1.00  0.00     0.049 A 
ATOM     56  C   UNL A   1      40.878  31.867  35.848  1.00  0.00     0.074 A 
ATOM     57  C   UNL A   1      42.680  27.650  31.449  1.00  0.00     0.029 A 
ATOM     58  N   UNL A   1      41.595  29.207  32.605  1.00  0.00    -0.354 N 
ATOM     59  N   UNL A   1      41.166  31.015  34.890  1.00  0.00    -0.248 NA
ATOM     60  C   UNL A   1      41.734  31.752  37.034  1.00  0.00     0.031 C 
ATOM     61  C   UNL A   1      43.272  27.758  32.713  1.00  0.00     0.029 A 
ATOM     62  C   UNL A   1      42.620  28.754  33.423  1.00  0.00     0.049 A 
ATOM     63  H   UNL A   1      40.955  29.915  32.844  1.00  0.00     0.167 HD
ATOM     64  C   UNL A   1      42.248  30.274  35.353  1.00  0.00     0.074 A 
ATOM     65  C   UNL A   1      42.574  30.795  36.667  1.00  0.00     0.031 C 
ATOM     66  C   UNL A   1      42.916  29.258  34.746  1.00  0.00     0.034 A 
BRANCH  53  67
ATOM     67  C   UNL A   1      40.690  27.780  29.131  1.00  0.00     0.023 A 
ATOM     68  C   UNL A   1      41.637  27.961  28.107  1.00  0.00     0.031 A 
ATOM     69  C   UNL A   1      39.746  26.750  28.972  1.00  0.00     0.131 A 
ATOM     70  C   UNL A   1      41.554  27.202  26.930  1.00  0.00     0.055 A 
ATOM     71  C   UNL A   1      39.730  25.932  27.840  1.00  0.00     0.041 A 
ATOM     72  F   UNL A   1      38.804  26.536  29.904  1.00  0.00    -0.206 F 
ATOM     73  C   UNL A   1      40.623  26.170  26.800  1.00  0.00     0.022 A 
BRANCH  70  74
ATOM     74  S   UNL A   1      42.552  27.711  25.503  1.00  0.00     0.124 S 
ATOM     75  O   UNL A   1      42.482  26.523  24.655  1.00  0.00    -0.237 OA
ATOM     76  O   UNL A   1      41.835  28.885  25.020  1.00  0.00    -0.237 OA
ATOM     77  O   UNL A   1      43.868  27.977  26.081  1.00  0.00    -0.744 OA
ENDBRANCH  70  74
ENDBRANCH  53  67
BRANCH  54  78
ATOM     78  C   UNL A   1      39.598  33.770  37.093  1.00  0.00     0.023 A 
ATOM     79  C   UNL A   1      39.089  33.225  38.281  1.00  0.00     0.031 A 
ATOM     80  C   UNL A   1      39.906  35.143  37.075  1.00  0.00     0.131 A 
ATOM     81  C   UNL A   1      38.878  34.052  39.396  1.00  0.00     0.055 A 
ATOM     82  C   UNL A   1      39.739  35.952  38.200  1.00  0.00     0.041 A 
ATOM     83  F   UNL A   1      40.404  35.712  35.965  1.00  0.00    -0.206 F 
ATOM     84  C   UNL A   1      39.214  35.409  39.367  1.00  0.00     0.022 A 
BRANCH  81  85
ATOM     85  S   UNL A   1      38.107  33.341  40.876  1.00  0.00     0.124 S 
ATOM     86  O   UNL A   1      38.723  34.126  41.939  1.00  0.00    -0.237 OA
ATOM     87  O   UNL A   1      36.690  33.592  40.630  1.00  0.00    -0.237 OA
ATOM     88  O   UNL A   1      38.506  31.937  40.824  1.00  0.00    -0.744 OA
ENDBRANCH  81  85
ENDBRANCH  54  78
BRANCH  66  89
ATOM     89  C   UNL A   1      44.082  28.660  35.497  1.00  0.00     0.023 A 
ATOM     90  C   UNL A   1      43.916  27.580  36.381  1.00  0.00     0.031 A 
ATOM     91  C   UNL A   1      45.376  29.188  35.336  1.00  0.00     0.131 A 
ATOM     92  C   UNL A   1      45.013  27.100  37.114  1.00  0.00     0.055 A 
ATOM     93  C   UNL A   1      46.475  28.664  36.018  1.00  0.00     0.041 A 
ATOM     94  F   UNL A   1      45.594  30.224  34.510  1.00  0.00    -0.206 F 
ATOM     95  C   UNL A   1      46.295  27.622  36.924  1.00  0.00     0.022 A 
BRANCH  92  96
ATOM     96  S   UNL A   1      44.724  25.848  38.395  1.00  0.00     0.124 S 
ATOM     97  O   UNL A   1      43.908  24.869  37.683  1.00  0.00    -0.237 OA
ATOM     98  O   UNL A   1      46.079  25.425  38.731  1.00  0.00    -0.237 OA
ATOM     99  O   UNL A   1      44.028  26.587  39.446  1.00  0.00    -0.744 OA
ENDBRANCH  92  96
ENDBRANCH  66  89
ENDBRANCH  40  41
ENDBRANCH  32  35
ENDBRANCH  30  31
ENDBRANCH  29  30
ENDBRANCH   1  29
TORSDOF 19
ENDMDL
MODEL 3
REMARK VINA RESULT:     -11.7      5.861     10.561
REMARK SMILES CC(C)[NH2+][C@]1(C(=O)NCCCCCCNC(=O)c2ccc(-c3c4nc(c(-c5cc(S(=O)(=O)[O-])ccc5F)c5ccc([nH]5)c(-c5cc(S(=O)(=O)[O-])ccc5F)c5nc(c(-c6cc(S(=O)(=O)[O-])ccc6F)c6ccc3[nH]6)C=C5)C=C4)cc2)CC[C@H]([NH+]2CCC(C)(C)CC2)C1
REMARK SMILES IDX 12 1 11 2 10 3 9 4 8 5 6 6 7 7 5 9 81 10 92 11 82 12 83 13
REMARK SMILES IDX 4 14 2 17 1 18 3 19 84 20 85 21 91 22 86 24 90 25 87 26
REMARK SMILES IDX 88 27 89 28 13 29 14 30 15 31 16 32 17 34 18 35 19 36 80 37
REMARK SMILES IDX 20 38 79 39 21 40 22 41 23 42 73 43 24 44 78 45 72 46 74 47
REMARK SMILES IDX 25 48 77 49 71 50 70 51 26 53 58 54 38 55 57 56 39 57 42 58
REMARK SMILES IDX 56 59 75 60 40 61 41 62 55 64 76 65 43 66 27 67 28 68 36 69
REMARK SMILES IDX 29 70 35 71 37 72 34 73 30 74 31 75 32 76 33 77 59 78 60 79
REMARK SMILES IDX 68 80 61 81 67 82 69 83 66 84 62 85 63 86 64 87 65 88 44 89
REMARK SMILES IDX 45 90 53 91 46 92 52 93 54 94 51 95 47 96 48 97 49 98 50 99
REMARK H PARENT 8 8 4 15 4 16 84 23 15 33 74 52 42 63
REMARK Flexibility Score: inf
ROOT
ATOM      1  C   UNL A   1      31.585  30.878  26.184  1.00  0.00     0.002 C 
ENDROOT
BRANCH   1   2
ATOM      2  C   UNL A   1      32.749  30.006  26.644  1.00  0.00     0.002 C 
BRANCH   2   3
ATOM      3  C   UNL A   1      32.371  28.660  27.244  1.00  0.00     0.021 C 
BRANCH   3   4
ATOM      4  C   UNL A   1      32.306  27.450  26.296  1.00  0.00     0.116 C 
BRANCH   4   5
ATOM      5  N   UNL A   1      31.095  26.639  26.457  1.00  0.00    -0.351 N 
ATOM      6  C   UNL A   1      30.816  25.297  26.313  1.00  0.00     0.281 C 
ATOM      7  O   UNL A   1      29.656  24.957  26.582  1.00  0.00    -0.268 OA
ATOM      8  H   UNL A   1      30.310  27.168  26.727  1.00  0.00     0.163 HD
BRANCH   6   9
ATOM      9  C   UNL A   1      31.855  24.243  25.786  1.00  0.00     0.181 C 
ATOM     10  C   UNL A   1      33.250  24.490  26.391  1.00  0.00     0.085 C 
ATOM     11  C   UNL A   1      31.586  22.801  26.345  1.00  0.00     0.144 C 
ATOM     12  C   UNL A   1      33.939  23.151  26.668  1.00  0.00     0.072 C 
ATOM     13  C   UNL A   1      32.939  22.028  26.353  1.00  0.00     0.191 C 
BRANCH   9  14
ATOM     14  N   UNL A   1      31.759  24.043  24.324  1.00  0.00    -0.331 N 
ATOM     15  H   UNL A   1      31.614  23.043  24.183  1.00  0.00     0.347 HD
ATOM     16  H   UNL A   1      31.017  24.696  24.070  1.00  0.00     0.347 HD
BRANCH  14  17
ATOM     17  C   UNL A   1      32.816  24.426  23.420  1.00  0.00     0.176 C 
ATOM     18  C   UNL A   1      33.075  23.307  22.412  1.00  0.00     0.075 C 
ATOM     19  C   UNL A   1      32.427  25.702  22.666  1.00  0.00     0.075 C 
ENDBRANCH  14  17
ENDBRANCH   9  14
BRANCH  13  20
ATOM     20  N   UNL A   1      33.341  21.140  25.211  1.00  0.00    -0.332 N 
ATOM     21  C   UNL A   1      32.159  20.466  24.632  1.00  0.00     0.263 C 
ATOM     22  C   UNL A   1      34.432  20.213  25.530  1.00  0.00     0.263 C 
ATOM     23  H   UNL A   1      33.736  21.747  24.493  1.00  0.00     0.348 HD
ATOM     24  C   UNL A   1      32.460  19.331  23.638  1.00  0.00     0.068 C 
ATOM     25  C   UNL A   1      34.707  19.060  24.568  1.00  0.00     0.068 C 
ATOM     26  C   UNL A   1      33.441  18.288  24.200  1.00  0.00    -0.025 C 
ATOM     27  C   UNL A   1      33.791  17.238  23.133  1.00  0.00     0.011 C 
ATOM     28  C   UNL A   1      32.856  17.544  25.418  1.00  0.00     0.011 C 
ENDBRANCH  13  20
ENDBRANCH   6   9
ENDBRANCH   4   5
ENDBRANCH   3   4
ENDBRANCH   2   3
ENDBRANCH   1   2
BRANCH   1  29
ATOM     29  C   UNL A   1      31.458  32.251  26.857  1.00  0.00     0.021 C 
BRANCH  29  30
ATOM     30  C   UNL A   1      32.752  32.860  27.397  1.00  0.00     0.116 C 
BRANCH  30  31
ATOM     31  N   UNL A   1      32.596  34.255  27.773  1.00  0.00    -0.352 N 
ATOM     32  C   UNL A   1      33.203  34.959  28.779  1.00  0.00     0.251 C 
ATOM     33  H   UNL A   1      31.960  34.770  27.224  1.00  0.00     0.163 HD
ATOM     34  O   UNL A   1      32.773  36.073  29.091  1.00  0.00    -0.269 OA
BRANCH  32  35
ATOM     35  C   UNL A   1      34.352  34.378  29.503  1.00  0.00     0.039 A 
ATOM     36  C   UNL A   1      34.124  33.694  30.699  1.00  0.00     0.014 A 
ATOM     37  C   UNL A   1      35.651  34.512  29.006  1.00  0.00     0.014 A 
ATOM     38  C   UNL A   1      35.194  33.089  31.363  1.00  0.00     0.010 A 
ATOM     39  C   UNL A   1      36.705  33.848  29.631  1.00  0.00     0.010 A 
ATOM     40  C   UNL A   1      36.487  33.129  30.816  1.00  0.00    -0.014 A 
BRANCH  40  41
ATOM     41  C   UNL A   1      37.617  32.414  31.468  1.00  0.00     0.031 A 
ATOM     42  C   UNL A   1      38.126  32.857  32.811  1.00  0.00     0.074 A 
ATOM     43  C   UNL A   1      38.223  31.401  30.817  1.00  0.00     0.049 A 
ATOM     44  N   UNL A   1      39.130  32.395  33.511  1.00  0.00    -0.248 NA
ATOM     45  C   UNL A   1      37.432  33.994  33.432  1.00  0.00     0.031 C 
ATOM     46  C   UNL A   1      37.853  30.913  29.487  1.00  0.00     0.029 A 
ATOM     47  N   UNL A   1      39.283  30.608  31.178  1.00  0.00    -0.354 N 
ATOM     48  C   UNL A   1      39.195  33.188  34.652  1.00  0.00     0.074 A 
ATOM     49  C   UNL A   1      38.172  34.204  34.509  1.00  0.00     0.031 C 
ATOM     50  C   UNL A   1      38.657  29.893  29.153  1.00  0.00     0.029 A 
ATOM     51  C   UNL A   1      39.630  29.682  30.221  1.00  0.00     0.049 A 
ATOM     52  H   UNL A   1      39.752  30.694  32.039  1.00  0.00     0.167 HD
ATOM     53  C   UNL A   1      40.012  33.065  35.729  1.00  0.00     0.034 A 
ATOM     54  C   UNL A   1      40.627  28.776  30.197  1.00  0.00     0.034 A 
ATOM     55  C   UNL A   1      41.029  32.046  35.848  1.00  0.00     0.049 A 
ATOM     56  C   UNL A   1      41.546  28.673  31.385  1.00  0.00     0.074 A 
ATOM     57  C   UNL A   1      41.871  31.787  36.915  1.00  0.00     0.029 A 
ATOM     58  N   UNL A   1      41.359  31.129  34.856  1.00  0.00    -0.354 N 
ATOM     59  N   UNL A   1      41.552  29.385  32.489  1.00  0.00    -0.248 NA
ATOM     60  C   UNL A   1      42.586  27.639  31.329  1.00  0.00     0.031 C 
ATOM     61  C   UNL A   1      42.758  30.771  36.540  1.00  0.00     0.029 A 
ATOM     62  C   UNL A   1      42.418  30.334  35.269  1.00  0.00     0.049 A 
ATOM     63  H   UNL A   1      40.905  31.054  33.986  1.00  0.00     0.167 HD
ATOM     64  C   UNL A   1      42.584  28.872  33.267  1.00  0.00     0.074 A 
ATOM     65  C   UNL A   1      43.165  27.778  32.513  1.00  0.00     0.031 C 
ATOM     66  C   UNL A   1      43.012  29.266  34.495  1.00  0.00     0.034 A 
BRANCH  53  67
ATOM     67  C   UNL A   1      39.851  34.082  36.838  1.00  0.00     0.023 A 
ATOM     68  C   UNL A   1      40.792  35.106  37.043  1.00  0.00     0.031 A 
ATOM     69  C   UNL A   1      38.774  33.995  37.738  1.00  0.00     0.131 A 
ATOM     70  C   UNL A   1      40.700  35.930  38.174  1.00  0.00     0.055 A 
ATOM     71  C   UNL A   1      38.635  34.882  38.808  1.00  0.00     0.041 A 
ATOM     72  F   UNL A   1      37.851  33.030  37.610  1.00  0.00    -0.206 F 
ATOM     73  C   UNL A   1      39.613  35.843  39.045  1.00  0.00     0.022 A 
BRANCH  70  74
ATOM     74  S   UNL A   1      42.118  36.983  38.593  1.00  0.00     0.124 S 
ATOM     75  O   UNL A   1      42.676  37.265  37.272  1.00  0.00    -0.237 OA
ATOM     76  O   UNL A   1      41.485  38.106  39.274  1.00  0.00    -0.237 OA
ATOM     77  O   UNL A   1      42.945  36.125  39.438  1.00  0.00    -0.744 OA
ENDBRANCH  70  74
ENDBRANCH  53  67
BRANCH  54  78
ATOM     78  C   UNL A   1      40.814  27.909  29.000  1.00  0.00     0.023 A 
ATOM     79  C   UNL A   1      41.829  28.165  28.065  1.00  0.00     0.031 A 
ATOM     80  C   UNL A   1      39.973  26.803  28.775  1.00  0.00     0.131 A 
ATOM     81  C   UNL A   1      41.961  27.343  26.934  1.00  0.00     0.055 A 
ATOM     82  C   UNL A   1      40.138  25.961  27.675  1.00  0.00     0.041 A 
ATOM     83  F   UNL A   1      38.992  26.510  29.645  1.00  0.00    -0.206 F 
ATOM     84  C   UNL A   1      41.132  26.234  26.742  1.00  0.00     0.022 A 
BRANCH  81  85
ATOM     85  S   UNL A   1      43.205  27.772  25.685  1.00  0.00     0.124 S 
ATOM     86  O   UNL A   1      44.020  26.563  25.650  1.00  0.00    -0.237 OA
ATOM     87  O   UNL A   1      42.379  28.024  24.509  1.00  0.00    -0.237 OA
ATOM     88  O   UNL A   1      43.858  28.951  26.249  1.00  0.00    -0.744 OA
ENDBRANCH  81  85
ENDBRANCH  54  78
BRANCH  66  89
ATOM     89  C   UNL A   1      44.154  28.488  35.105  1.00  0.00     0.023 A 
ATOM     90  C   UNL A   1      43.931  27.434  36.008  1.00  0.00     0.031 A 
ATOM     91  C   UNL A   1      45.485  28.815  34.789  1.00  0.00     0.131 A 
ATOM     92  C   UNL A   1      45.020  26.783  36.608  1.00  0.00     0.055 A 
ATOM     93  C   UNL A   1      46.564  28.121  35.338  1.00  0.00     0.041 A 
ATOM     94  F   UNL A   1      45.759  29.816  33.937  1.00  0.00    -0.206 F 
ATOM     95  C   UNL A   1      46.335  27.107  36.264  1.00  0.00     0.022 A 
BRANCH  92  96
ATOM     96  S   UNL A   1      44.698  25.572  37.920  1.00  0.00     0.124 S 
ATOM     97  O   UNL A   1      43.862  26.338  38.840  1.00  0.00    -0.237 OA
ATOM     98  O   UNL A   1      44.029  24.496  37.196  1.00  0.00    -0.237 OA
ATOM     99  O   UNL A   1      46.032  25.246  38.421  1.00  0.00    -0.744 OA
ENDBRANCH  92  96
ENDBRANCH  66  89
ENDBRANCH  40  41
ENDBRANCH  32  35
ENDBRANCH  30  31
ENDBRANCH  29  30
ENDBRANCH   1  29
TORSDOF 19
ENDMDL
