MODEL 1
REMARK VINA RESULT:     -11.7      0.000      0.000
REMARK SMILES CC[C@@H](Oc1cc(Cl)ccc1Cl)C(=O)NNC(=O)[C@@H]1[C@@H]2CC[C@@H](C2)[C@@H]1C(=O)NCCCCCCNC(=O)c1ccc(-c2c3nc(c(-c4cc(S(=O)(=O)[O-])ccc4F)c4ccc([nH]4)c(-c4cc(S(=O)(=O)[O-])ccc4F)c4nc(c(-c5cc(S(=O)(=O)[O-])ccc5F)c5ccc2[nH]5)C=C4)C=C3)cc1
REMARK SMILES IDX 30 1 29 2 28 3 26 4 27 5 25 7 19 8 20 9 21 10 24 11 23 12
REMARK SMILES IDX 22 13 17 14 16 15 18 17 15 18 13 19 14 20 3 22 2 23 1 24
REMARK SMILES IDX 4 25 5 26 6 27 11 28 7 29 10 30 12 31 8 32 9 33 31 34 32 35
REMARK SMILES IDX 33 36 34 37 35 38 36 39 37 41 38 42 39 43 100 44 40 45 99 46
REMARK SMILES IDX 41 47 42 48 43 49 93 50 44 51 98 52 92 53 94 54 45 55 97 56
REMARK SMILES IDX 91 57 90 58 46 60 78 61 58 62 77 63 59 64 62 65 76 66 95 67
REMARK SMILES IDX 60 68 61 69 75 71 96 72 63 73 47 74 48 75 56 76 49 77 55 78
REMARK SMILES IDX 57 79 54 80 50 81 51 82 52 83 53 84 79 85 80 86 88 87 81 88
REMARK SMILES IDX 87 89 89 90 86 91 82 92 83 93 84 94 85 95 64 96 65 97 73 98
REMARK SMILES IDX 66 99 72 100 74 101 71 102 67 103 68 104 69 105 70 106
REMARK H PARENT 28 6 16 16 15 21 35 40 94 59 62 70
REMARK Flexibility Score: inf
ROOT
ATOM      1  C   UNL A   1      33.277  28.861  27.422  1.00  0.00     0.021 C 
ENDROOT
BRANCH   1   2
ATOM      2  C   UNL A   1      34.460  28.309  26.636  1.00  0.00     0.116 C 
BRANCH   2   3
ATOM      3  N   UNL A   1      34.475  28.734  25.259  1.00  0.00    -0.356 N 
ATOM      4  C   UNL A   1      33.540  28.659  24.291  1.00  0.00     0.224 C 
ATOM      5  O   UNL A   1      33.772  29.341  23.281  1.00  0.00    -0.275 OA
ATOM      6  H   UNL A   1      35.320  29.154  24.975  1.00  0.00     0.163 HD
BRANCH   4   7
ATOM      7  C   UNL A   1      32.277  27.794  24.305  1.00  0.00     0.094 C 
ATOM      8  C   UNL A   1      32.086  26.482  23.503  1.00  0.00     0.096 C 
ATOM      9  C   UNL A   1      30.610  26.598  23.040  1.00  0.00     0.002 C 
ATOM     10  C   UNL A   1      30.375  27.711  22.004  1.00  0.00     0.005 C 
ATOM     11  C   UNL A   1      29.971  27.247  24.283  1.00  0.00     0.009 C 
ATOM     12  C   UNL A   1      30.885  28.483  24.222  1.00  0.00     0.002 C 
ATOM     13  C   UNL A   1      30.500  28.999  22.832  1.00  0.00     0.005 C 
BRANCH   8  14
ATOM     14  C   UNL A   1      33.125  26.113  22.454  1.00  0.00     0.242 C 
ATOM     15  N   UNL A   1      33.528  24.803  22.378  1.00  0.00    -0.267 N 
ATOM     16  H   UNL A   1      34.492  24.604  22.386  1.00  0.00     0.191 HD
ATOM     17  O   UNL A   1      33.671  26.923  21.710  1.00  0.00    -0.273 OA
BRANCH  15  18
ATOM     18  N   UNL A   1      32.622  23.736  22.288  1.00  0.00    -0.264 N 
ATOM     19  C   UNL A   1      32.295  22.932  23.366  1.00  0.00     0.279 C 
ATOM     20  O   UNL A   1      31.490  22.010  23.203  1.00  0.00    -0.269 OA
ATOM     21  H   UNL A   1      32.201  23.549  21.418  1.00  0.00     0.191 HD
BRANCH  19  22
ATOM     22  C   UNL A   1      32.991  23.154  24.731  1.00  0.00     0.263 C 
BRANCH  22  23
ATOM     23  C   UNL A   1      31.985  23.783  25.715  1.00  0.00     0.052 C 
ATOM     24  C   UNL A   1      32.014  23.134  27.097  1.00  0.00     0.008 C 
ENDBRANCH  22  23
BRANCH  22  25
ATOM     25  O   UNL A   1      33.439  21.871  25.215  1.00  0.00    -0.479 OA
BRANCH  25  26
ATOM     26  C   UNL A   1      34.791  21.687  25.157  1.00  0.00     0.140 A 
ATOM     27  C   UNL A   1      35.604  22.765  25.510  1.00  0.00     0.068 A 
ATOM     28  C   UNL A   1      35.358  20.438  24.887  1.00  0.00     0.083 A 
ATOM     29  C   UNL A   1      36.988  22.615  25.506  1.00  0.00     0.044 A 
ATOM     30  C   UNL A   1      36.746  20.287  24.907  1.00  0.00     0.026 A 
ATOM     31  Cl  UNL A   1      34.378  19.058  24.555  1.00  0.00    -0.080 Cl
ATOM     32  Cl  UNL A   1      37.991  23.961  25.874  1.00  0.00    -0.084 Cl
ATOM     33  C   UNL A   1      37.563  21.382  25.203  1.00  0.00     0.022 A 
ENDBRANCH  25  26
ENDBRANCH  22  25
ENDBRANCH  19  22
ENDBRANCH  15  18
ENDBRANCH   8  14
ENDBRANCH   4   7
ENDBRANCH   2   3
ENDBRANCH   1   2
BRANCH   1  34
ATOM     34  C   UNL A   1      33.163  30.386  27.385  1.00  0.00     0.002 C 
BRANCH  34  35
ATOM     35  C   UNL A   1      31.854  30.935  26.803  1.00  0.00     0.002 C 
BRANCH  35  36
ATOM     36  C   UNL A   1      31.690  32.457  26.859  1.00  0.00     0.021 C 
BRANCH  36  37
ATOM     37  C   UNL A   1      32.962  33.228  27.198  1.00  0.00     0.116 C 
BRANCH  37  38
ATOM     38  N   UNL A   1      32.675  34.462  27.910  1.00  0.00    -0.352 N 
ATOM     39  C   UNL A   1      33.177  34.920  29.101  1.00  0.00     0.251 C 
ATOM     40  H   UNL A   1      32.024  35.057  27.473  1.00  0.00     0.163 HD
ATOM     41  O   UNL A   1      32.652  35.879  29.654  1.00  0.00    -0.269 OA
BRANCH  39  42
ATOM     42  C   UNL A   1      34.340  34.245  29.714  1.00  0.00     0.039 A 
ATOM     43  C   UNL A   1      35.620  34.539  29.239  1.00  0.00     0.014 A 
ATOM     44  C   UNL A   1      34.164  33.312  30.740  1.00  0.00     0.014 A 
ATOM     45  C   UNL A   1      36.730  33.934  29.830  1.00  0.00     0.010 A 
ATOM     46  C   UNL A   1      35.275  32.764  31.374  1.00  0.00     0.010 A 
ATOM     47  C   UNL A   1      36.568  33.064  30.920  1.00  0.00    -0.014 A 
BRANCH  47  48
ATOM     48  C   UNL A   1      37.740  32.448  31.593  1.00  0.00     0.031 A 
ATOM     49  C   UNL A   1      38.482  31.323  30.924  1.00  0.00     0.074 A 
ATOM     50  C   UNL A   1      38.091  32.858  32.827  1.00  0.00     0.049 A 
ATOM     51  N   UNL A   1      39.471  30.598  31.377  1.00  0.00    -0.248 NA
ATOM     52  C   UNL A   1      38.029  30.947  29.576  1.00  0.00     0.031 C 
ATOM     53  C   UNL A   1      37.421  33.917  33.586  1.00  0.00     0.029 A 
ATOM     54  N   UNL A   1      39.089  32.431  33.665  1.00  0.00    -0.354 N 
ATOM     55  C   UNL A   1      39.751  29.670  30.378  1.00  0.00     0.074 A 
ATOM     56  C   UNL A   1      38.784  29.889  29.324  1.00  0.00     0.031 C 
ATOM     57  C   UNL A   1      38.042  34.070  34.767  1.00  0.00     0.029 A 
ATOM     58  C   UNL A   1      39.119  33.091  34.872  1.00  0.00     0.049 A 
ATOM     59  H   UNL A   1      39.726  31.719  33.426  1.00  0.00     0.167 HD
ATOM     60  C   UNL A   1      40.735  28.740  30.339  1.00  0.00     0.034 A 
ATOM     61  C   UNL A   1      39.913  32.916  35.947  1.00  0.00     0.034 A 
ATOM     62  C   UNL A   1      41.695  28.548  31.398  1.00  0.00     0.049 A 
ATOM     63  C   UNL A   1      40.983  31.855  35.891  1.00  0.00     0.074 A 
ATOM     64  C   UNL A   1      42.768  27.674  31.442  1.00  0.00     0.029 A 
ATOM     65  N   UNL A   1      41.694  29.234  32.607  1.00  0.00    -0.354 N 
ATOM     66  N   UNL A   1      41.266  31.018  34.919  1.00  0.00    -0.248 NA
ATOM     67  C   UNL A   1      41.847  31.723  37.071  1.00  0.00     0.031 C 
ATOM     68  C   UNL A   1      43.368  27.780  32.702  1.00  0.00     0.029 A 
ATOM     69  C   UNL A   1      42.725  28.779  33.416  1.00  0.00     0.049 A 
ATOM     70  H   UNL A   1      41.054  29.940  32.854  1.00  0.00     0.167 HD
ATOM     71  C   UNL A   1      42.362  30.281  35.361  1.00  0.00     0.074 A 
ATOM     72  C   UNL A   1      42.695  30.784  36.678  1.00  0.00     0.031 C 
ATOM     73  C   UNL A   1      43.037  29.284  34.732  1.00  0.00     0.034 A 
BRANCH  60  74
ATOM     74  C   UNL A   1      40.800  27.845  29.123  1.00  0.00     0.023 A 
ATOM     75  C   UNL A   1      41.724  28.070  28.086  1.00  0.00     0.031 A 
ATOM     76  C   UNL A   1      39.908  26.766  28.983  1.00  0.00     0.131 A 
ATOM     77  C   UNL A   1      41.684  27.281  26.926  1.00  0.00     0.055 A 
ATOM     78  C   UNL A   1      39.930  25.932  27.864  1.00  0.00     0.041 A 
ATOM     79  F   UNL A   1      38.989  26.514  29.928  1.00  0.00    -0.206 F 
ATOM     80  C   UNL A   1      40.810  26.197  26.819  1.00  0.00     0.022 A 
BRANCH  77  81
ATOM     81  S   UNL A   1      42.684  27.786  25.501  1.00  0.00     0.124 S 
ATOM     82  O   UNL A   1      42.870  26.514  24.807  1.00  0.00    -0.237 OA
ATOM     83  O   UNL A   1      41.821  28.755  24.836  1.00  0.00    -0.237 OA
ATOM     84  O   UNL A   1      43.893  28.339  26.107  1.00  0.00    -0.744 OA
ENDBRANCH  77  81
ENDBRANCH  60  74
BRANCH  61  85
ATOM     85  C   UNL A   1      39.725  33.748  37.169  1.00  0.00     0.023 A 
ATOM     86  C   UNL A   1      39.021  33.256  38.280  1.00  0.00     0.031 A 
ATOM     87  C   UNL A   1      40.214  35.066  37.231  1.00  0.00     0.131 A 
ATOM     88  C   UNL A   1      38.786  34.089  39.385  1.00  0.00     0.055 A 
ATOM     89  C   UNL A   1      40.026  35.872  38.355  1.00  0.00     0.041 A 
ATOM     90  F   UNL A   1      40.898  35.587  36.199  1.00  0.00    -0.206 F 
ATOM     91  C   UNL A   1      39.295  35.388  39.436  1.00  0.00     0.022 A 
BRANCH  88  92
ATOM     92  S   UNL A   1      37.725  33.476  40.723  1.00  0.00     0.124 S 
ATOM     93  O   UNL A   1      36.573  32.975  39.983  1.00  0.00    -0.237 OA
ATOM     94  O   UNL A   1      38.577  32.468  41.346  1.00  0.00    -0.237 OA
ATOM     95  O   UNL A   1      37.479  34.667  41.533  1.00  0.00    -0.744 OA
ENDBRANCH  88  92
ENDBRANCH  61  85
BRANCH  73  96
ATOM     96  C   UNL A   1      44.232  28.707  35.450  1.00  0.00     0.023 A 
ATOM     97  C   UNL A   1      44.104  27.665  36.385  1.00  0.00     0.031 A 
ATOM     98  C   UNL A   1      45.519  29.212  35.194  1.00  0.00     0.131 A 
ATOM     99  C   UNL A   1      45.237  27.199  37.069  1.00  0.00     0.055 A 
ATOM    100  C   UNL A   1      46.651  28.701  35.831  1.00  0.00     0.041 A 
ATOM    101  F   UNL A   1      45.699  30.209  34.312  1.00  0.00    -0.206 F 
ATOM    102  C   UNL A   1      46.511  27.697  36.784  1.00  0.00     0.022 A 
BRANCH  99 103
ATOM    103  S   UNL A   1      45.014  25.990  38.403  1.00  0.00     0.124 S 
ATOM    104  O   UNL A   1      44.496  24.832  37.681  1.00  0.00    -0.237 OA
ATOM    105  O   UNL A   1      46.367  25.856  38.934  1.00  0.00    -0.237 OA
ATOM    106  O   UNL A   1      44.060  26.640  39.299  1.00  0.00    -0.744 OA
ENDBRANCH  99 103
ENDBRANCH  73  96
ENDBRANCH  47  48
ENDBRANCH  39  42
ENDBRANCH  37  38
ENDBRANCH  36  37
ENDBRANCH  35  36
ENDBRANCH  34  35
ENDBRANCH   1  34
TORSDOF 22
ENDMDL
MODEL 2
REMARK VINA RESULT:     -11.4      1.110      7.419
REMARK SMILES CC[C@@H](Oc1cc(Cl)ccc1Cl)C(=O)NNC(=O)[C@@H]1[C@@H]2CC[C@@H](C2)[C@@H]1C(=O)NCCCCCCNC(=O)c1ccc(-c2c3nc(c(-c4cc(S(=O)(=O)[O-])ccc4F)c4ccc([nH]4)c(-c4cc(S(=O)(=O)[O-])ccc4F)c4nc(c(-c5cc(S(=O)(=O)[O-])ccc5F)c5ccc2[nH]5)C=C4)C=C3)cc1
REMARK SMILES IDX 30 1 29 2 28 3 26 4 27 5 25 7 19 8 20 9 21 10 24 11 23 12
REMARK SMILES IDX 22 13 17 14 16 15 18 17 15 18 13 19 14 20 3 22 2 23 1 24
REMARK SMILES IDX 4 25 5 26 6 27 11 28 7 29 10 30 12 31 8 32 9 33 31 34 32 35
REMARK SMILES IDX 33 36 34 37 35 38 36 39 37 41 38 42 39 43 100 44 40 45 99 46
REMARK SMILES IDX 41 47 42 48 43 49 93 50 44 51 98 52 92 53 94 54 45 55 97 56
REMARK SMILES IDX 91 57 90 58 46 60 78 61 58 62 77 63 59 64 62 65 76 66 95 67
REMARK SMILES IDX 60 68 61 69 75 71 96 72 63 73 47 74 48 75 56 76 49 77 55 78
REMARK SMILES IDX 57 79 54 80 50 81 51 82 52 83 53 84 79 85 80 86 88 87 81 88
REMARK SMILES IDX 87 89 89 90 86 91 82 92 83 93 84 94 85 95 64 96 65 97 73 98
REMARK SMILES IDX 66 99 72 100 74 101 71 102 67 103 68 104 69 105 70 106
REMARK H PARENT 28 6 16 16 15 21 35 40 94 59 62 70
REMARK Flexibility Score: inf
ROOT
ATOM      1  C   UNL A   1      33.265  29.809  26.724  1.00  0.00     0.021 C 
ENDROOT
BRANCH   1   2
ATOM      2  C   UNL A   1      32.722  28.414  27.013  1.00  0.00     0.116 C 
BRANCH   2   3
ATOM      3  N   UNL A   1      33.546  27.362  26.475  1.00  0.00    -0.356 N 
ATOM      4  C   UNL A   1      33.349  26.510  25.448  1.00  0.00     0.224 C 
ATOM      5  O   UNL A   1      34.356  25.887  25.081  1.00  0.00    -0.275 OA
ATOM      6  H   UNL A   1      34.405  27.243  26.941  1.00  0.00     0.163 HD
BRANCH   4   7
ATOM      7  C   UNL A   1      32.020  26.214  24.747  1.00  0.00     0.094 C 
ATOM      8  C   UNL A   1      31.876  25.570  23.345  1.00  0.00     0.096 C 
ATOM      9  C   UNL A   1      30.693  26.372  22.741  1.00  0.00     0.002 C 
ATOM     10  C   UNL A   1      31.033  27.843  22.447  1.00  0.00     0.005 C 
ATOM     11  C   UNL A   1      29.800  26.546  23.986  1.00  0.00     0.009 C 
ATOM     12  C   UNL A   1      30.892  27.284  24.780  1.00  0.00     0.002 C 
ATOM     13  C   UNL A   1      31.104  28.478  23.845  1.00  0.00     0.005 C 
BRANCH   8  14
ATOM     14  C   UNL A   1      33.123  25.403  22.489  1.00  0.00     0.242 C 
ATOM     15  N   UNL A   1      33.654  24.144  22.362  1.00  0.00    -0.267 N 
ATOM     16  H   UNL A   1      34.614  24.017  22.538  1.00  0.00     0.191 HD
ATOM     17  O   UNL A   1      33.718  26.333  21.952  1.00  0.00    -0.273 OA
BRANCH  15  18
ATOM     18  N   UNL A   1      32.886  23.031  21.989  1.00  0.00    -0.264 N 
ATOM     19  C   UNL A   1      32.509  22.043  22.881  1.00  0.00     0.279 C 
ATOM     20  O   UNL A   1      31.835  21.093  22.473  1.00  0.00    -0.269 OA
ATOM     21  H   UNL A   1      32.602  22.949  21.050  1.00  0.00     0.191 HD
BRANCH  19  22
ATOM     22  C   UNL A   1      32.996  22.105  24.350  1.00  0.00     0.263 C 
BRANCH  22  23
ATOM     23  C   UNL A   1      31.782  22.303  25.277  1.00  0.00     0.052 C 
ATOM     24  C   UNL A   1      32.129  23.040  26.568  1.00  0.00     0.008 C 
ENDBRANCH  22  23
BRANCH  22  25
ATOM     25  O   UNL A   1      33.665  20.861  24.648  1.00  0.00    -0.479 OA
BRANCH  25  26
ATOM     26  C   UNL A   1      35.018  20.970  24.796  1.00  0.00     0.140 A 
ATOM     27  C   UNL A   1      35.536  22.232  25.092  1.00  0.00     0.068 A 
ATOM     28  C   UNL A   1      35.856  19.851  24.788  1.00  0.00     0.083 A 
ATOM     29  C   UNL A   1      36.904  22.386  25.292  1.00  0.00     0.044 A 
ATOM     30  C   UNL A   1      37.226  20.009  25.013  1.00  0.00     0.026 A 
ATOM     31  Cl  UNL A   1      35.235  18.263  24.535  1.00  0.00    -0.080 Cl
ATOM     32  Cl  UNL A   1      37.549  23.952  25.589  1.00  0.00    -0.084 Cl
ATOM     33  C   UNL A   1      37.753  21.282  25.251  1.00  0.00     0.022 A 
ENDBRANCH  25  26
ENDBRANCH  22  25
ENDBRANCH  19  22
ENDBRANCH  15  18
ENDBRANCH   8  14
ENDBRANCH   4   7
ENDBRANCH   2   3
ENDBRANCH   1   2
BRANCH   1  34
ATOM     34  C   UNL A   1      34.643  30.078  27.331  1.00  0.00     0.002 C 
BRANCH  34  35
ATOM     35  C   UNL A   1      34.813  31.451  27.995  1.00  0.00     0.002 C 
BRANCH  35  36
ATOM     36  C   UNL A   1      33.563  32.336  28.017  1.00  0.00     0.021 C 
BRANCH  36  37
ATOM     37  C   UNL A   1      33.821  33.818  27.762  1.00  0.00     0.116 C 
BRANCH  37  38
ATOM     38  N   UNL A   1      33.220  34.658  28.784  1.00  0.00    -0.352 N 
ATOM     39  C   UNL A   1      33.469  34.707  30.131  1.00  0.00     0.251 C 
ATOM     40  H   UNL A   1      32.532  35.283  28.461  1.00  0.00     0.163 HD
ATOM     41  O   UNL A   1      32.706  35.321  30.868  1.00  0.00    -0.269 OA
BRANCH  39  42
ATOM     42  C   UNL A   1      34.647  34.009  30.685  1.00  0.00     0.039 A 
ATOM     43  C   UNL A   1      34.450  32.926  31.543  1.00  0.00     0.014 A 
ATOM     44  C   UNL A   1      35.941  34.435  30.369  1.00  0.00     0.014 A 
ATOM     45  C   UNL A   1      35.553  32.236  32.047  1.00  0.00     0.010 A 
ATOM     46  C   UNL A   1      37.037  33.702  30.816  1.00  0.00     0.010 A 
ATOM     47  C   UNL A   1      36.854  32.601  31.665  1.00  0.00    -0.014 A 
BRANCH  47  48
ATOM     48  C   UNL A   1      38.039  31.850  32.152  1.00  0.00     0.031 A 
ATOM     49  C   UNL A   1      38.657  32.203  33.478  1.00  0.00     0.074 A 
ATOM     50  C   UNL A   1      38.590  30.898  31.374  1.00  0.00     0.049 A 
ATOM     51  N   UNL A   1      39.738  31.729  34.040  1.00  0.00    -0.248 NA
ATOM     52  C   UNL A   1      37.983  33.251  34.259  1.00  0.00     0.031 C 
ATOM     53  C   UNL A   1      38.095  30.496  30.055  1.00  0.00     0.029 A 
ATOM     54  N   UNL A   1      39.689  30.102  31.572  1.00  0.00    -0.354 N 
ATOM     55  C   UNL A   1      39.883  32.429  35.234  1.00  0.00     0.074 A 
ATOM     56  C   UNL A   1      38.812  33.402  35.280  1.00  0.00     0.031 C 
ATOM     57  C   UNL A   1      38.877  29.516  29.574  1.00  0.00     0.029 A 
ATOM     58  C   UNL A   1      39.954  29.253  30.522  1.00  0.00     0.049 A 
ATOM     59  H   UNL A   1      40.240  30.136  32.388  1.00  0.00     0.167 HD
ATOM     60  C   UNL A   1      40.810  32.259  36.208  1.00  0.00     0.034 A 
ATOM     61  C   UNL A   1      40.959  28.373  30.339  1.00  0.00     0.034 A 
ATOM     62  C   UNL A   1      41.862  31.275  36.145  1.00  0.00     0.049 A 
ATOM     63  C   UNL A   1      41.996  28.222  31.423  1.00  0.00     0.074 A 
ATOM     64  C   UNL A   1      42.823  30.977  37.096  1.00  0.00     0.029 A 
ATOM     65  N   UNL A   1      42.100  30.431  35.065  1.00  0.00    -0.354 N 
ATOM     66  N   UNL A   1      42.091  28.859  32.568  1.00  0.00    -0.248 NA
ATOM     67  C   UNL A   1      43.052  27.228  31.196  1.00  0.00     0.031 C 
ATOM     68  C   UNL A   1      43.682  30.009  36.563  1.00  0.00     0.029 A 
ATOM     69  C   UNL A   1      43.211  29.639  35.313  1.00  0.00     0.049 A 
ATOM     70  H   UNL A   1      41.558  30.401  34.244  1.00  0.00     0.167 HD
ATOM     71  C   UNL A   1      43.201  28.317  33.211  1.00  0.00     0.074 A 
ATOM     72  C   UNL A   1      43.731  27.295  32.331  1.00  0.00     0.031 C 
ATOM     73  C   UNL A   1      43.732  28.631  34.420  1.00  0.00     0.034 A 
BRANCH  60  74
ATOM     74  C   UNL A   1      40.740  33.179  37.405  1.00  0.00     0.023 A 
ATOM     75  C   UNL A   1      39.927  32.888  38.516  1.00  0.00     0.031 A 
ATOM     76  C   UNL A   1      41.475  34.378  37.427  1.00  0.00     0.131 A 
ATOM     77  C   UNL A   1      39.808  33.816  39.561  1.00  0.00     0.055 A 
ATOM     78  C   UNL A   1      41.418  35.258  38.510  1.00  0.00     0.041 A 
ATOM     79  F   UNL A   1      42.252  34.722  36.388  1.00  0.00    -0.206 F 
ATOM     80  C   UNL A   1      40.568  34.987  39.578  1.00  0.00     0.022 A 
BRANCH  77  81
ATOM     81  S   UNL A   1      38.534  33.541  40.822  1.00  0.00     0.124 S 
ATOM     82  O   UNL A   1      37.461  32.944  40.031  1.00  0.00    -0.237 OA
ATOM     83  O   UNL A   1      39.206  32.651  41.761  1.00  0.00    -0.237 OA
ATOM     84  O   UNL A   1      38.253  34.884  41.325  1.00  0.00    -0.744 OA
ENDBRANCH  77  81
ENDBRANCH  60  74
BRANCH  61  85
ATOM     85  C   UNL A   1      41.046  27.577  29.081  1.00  0.00     0.023 A 
ATOM     86  C   UNL A   1      42.022  27.858  28.113  1.00  0.00     0.031 A 
ATOM     87  C   UNL A   1      40.128  26.546  28.811  1.00  0.00     0.131 A 
ATOM     88  C   UNL A   1      42.030  27.150  26.901  1.00  0.00     0.055 A 
ATOM     89  C   UNL A   1      40.175  25.805  27.629  1.00  0.00     0.041 A 
ATOM     90  F   UNL A   1      39.176  26.231  29.705  1.00  0.00    -0.206 F 
ATOM     91  C   UNL A   1      41.123  26.116  26.658  1.00  0.00     0.022 A 
BRANCH  88  92
ATOM     92  S   UNL A   1      43.194  27.659  25.606  1.00  0.00     0.124 S 
ATOM     93  O   UNL A   1      43.856  26.400  25.289  1.00  0.00    -0.237 OA
ATOM     94  O   UNL A   1      42.296  28.188  24.584  1.00  0.00    -0.237 OA
ATOM     95  O   UNL A   1      44.030  28.655  26.272  1.00  0.00    -0.744 OA
ENDBRANCH  88  92
ENDBRANCH  61  85
BRANCH  73  96
ATOM     96  C   UNL A   1      44.922  27.823  34.878  1.00  0.00     0.023 A 
ATOM     97  C   UNL A   1      44.773  26.633  35.611  1.00  0.00     0.031 A 
ATOM     98  C   UNL A   1      46.226  28.256  34.576  1.00  0.00     0.131 A 
ATOM     99  C   UNL A   1      45.910  25.945  36.063  1.00  0.00     0.055 A 
ATOM    100  C   UNL A   1      47.351  27.534  34.974  1.00  0.00     0.041 A 
ATOM    101  F   UNL A   1      46.426  29.388  33.881  1.00  0.00    -0.206 F 
ATOM    102  C   UNL A   1      47.197  26.378  35.733  1.00  0.00     0.022 A 
BRANCH  99 103
ATOM    103  S   UNL A   1      45.687  24.522  37.165  1.00  0.00     0.124 S 
ATOM    104  O   UNL A   1      45.746  23.402  36.230  1.00  0.00    -0.237 OA
ATOM    105  O   UNL A   1      46.820  24.651  38.076  1.00  0.00    -0.237 OA
ATOM    106  O   UNL A   1      44.377  24.757  37.769  1.00  0.00    -0.744 OA
ENDBRANCH  99 103
ENDBRANCH  73  96
ENDBRANCH  47  48
ENDBRANCH  39  42
ENDBRANCH  37  38
ENDBRANCH  36  37
ENDBRANCH  35  36
ENDBRANCH  34  35
ENDBRANCH   1  34
TORSDOF 22
ENDMDL
MODEL 3
REMARK VINA RESULT:     -11.4      1.338      2.096
REMARK SMILES CC[C@@H](Oc1cc(Cl)ccc1Cl)C(=O)NNC(=O)[C@@H]1[C@@H]2CC[C@@H](C2)[C@@H]1C(=O)NCCCCCCNC(=O)c1ccc(-c2c3nc(c(-c4cc(S(=O)(=O)[O-])ccc4F)c4ccc([nH]4)c(-c4cc(S(=O)(=O)[O-])ccc4F)c4nc(c(-c5cc(S(=O)(=O)[O-])ccc5F)c5ccc2[nH]5)C=C4)C=C3)cc1
REMARK SMILES IDX 30 1 29 2 28 3 26 4 27 5 25 7 19 8 20 9 21 10 24 11 23 12
REMARK SMILES IDX 22 13 17 14 16 15 18 17 15 18 13 19 14 20 3 22 2 23 1 24
REMARK SMILES IDX 4 25 5 26 6 27 11 28 7 29 10 30 12 31 8 32 9 33 31 34 32 35
REMARK SMILES IDX 33 36 34 37 35 38 36 39 37 41 38 42 39 43 100 44 40 45 99 46
REMARK SMILES IDX 41 47 42 48 43 49 93 50 44 51 98 52 92 53 94 54 45 55 97 56
REMARK SMILES IDX 91 57 90 58 46 60 78 61 58 62 77 63 59 64 62 65 76 66 95 67
REMARK SMILES IDX 60 68 61 69 75 71 96 72 63 73 47 74 48 75 56 76 49 77 55 78
REMARK SMILES IDX 57 79 54 80 50 81 51 82 52 83 53 84 79 85 80 86 88 87 81 88
REMARK SMILES IDX 87 89 89 90 86 91 82 92 83 93 84 94 85 95 64 96 65 97 73 98
REMARK SMILES IDX 66 99 72 100 74 101 71 102 67 103 68 104 69 105 70 106
REMARK H PARENT 28 6 16 16 15 21 35 40 94 59 62 70
REMARK Flexibility Score: inf
ROOT
ATOM      1  C   UNL A   1      32.376  29.268  27.305  1.00  0.00     0.021 C 
ENDROOT
BRANCH   1   2
ATOM      2  C   UNL A   1      33.523  28.265  27.265  1.00  0.00     0.116 C 
BRANCH   2   3
ATOM      3  N   UNL A   1      34.064  28.074  25.944  1.00  0.00    -0.356 N 
ATOM      4  C   UNL A   1      33.479  27.721  24.781  1.00  0.00     0.224 C 
ATOM      5  O   UNL A   1      34.177  27.886  23.769  1.00  0.00    -0.275 OA
ATOM      6  H   UNL A   1      35.035  28.227  25.878  1.00  0.00     0.163 HD
BRANCH   4   7
ATOM      7  C   UNL A   1      32.087  27.106  24.607  1.00  0.00     0.094 C 
ATOM      8  C   UNL A   1      31.804  25.610  24.321  1.00  0.00     0.096 C 
ATOM      9  C   UNL A   1      30.630  25.691  23.309  1.00  0.00     0.002 C 
ATOM     10  C   UNL A   1      31.035  26.267  21.941  1.00  0.00     0.005 C 
ATOM     11  C   UNL A   1      29.842  26.886  23.881  1.00  0.00     0.009 C 
ATOM     12  C   UNL A   1      31.031  27.854  23.747  1.00  0.00     0.002 C 
ATOM     13  C   UNL A   1      31.245  27.761  22.233  1.00  0.00     0.005 C 
BRANCH   8  14
ATOM     14  C   UNL A   1      32.973  24.702  23.970  1.00  0.00     0.242 C 
ATOM     15  N   UNL A   1      33.913  24.456  24.940  1.00  0.00    -0.267 N 
ATOM     16  H   UNL A   1      34.863  24.589  24.720  1.00  0.00     0.191 HD
ATOM     17  O   UNL A   1      33.161  24.221  22.856  1.00  0.00    -0.273 OA
BRANCH  15  18
ATOM     18  N   UNL A   1      33.575  24.022  26.230  1.00  0.00    -0.264 N 
ATOM     19  C   UNL A   1      33.472  22.684  26.572  1.00  0.00     0.279 C 
ATOM     20  O   UNL A   1      33.166  22.384  27.730  1.00  0.00    -0.269 OA
ATOM     21  H   UNL A   1      33.404  24.698  26.924  1.00  0.00     0.191 HD
BRANCH  19  22
ATOM     22  C   UNL A   1      33.666  21.595  25.488  1.00  0.00     0.263 C 
BRANCH  22  23
ATOM     23  C   UNL A   1      35.049  20.941  25.673  1.00  0.00     0.052 C 
ATOM     24  C   UNL A   1      36.198  21.944  25.615  1.00  0.00     0.008 C 
ENDBRANCH  22  23
BRANCH  22  25
ATOM     25  O   UNL A   1      32.617  20.618  25.648  1.00  0.00    -0.479 OA
BRANCH  25  26
ATOM     26  C   UNL A   1      32.700  19.557  24.792  1.00  0.00     0.140 A 
ATOM     27  C   UNL A   1      32.934  18.298  25.346  1.00  0.00     0.068 A 
ATOM     28  C   UNL A   1      32.430  19.685  23.426  1.00  0.00     0.083 A 
ATOM     29  C   UNL A   1      32.986  17.180  24.519  1.00  0.00     0.044 A 
ATOM     30  C   UNL A   1      32.460  18.556  22.604  1.00  0.00     0.026 A 
ATOM     31  Cl  UNL A   1      32.028  21.209  22.727  1.00  0.00    -0.080 Cl
ATOM     32  Cl  UNL A   1      33.342  15.639  25.193  1.00  0.00    -0.084 Cl
ATOM     33  C   UNL A   1      32.753  17.303  23.150  1.00  0.00     0.022 A 
ENDBRANCH  25  26
ENDBRANCH  22  25
ENDBRANCH  19  22
ENDBRANCH  15  18
ENDBRANCH   8  14
ENDBRANCH   4   7
ENDBRANCH   2   3
ENDBRANCH   1   2
BRANCH   1  34
ATOM     34  C   UNL A   1      32.600  30.503  26.429  1.00  0.00     0.002 C 
BRANCH  34  35
ATOM     35  C   UNL A   1      31.344  31.332  26.126  1.00  0.00     0.002 C 
BRANCH  35  36
ATOM     36  C   UNL A   1      31.395  32.798  26.568  1.00  0.00     0.021 C 
BRANCH  36  37
ATOM     37  C   UNL A   1      32.574  33.158  27.466  1.00  0.00     0.116 C 
BRANCH  37  38
ATOM     38  N   UNL A   1      32.536  34.550  27.881  1.00  0.00    -0.352 N 
ATOM     39  C   UNL A   1      33.235  35.184  28.877  1.00  0.00     0.251 C 
ATOM     40  H   UNL A   1      31.918  35.122  27.372  1.00  0.00     0.163 HD
ATOM     41  O   UNL A   1      32.907  36.312  29.226  1.00  0.00    -0.269 OA
BRANCH  39  42
ATOM     42  C   UNL A   1      34.368  34.495  29.528  1.00  0.00     0.039 A 
ATOM     43  C   UNL A   1      35.647  34.635  28.985  1.00  0.00     0.014 A 
ATOM     44  C   UNL A   1      34.164  33.701  30.661  1.00  0.00     0.014 A 
ATOM     45  C   UNL A   1      36.732  34.018  29.609  1.00  0.00     0.010 A 
ATOM     46  C   UNL A   1      35.256  33.145  31.321  1.00  0.00     0.010 A 
ATOM     47  C   UNL A   1      36.549  33.293  30.797  1.00  0.00    -0.014 A 
BRANCH  47  48
ATOM     48  C   UNL A   1      37.698  32.668  31.502  1.00  0.00     0.031 A 
ATOM     49  C   UNL A   1      38.424  31.511  30.872  1.00  0.00     0.074 A 
ATOM     50  C   UNL A   1      38.041  33.103  32.730  1.00  0.00     0.049 A 
ATOM     51  N   UNL A   1      39.391  30.777  31.357  1.00  0.00    -0.248 NA
ATOM     52  C   UNL A   1      37.982  31.111  29.527  1.00  0.00     0.031 C 
ATOM     53  C   UNL A   1      37.384  34.194  33.453  1.00  0.00     0.029 A 
ATOM     54  N   UNL A   1      39.018  32.676  33.593  1.00  0.00    -0.354 N 
ATOM     55  C   UNL A   1      39.665  29.819  30.386  1.00  0.00     0.074 A 
ATOM     56  C   UNL A   1      38.717  30.031  29.313  1.00  0.00     0.031 C 
ATOM     57  C   UNL A   1      37.991  34.364  34.638  1.00  0.00     0.029 A 
ATOM     58  C   UNL A   1      39.045  33.365  34.783  1.00  0.00     0.049 A 
ATOM     59  H   UNL A   1      39.642  31.944  33.381  1.00  0.00     0.167 HD
ATOM     60  C   UNL A   1      40.630  28.867  30.384  1.00  0.00     0.034 A 
ATOM     61  C   UNL A   1      39.821  33.201  35.873  1.00  0.00     0.034 A 
ATOM     62  C   UNL A   1      41.570  28.682  31.462  1.00  0.00     0.049 A 
ATOM     63  C   UNL A   1      40.868  32.116  35.860  1.00  0.00     0.074 A 
ATOM     64  C   UNL A   1      42.623  27.787  31.543  1.00  0.00     0.029 A 
ATOM     65  N   UNL A   1      41.567  29.398  32.653  1.00  0.00    -0.354 N 
ATOM     66  N   UNL A   1      41.146  31.249  34.913  1.00  0.00    -0.248 NA
ATOM     67  C   UNL A   1      41.713  31.996  37.054  1.00  0.00     0.031 C 
ATOM     68  C   UNL A   1      43.208  27.912  32.808  1.00  0.00     0.029 A 
ATOM     69  C   UNL A   1      42.577  28.942  33.487  1.00  0.00     0.049 A 
ATOM     70  H   UNL A   1      40.940  30.124  32.873  1.00  0.00     0.167 HD
ATOM     71  C   UNL A   1      42.220  30.501  35.388  1.00  0.00     0.074 A 
ATOM     72  C   UNL A   1      42.545  31.029  36.698  1.00  0.00     0.031 C 
ATOM     73  C   UNL A   1      42.882  29.474  34.795  1.00  0.00     0.034 A 
BRANCH  60  74
ATOM     74  C   UNL A   1      40.692  27.941  29.192  1.00  0.00     0.023 A 
ATOM     75  C   UNL A   1      41.632  28.122  28.161  1.00  0.00     0.031 A 
ATOM     76  C   UNL A   1      39.781  26.875  29.069  1.00  0.00     0.131 A 
ATOM     77  C   UNL A   1      41.590  27.305  27.021  1.00  0.00     0.055 A 
ATOM     78  C   UNL A   1      39.801  26.012  27.971  1.00  0.00     0.041 A 
ATOM     79  F   UNL A   1      38.846  26.664  30.008  1.00  0.00    -0.206 F 
ATOM     80  C   UNL A   1      40.698  26.235  26.931  1.00  0.00     0.022 A 
BRANCH  77  81
ATOM     81  S   UNL A   1      42.617  27.754  25.596  1.00  0.00     0.124 S 
ATOM     82  O   UNL A   1      42.549  26.537  24.790  1.00  0.00    -0.237 OA
ATOM     83  O   UNL A   1      41.918  28.916  25.058  1.00  0.00    -0.237 OA
ATOM     84  O   UNL A   1      43.924  28.029  26.187  1.00  0.00    -0.744 OA
ENDBRANCH  77  81
ENDBRANCH  60  74
BRANCH  61  85
ATOM     85  C   UNL A   1      39.634  34.068  37.071  1.00  0.00     0.023 A 
ATOM     86  C   UNL A   1      39.037  33.569  38.240  1.00  0.00     0.031 A 
ATOM     87  C   UNL A   1      40.015  35.422  37.053  1.00  0.00     0.131 A 
ATOM     88  C   UNL A   1      38.797  34.428  39.324  1.00  0.00     0.055 A 
ATOM     89  C   UNL A   1      39.825  36.258  38.154  1.00  0.00     0.041 A 
ATOM     90  F   UNL A   1      40.594  35.950  35.962  1.00  0.00    -0.206 F 
ATOM     91  C   UNL A   1      39.198  35.765  39.295  1.00  0.00     0.022 A 
BRANCH  88  92
ATOM     92  S   UNL A   1      37.868  33.791  40.746  1.00  0.00     0.124 S 
ATOM     93  O   UNL A   1      37.475  35.023  41.421  1.00  0.00    -0.237 OA
ATOM     94  O   UNL A   1      36.795  33.044  40.097  1.00  0.00    -0.237 OA
ATOM     95  O   UNL A   1      38.850  32.975  41.456  1.00  0.00    -0.744 OA
ENDBRANCH  88  92
ENDBRANCH  61  85
BRANCH  73  96
ATOM     96  C   UNL A   1      44.054  28.890  35.544  1.00  0.00     0.023 A 
ATOM     97  C   UNL A   1      43.912  27.780  36.396  1.00  0.00     0.031 A 
ATOM     98  C   UNL A   1      45.333  29.457  35.404  1.00  0.00     0.131 A 
ATOM     99  C   UNL A   1      45.021  27.307  37.115  1.00  0.00     0.055 A 
ATOM    100  C   UNL A   1      46.444  28.942  36.073  1.00  0.00     0.041 A 
ATOM    101  F   UNL A   1      45.525  30.520  34.605  1.00  0.00    -0.206 F 
ATOM    102  C   UNL A   1      46.289  27.869  36.944  1.00  0.00     0.022 A 
BRANCH  99 103
ATOM    103  S   UNL A   1      44.766  26.000  38.347  1.00  0.00     0.124 S 
ATOM    104  O   UNL A   1      46.081  25.366  38.392  1.00  0.00    -0.237 OA
ATOM    105  O   UNL A   1      44.385  26.759  39.534  1.00  0.00    -0.237 OA
ATOM    106  O   UNL A   1      43.703  25.183  37.767  1.00  0.00    -0.744 OA
ENDBRANCH  99 103
ENDBRANCH  73  96
ENDBRANCH  47  48
ENDBRANCH  39  42
ENDBRANCH  37  38
ENDBRANCH  36  37
ENDBRANCH  35  36
ENDBRANCH  34  35
ENDBRANCH   1  34
TORSDOF 22
ENDMDL
