MODEL 1
REMARK VINA RESULT:     -13.7      0.000      0.000
REMARK SMILES Cc1ccc(C(=O)N2C[C@@H](C(=O)NCCCCCCNC(=O)c3ccc(-c4c5nc(c(-c6cc(S(=O)(=O)[O-])ccc6F)c6ccc([nH]6)c(-c6cc(S(=O)(=O)[O-])ccc6F)c6nc(c(-c7cc(S(=O)(=O)[O-])ccc7F)c7ccc4[nH]7)C=C6)C=C5)cc3)C[C@H](C(=O)N3CCOCC3)C2)cc1F
REMARK SMILES IDX 17 1 16 2 15 3 14 4 13 5 11 6 12 7 10 9 8 10 9 11 96 12
REMARK SMILES IDX 87 13 86 14 6 15 7 16 5 17 1 18 2 19 3 20 98 21 4 22 97 23
REMARK SMILES IDX 99 24 88 25 89 26 90 27 91 28 95 29 92 30 94 31 93 32 18 33
REMARK SMILES IDX 19 34 20 35 21 36 22 38 23 39 24 40 85 41 25 42 84 43 26 44
REMARK SMILES IDX 27 45 28 46 78 47 29 48 83 49 77 50 79 51 30 52 82 53 76 54
REMARK SMILES IDX 75 55 31 57 63 58 43 59 62 60 44 61 47 62 61 63 80 64 45 65
REMARK SMILES IDX 46 66 60 68 81 69 48 70 32 71 33 72 41 73 34 74 40 75 42 76
REMARK SMILES IDX 39 77 35 78 36 79 37 80 38 81 64 82 65 83 73 84 66 85 72 86
REMARK SMILES IDX 74 87 71 88 67 89 68 90 69 91 70 92 49 93 50 94 58 95 51 96
REMARK SMILES IDX 57 97 59 98 56 99 52 100 53 101 54 102 55 103
REMARK H PARENT 13 8 20 37 79 56 47 67
REMARK Flexibility Score: inf
ROOT
ATOM      1  C   UNL A   1      32.507  28.823  26.765  1.00  0.00     0.002 C 
ENDROOT
BRANCH   1   2
ATOM      2  C   UNL A   1      31.987  27.374  26.789  1.00  0.00     0.002 C 
BRANCH   2   3
ATOM      3  C   UNL A   1      30.769  27.125  25.901  1.00  0.00     0.021 C 
BRANCH   3   4
ATOM      4  C   UNL A   1      30.707  25.700  25.394  1.00  0.00     0.116 C 
BRANCH   4   5
ATOM      5  N   UNL A   1      30.339  24.801  26.462  1.00  0.00    -0.356 N 
ATOM      6  C   UNL A   1      30.718  23.524  26.662  1.00  0.00     0.224 C 
ATOM      7  O   UNL A   1      30.235  22.896  27.605  1.00  0.00    -0.275 OA
ATOM      8  H   UNL A   1      29.728  25.174  27.138  1.00  0.00     0.163 HD
BRANCH   6   9
ATOM      9  C   UNL A   1      31.721  22.893  25.735  1.00  0.00     0.099 C 
ATOM     10  N   UNL A   1      32.682  22.961  23.459  1.00  0.00    -0.337 N 
ATOM     11  C   UNL A   1      31.771  23.598  24.393  1.00  0.00     0.133 C 
ATOM     12  C   UNL A   1      32.544  21.514  23.284  1.00  0.00     0.133 C 
ATOM     13  C   UNL A   1      32.524  20.734  24.618  1.00  0.00     0.099 C 
ATOM     14  C   UNL A   1      31.647  21.365  25.694  1.00  0.00     0.030 C 
BRANCH  10  15
ATOM     15  C   UNL A   1      33.451  23.813  22.677  1.00  0.00     0.254 C 
ATOM     16  O   UNL A   1      34.539  23.475  22.209  1.00  0.00    -0.269 OA
BRANCH  15  17
ATOM     17  C   UNL A   1      33.052  25.220  22.468  1.00  0.00     0.042 A 
ATOM     18  C   UNL A   1      31.410  29.163  22.939  1.00  0.00     0.047 C 
ATOM     19  C   UNL A   1      32.004  27.810  22.689  1.00  0.00    -0.015 A 
ATOM     20  C   UNL A   1      31.298  26.822  21.992  1.00  0.00     0.007 A 
ATOM     21  C   UNL A   1      33.257  27.494  23.222  1.00  0.00     0.126 A 
ATOM     22  C   UNL A   1      31.815  25.527  21.886  1.00  0.00     0.014 A 
ATOM     23  C   UNL A   1      33.783  26.213  23.124  1.00  0.00     0.053 A 
ATOM     24  F   UNL A   1      33.946  28.423  23.901  1.00  0.00    -0.207 F 
ENDBRANCH  15  17
ENDBRANCH  10  15
BRANCH  13  25
ATOM     25  C   UNL A   1      33.947  20.307  24.999  1.00  0.00     0.227 C 
ATOM     26  O   UNL A   1      34.295  19.149  24.740  1.00  0.00    -0.275 OA
ATOM     27  N   UNL A   1      34.887  21.241  25.358  1.00  0.00    -0.338 N 
ATOM     28  C   UNL A   1      34.842  22.209  26.456  1.00  0.00     0.148 C 
ATOM     29  C   UNL A   1      36.210  21.164  24.751  1.00  0.00     0.148 C 
ATOM     30  C   UNL A   1      35.292  23.591  25.945  1.00  0.00     0.181 C 
ATOM     31  C   UNL A   1      36.607  22.564  24.268  1.00  0.00     0.181 C 
ATOM     32  O   UNL A   1      36.606  23.503  25.361  1.00  0.00    -0.378 OA
ENDBRANCH  13  25
ENDBRANCH   6   9
ENDBRANCH   4   5
ENDBRANCH   3   4
ENDBRANCH   2   3
ENDBRANCH   1   2
BRANCH   1  33
ATOM     33  C   UNL A   1      33.654  29.138  27.739  1.00  0.00     0.021 C 
BRANCH  33  34
ATOM     34  C   UNL A   1      34.972  29.235  27.026  1.00  0.00     0.116 C 
BRANCH  34  35
ATOM     35  N   UNL A   1      35.495  30.580  27.176  1.00  0.00    -0.352 N 
ATOM     36  C   UNL A   1      36.533  30.943  27.983  1.00  0.00     0.251 C 
ATOM     37  H   UNL A   1      35.063  31.291  26.650  1.00  0.00     0.163 HD
ATOM     38  O   UNL A   1      36.644  32.118  28.346  1.00  0.00    -0.269 OA
BRANCH  36  39
ATOM     39  C   UNL A   1      37.507  29.897  28.291  1.00  0.00     0.039 A 
ATOM     40  C   UNL A   1      37.402  29.043  29.388  1.00  0.00     0.014 A 
ATOM     41  C   UNL A   1      38.562  29.793  27.384  1.00  0.00     0.014 A 
ATOM     42  C   UNL A   1      38.420  28.124  29.611  1.00  0.00     0.010 A 
ATOM     43  C   UNL A   1      39.413  28.742  27.467  1.00  0.00     0.010 A 
ATOM     44  C   UNL A   1      39.430  28.015  28.654  1.00  0.00    -0.014 A 
BRANCH  44  45
ATOM     45  C   UNL A   1      40.659  27.269  28.813  1.00  0.00     0.031 A 
ATOM     46  C   UNL A   1      40.655  25.823  28.614  1.00  0.00     0.074 A 
ATOM     47  C   UNL A   1      41.773  28.027  28.958  1.00  0.00     0.049 A 
ATOM     48  N   UNL A   1      41.514  25.031  29.143  1.00  0.00    -0.248 NA
ATOM     49  C   UNL A   1      39.650  25.136  27.805  1.00  0.00     0.031 C 
ATOM     50  C   UNL A   1      43.171  27.683  28.804  1.00  0.00     0.029 A 
ATOM     51  N   UNL A   1      41.825  29.370  29.372  1.00  0.00    -0.354 N 
ATOM     52  C   UNL A   1      41.429  23.852  28.437  1.00  0.00     0.074 A 
ATOM     53  C   UNL A   1      40.144  23.894  27.776  1.00  0.00     0.031 C 
ATOM     54  C   UNL A   1      43.911  28.634  29.411  1.00  0.00     0.029 A 
ATOM     55  C   UNL A   1      42.990  29.505  30.127  1.00  0.00     0.049 A 
ATOM     56  H   UNL A   1      41.170  30.074  29.168  1.00  0.00     0.167 HD
ATOM     57  C   UNL A   1      42.559  23.101  28.293  1.00  0.00     0.034 A 
ATOM     58  C   UNL A   1      42.916  29.686  31.485  1.00  0.00     0.034 A 
ATOM     59  C   UNL A   1      43.685  23.750  28.988  1.00  0.00     0.049 A 
ATOM     60  C   UNL A   1      43.483  28.489  32.240  1.00  0.00     0.074 A 
ATOM     61  C   UNL A   1      44.761  24.511  28.557  1.00  0.00     0.029 A 
ATOM     62  N   UNL A   1      43.589  23.985  30.352  1.00  0.00    -0.354 N 
ATOM     63  N   UNL A   1      43.901  27.398  31.660  1.00  0.00    -0.248 NA
ATOM     64  C   UNL A   1      43.553  28.388  33.696  1.00  0.00     0.031 C 
ATOM     65  C   UNL A   1      45.304  25.206  29.681  1.00  0.00     0.029 A 
ATOM     66  C   UNL A   1      44.568  24.861  30.800  1.00  0.00     0.049 A 
ATOM     67  H   UNL A   1      42.906  23.579  30.935  1.00  0.00     0.167 HD
ATOM     68  C   UNL A   1      44.222  26.448  32.588  1.00  0.00     0.074 A 
ATOM     69  C   UNL A   1      43.987  27.123  33.855  1.00  0.00     0.031 C 
ATOM     70  C   UNL A   1      44.615  25.186  32.227  1.00  0.00     0.034 A 
BRANCH  57  71
ATOM     71  C   UNL A   1      42.713  21.971  27.288  1.00  0.00     0.023 A 
ATOM     72  C   UNL A   1      43.658  21.955  26.237  1.00  0.00     0.031 A 
ATOM     73  C   UNL A   1      41.900  20.820  27.375  1.00  0.00     0.131 A 
ATOM     74  C   UNL A   1      43.832  20.827  25.408  1.00  0.00     0.055 A 
ATOM     75  C   UNL A   1      42.042  19.716  26.525  1.00  0.00     0.041 A 
ATOM     76  F   UNL A   1      40.948  20.697  28.309  1.00  0.00    -0.206 F 
ATOM     77  C   UNL A   1      43.022  19.704  25.546  1.00  0.00     0.022 A 
BRANCH  74  78
ATOM     78  S   UNL A   1      45.164  20.752  24.172  1.00  0.00     0.124 S 
ATOM     79  O   UNL A   1      45.046  22.050  23.508  1.00  0.00    -0.237 OA
ATOM     80  O   UNL A   1      46.354  20.584  24.999  1.00  0.00    -0.237 OA
ATOM     81  O   UNL A   1      44.807  19.607  23.339  1.00  0.00    -0.744 OA
ENDBRANCH  74  78
ENDBRANCH  57  71
BRANCH  58  82
ATOM     82  C   UNL A   1      41.715  30.492  31.900  1.00  0.00     0.023 A 
ATOM     83  C   UNL A   1      40.630  29.910  32.576  1.00  0.00     0.031 A 
ATOM     84  C   UNL A   1      41.481  31.712  31.219  1.00  0.00     0.131 A 
ATOM     85  C   UNL A   1      39.342  30.464  32.434  1.00  0.00     0.055 A 
ATOM     86  C   UNL A   1      40.191  32.214  31.023  1.00  0.00     0.041 A 
ATOM     87  F   UNL A   1      42.492  32.343  30.598  1.00  0.00    -0.206 F 
ATOM     88  C   UNL A   1      39.106  31.561  31.598  1.00  0.00     0.022 A 
BRANCH  85  89
ATOM     89  S   UNL A   1      37.930  29.685  33.277  1.00  0.00     0.124 S 
ATOM     90  O   UNL A   1      36.807  30.376  32.652  1.00  0.00    -0.237 OA
ATOM     91  O   UNL A   1      38.059  28.273  32.931  1.00  0.00    -0.237 OA
ATOM     92  O   UNL A   1      38.175  29.999  34.680  1.00  0.00    -0.744 OA
ENDBRANCH  85  89
ENDBRANCH  58  82
BRANCH  70  93
ATOM     93  C   UNL A   1      45.021  24.083  33.180  1.00  0.00     0.023 A 
ATOM     94  C   UNL A   1      46.327  24.092  33.730  1.00  0.00     0.031 A 
ATOM     95  C   UNL A   1      44.172  23.082  33.667  1.00  0.00     0.131 A 
ATOM     96  C   UNL A   1      46.778  23.102  34.605  1.00  0.00     0.055 A 
ATOM     97  C   UNL A   1      44.629  22.061  34.512  1.00  0.00     0.041 A 
ATOM     98  F   UNL A   1      42.856  23.094  33.411  1.00  0.00    -0.206 F 
ATOM     99  C   UNL A   1      45.943  22.056  34.969  1.00  0.00     0.022 A 
BRANCH  96 100
ATOM    100  S   UNL A   1      48.437  23.197  35.328  1.00  0.00     0.124 S 
ATOM    101  O   UNL A   1      48.224  22.583  36.638  1.00  0.00    -0.237 OA
ATOM    102  O   UNL A   1      49.221  22.404  34.384  1.00  0.00    -0.237 OA
ATOM    103  O   UNL A   1      48.735  24.624  35.347  1.00  0.00    -0.744 OA
ENDBRANCH  96 100
ENDBRANCH  70  93
ENDBRANCH  44  45
ENDBRANCH  36  39
ENDBRANCH  34  35
ENDBRANCH  33  34
ENDBRANCH   1  33
TORSDOF 19
ENDMDL
MODEL 2
REMARK VINA RESULT:     -13.2      1.701      2.023
REMARK SMILES Cc1ccc(C(=O)N2C[C@@H](C(=O)NCCCCCCNC(=O)c3ccc(-c4c5nc(c(-c6cc(S(=O)(=O)[O-])ccc6F)c6ccc([nH]6)c(-c6cc(S(=O)(=O)[O-])ccc6F)c6nc(c(-c7cc(S(=O)(=O)[O-])ccc7F)c7ccc4[nH]7)C=C6)C=C5)cc3)C[C@H](C(=O)N3CCOCC3)C2)cc1F
REMARK SMILES IDX 17 1 16 2 15 3 14 4 13 5 11 6 12 7 10 9 8 10 9 11 96 12
REMARK SMILES IDX 87 13 86 14 6 15 7 16 5 17 1 18 2 19 3 20 98 21 4 22 97 23
REMARK SMILES IDX 99 24 88 25 89 26 90 27 91 28 95 29 92 30 94 31 93 32 18 33
REMARK SMILES IDX 19 34 20 35 21 36 22 38 23 39 24 40 85 41 25 42 84 43 26 44
REMARK SMILES IDX 27 45 28 46 78 47 29 48 83 49 77 50 79 51 30 52 82 53 76 54
REMARK SMILES IDX 75 55 31 57 63 58 43 59 62 60 44 61 47 62 61 63 80 64 45 65
REMARK SMILES IDX 46 66 60 68 81 69 48 70 32 71 33 72 41 73 34 74 40 75 42 76
REMARK SMILES IDX 39 77 35 78 36 79 37 80 38 81 64 82 65 83 73 84 66 85 72 86
REMARK SMILES IDX 74 87 71 88 67 89 68 90 69 91 70 92 49 93 50 94 58 95 51 96
REMARK SMILES IDX 57 97 59 98 56 99 52 100 53 101 54 102 55 103
REMARK H PARENT 13 8 20 37 79 56 47 67
REMARK Flexibility Score: inf
ROOT
ATOM      1  C   UNL A   1      32.342  28.437  26.691  1.00  0.00     0.002 C 
ENDROOT
BRANCH   1   2
ATOM      2  C   UNL A   1      31.944  26.966  26.479  1.00  0.00     0.002 C 
BRANCH   2   3
ATOM      3  C   UNL A   1      30.512  26.764  25.986  1.00  0.00     0.021 C 
BRANCH   3   4
ATOM      4  C   UNL A   1      30.313  25.414  25.331  1.00  0.00     0.116 C 
BRANCH   4   5
ATOM      5  N   UNL A   1      29.968  24.420  26.320  1.00  0.00    -0.356 N 
ATOM      6  C   UNL A   1      30.483  23.188  26.498  1.00  0.00     0.224 C 
ATOM      7  O   UNL A   1      30.001  22.456  27.363  1.00  0.00    -0.275 OA
ATOM      8  H   UNL A   1      29.259  24.680  26.952  1.00  0.00     0.163 HD
BRANCH   6   9
ATOM      9  C   UNL A   1      31.632  22.733  25.642  1.00  0.00     0.099 C 
ATOM     10  N   UNL A   1      32.806  23.079  23.494  1.00  0.00    -0.337 N 
ATOM     11  C   UNL A   1      31.746  23.549  24.368  1.00  0.00     0.133 C 
ATOM     12  C   UNL A   1      32.833  21.645  23.200  1.00  0.00     0.133 C 
ATOM     13  C   UNL A   1      32.759  20.759  24.463  1.00  0.00     0.099 C 
ATOM     14  C   UNL A   1      31.718  21.213  25.480  1.00  0.00     0.030 C 
BRANCH  10  15
ATOM     15  C   UNL A   1      33.560  24.061  22.864  1.00  0.00     0.254 C 
ATOM     16  O   UNL A   1      34.753  23.908  22.602  1.00  0.00    -0.269 OA
BRANCH  15  17
ATOM     17  C   UNL A   1      32.988  25.395  22.585  1.00  0.00     0.042 A 
ATOM     18  C   UNL A   1      30.920  29.149  22.885  1.00  0.00     0.047 C 
ATOM     19  C   UNL A   1      31.657  27.858  22.693  1.00  0.00    -0.015 A 
ATOM     20  C   UNL A   1      31.038  26.749  22.103  1.00  0.00     0.007 A 
ATOM     21  C   UNL A   1      32.962  27.726  23.174  1.00  0.00     0.126 A 
ATOM     22  C   UNL A   1      31.698  25.517  22.054  1.00  0.00     0.014 A 
ATOM     23  C   UNL A   1      33.629  26.509  23.132  1.00  0.00     0.053 A 
ATOM     24  F   UNL A   1      33.569  28.774  23.751  1.00  0.00    -0.207 F 
ENDBRANCH  15  17
ENDBRANCH  10  15
BRANCH  13  25
ATOM     25  C   UNL A   1      34.172  20.435  24.963  1.00  0.00     0.227 C 
ATOM     26  O   UNL A   1      34.641  19.321  24.701  1.00  0.00    -0.275 OA
ATOM     27  N   UNL A   1      34.991  21.428  25.441  1.00  0.00    -0.338 N 
ATOM     28  C   UNL A   1      34.762  22.344  26.561  1.00  0.00     0.148 C 
ATOM     29  C   UNL A   1      36.366  21.486  24.960  1.00  0.00     0.148 C 
ATOM     30  C   UNL A   1      35.136  23.777  26.141  1.00  0.00     0.181 C 
ATOM     31  C   UNL A   1      36.683  22.932  24.564  1.00  0.00     0.181 C 
ATOM     32  O   UNL A   1      36.501  23.822  25.682  1.00  0.00    -0.378 OA
ENDBRANCH  13  25
ENDBRANCH   6   9
ENDBRANCH   4   5
ENDBRANCH   3   4
ENDBRANCH   2   3
ENDBRANCH   1   2
BRANCH   1  33
ATOM     33  C   UNL A   1      33.557  28.677  27.602  1.00  0.00     0.021 C 
BRANCH  33  34
ATOM     34  C   UNL A   1      34.714  29.256  26.839  1.00  0.00     0.116 C 
BRANCH  34  35
ATOM     35  N   UNL A   1      34.919  30.630  27.259  1.00  0.00    -0.352 N 
ATOM     36  C   UNL A   1      35.801  31.045  28.212  1.00  0.00     0.251 C 
ATOM     37  H   UNL A   1      34.373  31.321  26.818  1.00  0.00     0.163 HD
ATOM     38  O   UNL A   1      35.630  32.133  28.773  1.00  0.00    -0.269 OA
BRANCH  36  39
ATOM     39  C   UNL A   1      36.961  30.184  28.437  1.00  0.00     0.039 A 
ATOM     40  C   UNL A   1      37.107  29.362  29.552  1.00  0.00     0.014 A 
ATOM     41  C   UNL A   1      37.925  30.224  27.428  1.00  0.00     0.014 A 
ATOM     42  C   UNL A   1      38.281  28.630  29.686  1.00  0.00     0.010 A 
ATOM     43  C   UNL A   1      38.943  29.331  27.442  1.00  0.00     0.010 A 
ATOM     44  C   UNL A   1      39.197  28.656  28.633  1.00  0.00    -0.014 A 
BRANCH  44  45
ATOM     45  C   UNL A   1      40.542  28.127  28.677  1.00  0.00     0.031 A 
ATOM     46  C   UNL A   1      40.762  26.699  28.471  1.00  0.00     0.074 A 
ATOM     47  C   UNL A   1      41.522  29.062  28.729  1.00  0.00     0.049 A 
ATOM     48  N   UNL A   1      41.785  26.067  28.917  1.00  0.00    -0.248 NA
ATOM     49  C   UNL A   1      39.819  25.847  27.749  1.00  0.00     0.031 C 
ATOM     50  C   UNL A   1      42.939  28.955  28.450  1.00  0.00     0.029 A 
ATOM     51  N   UNL A   1      41.386  30.398  29.145  1.00  0.00    -0.354 N 
ATOM     52  C   UNL A   1      41.836  24.883  28.213  1.00  0.00     0.074 A 
ATOM     53  C   UNL A   1      40.510  24.705  27.669  1.00  0.00     0.031 C 
ATOM     54  C   UNL A   1      43.560  30.021  28.995  1.00  0.00     0.029 A 
ATOM     55  C   UNL A   1      42.573  30.732  29.796  1.00  0.00     0.049 A 
ATOM     56  H   UNL A   1      40.606  30.981  29.005  1.00  0.00     0.167 HD
ATOM     57  C   UNL A   1      43.059  24.331  27.966  1.00  0.00     0.034 A 
ATOM     58  C   UNL A   1      42.590  30.910  31.156  1.00  0.00     0.034 A 
ATOM     59  C   UNL A   1      44.117  25.165  28.563  1.00  0.00     0.049 A 
ATOM     60  C   UNL A   1      43.413  29.831  31.850  1.00  0.00     0.074 A 
ATOM     61  C   UNL A   1      45.008  26.091  28.044  1.00  0.00     0.029 A 
ATOM     62  N   UNL A   1      44.104  25.392  29.932  1.00  0.00    -0.354 N 
ATOM     63  N   UNL A   1      43.955  28.820  31.229  1.00  0.00    -0.248 NA
ATOM     64  C   UNL A   1      43.627  29.755  33.293  1.00  0.00     0.031 C 
ATOM     65  C   UNL A   1      45.524  26.876  29.120  1.00  0.00     0.029 A 
ATOM     66  C   UNL A   1      44.958  26.423  30.297  1.00  0.00     0.049 A 
ATOM     67  H   UNL A   1      43.552  24.882  30.569  1.00  0.00     0.167 HD
ATOM     68  C   UNL A   1      44.510  27.945  32.119  1.00  0.00     0.074 A 
ATOM     69  C   UNL A   1      44.278  28.582  33.406  1.00  0.00     0.031 C 
ATOM     70  C   UNL A   1      45.076  26.763  31.717  1.00  0.00     0.034 A 
BRANCH  57  71
ATOM     71  C   UNL A   1      43.310  23.234  26.944  1.00  0.00     0.023 A 
ATOM     72  C   UNL A   1      42.957  21.877  27.119  1.00  0.00     0.031 A 
ATOM     73  C   UNL A   1      43.914  23.536  25.704  1.00  0.00     0.131 A 
ATOM     74  C   UNL A   1      43.109  20.927  26.087  1.00  0.00     0.055 A 
ATOM     75  C   UNL A   1      44.108  22.585  24.694  1.00  0.00     0.041 A 
ATOM     76  F   UNL A   1      44.320  24.776  25.399  1.00  0.00    -0.206 F 
ATOM     77  C   UNL A   1      43.689  21.276  24.872  1.00  0.00     0.022 A 
BRANCH  74  78
ATOM     78  S   UNL A   1      42.493  19.225  26.264  1.00  0.00     0.124 S 
ATOM     79  O   UNL A   1      43.614  18.433  25.757  1.00  0.00    -0.237 OA
ATOM     80  O   UNL A   1      42.259  19.120  27.700  1.00  0.00    -0.237 OA
ATOM     81  O   UNL A   1      41.298  19.196  25.425  1.00  0.00    -0.744 OA
ENDBRANCH  74  78
ENDBRANCH  57  71
BRANCH  58  82
ATOM     82  C   UNL A   1      41.312  31.507  31.681  1.00  0.00     0.023 A 
ATOM     83  C   UNL A   1      40.398  30.755  32.436  1.00  0.00     0.031 A 
ATOM     84  C   UNL A   1      40.825  32.672  31.038  1.00  0.00     0.131 A 
ATOM     85  C   UNL A   1      39.029  31.089  32.409  1.00  0.00     0.055 A 
ATOM     86  C   UNL A   1      39.458  32.955  30.957  1.00  0.00     0.041 A 
ATOM     87  F   UNL A   1      41.663  33.461  30.344  1.00  0.00    -0.206 F 
ATOM     88  C   UNL A   1      38.547  32.133  31.611  1.00  0.00     0.022 A 
BRANCH  85  89
ATOM     89  S   UNL A   1      37.840  30.089  33.355  1.00  0.00     0.124 S 
ATOM     90  O   UNL A   1      37.926  30.713  34.672  1.00  0.00    -0.237 OA
ATOM     91  O   UNL A   1      36.579  30.296  32.653  1.00  0.00    -0.237 OA
ATOM     92  O   UNL A   1      38.390  28.742  33.248  1.00  0.00    -0.744 OA
ENDBRANCH  85  89
ENDBRANCH  58  82
BRANCH  70  93
ATOM     93  C   UNL A   1      45.743  25.751  32.623  1.00  0.00     0.023 A 
ATOM     94  C   UNL A   1      44.936  24.881  33.398  1.00  0.00     0.031 A 
ATOM     95  C   UNL A   1      47.120  25.515  32.694  1.00  0.00     0.131 A 
ATOM     96  C   UNL A   1      45.478  23.932  34.266  1.00  0.00     0.055 A 
ATOM     97  C   UNL A   1      47.674  24.593  33.595  1.00  0.00     0.041 A 
ATOM     98  F   UNL A   1      47.977  26.103  31.848  1.00  0.00    -0.206 F 
ATOM     99  C   UNL A   1      46.853  23.810  34.401  1.00  0.00     0.022 A 
BRANCH  96 100
ATOM    100  S   UNL A   1      44.400  22.802  35.185  1.00  0.00     0.124 S 
ATOM    101  O   UNL A   1      44.934  21.499  34.794  1.00  0.00    -0.237 OA
ATOM    102  O   UNL A   1      44.661  23.197  36.567  1.00  0.00    -0.237 OA
ATOM    103  O   UNL A   1      43.062  23.104  34.689  1.00  0.00    -0.744 OA
ENDBRANCH  96 100
ENDBRANCH  70  93
ENDBRANCH  44  45
ENDBRANCH  36  39
ENDBRANCH  34  35
ENDBRANCH  33  34
ENDBRANCH   1  33
TORSDOF 19
ENDMDL
MODEL 3
REMARK VINA RESULT:     -13.1      4.155      9.516
REMARK SMILES Cc1ccc(C(=O)N2C[C@@H](C(=O)NCCCCCCNC(=O)c3ccc(-c4c5nc(c(-c6cc(S(=O)(=O)[O-])ccc6F)c6ccc([nH]6)c(-c6cc(S(=O)(=O)[O-])ccc6F)c6nc(c(-c7cc(S(=O)(=O)[O-])ccc7F)c7ccc4[nH]7)C=C6)C=C5)cc3)C[C@H](C(=O)N3CCOCC3)C2)cc1F
REMARK SMILES IDX 17 1 16 2 15 3 14 4 13 5 11 6 12 7 10 9 8 10 9 11 96 12
REMARK SMILES IDX 87 13 86 14 6 15 7 16 5 17 1 18 2 19 3 20 98 21 4 22 97 23
REMARK SMILES IDX 99 24 88 25 89 26 90 27 91 28 95 29 92 30 94 31 93 32 18 33
REMARK SMILES IDX 19 34 20 35 21 36 22 38 23 39 24 40 85 41 25 42 84 43 26 44
REMARK SMILES IDX 27 45 28 46 78 47 29 48 83 49 77 50 79 51 30 52 82 53 76 54
REMARK SMILES IDX 75 55 31 57 63 58 43 59 62 60 44 61 47 62 61 63 80 64 45 65
REMARK SMILES IDX 46 66 60 68 81 69 48 70 32 71 33 72 41 73 34 74 40 75 42 76
REMARK SMILES IDX 39 77 35 78 36 79 37 80 38 81 64 82 65 83 73 84 66 85 72 86
REMARK SMILES IDX 74 87 71 88 67 89 68 90 69 91 70 92 49 93 50 94 58 95 51 96
REMARK SMILES IDX 57 97 59 98 56 99 52 100 53 101 54 102 55 103
REMARK H PARENT 13 8 20 37 79 56 47 67
REMARK Flexibility Score: inf
ROOT
ATOM      1  C   UNL A   1      35.309  22.561  26.673  1.00  0.00     0.002 C 
ENDROOT
BRANCH   1   2
ATOM      2  C   UNL A   1      34.082  21.747  26.229  1.00  0.00     0.002 C 
BRANCH   2   3
ATOM      3  C   UNL A   1      33.695  21.936  24.763  1.00  0.00     0.021 C 
BRANCH   3   4
ATOM      4  C   UNL A   1      32.264  22.404  24.599  1.00  0.00     0.116 C 
BRANCH   4   5
ATOM      5  N   UNL A   1      31.774  22.964  25.836  1.00  0.00    -0.356 N 
ATOM      6  C   UNL A   1      31.740  24.253  26.227  1.00  0.00     0.224 C 
ATOM      7  O   UNL A   1      31.343  24.525  27.361  1.00  0.00    -0.275 OA
ATOM      8  H   UNL A   1      31.413  22.314  26.482  1.00  0.00     0.163 HD
BRANCH   6   9
ATOM      9  C   UNL A   1      32.184  25.329  25.275  1.00  0.00     0.099 C 
ATOM     10  N   UNL A   1      31.997  26.174  22.960  1.00  0.00    -0.337 N 
ATOM     11  C   UNL A   1      31.528  25.187  23.915  1.00  0.00     0.133 C 
ATOM     12  C   UNL A   1      33.448  26.327  22.826  1.00  0.00     0.133 C 
ATOM     13  C   UNL A   1      34.171  26.514  24.178  1.00  0.00     0.099 C 
ATOM     14  C   UNL A   1      33.697  25.566  25.274  1.00  0.00     0.030 C 
BRANCH  10  15
ATOM     15  C   UNL A   1      31.033  26.726  22.126  1.00  0.00     0.254 C 
ATOM     16  O   UNL A   1      30.851  26.326  20.976  1.00  0.00    -0.269 OA
BRANCH  15  17
ATOM     17  C   UNL A   1      30.255  27.911  22.544  1.00  0.00     0.042 A 
ATOM     18  C   UNL A   1      27.481  31.188  22.699  1.00  0.00     0.047 C 
ATOM     19  C   UNL A   1      28.485  30.075  22.722  1.00  0.00    -0.015 A 
ATOM     20  C   UNL A   1      29.805  30.279  22.302  1.00  0.00     0.007 A 
ATOM     21  C   UNL A   1      28.087  28.790  23.099  1.00  0.00     0.126 A 
ATOM     22  C   UNL A   1      30.689  29.199  22.206  1.00  0.00     0.014 A 
ATOM     23  C   UNL A   1      28.953  27.709  23.008  1.00  0.00     0.053 A 
ATOM     24  F   UNL A   1      26.824  28.572  23.495  1.00  0.00    -0.207 F 
ENDBRANCH  15  17
ENDBRANCH  10  15
BRANCH  13  25
ATOM     25  C   UNL A   1      34.290  28.007  24.510  1.00  0.00     0.227 C 
ATOM     26  O   UNL A   1      34.806  28.751  23.668  1.00  0.00    -0.275 OA
ATOM     27  N   UNL A   1      33.607  28.545  25.573  1.00  0.00    -0.338 N 
ATOM     28  C   UNL A   1      33.687  28.184  26.990  1.00  0.00     0.148 C 
ATOM     29  C   UNL A   1      32.859  29.779  25.365  1.00  0.00     0.148 C 
ATOM     30  C   UNL A   1      32.267  28.069  27.575  1.00  0.00     0.181 C 
ATOM     31  C   UNL A   1      31.461  29.610  25.971  1.00  0.00     0.181 C 
ATOM     32  O   UNL A   1      31.545  29.300  27.375  1.00  0.00    -0.378 OA
ENDBRANCH  13  25
ENDBRANCH   6   9
ENDBRANCH   4   5
ENDBRANCH   3   4
ENDBRANCH   2   3
ENDBRANCH   1   2
BRANCH   1  33
ATOM     33  C   UNL A   1      36.367  22.822  25.589  1.00  0.00     0.021 C 
BRANCH  33  34
ATOM     34  C   UNL A   1      37.441  23.752  26.076  1.00  0.00     0.116 C 
BRANCH  34  35
ATOM     35  N   UNL A   1      38.589  22.973  26.498  1.00  0.00    -0.352 N 
ATOM     36  C   UNL A   1      39.811  23.478  26.833  1.00  0.00     0.251 C 
ATOM     37  H   UNL A   1      38.477  21.996  26.546  1.00  0.00     0.163 HD
ATOM     38  O   UNL A   1      40.808  22.749  26.789  1.00  0.00    -0.269 OA
BRANCH  36  39
ATOM     39  C   UNL A   1      39.829  24.858  27.316  1.00  0.00     0.039 A 
ATOM     40  C   UNL A   1      40.290  25.934  26.560  1.00  0.00     0.014 A 
ATOM     41  C   UNL A   1      39.324  25.034  28.605  1.00  0.00     0.014 A 
ATOM     42  C   UNL A   1      40.312  27.194  27.146  1.00  0.00     0.010 A 
ATOM     43  C   UNL A   1      39.119  26.288  29.075  1.00  0.00     0.010 A 
ATOM     44  C   UNL A   1      39.750  27.339  28.416  1.00  0.00    -0.014 A 
BRANCH  44  45
ATOM     45  C   UNL A   1      39.862  28.513  29.253  1.00  0.00     0.031 A 
ATOM     46  C   UNL A   1      38.957  29.638  29.040  1.00  0.00     0.074 A 
ATOM     47  C   UNL A   1      40.702  28.383  30.309  1.00  0.00     0.049 A 
ATOM     48  N   UNL A   1      39.232  30.844  29.380  1.00  0.00    -0.248 NA
ATOM     49  C   UNL A   1      37.652  29.497  28.397  1.00  0.00     0.031 C 
ATOM     50  C   UNL A   1      40.820  29.171  31.518  1.00  0.00     0.029 A 
ATOM     51  N   UNL A   1      41.741  27.446  30.443  1.00  0.00    -0.354 N 
ATOM     52  C   UNL A   1      38.032  31.521  29.384  1.00  0.00     0.074 A 
ATOM     53  C   UNL A   1      37.138  30.718  28.581  1.00  0.00     0.031 C 
ATOM     54  C   UNL A   1      42.019  28.909  32.079  1.00  0.00     0.029 A 
ATOM     55  C   UNL A   1      42.767  28.090  31.136  1.00  0.00     0.049 A 
ATOM     56  H   UNL A   1      41.744  26.519  30.114  1.00  0.00     0.167 HD
ATOM     57  C   UNL A   1      37.869  32.543  30.272  1.00  0.00     0.034 A 
ATOM     58  C   UNL A   1      43.929  28.431  30.491  1.00  0.00     0.034 A 
ATOM     59  C   UNL A   1      39.099  32.721  31.065  1.00  0.00     0.049 A 
ATOM     60  C   UNL A   1      44.089  29.943  30.391  1.00  0.00     0.074 A 
ATOM     61  C   UNL A   1      39.467  32.353  32.350  1.00  0.00     0.029 A 
ATOM     62  N   UNL A   1      40.287  33.010  30.410  1.00  0.00    -0.354 N 
ATOM     63  N   UNL A   1      43.187  30.796  30.791  1.00  0.00    -0.248 NA
ATOM     64  C   UNL A   1      45.228  30.613  29.768  1.00  0.00     0.031 C 
ATOM     65  C   UNL A   1      40.890  32.423  32.452  1.00  0.00     0.029 A 
ATOM     66  C   UNL A   1      41.391  32.845  31.235  1.00  0.00     0.049 A 
ATOM     67  H   UNL A   1      40.342  33.297  29.469  1.00  0.00     0.167 HD
ATOM     68  C   UNL A   1      43.540  32.071  30.450  1.00  0.00     0.074 A 
ATOM     69  C   UNL A   1      44.835  31.901  29.808  1.00  0.00     0.031 C 
ATOM     70  C   UNL A   1      42.719  33.140  30.693  1.00  0.00     0.034 A 
BRANCH  57  71
ATOM     71  C   UNL A   1      36.527  33.159  30.629  1.00  0.00     0.023 A 
ATOM     72  C   UNL A   1      35.796  34.033  29.792  1.00  0.00     0.031 A 
ATOM     73  C   UNL A   1      35.904  32.856  31.860  1.00  0.00     0.131 A 
ATOM     74  C   UNL A   1      34.501  34.479  30.129  1.00  0.00     0.055 A 
ATOM     75  C   UNL A   1      34.637  33.335  32.216  1.00  0.00     0.041 A 
ATOM     76  F   UNL A   1      36.483  32.057  32.766  1.00  0.00    -0.206 F 
ATOM     77  C   UNL A   1      33.918  34.136  31.344  1.00  0.00     0.022 A 
BRANCH  74  78
ATOM     78  S   UNL A   1      33.502  35.461  28.968  1.00  0.00     0.124 S 
ATOM     79  O   UNL A   1      32.801  36.383  29.862  1.00  0.00    -0.237 OA
ATOM     80  O   UNL A   1      34.517  36.073  28.117  1.00  0.00    -0.237 OA
ATOM     81  O   UNL A   1      32.646  34.472  28.319  1.00  0.00    -0.744 OA
ENDBRANCH  74  78
ENDBRANCH  57  71
BRANCH  58  82
ATOM     82  C   UNL A   1      44.317  27.438  29.429  1.00  0.00     0.023 A 
ATOM     83  C   UNL A   1      44.214  27.738  28.061  1.00  0.00     0.031 A 
ATOM     84  C   UNL A   1      44.351  26.070  29.796  1.00  0.00     0.131 A 
ATOM     85  C   UNL A   1      44.001  26.699  27.133  1.00  0.00     0.055 A 
ATOM     86  C   UNL A   1      44.068  25.051  28.880  1.00  0.00     0.041 A 
ATOM     87  F   UNL A   1      44.501  25.720  31.085  1.00  0.00    -0.206 F 
ATOM     88  C   UNL A   1      43.847  25.370  27.545  1.00  0.00     0.022 A 
BRANCH  85  89
ATOM     89  S   UNL A   1      43.826  27.094  25.365  1.00  0.00     0.124 S 
ATOM     90  O   UNL A   1      45.221  27.264  24.972  1.00  0.00    -0.237 OA
ATOM     91  O   UNL A   1      43.166  25.917  24.813  1.00  0.00    -0.237 OA
ATOM     92  O   UNL A   1      43.013  28.304  25.381  1.00  0.00    -0.744 OA
ENDBRANCH  85  89
ENDBRANCH  58  82
BRANCH  70  93
ATOM     93  C   UNL A   1      43.039  34.587  30.382  1.00  0.00     0.023 A 
ATOM     94  C   UNL A   1      42.931  35.046  29.046  1.00  0.00     0.031 A 
ATOM     95  C   UNL A   1      43.340  35.569  31.332  1.00  0.00     0.131 A 
ATOM     96  C   UNL A   1      43.221  36.360  28.680  1.00  0.00     0.055 A 
ATOM     97  C   UNL A   1      43.674  36.882  30.968  1.00  0.00     0.041 A 
ATOM     98  F   UNL A   1      43.247  35.325  32.647  1.00  0.00    -0.206 F 
ATOM     99  C   UNL A   1      43.636  37.278  29.635  1.00  0.00     0.022 A 
BRANCH  96 100
ATOM    100  S   UNL A   1      43.005  36.910  26.967  1.00  0.00     0.124 S 
ATOM    101  O   UNL A   1      41.695  37.555  27.026  1.00  0.00    -0.237 OA
ATOM    102  O   UNL A   1      44.141  37.813  26.796  1.00  0.00    -0.237 OA
ATOM    103  O   UNL A   1      43.062  35.678  26.189  1.00  0.00    -0.744 OA
ENDBRANCH  96 100
ENDBRANCH  70  93
ENDBRANCH  44  45
ENDBRANCH  36  39
ENDBRANCH  34  35
ENDBRANCH  33  34
ENDBRANCH   1  33
TORSDOF 19
ENDMDL
