MODEL 1
REMARK VINA RESULT:      -9.3      0.000      0.000
REMARK SMILES COC(=O)c1ccc([C@H]2CC(=O)Nc3c(C(=O)NCCCCCCNC(=O)c4ccc(-c5c6nc(c(-c7cc(S(=O)(=O)[O-])ccc7F)c7ccc([nH]7)c(-c7cc(S(=O)(=O)[O-])ccc7F)c7nc(c(-c8cc(S(=O)(=O)[O-])ccc8F)c8ccc5[nH]8)C=C7)C=C6)cc4)cn(-c4cc(OC)ccc4OC)c32)cc1
REMARK SMILES IDX 21 1 20 2 19 3 18 4 16 5 17 6 15 8 9 9 10 10 103 11 11 12
REMARK SMILES IDX 14 13 92 14 12 15 13 16 91 17 8 19 5 20 6 21 105 22 7 23
REMARK SMILES IDX 104 24 3 25 4 26 2 27 1 28 93 29 94 30 100 31 95 32 99 33
REMARK SMILES IDX 98 34 101 35 102 36 96 37 97 38 22 39 23 40 24 41 25 42
REMARK SMILES IDX 26 43 27 45 28 46 29 47 90 48 30 49 89 50 31 51 32 52 33 53
REMARK SMILES IDX 83 54 34 55 88 56 82 57 84 58 35 59 87 60 81 61 80 62 36 64
REMARK SMILES IDX 68 65 48 66 67 67 49 68 52 69 66 70 85 71 50 72 51 73 65 75
REMARK SMILES IDX 86 76 53 77 37 78 38 79 46 80 39 81 45 82 47 83 44 84 40 85
REMARK SMILES IDX 41 86 42 87 43 88 69 89 70 90 78 91 71 92 77 93 79 94 76 95
REMARK SMILES IDX 72 96 73 97 74 98 75 99 54 100 55 101 63 102 56 103 62 104
REMARK SMILES IDX 64 105 61 106 57 107 58 108 59 109 60 110
REMARK H PARENT 18 7 13 18 25 44 84 63 52 74
REMARK Flexibility Score: inf
ROOT
ATOM      1  C   UNL A   1      46.983  28.648  33.487  1.00  0.00     0.002 C 
ENDROOT
BRANCH   1   2
ATOM      2  C   UNL A   1      46.755  30.089  33.949  1.00  0.00     0.021 C 
BRANCH   2   3
ATOM      3  C   UNL A   1      45.295  30.540  33.817  1.00  0.00     0.116 C 
BRANCH   3   4
ATOM      4  N   UNL A   1      45.217  31.972  33.737  1.00  0.00    -0.352 N 
ATOM      5  C   UNL A   1      44.174  32.843  33.654  1.00  0.00     0.254 C 
ATOM      6  O   UNL A   1      44.490  34.035  33.722  1.00  0.00    -0.269 OA
ATOM      7  H   UNL A   1      46.097  32.414  33.743  1.00  0.00     0.163 HD
BRANCH   5   8
ATOM      8  C   UNL A   1      42.763  32.466  33.500  1.00  0.00     0.081 A 
ATOM      9  C   UNL A   1      39.296  31.814  32.191  1.00  0.00     0.078 C 
ATOM     10  C   UNL A   1      39.552  31.909  30.680  1.00  0.00     0.115 C 
ATOM     11  C   UNL A   1      40.557  32.068  32.992  1.00  0.00     0.055 A 
ATOM     12  C   UNL A   1      40.972  31.697  30.241  1.00  0.00     0.225 C 
ATOM     13  C   UNL A   1      41.825  32.201  32.451  1.00  0.00     0.076 A 
ATOM     14  N   UNL A   1      40.673  32.231  34.363  1.00  0.00    -0.314 N 
ATOM     15  O   UNL A   1      41.253  31.312  29.104  1.00  0.00    -0.275 OA
ATOM     16  N   UNL A   1      41.972  32.055  31.094  1.00  0.00    -0.324 N 
ATOM     17  C   UNL A   1      42.005  32.330  34.659  1.00  0.00     0.107 A 
ATOM     18  H   UNL A   1      42.863  32.221  30.711  1.00  0.00     0.170 HD
BRANCH   9  19
ATOM     19  C   UNL A   1      38.085  32.700  32.485  1.00  0.00    -0.038 A 
ATOM     20  C   UNL A   1      35.852  34.378  32.882  1.00  0.00     0.060 A 
ATOM     21  C   UNL A   1      37.059  34.910  32.418  1.00  0.00     0.016 A 
ATOM     22  C   UNL A   1      35.788  33.026  33.226  1.00  0.00     0.016 A 
ATOM     23  C   UNL A   1      38.161  34.076  32.210  1.00  0.00     0.005 A 
ATOM     24  C   UNL A   1      36.911  32.211  33.071  1.00  0.00     0.005 A 
BRANCH  20  25
ATOM     25  C   UNL A   1      34.665  35.272  32.948  1.00  0.00     0.337 C 
ATOM     26  O   UNL A   1      34.647  36.322  33.560  1.00  0.00    -0.246 OA
BRANCH  25  27
ATOM     27  O   UNL A   1      33.653  34.765  32.197  1.00  0.00    -0.465 OA
ATOM     28  C   UNL A   1      33.101  35.689  31.262  1.00  0.00     0.282 C 
ENDBRANCH  25  27
ENDBRANCH  20  25
ENDBRANCH   9  19
BRANCH  14  29
ATOM     29  C   UNL A   1      39.643  32.289  35.323  1.00  0.00     0.091 A 
ATOM     30  C   UNL A   1      39.417  33.551  35.910  1.00  0.00     0.077 A 
ATOM     31  C   UNL A   1      38.922  31.164  35.753  1.00  0.00     0.143 A 
ATOM     32  C   UNL A   1      38.537  33.698  36.980  1.00  0.00     0.121 A 
ATOM     33  C   UNL A   1      38.029  31.346  36.823  1.00  0.00     0.052 A 
ATOM     34  C   UNL A   1      37.846  32.586  37.443  1.00  0.00     0.050 A 
BRANCH  31  35
ATOM     35  O   UNL A   1      38.945  29.850  35.392  1.00  0.00    -0.495 OA
ATOM     36  C   UNL A   1      38.616  29.365  34.104  1.00  0.00     0.278 C 
ENDBRANCH  31  35
BRANCH  32  37
ATOM     37  O   UNL A   1      38.437  34.967  37.478  1.00  0.00    -0.497 OA
ATOM     38  C   UNL A   1      39.667  35.597  37.820  1.00  0.00     0.278 C 
ENDBRANCH  32  37
ENDBRANCH  14  29
ENDBRANCH   5   8
ENDBRANCH   3   4
ENDBRANCH   2   3
ENDBRANCH   1   2
BRANCH   1  39
ATOM     39  C   UNL A   1      47.957  27.841  34.359  1.00  0.00     0.002 C 
BRANCH  39  40
ATOM     40  C   UNL A   1      47.851  28.068  35.876  1.00  0.00     0.021 C 
BRANCH  40  41
ATOM     41  C   UNL A   1      46.463  27.782  36.434  1.00  0.00     0.116 C 
BRANCH  41  42
ATOM     42  N   UNL A   1      46.388  26.426  36.975  1.00  0.00    -0.352 N 
ATOM     43  C   UNL A   1      45.782  25.304  36.456  1.00  0.00     0.251 C 
ATOM     44  H   UNL A   1      46.838  26.296  37.841  1.00  0.00     0.163 HD
ATOM     45  O   UNL A   1      45.496  24.367  37.194  1.00  0.00    -0.269 OA
BRANCH  43  46
ATOM     46  C   UNL A   1      45.476  25.250  35.017  1.00  0.00     0.039 A 
ATOM     47  C   UNL A   1      44.448  26.022  34.472  1.00  0.00     0.014 A 
ATOM     48  C   UNL A   1      46.245  24.419  34.203  1.00  0.00     0.014 A 
ATOM     49  C   UNL A   1      44.262  26.015  33.093  1.00  0.00     0.010 A 
ATOM     50  C   UNL A   1      46.160  24.527  32.837  1.00  0.00     0.010 A 
ATOM     51  C   UNL A   1      45.142  25.286  32.274  1.00  0.00    -0.014 A 
BRANCH  51  52
ATOM     52  C   UNL A   1      45.107  25.436  30.821  1.00  0.00     0.031 A 
ATOM     53  C   UNL A   1      46.238  26.228  30.279  1.00  0.00     0.074 A 
ATOM     54  C   UNL A   1      44.269  24.762  30.003  1.00  0.00     0.049 A 
ATOM     55  N   UNL A   1      46.204  27.449  29.863  1.00  0.00    -0.248 NA
ATOM     56  C   UNL A   1      47.600  25.681  30.393  1.00  0.00     0.031 C 
ATOM     57  C   UNL A   1      43.290  23.732  30.365  1.00  0.00     0.029 A 
ATOM     58  N   UNL A   1      44.189  24.781  28.641  1.00  0.00    -0.354 N 
ATOM     59  C   UNL A   1      47.478  27.712  29.376  1.00  0.00     0.074 A 
ATOM     60  C   UNL A   1      48.329  26.715  29.965  1.00  0.00     0.031 C 
ATOM     61  C   UNL A   1      42.890  23.074  29.254  1.00  0.00     0.029 A 
ATOM     62  C   UNL A   1      43.445  23.740  28.089  1.00  0.00     0.049 A 
ATOM     63  H   UNL A   1      44.622  25.475  28.094  1.00  0.00     0.167 HD
ATOM     64  C   UNL A   1      47.647  28.524  28.295  1.00  0.00     0.034 A 
ATOM     65  C   UNL A   1      43.296  23.433  26.772  1.00  0.00     0.034 A 
ATOM     66  C   UNL A   1      46.439  29.292  28.036  1.00  0.00     0.049 A 
ATOM     67  C   UNL A   1      43.560  24.682  26.017  1.00  0.00     0.074 A 
ATOM     68  C   UNL A   1      45.642  30.131  28.793  1.00  0.00     0.029 A 
ATOM     69  N   UNL A   1      45.658  28.927  26.958  1.00  0.00    -0.354 N 
ATOM     70  N   UNL A   1      42.800  25.739  26.103  1.00  0.00    -0.248 NA
ATOM     71  C   UNL A   1      44.916  24.933  25.555  1.00  0.00     0.031 C 
ATOM     72  C   UNL A   1      44.304  29.804  28.418  1.00  0.00     0.029 A 
ATOM     73  C   UNL A   1      44.355  28.866  27.386  1.00  0.00     0.049 A 
ATOM     74  H   UNL A   1      45.978  28.745  26.046  1.00  0.00     0.167 HD
ATOM     75  C   UNL A   1      43.682  26.806  26.164  1.00  0.00     0.074 A 
ATOM     76  C   UNL A   1      44.960  26.260  25.707  1.00  0.00     0.031 C 
ATOM     77  C   UNL A   1      43.367  27.946  26.850  1.00  0.00     0.034 A 
BRANCH  64  78
ATOM     78  C   UNL A   1      48.703  28.321  27.223  1.00  0.00     0.023 A 
ATOM     79  C   UNL A   1      48.234  28.021  25.931  1.00  0.00     0.031 A 
ATOM     80  C   UNL A   1      50.082  28.091  27.437  1.00  0.00     0.131 A 
ATOM     81  C   UNL A   1      49.055  27.373  24.995  1.00  0.00     0.055 A 
ATOM     82  C   UNL A   1      50.915  27.514  26.473  1.00  0.00     0.041 A 
ATOM     83  F   UNL A   1      50.693  28.324  28.601  1.00  0.00    -0.206 F 
ATOM     84  C   UNL A   1      50.394  27.109  25.259  1.00  0.00     0.022 A 
BRANCH  81  85
ATOM     85  S   UNL A   1      48.270  26.688  23.515  1.00  0.00     0.124 S 
ATOM     86  O   UNL A   1      47.950  25.337  23.964  1.00  0.00    -0.237 OA
ATOM     87  O   UNL A   1      47.140  27.593  23.332  1.00  0.00    -0.237 OA
ATOM     88  O   UNL A   1      49.317  26.783  22.502  1.00  0.00    -0.744 OA
ENDBRANCH  81  85
ENDBRANCH  64  78
BRANCH  65  89
ATOM     89  C   UNL A   1      43.227  22.082  26.143  1.00  0.00     0.023 A 
ATOM     90  C   UNL A   1      44.362  21.409  25.638  1.00  0.00     0.031 A 
ATOM     91  C   UNL A   1      42.045  21.318  26.267  1.00  0.00     0.131 A 
ATOM     92  C   UNL A   1      44.286  20.035  25.295  1.00  0.00     0.055 A 
ATOM     93  C   UNL A   1      41.976  19.965  25.929  1.00  0.00     0.041 A 
ATOM     94  F   UNL A   1      40.933  21.838  26.810  1.00  0.00    -0.206 F 
ATOM     95  C   UNL A   1      43.101  19.313  25.452  1.00  0.00     0.022 A 
BRANCH  92  96
ATOM     96  S   UNL A   1      45.765  19.130  24.726  1.00  0.00     0.124 S 
ATOM     97  O   UNL A   1      46.828  20.105  24.934  1.00  0.00    -0.237 OA
ATOM     98  O   UNL A   1      45.774  17.961  25.599  1.00  0.00    -0.237 OA
ATOM     99  O   UNL A   1      45.467  18.838  23.322  1.00  0.00    -0.744 OA
ENDBRANCH  92  96
ENDBRANCH  65  89
BRANCH  77 100
ATOM    100  C   UNL A   1      41.920  28.178  27.245  1.00  0.00     0.023 A 
ATOM    101  C   UNL A   1      41.360  27.896  28.512  1.00  0.00     0.031 A 
ATOM    102  C   UNL A   1      41.094  28.809  26.296  1.00  0.00     0.131 A 
ATOM    103  C   UNL A   1      40.016  28.231  28.781  1.00  0.00     0.055 A 
ATOM    104  C   UNL A   1      39.774  29.160  26.573  1.00  0.00     0.041 A 
ATOM    105  F   UNL A   1      41.571  29.126  25.080  1.00  0.00    -0.206 F 
ATOM    106  C   UNL A   1      39.226  28.864  27.815  1.00  0.00     0.022 A 
BRANCH 103 107
ATOM    107  S   UNL A   1      39.252  27.824  30.385  1.00  0.00     0.124 S 
ATOM    108  O   UNL A   1      40.315  28.079  31.349  1.00  0.00    -0.237 OA
ATOM    109  O   UNL A   1      38.113  28.736  30.435  1.00  0.00    -0.237 OA
ATOM    110  O   UNL A   1      38.890  26.412  30.240  1.00  0.00    -0.744 OA
ENDBRANCH 103 107
ENDBRANCH  77 100
ENDBRANCH  51  52
ENDBRANCH  43  46
ENDBRANCH  41  42
ENDBRANCH  40  41
ENDBRANCH  39  40
ENDBRANCH   1  39
TORSDOF 22
ENDMDL
MODEL 2
REMARK VINA RESULT:      -8.9      9.169     13.631
REMARK SMILES COC(=O)c1ccc([C@H]2CC(=O)Nc3c(C(=O)NCCCCCCNC(=O)c4ccc(-c5c6nc(c(-c7cc(S(=O)(=O)[O-])ccc7F)c7ccc([nH]7)c(-c7cc(S(=O)(=O)[O-])ccc7F)c7nc(c(-c8cc(S(=O)(=O)[O-])ccc8F)c8ccc5[nH]8)C=C7)C=C6)cc4)cn(-c4cc(OC)ccc4OC)c32)cc1
REMARK SMILES IDX 21 1 20 2 19 3 18 4 16 5 17 6 15 8 9 9 10 10 103 11 11 12
REMARK SMILES IDX 14 13 92 14 12 15 13 16 91 17 8 19 5 20 6 21 105 22 7 23
REMARK SMILES IDX 104 24 3 25 4 26 2 27 1 28 93 29 94 30 100 31 95 32 99 33
REMARK SMILES IDX 98 34 101 35 102 36 96 37 97 38 22 39 23 40 24 41 25 42
REMARK SMILES IDX 26 43 27 45 28 46 29 47 90 48 30 49 89 50 31 51 32 52 33 53
REMARK SMILES IDX 83 54 34 55 88 56 82 57 84 58 35 59 87 60 81 61 80 62 36 64
REMARK SMILES IDX 68 65 48 66 67 67 49 68 52 69 66 70 85 71 50 72 51 73 65 75
REMARK SMILES IDX 86 76 53 77 37 78 38 79 46 80 39 81 45 82 47 83 44 84 40 85
REMARK SMILES IDX 41 86 42 87 43 88 69 89 70 90 78 91 71 92 77 93 79 94 76 95
REMARK SMILES IDX 72 96 73 97 74 98 75 99 54 100 55 101 63 102 56 103 62 104
REMARK SMILES IDX 64 105 61 106 57 107 58 108 59 109 60 110
REMARK H PARENT 18 7 13 18 25 44 84 63 52 74
REMARK Flexibility Score: inf
ROOT
ATOM      1  C   UNL A   1      44.463  40.833  29.622  1.00  0.00     0.002 C 
ENDROOT
BRANCH   1   2
ATOM      2  C   UNL A   1      45.567  39.786  29.791  1.00  0.00     0.021 C 
BRANCH   2   3
ATOM      3  C   UNL A   1      46.928  40.256  29.265  1.00  0.00     0.116 C 
BRANCH   3   4
ATOM      4  N   UNL A   1      47.283  39.535  28.076  1.00  0.00    -0.352 N 
ATOM      5  C   UNL A   1      47.251  39.851  26.752  1.00  0.00     0.254 C 
ATOM      6  O   UNL A   1      47.756  39.004  26.006  1.00  0.00    -0.269 OA
ATOM      7  H   UNL A   1      47.620  38.626  28.253  1.00  0.00     0.163 HD
BRANCH   5   8
ATOM      8  C   UNL A   1      46.682  41.080  26.186  1.00  0.00     0.081 A 
ATOM      9  C   UNL A   1      44.515  43.621  24.454  1.00  0.00     0.078 C 
ATOM     10  C   UNL A   1      43.207  42.826  24.330  1.00  0.00     0.115 C 
ATOM     11  C   UNL A   1      45.608  42.806  25.114  1.00  0.00     0.055 A 
ATOM     12  C   UNL A   1      43.042  41.682  25.288  1.00  0.00     0.225 C 
ATOM     13  C   UNL A   1      45.427  41.562  25.695  1.00  0.00     0.076 A 
ATOM     14  N   UNL A   1      46.950  43.129  25.237  1.00  0.00    -0.314 N 
ATOM     15  O   UNL A   1      41.932  41.254  25.609  1.00  0.00    -0.275 OA
ATOM     16  N   UNL A   1      44.161  41.033  25.717  1.00  0.00    -0.324 N 
ATOM     17  C   UNL A   1      47.543  42.157  25.995  1.00  0.00     0.107 A 
ATOM     18  H   UNL A   1      44.054  40.120  26.067  1.00  0.00     0.170 HD
BRANCH   9  19
ATOM     19  C   UNL A   1      44.806  44.200  23.069  1.00  0.00    -0.038 A 
ATOM     20  C   UNL A   1      45.211  45.211  20.467  1.00  0.00     0.060 A 
ATOM     21  C   UNL A   1      45.026  43.840  20.669  1.00  0.00     0.016 A 
ATOM     22  C   UNL A   1      45.277  46.062  21.572  1.00  0.00     0.016 A 
ATOM     23  C   UNL A   1      44.814  43.341  21.956  1.00  0.00     0.005 A 
ATOM     24  C   UNL A   1      45.122  45.548  22.860  1.00  0.00     0.005 A 
BRANCH  20  25
ATOM     25  C   UNL A   1      45.287  45.715  19.069  1.00  0.00     0.337 C 
ATOM     26  O   UNL A   1      44.987  45.050  18.097  1.00  0.00    -0.246 OA
BRANCH  25  27
ATOM     27  O   UNL A   1      45.685  47.014  19.060  1.00  0.00    -0.465 OA
ATOM     28  C   UNL A   1      45.945  47.535  17.758  1.00  0.00     0.282 C 
ENDBRANCH  25  27
ENDBRANCH  20  25
ENDBRANCH   9  19
BRANCH  14  29
ATOM     29  C   UNL A   1      47.630  44.241  24.704  1.00  0.00     0.091 A 
ATOM     30  C   UNL A   1      48.140  44.086  23.399  1.00  0.00     0.077 A 
ATOM     31  C   UNL A   1      47.877  45.418  25.430  1.00  0.00     0.143 A 
ATOM     32  C   UNL A   1      48.962  45.055  22.828  1.00  0.00     0.121 A 
ATOM     33  C   UNL A   1      48.697  46.385  24.822  1.00  0.00     0.052 A 
ATOM     34  C   UNL A   1      49.248  46.206  23.550  1.00  0.00     0.050 A 
BRANCH  31  35
ATOM     35  O   UNL A   1      47.538  45.825  26.685  1.00  0.00    -0.495 OA
ATOM     36  C   UNL A   1      48.373  46.586  27.537  1.00  0.00     0.278 C 
ENDBRANCH  31  35
BRANCH  32  37
ATOM     37  O   UNL A   1      49.415  44.764  21.572  1.00  0.00    -0.497 OA
ATOM     38  C   UNL A   1      48.726  43.721  20.891  1.00  0.00     0.278 C 
ENDBRANCH  32  37
ENDBRANCH  14  29
ENDBRANCH   5   8
ENDBRANCH   3   4
ENDBRANCH   2   3
ENDBRANCH   1   2
BRANCH   1  39
ATOM     39  C   UNL A   1      43.086  40.406  30.154  1.00  0.00     0.002 C 
BRANCH  39  40
ATOM     40  C   UNL A   1      41.918  40.509  29.160  1.00  0.00     0.021 C 
BRANCH  40  41
ATOM     41  C   UNL A   1      41.656  39.215  28.401  1.00  0.00     0.116 C 
BRANCH  41  42
ATOM     42  N   UNL A   1      42.757  38.915  27.486  1.00  0.00    -0.352 N 
ATOM     43  C   UNL A   1      43.605  37.830  27.457  1.00  0.00     0.251 C 
ATOM     44  H   UNL A   1      42.916  39.590  26.787  1.00  0.00     0.163 HD
ATOM     45  O   UNL A   1      44.682  37.913  26.876  1.00  0.00    -0.269 OA
BRANCH  43  46
ATOM     46  C   UNL A   1      43.207  36.584  28.133  1.00  0.00     0.039 A 
ATOM     47  C   UNL A   1      43.321  36.453  29.519  1.00  0.00     0.014 A 
ATOM     48  C   UNL A   1      42.700  35.540  27.362  1.00  0.00     0.014 A 
ATOM     49  C   UNL A   1      42.839  35.296  30.125  1.00  0.00     0.010 A 
ATOM     50  C   UNL A   1      42.091  34.470  27.971  1.00  0.00     0.010 A 
ATOM     51  C   UNL A   1      42.196  34.318  29.347  1.00  0.00    -0.014 A 
BRANCH  51  52
ATOM     52  C   UNL A   1      41.490  33.206  29.980  1.00  0.00     0.031 A 
ATOM     53  C   UNL A   1      42.219  31.917  29.901  1.00  0.00     0.074 A 
ATOM     54  C   UNL A   1      40.389  33.341  30.754  1.00  0.00     0.049 A 
ATOM     55  N   UNL A   1      41.960  30.925  29.118  1.00  0.00    -0.248 NA
ATOM     56  C   UNL A   1      43.495  31.783  30.622  1.00  0.00     0.031 C 
ATOM     57  C   UNL A   1      39.719  34.580  31.159  1.00  0.00     0.029 A 
ATOM     58  N   UNL A   1      39.690  32.389  31.435  1.00  0.00    -0.354 N 
ATOM     59  C   UNL A   1      42.857  29.925  29.474  1.00  0.00     0.074 A 
ATOM     60  C   UNL A   1      43.913  30.592  30.185  1.00  0.00     0.031 C 
ATOM     61  C   UNL A   1      38.871  34.326  32.181  1.00  0.00     0.029 A 
ATOM     62  C   UNL A   1      38.807  32.890  32.389  1.00  0.00     0.049 A 
ATOM     63  H   UNL A   1      39.800  31.426  31.265  1.00  0.00     0.167 HD
ATOM     64  C   UNL A   1      42.484  28.616  29.424  1.00  0.00     0.034 A 
ATOM     65  C   UNL A   1      38.075  32.186  33.296  1.00  0.00     0.034 A 
ATOM     66  C   UNL A   1      41.271  28.458  28.638  1.00  0.00     0.049 A 
ATOM     67  C   UNL A   1      37.923  30.819  32.742  1.00  0.00     0.074 A 
ATOM     68  C   UNL A   1      40.888  28.824  27.360  1.00  0.00     0.029 A 
ATOM     69  N   UNL A   1      40.092  28.205  29.309  1.00  0.00    -0.354 N 
ATOM     70  N   UNL A   1      37.258  30.564  31.649  1.00  0.00    -0.248 NA
ATOM     71  C   UNL A   1      38.905  29.813  33.116  1.00  0.00     0.031 C 
ATOM     72  C   UNL A   1      39.538  29.269  27.493  1.00  0.00     0.029 A 
ATOM     73  C   UNL A   1      39.135  29.057  28.813  1.00  0.00     0.049 A 
ATOM     74  H   UNL A   1      39.959  27.535  30.017  1.00  0.00     0.167 HD
ATOM     75  C   UNL A   1      38.037  29.643  30.966  1.00  0.00     0.074 A 
ATOM     76  C   UNL A   1      38.975  29.134  31.966  1.00  0.00     0.031 C 
ATOM     77  C   UNL A   1      38.039  29.594  29.600  1.00  0.00     0.034 A 
BRANCH  64  78
ATOM     78  C   UNL A   1      42.932  27.555  30.414  1.00  0.00     0.023 A 
ATOM     79  C   UNL A   1      42.465  27.694  31.734  1.00  0.00     0.031 A 
ATOM     80  C   UNL A   1      43.997  26.642  30.240  1.00  0.00     0.131 A 
ATOM     81  C   UNL A   1      43.141  27.095  32.808  1.00  0.00     0.055 A 
ATOM     82  C   UNL A   1      44.619  25.986  31.307  1.00  0.00     0.041 A 
ATOM     83  F   UNL A   1      44.558  26.385  29.055  1.00  0.00    -0.206 F 
ATOM     84  C   UNL A   1      44.223  26.245  32.605  1.00  0.00     0.022 A 
BRANCH  81  85
ATOM     85  S   UNL A   1      42.709  27.629  34.482  1.00  0.00     0.124 S 
ATOM     86  O   UNL A   1      43.562  26.760  35.286  1.00  0.00    -0.237 OA
ATOM     87  O   UNL A   1      43.075  29.041  34.447  1.00  0.00    -0.237 OA
ATOM     88  O   UNL A   1      41.277  27.357  34.565  1.00  0.00    -0.744 OA
ENDBRANCH  81  85
ENDBRANCH  64  78
BRANCH  65  89
ATOM     89  C   UNL A   1      37.764  32.549  34.709  1.00  0.00     0.023 A 
ATOM     90  C   UNL A   1      38.715  32.468  35.751  1.00  0.00     0.031 A 
ATOM     91  C   UNL A   1      36.565  33.235  35.002  1.00  0.00     0.131 A 
ATOM     92  C   UNL A   1      38.451  33.067  37.009  1.00  0.00     0.055 A 
ATOM     93  C   UNL A   1      36.310  33.824  36.243  1.00  0.00     0.041 A 
ATOM     94  F   UNL A   1      35.630  33.438  34.060  1.00  0.00    -0.206 F 
ATOM     95  C   UNL A   1      37.258  33.753  37.250  1.00  0.00     0.022 A 
BRANCH  92  96
ATOM     96  S   UNL A   1      39.703  33.048  38.336  1.00  0.00     0.124 S 
ATOM     97  O   UNL A   1      40.790  32.289  37.729  1.00  0.00    -0.237 OA
ATOM     98  O   UNL A   1      39.947  34.469  38.559  1.00  0.00    -0.237 OA
ATOM     99  O   UNL A   1      39.022  32.368  39.439  1.00  0.00    -0.744 OA
ENDBRANCH  92  96
ENDBRANCH  65  89
BRANCH  77 100
ATOM    100  C   UNL A   1      36.932  30.308  28.847  1.00  0.00     0.023 A 
ATOM    101  C   UNL A   1      35.752  29.703  28.354  1.00  0.00     0.031 A 
ATOM    102  C   UNL A   1      37.052  31.703  28.711  1.00  0.00     0.131 A 
ATOM    103  C   UNL A   1      34.758  30.493  27.738  1.00  0.00     0.055 A 
ATOM    104  C   UNL A   1      36.057  32.483  28.123  1.00  0.00     0.041 A 
ATOM    105  F   UNL A   1      38.136  32.344  29.178  1.00  0.00    -0.206 F 
ATOM    106  C   UNL A   1      34.909  31.879  27.626  1.00  0.00     0.022 A 
BRANCH 103 107
ATOM    107  S   UNL A   1      33.256  29.731  27.040  1.00  0.00     0.124 S 
ATOM    108  O   UNL A   1      32.246  30.773  27.172  1.00  0.00    -0.237 OA
ATOM    109  O   UNL A   1      33.668  29.411  25.676  1.00  0.00    -0.237 OA
ATOM    110  O   UNL A   1      33.039  28.562  27.895  1.00  0.00    -0.744 OA
ENDBRANCH 103 107
ENDBRANCH  77 100
ENDBRANCH  51  52
ENDBRANCH  43  46
ENDBRANCH  41  42
ENDBRANCH  40  41
ENDBRANCH  39  40
ENDBRANCH   1  39
TORSDOF 22
ENDMDL
MODEL 3
REMARK VINA RESULT:      -8.8      3.961      9.552
REMARK SMILES COC(=O)c1ccc([C@H]2CC(=O)Nc3c(C(=O)NCCCCCCNC(=O)c4ccc(-c5c6nc(c(-c7cc(S(=O)(=O)[O-])ccc7F)c7ccc([nH]7)c(-c7cc(S(=O)(=O)[O-])ccc7F)c7nc(c(-c8cc(S(=O)(=O)[O-])ccc8F)c8ccc5[nH]8)C=C7)C=C6)cc4)cn(-c4cc(OC)ccc4OC)c32)cc1
REMARK SMILES IDX 21 1 20 2 19 3 18 4 16 5 17 6 15 8 9 9 10 10 103 11 11 12
REMARK SMILES IDX 14 13 92 14 12 15 13 16 91 17 8 19 5 20 6 21 105 22 7 23
REMARK SMILES IDX 104 24 3 25 4 26 2 27 1 28 93 29 94 30 100 31 95 32 99 33
REMARK SMILES IDX 98 34 101 35 102 36 96 37 97 38 22 39 23 40 24 41 25 42
REMARK SMILES IDX 26 43 27 45 28 46 29 47 90 48 30 49 89 50 31 51 32 52 33 53
REMARK SMILES IDX 83 54 34 55 88 56 82 57 84 58 35 59 87 60 81 61 80 62 36 64
REMARK SMILES IDX 68 65 48 66 67 67 49 68 52 69 66 70 85 71 50 72 51 73 65 75
REMARK SMILES IDX 86 76 53 77 37 78 38 79 46 80 39 81 45 82 47 83 44 84 40 85
REMARK SMILES IDX 41 86 42 87 43 88 69 89 70 90 78 91 71 92 77 93 79 94 76 95
REMARK SMILES IDX 72 96 73 97 74 98 75 99 54 100 55 101 63 102 56 103 62 104
REMARK SMILES IDX 64 105 61 106 57 107 58 108 59 109 60 110
REMARK H PARENT 18 7 13 18 25 44 84 63 52 74
REMARK Flexibility Score: inf
ROOT
ATOM      1  C   UNL A   1      38.120  33.052  29.294  1.00  0.00     0.002 C 
ENDROOT
BRANCH   1   2
ATOM      2  C   UNL A   1      38.756  34.442  29.214  1.00  0.00     0.021 C 
BRANCH   2   3
ATOM      3  C   UNL A   1      39.257  34.953  30.570  1.00  0.00     0.116 C 
BRANCH   3   4
ATOM      4  N   UNL A   1      39.452  33.859  31.479  1.00  0.00    -0.352 N 
ATOM      5  C   UNL A   1      40.550  33.145  31.853  1.00  0.00     0.254 C 
ATOM      6  O   UNL A   1      40.354  32.337  32.766  1.00  0.00    -0.269 OA
ATOM      7  H   UNL A   1      38.624  33.565  31.924  1.00  0.00     0.163 HD
BRANCH   5   8
ATOM      8  C   UNL A   1      41.889  33.277  31.265  1.00  0.00     0.081 A 
ATOM      9  C   UNL A   1      45.527  33.999  30.631  1.00  0.00     0.078 C 
ATOM     10  C   UNL A   1      46.011  34.238  32.068  1.00  0.00     0.115 C 
ATOM     11  C   UNL A   1      44.042  33.701  30.582  1.00  0.00     0.055 A 
ATOM     12  C   UNL A   1      45.161  33.647  33.155  1.00  0.00     0.225 C 
ATOM     13  C   UNL A   1      43.238  33.497  31.691  1.00  0.00     0.076 A 
ATOM     14  N   UNL A   1      43.233  33.604  29.461  1.00  0.00    -0.314 N 
ATOM     15  O   UNL A   1      45.619  33.372  34.265  1.00  0.00    -0.275 OA
ATOM     16  N   UNL A   1      43.823  33.523  32.932  1.00  0.00    -0.324 N 
ATOM     17  C   UNL A   1      41.989  33.217  29.878  1.00  0.00     0.107 A 
ATOM     18  H   UNL A   1      43.233  33.448  33.716  1.00  0.00     0.170 HD
BRANCH   9  19
ATOM     19  C   UNL A   1      46.038  35.174  29.797  1.00  0.00    -0.038 A 
ATOM     20  C   UNL A   1      46.941  37.266  28.133  1.00  0.00     0.060 A 
ATOM     21  C   UNL A   1      47.460  35.975  27.987  1.00  0.00     0.016 A 
ATOM     22  C   UNL A   1      46.035  37.525  29.164  1.00  0.00     0.016 A 
ATOM     23  C   UNL A   1      47.004  34.937  28.803  1.00  0.00     0.005 A 
ATOM     24  C   UNL A   1      45.629  36.495  30.013  1.00  0.00     0.005 A 
BRANCH  20  25
ATOM     25  C   UNL A   1      47.345  38.305  27.149  1.00  0.00     0.337 C 
ATOM     26  O   UNL A   1      48.080  39.235  27.416  1.00  0.00    -0.246 OA
BRANCH  25  27
ATOM     27  O   UNL A   1      46.814  38.027  25.930  1.00  0.00    -0.465 OA
ATOM     28  C   UNL A   1      46.945  39.085  24.982  1.00  0.00     0.282 C 
ENDBRANCH  25  27
ENDBRANCH  20  25
ENDBRANCH   9  19
BRANCH  14  29
ATOM     29  C   UNL A   1      43.577  33.843  28.116  1.00  0.00     0.091 A 
ATOM     30  C   UNL A   1      44.224  32.785  27.446  1.00  0.00     0.077 A 
ATOM     31  C   UNL A   1      43.376  35.076  27.473  1.00  0.00     0.143 A 
ATOM     32  C   UNL A   1      44.750  32.958  26.168  1.00  0.00     0.121 A 
ATOM     33  C   UNL A   1      43.903  35.216  26.178  1.00  0.00     0.052 A 
ATOM     34  C   UNL A   1      44.595  34.185  25.535  1.00  0.00     0.050 A 
BRANCH  31  35
ATOM     35  O   UNL A   1      42.815  36.252  27.871  1.00  0.00    -0.495 OA
ATOM     36  C   UNL A   1      42.598  37.366  27.027  1.00  0.00     0.278 C 
ENDBRANCH  31  35
BRANCH  32  37
ATOM     37  O   UNL A   1      45.383  31.864  25.648  1.00  0.00    -0.497 OA
ATOM     38  C   UNL A   1      46.255  31.173  26.536  1.00  0.00     0.278 C 
ENDBRANCH  32  37
ENDBRANCH  14  29
ENDBRANCH   5   8
ENDBRANCH   3   4
ENDBRANCH   2   3
ENDBRANCH   1   2
BRANCH   1  39
ATOM     39  C   UNL A   1      36.588  33.038  29.178  1.00  0.00     0.002 C 
BRANCH  39  40
ATOM     40  C   UNL A   1      35.825  32.478  30.389  1.00  0.00     0.021 C 
BRANCH  40  41
ATOM     41  C   UNL A   1      36.168  31.027  30.699  1.00  0.00     0.116 C 
BRANCH  41  42
ATOM     42  N   UNL A   1      35.866  30.164  29.559  1.00  0.00    -0.352 N 
ATOM     43  C   UNL A   1      36.721  29.466  28.734  1.00  0.00     0.251 C 
ATOM     44  H   UNL A   1      34.910  30.067  29.349  1.00  0.00     0.163 HD
ATOM     45  O   UNL A   1      36.338  29.104  27.626  1.00  0.00    -0.269 OA
BRANCH  43  46
ATOM     46  C   UNL A   1      38.088  29.172  29.193  1.00  0.00     0.039 A 
ATOM     47  C   UNL A   1      38.328  28.167  30.132  1.00  0.00     0.014 A 
ATOM     48  C   UNL A   1      39.144  29.910  28.659  1.00  0.00     0.014 A 
ATOM     49  C   UNL A   1      39.645  27.856  30.460  1.00  0.00     0.010 A 
ATOM     50  C   UNL A   1      40.438  29.505  28.868  1.00  0.00     0.010 A 
ATOM     51  C   UNL A   1      40.701  28.511  29.801  1.00  0.00    -0.014 A 
BRANCH  51  52
ATOM     52  C   UNL A   1      42.079  28.053  29.963  1.00  0.00     0.031 A 
ATOM     53  C   UNL A   1      42.520  27.112  28.904  1.00  0.00     0.074 A 
ATOM     54  C   UNL A   1      42.959  28.574  30.847  1.00  0.00     0.049 A 
ATOM     55  N   UNL A   1      42.655  25.832  29.009  1.00  0.00    -0.248 NA
ATOM     56  C   UNL A   1      42.632  27.606  27.523  1.00  0.00     0.031 C 
ATOM     57  C   UNL A   1      42.757  29.701  31.762  1.00  0.00     0.029 A 
ATOM     58  N   UNL A   1      44.273  28.266  31.041  1.00  0.00    -0.354 N 
ATOM     59  C   UNL A   1      43.168  25.411  27.789  1.00  0.00     0.074 A 
ATOM     60  C   UNL A   1      42.877  26.471  26.863  1.00  0.00     0.031 C 
ATOM     61  C   UNL A   1      43.951  30.123  32.234  1.00  0.00     0.029 A 
ATOM     62  C   UNL A   1      44.981  29.197  31.798  1.00  0.00     0.049 A 
ATOM     63  H   UNL A   1      44.687  27.450  30.677  1.00  0.00     0.167 HD
ATOM     64  C   UNL A   1      44.055  24.379  27.735  1.00  0.00     0.034 A 
ATOM     65  C   UNL A   1      46.319  29.220  32.049  1.00  0.00     0.034 A 
ATOM     66  C   UNL A   1      44.048  23.630  28.982  1.00  0.00     0.049 A 
ATOM     67  C   UNL A   1      46.801  27.827  31.886  1.00  0.00     0.074 A 
ATOM     68  C   UNL A   1      43.068  23.012  29.737  1.00  0.00     0.029 A 
ATOM     69  N   UNL A   1      45.117  23.790  29.840  1.00  0.00    -0.354 N 
ATOM     70  N   UNL A   1      46.428  26.850  32.667  1.00  0.00    -0.248 NA
ATOM     71  C   UNL A   1      47.298  27.420  30.581  1.00  0.00     0.031 C 
ATOM     72  C   UNL A   1      43.403  23.312  31.092  1.00  0.00     0.029 A 
ATOM     73  C   UNL A   1      44.616  24.003  31.100  1.00  0.00     0.049 A 
ATOM     74  H   UNL A   1      46.069  23.757  29.593  1.00  0.00     0.167 HD
ATOM     75  C   UNL A   1      46.203  25.781  31.813  1.00  0.00     0.074 A 
ATOM     76  C   UNL A   1      46.863  26.156  30.563  1.00  0.00     0.031 C 
ATOM     77  C   UNL A   1      45.263  24.831  32.102  1.00  0.00     0.034 A 
BRANCH  64  78
ATOM     78  C   UNL A   1      45.223  24.297  26.767  1.00  0.00     0.023 A 
ATOM     79  C   UNL A   1      46.199  25.305  26.877  1.00  0.00     0.031 A 
ATOM     80  C   UNL A   1      45.279  23.523  25.585  1.00  0.00     0.131 A 
ATOM     81  C   UNL A   1      47.042  25.616  25.799  1.00  0.00     0.055 A 
ATOM     82  C   UNL A   1      46.175  23.790  24.544  1.00  0.00     0.041 A 
ATOM     83  F   UNL A   1      44.433  22.525  25.319  1.00  0.00    -0.206 F 
ATOM     84  C   UNL A   1      47.033  24.869  24.627  1.00  0.00     0.022 A 
BRANCH  81  85
ATOM     85  S   UNL A   1      47.991  27.155  25.887  1.00  0.00     0.124 S 
ATOM     86  O   UNL A   1      47.341  27.824  27.009  1.00  0.00    -0.237 OA
ATOM     87  O   UNL A   1      49.342  26.657  26.126  1.00  0.00    -0.237 OA
ATOM     88  O   UNL A   1      47.771  27.763  24.578  1.00  0.00    -0.744 OA
ENDBRANCH  81  85
ENDBRANCH  64  78
BRANCH  65  89
ATOM     89  C   UNL A   1      47.220  30.406  32.132  1.00  0.00     0.023 A 
ATOM     90  C   UNL A   1      47.865  30.802  33.325  1.00  0.00     0.031 A 
ATOM     91  C   UNL A   1      47.661  31.027  30.942  1.00  0.00     0.131 A 
ATOM     92  C   UNL A   1      48.905  31.765  33.291  1.00  0.00     0.055 A 
ATOM     93  C   UNL A   1      48.686  31.974  30.914  1.00  0.00     0.041 A 
ATOM     94  F   UNL A   1      47.171  30.666  29.745  1.00  0.00    -0.206 F 
ATOM     95  C   UNL A   1      49.322  32.340  32.088  1.00  0.00     0.022 A 
BRANCH  92  96
ATOM     96  S   UNL A   1      49.807  32.222  34.810  1.00  0.00     0.124 S 
ATOM     97  O   UNL A   1      51.196  32.198  34.366  1.00  0.00    -0.237 OA
ATOM     98  O   UNL A   1      49.247  33.531  35.127  1.00  0.00    -0.237 OA
ATOM     99  O   UNL A   1      49.447  31.162  35.753  1.00  0.00    -0.744 OA
ENDBRANCH  92  96
ENDBRANCH  65  89
BRANCH  77 100
ATOM    100  C   UNL A   1      44.719  24.758  33.517  1.00  0.00     0.023 A 
ATOM    101  C   UNL A   1      43.681  25.564  34.041  1.00  0.00     0.031 A 
ATOM    102  C   UNL A   1      45.230  23.740  34.344  1.00  0.00     0.131 A 
ATOM    103  C   UNL A   1      43.209  25.344  35.352  1.00  0.00     0.055 A 
ATOM    104  C   UNL A   1      44.744  23.511  35.631  1.00  0.00     0.041 A 
ATOM    105  F   UNL A   1      46.200  22.923  33.901  1.00  0.00    -0.206 F 
ATOM    106  C   UNL A   1      43.737  24.319  36.144  1.00  0.00     0.022 A 
BRANCH 103 107
ATOM    107  S   UNL A   1      41.916  26.409  36.072  1.00  0.00     0.124 S 
ATOM    108  O   UNL A   1      41.625  25.780  37.355  1.00  0.00    -0.237 OA
ATOM    109  O   UNL A   1      42.575  27.710  36.134  1.00  0.00    -0.237 OA
ATOM    110  O   UNL A   1      40.827  26.328  35.096  1.00  0.00    -0.744 OA
ENDBRANCH 103 107
ENDBRANCH  77 100
ENDBRANCH  51  52
ENDBRANCH  43  46
ENDBRANCH  41  42
ENDBRANCH  40  41
ENDBRANCH  39  40
ENDBRANCH   1  39
TORSDOF 22
ENDMDL
