MODEL 1
REMARK VINA RESULT:     -10.6      0.000      0.000
REMARK SMILES CC[C@H]1CC[C@](CC(C)(C)O)(C(=O)NCCCCCCNC(=O)c2ccc(-c3c4nc(c(-c5cc(S(=O)(=O)[O-])ccc5F)c5ccc([nH]5)c(-c5cc(S(=O)(=O)[O-])ccc5F)c5nc(c(-c6cc(S(=O)(=O)[O-])ccc6F)c6ccc3[nH]6)C=C5)C=C4)cc2)C1
REMARK SMILES IDX 17 1 16 2 15 3 14 4 12 5 13 6 6 8 3 9 4 10 87 11 5 12 2 13
REMARK SMILES IDX 1 14 7 15 8 16 9 17 10 18 11 19 18 21 19 22 20 23 21 24
REMARK SMILES IDX 22 25 23 27 24 28 25 29 86 30 26 31 85 32 27 33 28 34 29 35
REMARK SMILES IDX 79 36 30 37 84 38 78 39 80 40 31 41 83 42 77 43 76 44 32 46
REMARK SMILES IDX 64 47 44 48 63 49 45 50 48 51 62 52 81 53 46 54 47 55 61 57
REMARK SMILES IDX 82 58 49 59 33 60 34 61 42 62 35 63 41 64 43 65 40 66 36 67
REMARK SMILES IDX 37 68 38 69 39 70 65 71 66 72 74 73 67 74 73 75 75 76 72 77
REMARK SMILES IDX 68 78 69 79 70 80 71 81 50 82 51 83 59 84 52 85 58 86 60 87
REMARK SMILES IDX 57 88 53 89 54 90 55 91 56 92
REMARK H PARENT 14 7 11 20 21 26 80 45 48 56
REMARK Flexibility Score: inf
ROOT
ATOM      1  C   UNL A   1      36.722  22.115  25.828  1.00  0.00     0.002 C 
ENDROOT
BRANCH   1   2
ATOM      2  C   UNL A   1      35.463  22.392  26.648  1.00  0.00     0.021 C 
BRANCH   2   3
ATOM      3  C   UNL A   1      34.251  21.493  26.361  1.00  0.00     0.116 C 
BRANCH   3   4
ATOM      4  N   UNL A   1      33.033  22.067  26.913  1.00  0.00    -0.356 N 
ATOM      5  C   UNL A   1      32.220  23.100  26.591  1.00  0.00     0.226 C 
ATOM      6  O   UNL A   1      31.358  23.333  27.452  1.00  0.00    -0.274 OA
ATOM      7  H   UNL A   1      32.726  21.588  27.716  1.00  0.00     0.163 HD
BRANCH   5   8
ATOM      8  C   UNL A   1      32.313  24.014  25.332  1.00  0.00     0.052 C 
ATOM      9  C   UNL A   1      33.585  23.888  23.162  1.00  0.00    -0.010 C 
ATOM     10  C   UNL A   1      34.364  24.794  24.109  1.00  0.00     0.005 C 
ATOM     11  C   UNL A   1      32.798  23.052  24.172  1.00  0.00     0.020 C 
ATOM     12  C   UNL A   1      33.449  25.064  25.323  1.00  0.00     0.017 C 
BRANCH   9  13
ATOM     13  C   UNL A   1      32.695  24.646  22.159  1.00  0.00     0.000 C 
ATOM     14  C   UNL A   1      33.225  26.028  21.809  1.00  0.00     0.004 C 
ENDBRANCH   9  13
BRANCH   8  15
ATOM     15  C   UNL A   1      30.920  24.565  24.870  1.00  0.00     0.051 C 
BRANCH  15  16
ATOM     16  C   UNL A   1      30.355  25.948  25.247  1.00  0.00     0.060 C 
ATOM     17  C   UNL A   1      31.304  27.126  25.037  1.00  0.00     0.042 C 
ATOM     18  C   UNL A   1      29.102  26.226  24.398  1.00  0.00     0.042 C 
BRANCH  16  19
ATOM     19  O   UNL A   1      29.901  25.942  26.586  1.00  0.00    -0.390 OA
ATOM     20  H   UNL A   1      30.204  26.749  27.033  1.00  0.00     0.211 HD
ENDBRANCH  16  19
ENDBRANCH  15  16
ENDBRANCH   8  15
ENDBRANCH   5   8
ENDBRANCH   3   4
ENDBRANCH   2   3
ENDBRANCH   1   2
BRANCH   1  21
ATOM     21  C   UNL A   1      36.652  20.904  24.902  1.00  0.00     0.002 C 
BRANCH  21  22
ATOM     22  C   UNL A   1      37.904  20.021  24.862  1.00  0.00     0.021 C 
BRANCH  22  23
ATOM     23  C   UNL A   1      39.065  20.475  25.746  1.00  0.00     0.116 C 
BRANCH  23  24
ATOM     24  N   UNL A   1      40.048  19.422  25.941  1.00  0.00    -0.352 N 
ATOM     25  C   UNL A   1      41.406  19.523  26.119  1.00  0.00     0.251 C 
ATOM     26  H   UNL A   1      39.689  18.506  25.945  1.00  0.00     0.163 HD
ATOM     27  O   UNL A   1      42.112  18.526  26.024  1.00  0.00    -0.269 OA
BRANCH  25  28
ATOM     28  C   UNL A   1      42.010  20.841  26.410  1.00  0.00     0.039 A 
ATOM     29  C   UNL A   1      42.308  21.701  25.351  1.00  0.00     0.014 A 
ATOM     30  C   UNL A   1      42.289  21.221  27.726  1.00  0.00     0.014 A 
ATOM     31  C   UNL A   1      42.834  22.967  25.617  1.00  0.00     0.010 A 
ATOM     32  C   UNL A   1      42.755  22.507  27.993  1.00  0.00     0.010 A 
ATOM     33  C   UNL A   1      43.034  23.393  26.941  1.00  0.00    -0.014 A 
BRANCH  33  34
ATOM     34  C   UNL A   1      43.538  24.760  27.241  1.00  0.00     0.031 A 
ATOM     35  C   UNL A   1      42.599  25.808  27.776  1.00  0.00     0.074 A 
ATOM     36  C   UNL A   1      44.821  25.070  26.975  1.00  0.00     0.049 A 
ATOM     37  N   UNL A   1      42.828  27.070  28.033  1.00  0.00    -0.248 NA
ATOM     38  C   UNL A   1      41.213  25.386  28.027  1.00  0.00     0.031 C 
ATOM     39  C   UNL A   1      45.814  24.148  26.418  1.00  0.00     0.029 A 
ATOM     40  N   UNL A   1      45.513  26.248  27.124  1.00  0.00    -0.354 N 
ATOM     41  C   UNL A   1      41.614  27.598  28.461  1.00  0.00     0.074 A 
ATOM     42  C   UNL A   1      40.641  26.529  28.376  1.00  0.00     0.031 C 
ATOM     43  C   UNL A   1      46.987  24.789  26.288  1.00  0.00     0.029 A 
ATOM     44  C   UNL A   1      46.823  26.178  26.706  1.00  0.00     0.049 A 
ATOM     45  H   UNL A   1      45.109  27.065  27.495  1.00  0.00     0.167 HD
ATOM     46  C   UNL A   1      41.342  28.852  28.900  1.00  0.00     0.034 A 
ATOM     47  C   UNL A   1      47.778  27.128  26.651  1.00  0.00     0.034 A 
ATOM     48  C   UNL A   1      42.330  29.899  28.992  1.00  0.00     0.049 A 
ATOM     49  C   UNL A   1      47.446  28.520  27.128  1.00  0.00     0.074 A 
ATOM     50  C   UNL A   1      42.180  31.182  29.490  1.00  0.00     0.029 A 
ATOM     51  N   UNL A   1      43.648  29.791  28.566  1.00  0.00    -0.354 N 
ATOM     52  N   UNL A   1      46.309  28.985  27.593  1.00  0.00    -0.248 NA
ATOM     53  C   UNL A   1      48.527  29.512  27.086  1.00  0.00     0.031 C 
ATOM     54  C   UNL A   1      43.382  31.871  29.295  1.00  0.00     0.029 A 
ATOM     55  C   UNL A   1      44.309  30.996  28.753  1.00  0.00     0.049 A 
ATOM     56  H   UNL A   1      44.053  28.979  28.186  1.00  0.00     0.167 HD
ATOM     57  C   UNL A   1      46.549  30.315  27.926  1.00  0.00     0.074 A 
ATOM     58  C   UNL A   1      47.943  30.572  27.625  1.00  0.00     0.031 C 
ATOM     59  C   UNL A   1      45.698  31.241  28.438  1.00  0.00     0.034 A 
BRANCH  46  60
ATOM     60  C   UNL A   1      39.914  29.165  29.283  1.00  0.00     0.023 A 
ATOM     61  C   UNL A   1      39.507  29.254  30.625  1.00  0.00     0.031 A 
ATOM     62  C   UNL A   1      38.941  29.371  28.288  1.00  0.00     0.131 A 
ATOM     63  C   UNL A   1      38.155  29.468  30.936  1.00  0.00     0.055 A 
ATOM     64  C   UNL A   1      37.614  29.664  28.603  1.00  0.00     0.041 A 
ATOM     65  F   UNL A   1      39.265  29.279  26.987  1.00  0.00    -0.206 F 
ATOM     66  C   UNL A   1      37.211  29.700  29.934  1.00  0.00     0.022 A 
BRANCH  63  67
ATOM     67  S   UNL A   1      37.626  29.304  32.662  1.00  0.00     0.124 S 
ATOM     68  O   UNL A   1      36.272  29.850  32.609  1.00  0.00    -0.237 OA
ATOM     69  O   UNL A   1      37.727  27.867  32.889  1.00  0.00    -0.237 OA
ATOM     70  O   UNL A   1      38.591  30.121  33.396  1.00  0.00    -0.744 OA
ENDBRANCH  63  67
ENDBRANCH  46  60
BRANCH  47  71
ATOM     71  C   UNL A   1      49.131  26.812  26.106  1.00  0.00     0.023 A 
ATOM     72  C   UNL A   1      49.523  27.258  24.833  1.00  0.00     0.031 A 
ATOM     73  C   UNL A   1      50.036  26.017  26.832  1.00  0.00     0.131 A 
ATOM     74  C   UNL A   1      50.761  26.862  24.303  1.00  0.00     0.055 A 
ATOM     75  C   UNL A   1      51.291  25.675  26.325  1.00  0.00     0.041 A 
ATOM     76  F   UNL A   1      49.715  25.567  28.056  1.00  0.00    -0.206 F 
ATOM     77  C   UNL A   1      51.654  26.086  25.046  1.00  0.00     0.022 A 
BRANCH  74  78
ATOM     78  S   UNL A   1      51.150  27.297  22.586  1.00  0.00     0.124 S 
ATOM     79  O   UNL A   1      49.995  26.760  21.875  1.00  0.00    -0.237 OA
ATOM     80  O   UNL A   1      51.243  28.752  22.656  1.00  0.00    -0.237 OA
ATOM     81  O   UNL A   1      52.414  26.605  22.338  1.00  0.00    -0.744 OA
ENDBRANCH  74  78
ENDBRANCH  47  71
BRANCH  59  82
ATOM     82  C   UNL A   1      46.269  32.605  28.744  1.00  0.00     0.023 A 
ATOM     83  C   UNL A   1      46.288  33.633  27.786  1.00  0.00     0.031 A 
ATOM     84  C   UNL A   1      46.809  32.874  30.014  1.00  0.00     0.131 A 
ATOM     85  C   UNL A   1      46.884  34.864  28.095  1.00  0.00     0.055 A 
ATOM     86  C   UNL A   1      47.343  34.122  30.337  1.00  0.00     0.041 A 
ATOM     87  F   UNL A   1      46.820  31.928  30.968  1.00  0.00    -0.206 F 
ATOM     88  C   UNL A   1      47.395  35.122  29.370  1.00  0.00     0.022 A 
BRANCH  85  89
ATOM     89  S   UNL A   1      47.069  36.098  26.779  1.00  0.00     0.124 S 
ATOM     90  O   UNL A   1      46.964  37.351  27.519  1.00  0.00    -0.237 OA
ATOM     91  O   UNL A   1      48.389  35.785  26.240  1.00  0.00    -0.237 OA
ATOM     92  O   UNL A   1      45.951  35.812  25.880  1.00  0.00    -0.744 OA
ENDBRANCH  85  89
ENDBRANCH  59  82
ENDBRANCH  33  34
ENDBRANCH  25  28
ENDBRANCH  23  24
ENDBRANCH  22  23
ENDBRANCH  21  22
ENDBRANCH   1  21
TORSDOF 20
ENDMDL
MODEL 2
REMARK VINA RESULT:     -10.6      4.843      8.283
REMARK SMILES CC[C@H]1CC[C@](CC(C)(C)O)(C(=O)NCCCCCCNC(=O)c2ccc(-c3c4nc(c(-c5cc(S(=O)(=O)[O-])ccc5F)c5ccc([nH]5)c(-c5cc(S(=O)(=O)[O-])ccc5F)c5nc(c(-c6cc(S(=O)(=O)[O-])ccc6F)c6ccc3[nH]6)C=C5)C=C4)cc2)C1
REMARK SMILES IDX 17 1 16 2 15 3 14 4 12 5 13 6 6 8 3 9 4 10 87 11 5 12 2 13
REMARK SMILES IDX 1 14 7 15 8 16 9 17 10 18 11 19 18 21 19 22 20 23 21 24
REMARK SMILES IDX 22 25 23 27 24 28 25 29 86 30 26 31 85 32 27 33 28 34 29 35
REMARK SMILES IDX 79 36 30 37 84 38 78 39 80 40 31 41 83 42 77 43 76 44 32 46
REMARK SMILES IDX 64 47 44 48 63 49 45 50 48 51 62 52 81 53 46 54 47 55 61 57
REMARK SMILES IDX 82 58 49 59 33 60 34 61 42 62 35 63 41 64 43 65 40 66 36 67
REMARK SMILES IDX 37 68 38 69 39 70 65 71 66 72 74 73 67 74 73 75 75 76 72 77
REMARK SMILES IDX 68 78 69 79 70 80 71 81 50 82 51 83 59 84 52 85 58 86 60 87
REMARK SMILES IDX 57 88 53 89 54 90 55 91 56 92
REMARK H PARENT 14 7 11 20 21 26 80 45 48 56
REMARK Flexibility Score: inf
ROOT
ATOM      1  C   UNL A   1      31.854  27.089  26.856  1.00  0.00     0.002 C 
ENDROOT
BRANCH   1   2
ATOM      2  C   UNL A   1      30.638  26.673  26.030  1.00  0.00     0.021 C 
BRANCH   2   3
ATOM      3  C   UNL A   1      30.594  25.208  25.572  1.00  0.00     0.116 C 
BRANCH   3   4
ATOM      4  N   UNL A   1      31.091  24.320  26.612  1.00  0.00    -0.356 N 
ATOM      5  C   UNL A   1      32.132  23.464  26.736  1.00  0.00     0.226 C 
ATOM      6  O   UNL A   1      32.083  22.777  27.767  1.00  0.00    -0.274 OA
ATOM      7  H   UNL A   1      30.535  24.349  27.424  1.00  0.00     0.163 HD
BRANCH   5   8
ATOM      8  C   UNL A   1      33.286  23.232  25.714  1.00  0.00     0.052 C 
ATOM      9  C   UNL A   1      35.787  23.014  25.912  1.00  0.00    -0.010 C 
ATOM     10  C   UNL A   1      35.473  24.452  25.515  1.00  0.00     0.005 C 
ATOM     11  C   UNL A   1      34.466  22.620  26.574  1.00  0.00     0.020 C 
ATOM     12  C   UNL A   1      33.974  24.497  25.148  1.00  0.00     0.017 C 
BRANCH   9  13
ATOM     13  C   UNL A   1      36.181  22.109  24.730  1.00  0.00     0.000 C 
ATOM     14  C   UNL A   1      36.743  22.879  23.543  1.00  0.00     0.004 C 
ENDBRANCH   9  13
BRANCH   8  15
ATOM     15  C   UNL A   1      32.941  22.148  24.636  1.00  0.00     0.051 C 
BRANCH  15  16
ATOM     16  C   UNL A   1      32.372  22.451  23.237  1.00  0.00     0.060 C 
ATOM     17  C   UNL A   1      33.340  23.121  22.264  1.00  0.00     0.042 C 
ATOM     18  C   UNL A   1      31.920  21.134  22.583  1.00  0.00     0.042 C 
BRANCH  16  19
ATOM     19  O   UNL A   1      31.199  23.232  23.346  1.00  0.00    -0.390 OA
ATOM     20  H   UNL A   1      30.424  22.647  23.376  1.00  0.00     0.211 HD
ENDBRANCH  16  19
ENDBRANCH  15  16
ENDBRANCH   8  15
ENDBRANCH   5   8
ENDBRANCH   3   4
ENDBRANCH   2   3
ENDBRANCH   1   2
BRANCH   1  21
ATOM     21  C   UNL A   1      32.777  28.113  26.200  1.00  0.00     0.002 C 
BRANCH  21  22
ATOM     22  C   UNL A   1      32.705  29.535  26.767  1.00  0.00     0.021 C 
BRANCH  22  23
ATOM     23  C   UNL A   1      34.044  30.252  26.936  1.00  0.00     0.116 C 
BRANCH  23  24
ATOM     24  N   UNL A   1      33.918  31.468  27.722  1.00  0.00    -0.352 N 
ATOM     25  C   UNL A   1      34.662  31.889  28.798  1.00  0.00     0.251 C 
ATOM     26  H   UNL A   1      33.196  32.077  27.444  1.00  0.00     0.163 HD
ATOM     27  O   UNL A   1      34.265  32.819  29.490  1.00  0.00    -0.269 OA
BRANCH  25  28
ATOM     28  C   UNL A   1      35.931  31.204  29.121  1.00  0.00     0.039 A 
ATOM     29  C   UNL A   1      37.121  31.681  28.569  1.00  0.00     0.014 A 
ATOM     30  C   UNL A   1      35.942  30.086  29.961  1.00  0.00     0.014 A 
ATOM     31  C   UNL A   1      38.332  31.071  28.905  1.00  0.00     0.010 A 
ATOM     32  C   UNL A   1      37.156  29.519  30.344  1.00  0.00     0.010 A 
ATOM     33  C   UNL A   1      38.364  30.005  29.819  1.00  0.00    -0.014 A 
BRANCH  33  34
ATOM     34  C   UNL A   1      39.651  29.384  30.232  1.00  0.00     0.031 A 
ATOM     35  C   UNL A   1      40.455  29.989  31.351  1.00  0.00     0.074 A 
ATOM     36  C   UNL A   1      40.122  28.316  29.559  1.00  0.00     0.049 A 
ATOM     37  N   UNL A   1      41.628  29.639  31.811  1.00  0.00    -0.248 NA
ATOM     38  C   UNL A   1      39.871  31.160  32.024  1.00  0.00     0.031 C 
ATOM     39  C   UNL A   1      39.450  27.667  28.431  1.00  0.00     0.029 A 
ATOM     40  N   UNL A   1      41.278  27.592  29.714  1.00  0.00    -0.354 N 
ATOM     41  C   UNL A   1      41.933  30.555  32.813  1.00  0.00     0.074 A 
ATOM     42  C   UNL A   1      40.842  31.506  32.856  1.00  0.00     0.031 C 
ATOM     43  C   UNL A   1      40.197  26.634  28.008  1.00  0.00     0.029 A 
ATOM     44  C   UNL A   1      41.421  26.573  28.800  1.00  0.00     0.049 A 
ATOM     45  H   UNL A   1      41.943  27.784  30.414  1.00  0.00     0.167 HD
ATOM     46  C   UNL A   1      43.013  30.587  33.632  1.00  0.00     0.034 A 
ATOM     47  C   UNL A   1      42.431  25.698  28.611  1.00  0.00     0.034 A 
ATOM     48  C   UNL A   1      44.083  29.620  33.584  1.00  0.00     0.049 A 
ATOM     49  C   UNL A   1      43.630  25.766  29.523  1.00  0.00     0.074 A 
ATOM     50  C   UNL A   1      45.187  29.515  34.413  1.00  0.00     0.029 A 
ATOM     51  N   UNL A   1      44.192  28.597  32.649  1.00  0.00    -0.354 N 
ATOM     52  N   UNL A   1      43.871  26.597  30.511  1.00  0.00    -0.248 NA
ATOM     53  C   UNL A   1      44.687  24.770  29.305  1.00  0.00     0.031 C 
ATOM     54  C   UNL A   1      45.999  28.482  33.934  1.00  0.00     0.029 A 
ATOM     55  C   UNL A   1      45.363  27.884  32.857  1.00  0.00     0.049 A 
ATOM     56  H   UNL A   1      43.534  28.407  31.942  1.00  0.00     0.167 HD
ATOM     57  C   UNL A   1      45.093  26.204  31.050  1.00  0.00     0.074 A 
ATOM     58  C   UNL A   1      45.529  25.051  30.288  1.00  0.00     0.031 C 
ATOM     59  C   UNL A   1      45.791  26.742  32.082  1.00  0.00     0.034 A 
BRANCH  46  60
ATOM     60  C   UNL A   1      43.105  31.720  34.627  1.00  0.00     0.023 A 
ATOM     61  C   UNL A   1      42.551  31.626  35.915  1.00  0.00     0.031 A 
ATOM     62  C   UNL A   1      43.750  32.921  34.277  1.00  0.00     0.131 A 
ATOM     63  C   UNL A   1      42.589  32.732  36.779  1.00  0.00     0.055 A 
ATOM     64  C   UNL A   1      43.855  33.988  35.169  1.00  0.00     0.041 A 
ATOM     65  F   UNL A   1      44.281  33.079  33.054  1.00  0.00    -0.206 F 
ATOM     66  C   UNL A   1      43.260  33.903  36.425  1.00  0.00     0.022 A 
BRANCH  63  67
ATOM     67  S   UNL A   1      41.631  32.664  38.317  1.00  0.00     0.124 S 
ATOM     68  O   UNL A   1      42.335  31.619  39.057  1.00  0.00    -0.237 OA
ATOM     69  O   UNL A   1      41.772  34.020  38.837  1.00  0.00    -0.237 OA
ATOM     70  O   UNL A   1      40.288  32.303  37.870  1.00  0.00    -0.744 OA
ENDBRANCH  63  67
ENDBRANCH  46  60
BRANCH  47  71
ATOM     71  C   UNL A   1      42.371  24.700  27.504  1.00  0.00     0.023 A 
ATOM     72  C   UNL A   1      41.539  23.571  27.587  1.00  0.00     0.031 A 
ATOM     73  C   UNL A   1      43.183  24.834  26.364  1.00  0.00     0.131 A 
ATOM     74  C   UNL A   1      41.578  22.596  26.578  1.00  0.00     0.055 A 
ATOM     75  C   UNL A   1      43.174  23.892  25.334  1.00  0.00     0.041 A 
ATOM     76  F   UNL A   1      43.995  25.896  26.228  1.00  0.00    -0.206 F 
ATOM     77  C   UNL A   1      42.379  22.756  25.444  1.00  0.00     0.022 A 
BRANCH  74  78
ATOM     78  S   UNL A   1      40.636  21.064  26.814  1.00  0.00     0.124 S 
ATOM     79  O   UNL A   1      40.830  20.813  28.237  1.00  0.00    -0.237 OA
ATOM     80  O   UNL A   1      39.294  21.470  26.409  1.00  0.00    -0.237 OA
ATOM     81  O   UNL A   1      41.296  20.118  25.915  1.00  0.00    -0.744 OA
ENDBRANCH  74  78
ENDBRANCH  47  71
BRANCH  59  82
ATOM     82  C   UNL A   1      47.079  26.058  32.472  1.00  0.00     0.023 A 
ATOM     83  C   UNL A   1      48.285  26.304  31.792  1.00  0.00     0.031 A 
ATOM     84  C   UNL A   1      47.096  25.140  33.537  1.00  0.00     0.131 A 
ATOM     85  C   UNL A   1      49.444  25.599  32.150  1.00  0.00     0.055 A 
ATOM     86  C   UNL A   1      48.266  24.490  33.930  1.00  0.00     0.041 A 
ATOM     87  F   UNL A   1      45.972  24.865  34.220  1.00  0.00    -0.206 F 
ATOM     88  C   UNL A   1      49.446  24.708  33.225  1.00  0.00     0.022 A 
BRANCH  85  89
ATOM     89  S   UNL A   1      50.930  25.792  31.129  1.00  0.00     0.124 S 
ATOM     90  O   UNL A   1      51.235  27.209  31.300  1.00  0.00    -0.237 OA
ATOM     91  O   UNL A   1      51.863  24.860  31.755  1.00  0.00    -0.237 OA
ATOM     92  O   UNL A   1      50.481  25.411  29.790  1.00  0.00    -0.744 OA
ENDBRANCH  85  89
ENDBRANCH  59  82
ENDBRANCH  33  34
ENDBRANCH  25  28
ENDBRANCH  23  24
ENDBRANCH  22  23
ENDBRANCH  21  22
ENDBRANCH   1  21
TORSDOF 20
ENDMDL
MODEL 3
REMARK VINA RESULT:     -10.5      1.198      1.922
REMARK SMILES CC[C@H]1CC[C@](CC(C)(C)O)(C(=O)NCCCCCCNC(=O)c2ccc(-c3c4nc(c(-c5cc(S(=O)(=O)[O-])ccc5F)c5ccc([nH]5)c(-c5cc(S(=O)(=O)[O-])ccc5F)c5nc(c(-c6cc(S(=O)(=O)[O-])ccc6F)c6ccc3[nH]6)C=C5)C=C4)cc2)C1
REMARK SMILES IDX 17 1 16 2 15 3 14 4 12 5 13 6 6 8 3 9 4 10 87 11 5 12 2 13
REMARK SMILES IDX 1 14 7 15 8 16 9 17 10 18 11 19 18 21 19 22 20 23 21 24
REMARK SMILES IDX 22 25 23 27 24 28 25 29 86 30 26 31 85 32 27 33 28 34 29 35
REMARK SMILES IDX 79 36 30 37 84 38 78 39 80 40 31 41 83 42 77 43 76 44 32 46
REMARK SMILES IDX 64 47 44 48 63 49 45 50 48 51 62 52 81 53 46 54 47 55 61 57
REMARK SMILES IDX 82 58 49 59 33 60 34 61 42 62 35 63 41 64 43 65 40 66 36 67
REMARK SMILES IDX 37 68 38 69 39 70 65 71 66 72 74 73 67 74 73 75 75 76 72 77
REMARK SMILES IDX 68 78 69 79 70 80 71 81 50 82 51 83 59 84 52 85 58 86 60 87
REMARK SMILES IDX 57 88 53 89 54 90 55 91 56 92
REMARK H PARENT 14 7 11 20 21 26 80 45 48 56
REMARK Flexibility Score: inf
ROOT
ATOM      1  C   UNL A   1      37.550  22.568  24.615  1.00  0.00     0.002 C 
ENDROOT
BRANCH   1   2
ATOM      2  C   UNL A   1      37.114  23.570  25.683  1.00  0.00     0.021 C 
BRANCH   2   3
ATOM      3  C   UNL A   1      35.603  23.810  25.817  1.00  0.00     0.116 C 
BRANCH   3   4
ATOM      4  N   UNL A   1      35.020  24.191  24.539  1.00  0.00    -0.356 N 
ATOM      5  C   UNL A   1      34.010  23.732  23.764  1.00  0.00     0.226 C 
ATOM      6  O   UNL A   1      33.961  24.277  22.650  1.00  0.00    -0.274 OA
ATOM      7  H   UNL A   1      35.469  24.972  24.143  1.00  0.00     0.163 HD
BRANCH   5   8
ATOM      8  C   UNL A   1      33.003  22.593  24.105  1.00  0.00     0.052 C 
ATOM      9  C   UNL A   1      32.995  20.098  23.765  1.00  0.00    -0.010 C 
ATOM     10  C   UNL A   1      32.188  20.727  22.635  1.00  0.00     0.005 C 
ATOM     11  C   UNL A   1      33.885  21.279  24.154  1.00  0.00     0.020 C 
ATOM     12  C   UNL A   1      31.988  22.213  23.002  1.00  0.00     0.017 C 
BRANCH   9  13
ATOM     13  C   UNL A   1      32.136  19.562  24.926  1.00  0.00     0.000 C 
ATOM     14  C   UNL A   1      32.713  18.312  25.575  1.00  0.00     0.004 C 
ENDBRANCH   9  13
BRANCH   8  15
ATOM     15  C   UNL A   1      32.379  22.736  25.536  1.00  0.00     0.051 C 
BRANCH  15  16
ATOM     16  C   UNL A   1      31.154  23.607  25.875  1.00  0.00     0.060 C 
ATOM     17  C   UNL A   1      30.156  22.988  26.852  1.00  0.00     0.042 C 
ATOM     18  C   UNL A   1      31.636  24.926  26.504  1.00  0.00     0.042 C 
BRANCH  16  19
ATOM     19  O   UNL A   1      30.481  23.986  24.691  1.00  0.00    -0.390 OA
ATOM     20  H   UNL A   1      29.902  23.261  24.403  1.00  0.00     0.211 HD
ENDBRANCH  16  19
ENDBRANCH  15  16
ENDBRANCH   8  15
ENDBRANCH   5   8
ENDBRANCH   3   4
ENDBRANCH   2   3
ENDBRANCH   1   2
BRANCH   1  21
ATOM     21  C   UNL A   1      37.022  21.147  24.790  1.00  0.00     0.002 C 
BRANCH  21  22
ATOM     22  C   UNL A   1      38.082  20.065  25.019  1.00  0.00     0.021 C 
BRANCH  22  23
ATOM     23  C   UNL A   1      39.214  20.435  25.978  1.00  0.00     0.116 C 
BRANCH  23  24
ATOM     24  N   UNL A   1      40.244  19.412  26.029  1.00  0.00    -0.352 N 
ATOM     25  C   UNL A   1      41.610  19.555  26.071  1.00  0.00     0.251 C 
ATOM     26  H   UNL A   1      39.917  18.484  26.033  1.00  0.00     0.163 HD
ATOM     27  O   UNL A   1      42.334  18.588  25.864  1.00  0.00    -0.269 OA
BRANCH  25  28
ATOM     28  C   UNL A   1      42.197  20.882  26.351  1.00  0.00     0.039 A 
ATOM     29  C   UNL A   1      42.348  21.794  25.304  1.00  0.00     0.014 A 
ATOM     30  C   UNL A   1      42.609  21.220  27.644  1.00  0.00     0.014 A 
ATOM     31  C   UNL A   1      42.858  23.068  25.565  1.00  0.00     0.010 A 
ATOM     32  C   UNL A   1      43.058  22.511  27.913  1.00  0.00     0.010 A 
ATOM     33  C   UNL A   1      43.189  23.448  26.876  1.00  0.00    -0.014 A 
BRANCH  33  34
ATOM     34  C   UNL A   1      43.677  24.821  27.179  1.00  0.00     0.031 A 
ATOM     35  C   UNL A   1      42.730  25.854  27.725  1.00  0.00     0.074 A 
ATOM     36  C   UNL A   1      44.955  25.149  26.904  1.00  0.00     0.049 A 
ATOM     37  N   UNL A   1      42.944  27.118  27.986  1.00  0.00    -0.248 NA
ATOM     38  C   UNL A   1      41.350  25.413  27.985  1.00  0.00     0.031 C 
ATOM     39  C   UNL A   1      45.955  24.242  26.335  1.00  0.00     0.029 A 
ATOM     40  N   UNL A   1      45.632  26.334  27.052  1.00  0.00    -0.354 N 
ATOM     41  C   UNL A   1      41.726  27.628  28.425  1.00  0.00     0.074 A 
ATOM     42  C   UNL A   1      40.766  26.547  28.343  1.00  0.00     0.031 C 
ATOM     43  C   UNL A   1      47.119  24.899  26.200  1.00  0.00     0.029 A 
ATOM     44  C   UNL A   1      46.939  26.283  26.625  1.00  0.00     0.049 A 
ATOM     45  H   UNL A   1      45.220  27.145  27.430  1.00  0.00     0.167 HD
ATOM     46  C   UNL A   1      41.442  28.876  28.871  1.00  0.00     0.034 A 
ATOM     47  C   UNL A   1      47.882  27.246  26.567  1.00  0.00     0.034 A 
ATOM     48  C   UNL A   1      42.416  29.936  28.961  1.00  0.00     0.049 A 
ATOM     49  C   UNL A   1      47.535  28.632  27.052  1.00  0.00     0.074 A 
ATOM     50  C   UNL A   1      42.254  31.215  29.465  1.00  0.00     0.029 A 
ATOM     51  N   UNL A   1      43.732  29.847  28.524  1.00  0.00    -0.354 N 
ATOM     52  N   UNL A   1      46.396  29.079  27.528  1.00  0.00    -0.248 NA
ATOM     53  C   UNL A   1      48.603  29.638  27.006  1.00  0.00     0.031 C 
ATOM     54  C   UNL A   1      43.445  31.921  29.264  1.00  0.00     0.029 A 
ATOM     55  C   UNL A   1      44.379  31.060  28.711  1.00  0.00     0.049 A 
ATOM     56  H   UNL A   1      44.145  29.042  28.137  1.00  0.00     0.167 HD
ATOM     57  C   UNL A   1      46.621  30.411  27.864  1.00  0.00     0.074 A 
ATOM     58  C   UNL A   1      48.010  30.687  27.554  1.00  0.00     0.031 C 
ATOM     59  C   UNL A   1      45.762  31.324  28.386  1.00  0.00     0.034 A 
BRANCH  46  60
ATOM     60  C   UNL A   1      40.013  29.170  29.267  1.00  0.00     0.023 A 
ATOM     61  C   UNL A   1      39.612  29.231  30.612  1.00  0.00     0.031 A 
ATOM     62  C   UNL A   1      39.033  29.383  28.280  1.00  0.00     0.131 A 
ATOM     63  C   UNL A   1      38.259  29.427  30.934  1.00  0.00     0.055 A 
ATOM     64  C   UNL A   1      37.705  29.658  28.607  1.00  0.00     0.041 A 
ATOM     65  F   UNL A   1      39.351  29.317  26.977  1.00  0.00    -0.206 F 
ATOM     66  C   UNL A   1      37.307  29.668  29.940  1.00  0.00     0.022 A 
BRANCH  63  67
ATOM     67  S   UNL A   1      37.740  29.229  32.659  1.00  0.00     0.124 S 
ATOM     68  O   UNL A   1      36.426  29.868  32.647  1.00  0.00    -0.237 OA
ATOM     69  O   UNL A   1      37.746  27.780  32.827  1.00  0.00    -0.237 OA
ATOM     70  O   UNL A   1      38.767  29.948  33.411  1.00  0.00    -0.744 OA
ENDBRANCH  63  67
ENDBRANCH  46  60
BRANCH  47  71
ATOM     71  C   UNL A   1      49.234  26.950  26.010  1.00  0.00     0.023 A 
ATOM     72  C   UNL A   1      49.593  27.361  24.716  1.00  0.00     0.031 A 
ATOM     73  C   UNL A   1      50.174  26.208  26.747  1.00  0.00     0.131 A 
ATOM     74  C   UNL A   1      50.833  26.983  24.179  1.00  0.00     0.055 A 
ATOM     75  C   UNL A   1      51.430  25.885  26.231  1.00  0.00     0.041 A 
ATOM     76  F   UNL A   1      49.886  25.792  27.992  1.00  0.00    -0.206 F 
ATOM     77  C   UNL A   1      51.761  26.260  24.933  1.00  0.00     0.022 A 
BRANCH  74  78
ATOM     78  S   UNL A   1      51.181  27.367  22.440  1.00  0.00     0.124 S 
ATOM     79  O   UNL A   1      52.479  26.730  22.250  1.00  0.00    -0.237 OA
ATOM     80  O   UNL A   1      50.051  26.742  21.761  1.00  0.00    -0.237 OA
ATOM     81  O   UNL A   1      51.192  28.829  22.412  1.00  0.00    -0.744 OA
ENDBRANCH  74  78
ENDBRANCH  47  71
BRANCH  59  82
ATOM     82  C   UNL A   1      46.318  32.694  28.694  1.00  0.00     0.023 A 
ATOM     83  C   UNL A   1      46.394  33.700  27.716  1.00  0.00     0.031 A 
ATOM     84  C   UNL A   1      46.785  32.991  29.987  1.00  0.00     0.131 A 
ATOM     85  C   UNL A   1      46.974  34.938  28.031  1.00  0.00     0.055 A 
ATOM     86  C   UNL A   1      47.302  34.246  30.311  1.00  0.00     0.041 A 
ATOM     87  F   UNL A   1      46.739  32.067  30.960  1.00  0.00    -0.206 F 
ATOM     88  C   UNL A   1      47.412  35.223  29.327  1.00  0.00     0.022 A 
BRANCH  85  89
ATOM     89  S   UNL A   1      47.237  36.141  26.699  1.00  0.00     0.124 S 
ATOM     90  O   UNL A   1      48.253  37.015  27.276  1.00  0.00    -0.237 OA
ATOM     91  O   UNL A   1      47.676  35.294  25.595  1.00  0.00    -0.237 OA
ATOM     92  O   UNL A   1      45.920  36.753  26.524  1.00  0.00    -0.744 OA
ENDBRANCH  85  89
ENDBRANCH  59  82
ENDBRANCH  33  34
ENDBRANCH  25  28
ENDBRANCH  23  24
ENDBRANCH  22  23
ENDBRANCH  21  22
ENDBRANCH   1  21
TORSDOF 20
ENDMDL
