MODEL 1
REMARK VINA RESULT:     -11.5      0.000      0.000
REMARK SMILES C[C@@]12CC[C@@H]3c4ccc(O)cc4/C(=N/OCC(=O)NCCCCCCNC(=O)c4ccc(-c5c6nc(c(-c7cc(S(=O)(=O)[O-])ccc7F)c7ccc([nH]7)c(-c7cc(S(=O)(=O)[O-])ccc7F)c7nc(c(-c8cc(S(=O)(=O)[O-])ccc8F)c8ccc5[nH]8)C=C7)C=C6)cc4)C[C@H]3[C@@H]1C[C@@H](O)[C@@H]2O
REMARK SMILES IDX 22 1 21 2 20 3 19 4 17 5 18 6 16 8 15 9 14 10 1 11 2 12 3 13
REMARK SMILES IDX 94 14 98 15 4 16 93 17 95 18 96 19 5 20 92 21 6 22 13 23
REMARK SMILES IDX 7 24 12 25 8 26 11 27 9 28 99 29 97 31 10 33 23 35 24 36
REMARK SMILES IDX 25 37 26 38 27 39 28 41 29 42 30 43 91 44 31 45 90 46 32 47
REMARK SMILES IDX 33 48 34 49 84 50 35 51 89 52 83 53 85 54 36 55 88 56 82 57
REMARK SMILES IDX 81 58 37 60 69 61 49 62 68 63 50 64 53 65 67 66 86 67 51 68
REMARK SMILES IDX 52 69 66 71 87 72 54 73 38 74 39 75 47 76 40 77 46 78 48 79
REMARK SMILES IDX 45 80 41 81 42 82 43 83 44 84 70 85 71 86 79 87 72 88 78 89
REMARK SMILES IDX 80 90 77 91 73 92 74 93 75 94 76 95 55 96 56 97 64 98 57 99
REMARK SMILES IDX 63 100 65 101 62 102 58 103 59 104 60 105 61 106
REMARK H PARENT 19 7 99 30 97 32 10 34 26 40 85 59 53 70
REMARK Flexibility Score: inf
ROOT
ATOM      1  C   UNL A   1      42.192  21.298  27.727  1.00  0.00     0.002 C 
ENDROOT
BRANCH   1   2
ATOM      2  C   UNL A   1      41.602  22.298  26.723  1.00  0.00     0.021 C 
BRANCH   2   3
ATOM      3  C   UNL A   1      40.096  22.501  26.879  1.00  0.00     0.116 C 
BRANCH   3   4
ATOM      4  N   UNL A   1      39.367  21.731  25.892  1.00  0.00    -0.353 N 
ATOM      5  C   UNL A   1      38.149  22.024  25.345  1.00  0.00     0.260 C 
ATOM      6  O   UNL A   1      37.651  21.220  24.551  1.00  0.00    -0.271 OA
ATOM      7  H   UNL A   1      39.798  20.902  25.579  1.00  0.00     0.163 HD
BRANCH   5   8
ATOM      8  C   UNL A   1      37.512  23.380  25.640  1.00  0.00     0.363 C 
BRANCH   8   9
ATOM      9  O   UNL A   1      36.456  23.349  26.598  1.00  0.00    -0.385 OA
BRANCH   9  10
ATOM     10  N   UNL A   1      35.430  22.576  26.073  1.00  0.00    -0.090 NA
ATOM     11  C   UNL A   1      33.097  28.764  22.560  1.00  0.00     0.014 C 
ATOM     12  C   UNL A   1      32.644  27.315  22.898  1.00  0.00    -0.001 C 
ATOM     13  C   UNL A   1      33.080  26.467  21.702  1.00  0.00     0.010 C 
ATOM     14  C   UNL A   1      33.274  26.843  24.235  1.00  0.00     0.004 C 
ATOM     15  C   UNL A   1      31.121  27.296  23.219  1.00  0.00     0.149 C 
ATOM     16  C   UNL A   1      32.855  24.988  21.871  1.00  0.00     0.009 C 
ATOM     17  C   UNL A   1      33.300  25.286  24.430  1.00  0.00     0.006 C 
ATOM     18  C   UNL A   1      32.383  27.579  25.292  1.00  0.00     0.039 C 
ATOM     19  C   UNL A   1      31.039  27.941  24.609  1.00  0.00     0.144 C 
ATOM     20  C   UNL A   1      33.518  24.451  23.132  1.00  0.00     0.024 C 
ATOM     21  C   UNL A   1      34.399  24.800  25.429  1.00  0.00     0.065 C 
ATOM     22  C   UNL A   1      33.119  23.016  23.450  1.00  0.00    -0.035 A 
ATOM     23  C   UNL A   1      34.507  23.265  25.475  1.00  0.00     0.088 C 
ATOM     24  C   UNL A   1      32.382  22.196  22.585  1.00  0.00     0.008 A 
ATOM     25  C   UNL A   1      33.548  22.471  24.668  1.00  0.00     0.006 A 
ATOM     26  C   UNL A   1      32.063  20.882  22.939  1.00  0.00     0.046 A 
ATOM     27  C   UNL A   1      33.232  21.157  25.031  1.00  0.00     0.056 A 
ATOM     28  C   UNL A   1      32.484  20.377  24.163  1.00  0.00     0.116 A 
BRANCH  15  29
ATOM     29  O   UNL A   1      30.555  25.987  23.274  1.00  0.00    -0.390 OA
ATOM     30  H   UNL A   1      29.664  26.035  23.655  1.00  0.00     0.211 HD
ENDBRANCH  15  29
BRANCH  19  31
ATOM     31  O   UNL A   1      30.891  29.352  24.505  1.00  0.00    -0.390 OA
ATOM     32  H   UNL A   1      31.515  29.695  23.846  1.00  0.00     0.211 HD
ENDBRANCH  19  31
BRANCH  28  33
ATOM     33  O   UNL A   1      32.197  19.098  24.534  1.00  0.00    -0.508 OA
ATOM     34  H   UNL A   1      31.782  18.930  25.357  1.00  0.00     0.293 HD
ENDBRANCH  28  33
ENDBRANCH   9  10
ENDBRANCH   8   9
ENDBRANCH   5   8
ENDBRANCH   3   4
ENDBRANCH   2   3
ENDBRANCH   1   2
BRANCH   1  35
ATOM     35  C   UNL A   1      41.729  19.848  27.544  1.00  0.00     0.002 C 
BRANCH  35  36
ATOM     36  C   UNL A   1      42.719  18.947  26.805  1.00  0.00     0.021 C 
BRANCH  36  37
ATOM     37  C   UNL A   1      42.808  19.214  25.308  1.00  0.00     0.116 C 
BRANCH  37  38
ATOM     38  N   UNL A   1      44.141  18.958  24.781  1.00  0.00    -0.352 N 
ATOM     39  C   UNL A   1      45.174  19.848  24.574  1.00  0.00     0.251 C 
ATOM     40  H   UNL A   1      44.331  18.023  24.539  1.00  0.00     0.163 HD
ATOM     41  O   UNL A   1      46.179  19.506  23.972  1.00  0.00    -0.269 OA
BRANCH  39  42
ATOM     42  C   UNL A   1      45.013  21.236  25.057  1.00  0.00     0.039 A 
ATOM     43  C   UNL A   1      44.590  22.238  24.180  1.00  0.00     0.014 A 
ATOM     44  C   UNL A   1      45.391  21.546  26.365  1.00  0.00     0.014 A 
ATOM     45  C   UNL A   1      44.729  23.571  24.550  1.00  0.00     0.010 A 
ATOM     46  C   UNL A   1      45.448  22.883  26.760  1.00  0.00     0.010 A 
ATOM     47  C   UNL A   1      45.185  23.907  25.834  1.00  0.00    -0.014 A 
BRANCH  47  48
ATOM     48  C   UNL A   1      45.438  25.327  26.188  1.00  0.00     0.031 A 
ATOM     49  C   UNL A   1      46.821  25.906  26.049  1.00  0.00     0.074 A 
ATOM     50  C   UNL A   1      44.420  26.104  26.602  1.00  0.00     0.049 A 
ATOM     51  N   UNL A   1      47.255  27.095  26.376  1.00  0.00    -0.248 NA
ATOM     52  C   UNL A   1      47.852  25.033  25.466  1.00  0.00     0.031 C 
ATOM     53  C   UNL A   1      43.033  25.662  26.729  1.00  0.00     0.029 A 
ATOM     54  N   UNL A   1      44.391  27.421  26.986  1.00  0.00    -0.354 N 
ATOM     55  C   UNL A   1      48.608  27.109  26.054  1.00  0.00     0.074 A 
ATOM     56  C   UNL A   1      48.933  25.794  25.548  1.00  0.00     0.031 C 
ATOM     57  C   UNL A   1      42.281  26.694  27.132  1.00  0.00     0.029 A 
ATOM     58  C   UNL A   1      43.145  27.849  27.376  1.00  0.00     0.049 A 
ATOM     59  H   UNL A   1      45.185  28.003  26.982  1.00  0.00     0.167 HD
ATOM     60  C   UNL A   1      49.490  28.132  26.154  1.00  0.00     0.034 A 
ATOM     61  C   UNL A   1      42.740  29.022  27.905  1.00  0.00     0.034 A 
ATOM     62  C   UNL A   1      49.144  29.437  26.656  1.00  0.00     0.049 A 
ATOM     63  C   UNL A   1      43.752  30.121  28.093  1.00  0.00     0.074 A 
ATOM     64  C   UNL A   1      49.962  30.542  26.801  1.00  0.00     0.029 A 
ATOM     65  N   UNL A   1      47.880  29.816  27.089  1.00  0.00    -0.354 N 
ATOM     66  N   UNL A   1      45.029  30.124  27.784  1.00  0.00    -0.248 NA
ATOM     67  C   UNL A   1      43.283  31.372  28.703  1.00  0.00     0.031 C 
ATOM     68  C   UNL A   1      49.212  31.566  27.380  1.00  0.00     0.029 A 
ATOM     69  C   UNL A   1      47.904  31.131  27.527  1.00  0.00     0.049 A 
ATOM     70  H   UNL A   1      47.084  29.238  27.086  1.00  0.00     0.167 HD
ATOM     71  C   UNL A   1      45.512  31.376  28.148  1.00  0.00     0.074 A 
ATOM     72  C   UNL A   1      44.384  32.114  28.683  1.00  0.00     0.031 C 
ATOM     73  C   UNL A   1      46.774  31.865  28.049  1.00  0.00     0.034 A 
BRANCH  60  74
ATOM     74  C   UNL A   1      50.915  27.900  25.709  1.00  0.00     0.023 A 
ATOM     75  C   UNL A   1      51.247  27.943  24.341  1.00  0.00     0.031 A 
ATOM     76  C   UNL A   1      51.921  27.540  26.624  1.00  0.00     0.131 A 
ATOM     77  C   UNL A   1      52.544  27.611  23.927  1.00  0.00     0.055 A 
ATOM     78  C   UNL A   1      53.222  27.251  26.210  1.00  0.00     0.041 A 
ATOM     79  F   UNL A   1      51.658  27.482  27.940  1.00  0.00    -0.206 F 
ATOM     80  C   UNL A   1      53.535  27.275  24.855  1.00  0.00     0.022 A 
BRANCH  77  81
ATOM     81  S   UNL A   1      52.981  27.538  22.169  1.00  0.00     0.124 S 
ATOM     82  O   UNL A   1      53.984  26.475  22.155  1.00  0.00    -0.237 OA
ATOM     83  O   UNL A   1      51.704  27.199  21.549  1.00  0.00    -0.237 OA
ATOM     84  O   UNL A   1      53.487  28.875  21.878  1.00  0.00    -0.744 OA
ENDBRANCH  77  81
ENDBRANCH  60  74
BRANCH  61  85
ATOM     85  C   UNL A   1      41.300  29.186  28.252  1.00  0.00     0.023 A 
ATOM     86  C   UNL A   1      40.874  29.115  29.593  1.00  0.00     0.031 A 
ATOM     87  C   UNL A   1      40.320  29.243  27.249  1.00  0.00     0.131 A 
ATOM     88  C   UNL A   1      39.509  28.995  29.885  1.00  0.00     0.055 A 
ATOM     89  C   UNL A   1      38.957  29.205  27.550  1.00  0.00     0.041 A 
ATOM     90  F   UNL A   1      40.678  29.302  25.957  1.00  0.00    -0.206 F 
ATOM     91  C   UNL A   1      38.546  29.056  28.873  1.00  0.00     0.022 A 
BRANCH  88  92
ATOM     92  S   UNL A   1      38.951  28.596  31.565  1.00  0.00     0.124 S 
ATOM     93  O   UNL A   1      38.622  27.179  31.450  1.00  0.00    -0.237 OA
ATOM     94  O   UNL A   1      40.143  28.907  32.351  1.00  0.00    -0.237 OA
ATOM     95  O   UNL A   1      37.818  29.491  31.774  1.00  0.00    -0.744 OA
ENDBRANCH  88  92
ENDBRANCH  61  85
BRANCH  73  96
ATOM     96  C   UNL A   1      47.051  33.270  28.525  1.00  0.00     0.023 A 
ATOM     97  C   UNL A   1      46.975  34.344  27.616  1.00  0.00     0.031 A 
ATOM     98  C   UNL A   1      47.581  33.514  29.803  1.00  0.00     0.131 A 
ATOM     99  C   UNL A   1      47.486  35.597  27.976  1.00  0.00     0.055 A 
ATOM    100  C   UNL A   1      48.040  34.779  30.173  1.00  0.00     0.041 A 
ATOM    101  F   UNL A   1      47.681  32.521  30.700  1.00  0.00    -0.206 F 
ATOM    102  C   UNL A   1      48.012  35.823  29.251  1.00  0.00     0.022 A 
BRANCH  99 103
ATOM    103  S   UNL A   1      47.581  36.949  26.768  1.00  0.00     0.124 S 
ATOM    104  O   UNL A   1      46.170  37.210  26.493  1.00  0.00    -0.237 OA
ATOM    105  O   UNL A   1      48.271  37.988  27.526  1.00  0.00    -0.237 OA
ATOM    106  O   UNL A   1      48.332  36.376  25.656  1.00  0.00    -0.744 OA
ENDBRANCH  99 103
ENDBRANCH  73  96
ENDBRANCH  47  48
ENDBRANCH  39  42
ENDBRANCH  37  38
ENDBRANCH  36  37
ENDBRANCH  35  36
ENDBRANCH   1  35
TORSDOF 21
ENDMDL
MODEL 2
REMARK VINA RESULT:     -11.5      0.434      7.351
REMARK SMILES C[C@@]12CC[C@@H]3c4ccc(O)cc4/C(=N/OCC(=O)NCCCCCCNC(=O)c4ccc(-c5c6nc(c(-c7cc(S(=O)(=O)[O-])ccc7F)c7ccc([nH]7)c(-c7cc(S(=O)(=O)[O-])ccc7F)c7nc(c(-c8cc(S(=O)(=O)[O-])ccc8F)c8ccc5[nH]8)C=C7)C=C6)cc4)C[C@H]3[C@@H]1C[C@@H](O)[C@@H]2O
REMARK SMILES IDX 22 1 21 2 20 3 19 4 17 5 18 6 16 8 15 9 14 10 1 11 2 12 3 13
REMARK SMILES IDX 94 14 98 15 4 16 93 17 95 18 96 19 5 20 92 21 6 22 13 23
REMARK SMILES IDX 7 24 12 25 8 26 11 27 9 28 99 29 97 31 10 33 23 35 24 36
REMARK SMILES IDX 25 37 26 38 27 39 28 41 29 42 30 43 91 44 31 45 90 46 32 47
REMARK SMILES IDX 33 48 34 49 84 50 35 51 89 52 83 53 85 54 36 55 88 56 82 57
REMARK SMILES IDX 81 58 37 60 69 61 49 62 68 63 50 64 53 65 67 66 86 67 51 68
REMARK SMILES IDX 52 69 66 71 87 72 54 73 38 74 39 75 47 76 40 77 46 78 48 79
REMARK SMILES IDX 45 80 41 81 42 82 43 83 44 84 70 85 71 86 79 87 72 88 78 89
REMARK SMILES IDX 80 90 77 91 73 92 74 93 75 94 76 95 55 96 56 97 64 98 57 99
REMARK SMILES IDX 63 100 65 101 62 102 58 103 59 104 60 105 61 106
REMARK H PARENT 19 7 99 30 97 32 10 34 26 40 85 59 53 70
REMARK Flexibility Score: inf
ROOT
ATOM      1  C   UNL A   1      42.149  21.409  27.785  1.00  0.00     0.002 C 
ENDROOT
BRANCH   1   2
ATOM      2  C   UNL A   1      41.501  22.372  26.781  1.00  0.00     0.021 C 
BRANCH   2   3
ATOM      3  C   UNL A   1      39.990  22.510  26.960  1.00  0.00     0.116 C 
BRANCH   3   4
ATOM      4  N   UNL A   1      39.280  21.795  25.919  1.00  0.00    -0.353 N 
ATOM      5  C   UNL A   1      38.061  22.104  25.382  1.00  0.00     0.260 C 
ATOM      6  O   UNL A   1      37.581  21.346  24.535  1.00  0.00    -0.271 OA
ATOM      7  H   UNL A   1      39.725  20.994  25.558  1.00  0.00     0.163 HD
BRANCH   5   8
ATOM      8  C   UNL A   1      37.401  23.429  25.758  1.00  0.00     0.363 C 
BRANCH   8   9
ATOM      9  O   UNL A   1      36.339  23.320  26.703  1.00  0.00    -0.385 OA
BRANCH   9  10
ATOM     10  N   UNL A   1      35.332  22.561  26.122  1.00  0.00    -0.090 NA
ATOM     11  C   UNL A   1      33.177  28.815  22.614  1.00  0.00     0.014 C 
ATOM     12  C   UNL A   1      32.703  27.363  22.909  1.00  0.00    -0.001 C 
ATOM     13  C   UNL A   1      33.186  26.533  21.719  1.00  0.00     0.010 C 
ATOM     14  C   UNL A   1      33.274  26.868  24.263  1.00  0.00     0.004 C 
ATOM     15  C   UNL A   1      31.168  27.347  23.165  1.00  0.00     0.149 C 
ATOM     16  C   UNL A   1      32.947  25.052  21.855  1.00  0.00     0.009 C 
ATOM     17  C   UNL A   1      33.285  25.308  24.435  1.00  0.00     0.006 C 
ATOM     18  C   UNL A   1      32.343  27.592  25.294  1.00  0.00     0.039 C 
ATOM     19  C   UNL A   1      31.031  27.971  24.561  1.00  0.00     0.144 C 
ATOM     20  C   UNL A   1      33.554  24.492  23.134  1.00  0.00     0.024 C 
ATOM     21  C   UNL A   1      34.339  24.801  25.471  1.00  0.00     0.065 C 
ATOM     22  C   UNL A   1      33.135  23.054  23.412  1.00  0.00    -0.035 A 
ATOM     23  C   UNL A   1      34.438  23.265  25.498  1.00  0.00     0.088 C 
ATOM     24  C   UNL A   1      32.432  22.251  22.505  1.00  0.00     0.008 A 
ATOM     25  C   UNL A   1      33.510  22.488  24.638  1.00  0.00     0.006 A 
ATOM     26  C   UNL A   1      32.092  20.934  22.824  1.00  0.00     0.046 A 
ATOM     27  C   UNL A   1      33.173  21.171  24.968  1.00  0.00     0.056 A 
ATOM     28  C   UNL A   1      32.459  20.408  24.057  1.00  0.00     0.116 A 
BRANCH  15  29
ATOM     29  O   UNL A   1      30.594  26.041  23.176  1.00  0.00    -0.390 OA
ATOM     30  H   UNL A   1      30.792  25.594  22.339  1.00  0.00     0.211 HD
ENDBRANCH  15  29
BRANCH  19  31
ATOM     31  O   UNL A   1      30.893  29.385  24.473  1.00  0.00    -0.390 OA
ATOM     32  H   UNL A   1      31.480  29.724  23.779  1.00  0.00     0.211 HD
ENDBRANCH  19  31
BRANCH  28  33
ATOM     33  O   UNL A   1      32.151  19.124  24.394  1.00  0.00    -0.508 OA
ATOM     34  H   UNL A   1      31.263  18.888  24.576  1.00  0.00     0.293 HD
ENDBRANCH  28  33
ENDBRANCH   9  10
ENDBRANCH   8   9
ENDBRANCH   5   8
ENDBRANCH   3   4
ENDBRANCH   2   3
ENDBRANCH   1   2
BRANCH   1  35
ATOM     35  C   UNL A   1      41.706  19.947  27.658  1.00  0.00     0.002 C 
BRANCH  35  36
ATOM     36  C   UNL A   1      42.629  19.068  26.814  1.00  0.00     0.021 C 
BRANCH  36  37
ATOM     37  C   UNL A   1      42.608  19.388  25.326  1.00  0.00     0.116 C 
BRANCH  37  38
ATOM     38  N   UNL A   1      43.898  19.155  24.692  1.00  0.00    -0.352 N 
ATOM     39  C   UNL A   1      44.923  20.049  24.464  1.00  0.00     0.251 C 
ATOM     40  H   UNL A   1      44.062  18.234  24.385  1.00  0.00     0.163 HD
ATOM     41  O   UNL A   1      45.880  19.737  23.776  1.00  0.00    -0.269 OA
BRANCH  39  42
ATOM     42  C   UNL A   1      44.810  21.408  25.036  1.00  0.00     0.039 A 
ATOM     43  C   UNL A   1      44.385  22.471  24.235  1.00  0.00     0.014 A 
ATOM     44  C   UNL A   1      45.234  21.629  26.347  1.00  0.00     0.014 A 
ATOM     45  C   UNL A   1      44.567  23.775  24.679  1.00  0.00     0.010 A 
ATOM     46  C   UNL A   1      45.335  22.938  26.821  1.00  0.00     0.010 A 
ATOM     47  C   UNL A   1      45.069  24.022  25.968  1.00  0.00    -0.014 A 
BRANCH  47  48
ATOM     48  C   UNL A   1      45.366  25.412  26.399  1.00  0.00     0.031 A 
ATOM     49  C   UNL A   1      44.269  26.283  26.951  1.00  0.00     0.074 A 
ATOM     50  C   UNL A   1      46.626  25.879  26.326  1.00  0.00     0.049 A 
ATOM     51  N   UNL A   1      44.314  27.540  27.309  1.00  0.00    -0.248 NA
ATOM     52  C   UNL A   1      42.947  25.660  27.123  1.00  0.00     0.031 C 
ATOM     53  C   UNL A   1      47.774  25.108  25.853  1.00  0.00     0.029 A 
ATOM     54  N   UNL A   1      47.153  27.103  26.651  1.00  0.00    -0.354 N 
ATOM     55  C   UNL A   1      43.030  27.862  27.733  1.00  0.00     0.074 A 
ATOM     56  C   UNL A   1      42.216  26.681  27.545  1.00  0.00     0.031 C 
ATOM     57  C   UNL A   1      48.875  25.864  25.944  1.00  0.00     0.029 A 
ATOM     58  C   UNL A   1      48.500  27.202  26.401  1.00  0.00     0.049 A 
ATOM     59  H   UNL A   1      46.619  27.839  27.027  1.00  0.00     0.167 HD
ATOM     60  C   UNL A   1      42.577  29.030  28.249  1.00  0.00     0.034 A 
ATOM     61  C   UNL A   1      49.339  28.255  26.491  1.00  0.00     0.034 A 
ATOM     62  C   UNL A   1      43.406  30.193  28.434  1.00  0.00     0.049 A 
ATOM     63  C   UNL A   1      48.801  29.572  26.982  1.00  0.00     0.074 A 
ATOM     64  C   UNL A   1      43.047  31.426  28.946  1.00  0.00     0.029 A 
ATOM     65  N   UNL A   1      44.757  30.269  28.120  1.00  0.00    -0.354 N 
ATOM     66  N   UNL A   1      47.585  29.865  27.382  1.00  0.00    -0.248 NA
ATOM     67  C   UNL A   1      49.736  30.705  27.034  1.00  0.00     0.031 C 
ATOM     68  C   UNL A   1      44.160  32.265  28.882  1.00  0.00     0.029 A 
ATOM     69  C   UNL A   1      45.238  31.538  28.403  1.00  0.00     0.049 A 
ATOM     70  H   UNL A   1      45.294  29.532  27.751  1.00  0.00     0.167 HD
ATOM     71  C   UNL A   1      47.610  31.208  27.744  1.00  0.00     0.074 A 
ATOM     72  C   UNL A   1      48.970  31.666  27.536  1.00  0.00     0.031 C 
ATOM     73  C   UNL A   1      46.598  31.985  28.204  1.00  0.00     0.034 A 
BRANCH  60  74
ATOM     74  C   UNL A   1      41.127  29.121  28.663  1.00  0.00     0.023 A 
ATOM     75  C   UNL A   1      40.773  29.066  30.026  1.00  0.00     0.031 A 
ATOM     76  C   UNL A   1      40.093  29.161  27.711  1.00  0.00     0.131 A 
ATOM     77  C   UNL A   1      39.423  29.032  30.394  1.00  0.00     0.055 A 
ATOM     78  C   UNL A   1      38.748  29.170  28.086  1.00  0.00     0.041 A 
ATOM     79  F   UNL A   1      40.374  29.214  26.399  1.00  0.00    -0.206 F 
ATOM     80  C   UNL A   1      38.408  29.093  29.433  1.00  0.00     0.022 A 
BRANCH  77  81
ATOM     81  S   UNL A   1      38.924  28.841  32.128  1.00  0.00     0.124 S 
ATOM     82  O   UNL A   1      39.184  30.176  32.661  1.00  0.00    -0.237 OA
ATOM     83  O   UNL A   1      37.514  28.483  32.004  1.00  0.00    -0.237 OA
ATOM     84  O   UNL A   1      39.799  27.788  32.631  1.00  0.00    -0.744 OA
ENDBRANCH  77  81
ENDBRANCH  60  74
BRANCH  61  85
ATOM     85  C   UNL A   1      50.771  28.056  26.124  1.00  0.00     0.023 A 
ATOM     86  C   UNL A   1      51.176  28.083  24.775  1.00  0.00     0.031 A 
ATOM     87  C   UNL A   1      51.713  27.670  27.091  1.00  0.00     0.131 A 
ATOM     88  C   UNL A   1      52.453  27.628  24.423  1.00  0.00     0.055 A 
ATOM     89  C   UNL A   1      53.012  27.294  26.741  1.00  0.00     0.041 A 
ATOM     90  F   UNL A   1      51.370  27.620  28.387  1.00  0.00    -0.206 F 
ATOM     91  C   UNL A   1      53.380  27.249  25.399  1.00  0.00     0.022 A 
BRANCH  88  92
ATOM     92  S   UNL A   1      52.895  27.362  22.683  1.00  0.00     0.124 S 
ATOM     93  O   UNL A   1      51.604  27.496  22.015  1.00  0.00    -0.237 OA
ATOM     94  O   UNL A   1      53.843  28.449  22.451  1.00  0.00    -0.237 OA
ATOM     95  O   UNL A   1      53.472  26.022  22.674  1.00  0.00    -0.744 OA
ENDBRANCH  88  92
ENDBRANCH  61  85
BRANCH  73  96
ATOM     96  C   UNL A   1      46.879  33.433  28.526  1.00  0.00     0.023 A 
ATOM     97  C   UNL A   1      46.932  34.383  27.487  1.00  0.00     0.031 A 
ATOM     98  C   UNL A   1      47.289  33.827  29.810  1.00  0.00     0.131 A 
ATOM     99  C   UNL A   1      47.451  35.659  27.737  1.00  0.00     0.055 A 
ATOM    100  C   UNL A   1      47.756  35.117  30.065  1.00  0.00     0.041 A 
ATOM    101  F   UNL A   1      47.264  32.954  30.831  1.00  0.00    -0.206 F 
ATOM    102  C   UNL A   1      47.857  36.034  29.021  1.00  0.00     0.022 A 
BRANCH  99 103
ATOM    103  S   UNL A   1      47.714  36.843  26.386  1.00  0.00     0.124 S 
ATOM    104  O   UNL A   1      48.377  37.948  27.075  1.00  0.00    -0.237 OA
ATOM    105  O   UNL A   1      48.559  36.081  25.473  1.00  0.00    -0.237 OA
ATOM    106  O   UNL A   1      46.367  37.133  25.905  1.00  0.00    -0.744 OA
ENDBRANCH  99 103
ENDBRANCH  73  96
ENDBRANCH  47  48
ENDBRANCH  39  42
ENDBRANCH  37  38
ENDBRANCH  36  37
ENDBRANCH  35  36
ENDBRANCH   1  35
TORSDOF 21
ENDMDL
MODEL 3
REMARK VINA RESULT:     -11.5      5.957      9.994
REMARK SMILES C[C@@]12CC[C@@H]3c4ccc(O)cc4/C(=N/OCC(=O)NCCCCCCNC(=O)c4ccc(-c5c6nc(c(-c7cc(S(=O)(=O)[O-])ccc7F)c7ccc([nH]7)c(-c7cc(S(=O)(=O)[O-])ccc7F)c7nc(c(-c8cc(S(=O)(=O)[O-])ccc8F)c8ccc5[nH]8)C=C7)C=C6)cc4)C[C@H]3[C@@H]1C[C@@H](O)[C@@H]2O
REMARK SMILES IDX 22 1 21 2 20 3 19 4 17 5 18 6 16 8 15 9 14 10 1 11 2 12 3 13
REMARK SMILES IDX 94 14 98 15 4 16 93 17 95 18 96 19 5 20 92 21 6 22 13 23
REMARK SMILES IDX 7 24 12 25 8 26 11 27 9 28 99 29 97 31 10 33 23 35 24 36
REMARK SMILES IDX 25 37 26 38 27 39 28 41 29 42 30 43 91 44 31 45 90 46 32 47
REMARK SMILES IDX 33 48 34 49 84 50 35 51 89 52 83 53 85 54 36 55 88 56 82 57
REMARK SMILES IDX 81 58 37 60 69 61 49 62 68 63 50 64 53 65 67 66 86 67 51 68
REMARK SMILES IDX 52 69 66 71 87 72 54 73 38 74 39 75 47 76 40 77 46 78 48 79
REMARK SMILES IDX 45 80 41 81 42 82 43 83 44 84 70 85 71 86 79 87 72 88 78 89
REMARK SMILES IDX 80 90 77 91 73 92 74 93 75 94 76 95 55 96 56 97 64 98 57 99
REMARK SMILES IDX 63 100 65 101 62 102 58 103 59 104 60 105 61 106
REMARK H PARENT 19 7 99 30 97 32 10 34 26 40 85 59 53 70
REMARK Flexibility Score: inf
ROOT
ATOM      1  C   UNL A   1      39.167  26.579  28.331  1.00  0.00     0.002 C 
ENDROOT
BRANCH   1   2
ATOM      2  C   UNL A   1      40.419  25.799  27.910  1.00  0.00     0.021 C 
BRANCH   2   3
ATOM      3  C   UNL A   1      40.319  25.197  26.509  1.00  0.00     0.116 C 
BRANCH   3   4
ATOM      4  N   UNL A   1      40.781  23.825  26.503  1.00  0.00    -0.353 N 
ATOM      5  C   UNL A   1      40.018  22.691  26.560  1.00  0.00     0.260 C 
ATOM      6  O   UNL A   1      40.589  21.598  26.599  1.00  0.00    -0.271 OA
ATOM      7  H   UNL A   1      41.756  23.692  26.452  1.00  0.00     0.163 HD
BRANCH   5   8
ATOM      8  C   UNL A   1      38.500  22.815  26.452  1.00  0.00     0.363 C 
BRANCH   8   9
ATOM      9  O   UNL A   1      37.987  22.736  25.124  1.00  0.00    -0.385 OA
BRANCH   9  10
ATOM     10  N   UNL A   1      36.866  21.918  25.151  1.00  0.00    -0.090 NA
ATOM     11  C   UNL A   1      32.966  27.839  22.746  1.00  0.00     0.014 C 
ATOM     12  C   UNL A   1      32.769  26.408  23.323  1.00  0.00    -0.001 C 
ATOM     13  C   UNL A   1      32.661  25.493  22.103  1.00  0.00     0.010 C 
ATOM     14  C   UNL A   1      33.946  26.031  24.259  1.00  0.00     0.004 C 
ATOM     15  C   UNL A   1      31.550  26.389  24.291  1.00  0.00     0.149 C 
ATOM     16  C   UNL A   1      32.594  24.025  22.428  1.00  0.00     0.009 C 
ATOM     17  C   UNL A   1      34.120  24.489  24.501  1.00  0.00     0.006 C 
ATOM     18  C   UNL A   1      33.591  26.819  25.565  1.00  0.00     0.039 C 
ATOM     19  C   UNL A   1      32.070  27.119  25.537  1.00  0.00     0.144 C 
ATOM     20  C   UNL A   1      33.771  23.577  23.286  1.00  0.00     0.024 C 
ATOM     21  C   UNL A   1      35.567  24.083  24.926  1.00  0.00     0.065 C 
ATOM     22  C   UNL A   1      33.613  22.160  23.820  1.00  0.00    -0.035 A 
ATOM     23  C   UNL A   1      35.747  22.555  24.996  1.00  0.00     0.088 C 
ATOM     24  C   UNL A   1      32.602  21.277  23.418  1.00  0.00     0.008 A 
ATOM     25  C   UNL A   1      34.561  21.699  24.743  1.00  0.00     0.006 A 
ATOM     26  C   UNL A   1      32.527  19.984  23.943  1.00  0.00     0.046 A 
ATOM     27  C   UNL A   1      34.493  20.406  25.275  1.00  0.00     0.056 A 
ATOM     28  C   UNL A   1      33.469  19.563  24.874  1.00  0.00     0.116 A 
BRANCH  15  29
ATOM     29  O   UNL A   1      31.122  25.079  24.660  1.00  0.00    -0.390 OA
ATOM     30  H   UNL A   1      30.152  25.043  24.661  1.00  0.00     0.211 HD
ENDBRANCH  15  29
BRANCH  19  31
ATOM     31  O   UNL A   1      31.834  28.519  25.439  1.00  0.00    -0.390 OA
ATOM     32  H   UNL A   1      32.559  28.935  24.947  1.00  0.00     0.211 HD
ENDBRANCH  19  31
BRANCH  28  33
ATOM     33  O   UNL A   1      33.429  18.305  25.397  1.00  0.00    -0.508 OA
ATOM     34  H   UNL A   1      33.124  18.172  26.273  1.00  0.00     0.293 HD
ENDBRANCH  28  33
ENDBRANCH   9  10
ENDBRANCH   8   9
ENDBRANCH   5   8
ENDBRANCH   3   4
ENDBRANCH   2   3
ENDBRANCH   1   2
BRANCH   1  35
ATOM     35  C   UNL A   1      39.339  28.101  28.385  1.00  0.00     0.002 C 
BRANCH  35  36
ATOM     36  C   UNL A   1      38.032  28.893  28.435  1.00  0.00     0.021 C 
BRANCH  36  37
ATOM     37  C   UNL A   1      38.146  30.242  29.131  1.00  0.00     0.116 C 
BRANCH  37  38
ATOM     38  N   UNL A   1      37.165  30.399  30.196  1.00  0.00    -0.352 N 
ATOM     39  C   UNL A   1      37.253  30.011  31.517  1.00  0.00     0.251 C 
ATOM     40  H   UNL A   1      36.325  30.842  29.939  1.00  0.00     0.163 HD
ATOM     41  O   UNL A   1      36.280  30.069  32.249  1.00  0.00    -0.269 OA
BRANCH  39  42
ATOM     42  C   UNL A   1      38.544  29.481  32.008  1.00  0.00     0.039 A 
ATOM     43  C   UNL A   1      39.612  30.349  32.245  1.00  0.00     0.014 A 
ATOM     44  C   UNL A   1      38.707  28.100  32.126  1.00  0.00     0.014 A 
ATOM     45  C   UNL A   1      40.890  29.827  32.411  1.00  0.00     0.010 A 
ATOM     46  C   UNL A   1      39.978  27.581  32.377  1.00  0.00     0.010 A 
ATOM     47  C   UNL A   1      41.090  28.438  32.452  1.00  0.00    -0.014 A 
BRANCH  47  48
ATOM     48  C   UNL A   1      42.466  27.883  32.518  1.00  0.00     0.031 A 
ATOM     49  C   UNL A   1      43.102  27.595  33.852  1.00  0.00     0.074 A 
ATOM     50  C   UNL A   1      43.130  27.607  31.380  1.00  0.00     0.049 A 
ATOM     51  N   UNL A   1      44.314  27.182  34.117  1.00  0.00    -0.248 NA
ATOM     52  C   UNL A   1      42.266  27.798  35.046  1.00  0.00     0.031 C 
ATOM     53  C   UNL A   1      42.593  27.801  30.035  1.00  0.00     0.029 A 
ATOM     54  N   UNL A   1      44.389  27.103  31.173  1.00  0.00    -0.354 N 
ATOM     55  C   UNL A   1      44.392  27.091  35.502  1.00  0.00     0.074 A 
ATOM     56  C   UNL A   1      43.119  27.535  36.025  1.00  0.00     0.031 C 
ATOM     57  C   UNL A   1      43.503  27.395  29.140  1.00  0.00     0.029 A 
ATOM     58  C   UNL A   1      44.720  26.992  29.843  1.00  0.00     0.049 A 
ATOM     59  H   UNL A   1      44.996  26.845  31.903  1.00  0.00     0.167 HD
ATOM     60  C   UNL A   1      45.425  26.658  36.264  1.00  0.00     0.034 A 
ATOM     61  C   UNL A   1      45.879  26.642  29.249  1.00  0.00     0.034 A 
ATOM     62  C   UNL A   1      46.683  26.214  35.723  1.00  0.00     0.049 A 
ATOM     63  C   UNL A   1      47.048  26.248  30.114  1.00  0.00     0.074 A 
ATOM     64  C   UNL A   1      47.795  25.759  36.407  1.00  0.00     0.029 A 
ATOM     65  N   UNL A   1      46.998  26.164  34.371  1.00  0.00    -0.354 N 
ATOM     66  N   UNL A   1      47.110  26.164  31.422  1.00  0.00    -0.248 NA
ATOM     67  C   UNL A   1      48.304  25.906  29.433  1.00  0.00     0.031 C 
ATOM     68  C   UNL A   1      48.801  25.495  35.477  1.00  0.00     0.029 A 
ATOM     69  C   UNL A   1      48.297  25.711  34.204  1.00  0.00     0.049 A 
ATOM     70  H   UNL A   1      46.389  26.414  33.639  1.00  0.00     0.167 HD
ATOM     71  C   UNL A   1      48.403  25.748  31.722  1.00  0.00     0.074 A 
ATOM     72  C   UNL A   1      49.086  25.577  30.455  1.00  0.00     0.031 C 
ATOM     73  C   UNL A   1      48.968  25.532  32.936  1.00  0.00     0.034 A 
BRANCH  60  74
ATOM     74  C   UNL A   1      45.249  26.629  37.765  1.00  0.00     0.023 A 
ATOM     75  C   UNL A   1      45.481  27.790  38.528  1.00  0.00     0.031 A 
ATOM     76  C   UNL A   1      44.952  25.436  38.447  1.00  0.00     0.131 A 
ATOM     77  C   UNL A   1      45.431  27.726  39.927  1.00  0.00     0.055 A 
ATOM     78  C   UNL A   1      44.862  25.387  39.839  1.00  0.00     0.041 A 
ATOM     79  F   UNL A   1      44.724  24.300  37.767  1.00  0.00    -0.206 F 
ATOM     80  C   UNL A   1      45.114  26.534  40.586  1.00  0.00     0.022 A 
BRANCH  77  81
ATOM     81  S   UNL A   1      45.838  29.167  40.951  1.00  0.00     0.124 S 
ATOM     82  O   UNL A   1      44.528  29.792  41.120  1.00  0.00    -0.237 OA
ATOM     83  O   UNL A   1      46.391  28.544  42.150  1.00  0.00    -0.237 OA
ATOM     84  O   UNL A   1      46.787  29.918  40.137  1.00  0.00    -0.744 OA
ENDBRANCH  77  81
ENDBRANCH  60  74
BRANCH  61  85
ATOM     85  C   UNL A   1      45.941  26.634  27.759  1.00  0.00     0.023 A 
ATOM     86  C   UNL A   1      45.731  25.441  27.040  1.00  0.00     0.031 A 
ATOM     87  C   UNL A   1      46.373  27.766  27.052  1.00  0.00     0.131 A 
ATOM     88  C   UNL A   1      46.057  25.382  25.679  1.00  0.00     0.055 A 
ATOM     89  C   UNL A   1      46.620  27.724  25.678  1.00  0.00     0.041 A 
ATOM     90  F   UNL A   1      46.595  28.922  27.696  1.00  0.00    -0.206 F 
ATOM     91  C   UNL A   1      46.485  26.521  24.989  1.00  0.00     0.022 A 
BRANCH  88  92
ATOM     92  S   UNL A   1      46.091  23.795  24.801  1.00  0.00     0.124 S 
ATOM     93  O   UNL A   1      47.157  24.005  23.827  1.00  0.00    -0.237 OA
ATOM     94  O   UNL A   1      46.402  22.866  25.886  1.00  0.00    -0.237 OA
ATOM     95  O   UNL A   1      44.746  23.677  24.249  1.00  0.00    -0.744 OA
ENDBRANCH  88  92
ENDBRANCH  61  85
BRANCH  73  96
ATOM     96  C   UNL A   1      50.409  25.084  33.001  1.00  0.00     0.023 A 
ATOM     97  C   UNL A   1      50.720  23.714  32.909  1.00  0.00     0.031 A 
ATOM     98  C   UNL A   1      51.433  25.979  33.353  1.00  0.00     0.131 A 
ATOM     99  C   UNL A   1      52.008  23.270  33.233  1.00  0.00     0.055 A 
ATOM    100  C   UNL A   1      52.728  25.535  33.625  1.00  0.00     0.041 A 
ATOM    101  F   UNL A   1      51.183  27.293  33.461  1.00  0.00    -0.206 F 
ATOM    102  C   UNL A   1      53.015  24.173  33.585  1.00  0.00     0.022 A 
BRANCH  99 103
ATOM    103  S   UNL A   1      52.392  21.497  33.313  1.00  0.00     0.124 S 
ATOM    104  O   UNL A   1      51.793  21.114  34.590  1.00  0.00    -0.237 OA
ATOM    105  O   UNL A   1      51.714  20.984  32.127  1.00  0.00    -0.237 OA
ATOM    106  O   UNL A   1      53.850  21.451  33.276  1.00  0.00    -0.744 OA
ENDBRANCH  99 103
ENDBRANCH  73  96
ENDBRANCH  47  48
ENDBRANCH  39  42
ENDBRANCH  37  38
ENDBRANCH  36  37
ENDBRANCH  35  36
ENDBRANCH   1  35
TORSDOF 21
ENDMDL
