MODEL 1
REMARK VINA RESULT:      -9.9      0.000      0.000
REMARK SMILES COc1ccc(/C=C2\SC(=S)[NH+]=C2NCCCCCCNC(=O)c2ccc(-c3c4nc(c(-c5cc(S(=O)(=O)[O-])ccc5F)c5ccc([nH]5)c(-c5cc(S(=O)(=O)[O-])ccc5F)c5nc(c(-c6cc(S(=O)(=O)[O-])ccc6F)c6ccc3[nH]6)C=C5)C=C4)cc2)c(C(=O)[O-])c1OC
REMARK SMILES IDX 18 1 17 2 16 3 15 4 14 5 7 6 8 7 9 8 13 9 10 10 12 11 11 12
REMARK SMILES IDX 6 15 3 16 4 17 91 18 5 19 87 20 2 21 1 22 92 23 93 24 88 25
REMARK SMILES IDX 89 26 90 27 19 28 20 29 21 30 22 31 23 33 24 34 25 35 86 36
REMARK SMILES IDX 26 37 85 38 27 39 28 40 29 41 79 42 30 43 84 44 78 45 80 46
REMARK SMILES IDX 31 47 83 48 77 49 76 50 32 52 64 53 44 54 63 55 45 56 48 57
REMARK SMILES IDX 62 58 81 59 46 60 47 61 61 63 82 64 49 65 33 66 34 67 42 68
REMARK SMILES IDX 35 69 41 70 43 71 40 72 36 73 37 74 38 75 39 76 65 77 66 78
REMARK SMILES IDX 74 79 67 80 73 81 75 82 72 83 68 84 69 85 70 86 71 87 50 88
REMARK SMILES IDX 51 89 59 90 52 91 58 92 60 93 57 94 53 95 54 96 55 97 56 98
REMARK H PARENT 12 13 14 14 21 32 80 51 48 62
REMARK Flexibility Score: inf
ROOT
ATOM      1  C   UNL A   1      39.429  29.122  28.729  1.00  0.00     0.002 C 
ENDROOT
BRANCH   1   2
ATOM      2  C   UNL A   1      39.424  27.692  28.181  1.00  0.00     0.004 C 
BRANCH   2   3
ATOM      3  C   UNL A   1      40.413  27.430  27.041  1.00  0.00     0.046 C 
BRANCH   3   4
ATOM      4  C   UNL A   1      40.559  25.957  26.658  1.00  0.00     0.234 C 
BRANCH   4   5
ATOM      5  N   UNL A   1      39.250  25.321  26.562  1.00  0.00    -0.273 N 
ATOM      6  C   UNL A   1      36.536  23.836  26.185  1.00  0.00     0.033 C 
ATOM      7  C   UNL A   1      37.761  23.273  26.096  1.00  0.00     0.106 C 
ATOM      8  S   UNL A   1      38.174  21.640  25.704  1.00  0.00    -0.027 SA
ATOM      9  C   UNL A   1      39.086  23.970  26.377  1.00  0.00     0.288 C 
ATOM     10  C   UNL A   1      39.837  21.875  26.203  1.00  0.00     0.230 C 
ATOM     11  N   UNL A   1      40.140  23.191  26.424  1.00  0.00    -0.225 N 
ATOM     12  S   UNL A   1      40.882  20.585  26.399  1.00  0.00    -0.026 S 
ATOM     13  H   UNL A   1      41.052  23.517  26.599  1.00  0.00     0.314 HD
ATOM     14  H   UNL A   1      38.448  25.887  26.633  1.00  0.00     0.305 HD
BRANCH   6  15
ATOM     15  C   UNL A   1      35.141  23.292  25.975  1.00  0.00    -0.011 A 
ATOM     16  C   UNL A   1      32.537  22.118  25.716  1.00  0.00     0.161 A 
ATOM     17  C   UNL A   1      33.110  22.321  26.963  1.00  0.00     0.051 A 
ATOM     18  C   UNL A   1      33.194  22.578  24.568  1.00  0.00     0.170 A 
ATOM     19  C   UNL A   1      34.377  22.883  27.080  1.00  0.00     0.013 A 
ATOM     20  C   UNL A   1      34.515  23.129  24.696  1.00  0.00     0.050 A 
BRANCH  16  21
ATOM     21  O   UNL A   1      31.284  21.564  25.702  1.00  0.00    -0.493 OA
ATOM     22  C   UNL A   1      30.319  22.457  26.266  1.00  0.00     0.278 C 
ENDBRANCH  16  21
BRANCH  18  23
ATOM     23  O   UNL A   1      32.631  22.624  23.314  1.00  0.00    -0.492 OA
ATOM     24  C   UNL A   1      32.234  21.427  22.664  1.00  0.00     0.278 C 
ENDBRANCH  18  23
BRANCH  20  25
ATOM     25  C   UNL A   1      35.214  23.588  23.456  1.00  0.00     0.076 C 
ATOM     26  O   UNL A   1      36.089  22.995  22.858  1.00  0.00    -0.545 OA
ATOM     27  O   UNL A   1      34.746  24.760  22.982  1.00  0.00    -0.545 OA
ENDBRANCH  20  25
ENDBRANCH   6  15
ENDBRANCH   4   5
ENDBRANCH   3   4
ENDBRANCH   2   3
ENDBRANCH   1   2
BRANCH   1  28
ATOM     28  C   UNL A   1      38.068  29.825  28.731  1.00  0.00     0.021 C 
BRANCH  28  29
ATOM     29  C   UNL A   1      36.999  29.147  29.582  1.00  0.00     0.116 C 
BRANCH  29  30
ATOM     30  N   UNL A   1      36.604  29.964  30.719  1.00  0.00    -0.352 N 
ATOM     31  C   UNL A   1      37.220  30.128  31.935  1.00  0.00     0.251 C 
ATOM     32  H   UNL A   1      35.770  30.475  30.599  1.00  0.00     0.163 HD
ATOM     33  O   UNL A   1      36.625  30.700  32.844  1.00  0.00    -0.269 OA
BRANCH  31  34
ATOM     34  C   UNL A   1      38.584  29.594  32.154  1.00  0.00     0.039 A 
ATOM     35  C   UNL A   1      38.751  28.219  32.328  1.00  0.00     0.014 A 
ATOM     36  C   UNL A   1      39.693  30.444  32.194  1.00  0.00     0.014 A 
ATOM     37  C   UNL A   1      40.037  27.690  32.473  1.00  0.00     0.010 A 
ATOM     38  C   UNL A   1      40.978  29.908  32.262  1.00  0.00     0.010 A 
ATOM     39  C   UNL A   1      41.165  28.524  32.401  1.00  0.00    -0.014 A 
BRANCH  39  40
ATOM     40  C   UNL A   1      42.543  27.965  32.468  1.00  0.00     0.031 A 
ATOM     41  C   UNL A   1      43.205  27.743  33.803  1.00  0.00     0.074 A 
ATOM     42  C   UNL A   1      43.216  27.701  31.329  1.00  0.00     0.049 A 
ATOM     43  N   UNL A   1      44.424  27.346  34.065  1.00  0.00    -0.248 NA
ATOM     44  C   UNL A   1      42.396  28.025  34.999  1.00  0.00     0.031 C 
ATOM     45  C   UNL A   1      42.692  27.899  29.974  1.00  0.00     0.029 A 
ATOM     46  N   UNL A   1      44.484  27.216  31.122  1.00  0.00    -0.354 N 
ATOM     47  C   UNL A   1      44.527  27.325  35.451  1.00  0.00     0.074 A 
ATOM     48  C   UNL A   1      43.270  27.819  35.973  1.00  0.00     0.031 C 
ATOM     49  C   UNL A   1      43.622  27.520  29.083  1.00  0.00     0.029 A 
ATOM     50  C   UNL A   1      44.827  27.105  29.793  1.00  0.00     0.049 A 
ATOM     51  H   UNL A   1      45.092  26.971  31.856  1.00  0.00     0.167 HD
ATOM     52  C   UNL A   1      45.562  26.905  36.220  1.00  0.00     0.034 A 
ATOM     53  C   UNL A   1      45.987  26.734  29.212  1.00  0.00     0.034 A 
ATOM     54  C   UNL A   1      46.811  26.415  35.691  1.00  0.00     0.049 A 
ATOM     55  C   UNL A   1      47.146  26.331  30.094  1.00  0.00     0.074 A 
ATOM     56  C   UNL A   1      47.916  25.950  36.383  1.00  0.00     0.029 A 
ATOM     57  N   UNL A   1      47.124  26.325  34.341  1.00  0.00    -0.354 N 
ATOM     58  N   UNL A   1      47.210  26.287  31.407  1.00  0.00    -0.248 NA
ATOM     59  C   UNL A   1      48.384  25.918  29.420  1.00  0.00     0.031 C 
ATOM     60  C   UNL A   1      48.919  25.646  35.458  1.00  0.00     0.029 A 
ATOM     61  C   UNL A   1      48.412  25.835  34.183  1.00  0.00     0.049 A 
ATOM     62  H   UNL A   1      46.519  26.572  33.604  1.00  0.00     0.167 HD
ATOM     63  C   UNL A   1      48.481  25.799  31.706  1.00  0.00     0.074 A 
ATOM     64  C   UNL A   1      49.137  25.546  30.442  1.00  0.00     0.031 C 
ATOM     65  C   UNL A   1      49.054  25.580  32.917  1.00  0.00     0.034 A 
BRANCH  52  66
ATOM     66  C   UNL A   1      45.390  26.964  37.718  1.00  0.00     0.023 A 
ATOM     67  C   UNL A   1      45.717  28.121  38.447  1.00  0.00     0.031 A 
ATOM     68  C   UNL A   1      44.879  25.863  38.426  1.00  0.00     0.131 A 
ATOM     69  C   UNL A   1      45.582  28.132  39.843  1.00  0.00     0.055 A 
ATOM     70  C   UNL A   1      44.673  25.907  39.806  1.00  0.00     0.041 A 
ATOM     71  F   UNL A   1      44.569  24.723  37.788  1.00  0.00    -0.206 F 
ATOM     72  C   UNL A   1      45.035  27.042  40.525  1.00  0.00     0.022 A 
BRANCH  69  73
ATOM     73  S   UNL A   1      46.242  29.545  40.767  1.00  0.00     0.124 S 
ATOM     74  O   UNL A   1      47.654  29.507  40.393  1.00  0.00    -0.237 OA
ATOM     75  O   UNL A   1      45.469  30.661  40.233  1.00  0.00    -0.237 OA
ATOM     76  O   UNL A   1      45.966  29.204  42.161  1.00  0.00    -0.744 OA
ENDBRANCH  69  73
ENDBRANCH  52  66
BRANCH  53  77
ATOM     77  C   UNL A   1      46.142  26.748  27.726  1.00  0.00     0.023 A 
ATOM     78  C   UNL A   1      45.915  25.592  26.962  1.00  0.00     0.031 A 
ATOM     79  C   UNL A   1      46.615  27.892  27.057  1.00  0.00     0.131 A 
ATOM     80  C   UNL A   1      46.240  25.578  25.596  1.00  0.00     0.055 A 
ATOM     81  C   UNL A   1      46.862  27.897  25.683  1.00  0.00     0.041 A 
ATOM     82  F   UNL A   1      46.851  29.027  27.734  1.00  0.00    -0.206 F 
ATOM     83  C   UNL A   1      46.698  26.727  24.948  1.00  0.00     0.022 A 
BRANCH  80  84
ATOM     84  S   UNL A   1      46.204  23.992  24.715  1.00  0.00     0.124 S 
ATOM     85  O   UNL A   1      46.619  23.066  25.761  1.00  0.00    -0.237 OA
ATOM     86  O   UNL A   1      44.809  23.910  24.299  1.00  0.00    -0.237 OA
ATOM     87  O   UNL A   1      47.167  24.185  23.632  1.00  0.00    -0.744 OA
ENDBRANCH  80  84
ENDBRANCH  53  77
BRANCH  65  88
ATOM     88  C   UNL A   1      50.438  24.976  32.926  1.00  0.00     0.023 A 
ATOM     89  C   UNL A   1      50.646  23.587  32.901  1.00  0.00     0.031 A 
ATOM     90  C   UNL A   1      51.570  25.812  32.970  1.00  0.00     0.131 A 
ATOM     91  C   UNL A   1      51.950  23.074  32.983  1.00  0.00     0.055 A 
ATOM     92  C   UNL A   1      52.866  25.297  32.981  1.00  0.00     0.041 A 
ATOM     93  F   UNL A   1      51.433  27.148  33.000  1.00  0.00    -0.206 F 
ATOM     94  C   UNL A   1      53.061  23.920  33.003  1.00  0.00     0.022 A 
BRANCH  91  95
ATOM     95  S   UNL A   1      52.170  21.283  33.166  1.00  0.00     0.124 S 
ATOM     96  O   UNL A   1      52.602  21.171  34.556  1.00  0.00    -0.237 OA
ATOM     97  O   UNL A   1      50.835  20.772  32.872  1.00  0.00    -0.237 OA
ATOM     98  O   UNL A   1      53.190  20.958  32.171  1.00  0.00    -0.744 OA
ENDBRANCH  91  95
ENDBRANCH  65  88
ENDBRANCH  39  40
ENDBRANCH  31  34
ENDBRANCH  29  30
ENDBRANCH  28  29
ENDBRANCH   1  28
TORSDOF 19
ENDMDL
MODEL 2
REMARK VINA RESULT:      -9.9      4.798      9.848
REMARK SMILES COc1ccc(/C=C2\SC(=S)[NH+]=C2NCCCCCCNC(=O)c2ccc(-c3c4nc(c(-c5cc(S(=O)(=O)[O-])ccc5F)c5ccc([nH]5)c(-c5cc(S(=O)(=O)[O-])ccc5F)c5nc(c(-c6cc(S(=O)(=O)[O-])ccc6F)c6ccc3[nH]6)C=C5)C=C4)cc2)c(C(=O)[O-])c1OC
REMARK SMILES IDX 18 1 17 2 16 3 15 4 14 5 7 6 8 7 9 8 13 9 10 10 12 11 11 12
REMARK SMILES IDX 6 15 3 16 4 17 91 18 5 19 87 20 2 21 1 22 92 23 93 24 88 25
REMARK SMILES IDX 89 26 90 27 19 28 20 29 21 30 22 31 23 33 24 34 25 35 86 36
REMARK SMILES IDX 26 37 85 38 27 39 28 40 29 41 79 42 30 43 84 44 78 45 80 46
REMARK SMILES IDX 31 47 83 48 77 49 76 50 32 52 64 53 44 54 63 55 45 56 48 57
REMARK SMILES IDX 62 58 81 59 46 60 47 61 61 63 82 64 49 65 33 66 34 67 42 68
REMARK SMILES IDX 35 69 41 70 43 71 40 72 36 73 37 74 38 75 39 76 65 77 66 78
REMARK SMILES IDX 74 79 67 80 73 81 75 82 72 83 68 84 69 85 70 86 71 87 50 88
REMARK SMILES IDX 51 89 59 90 52 91 58 92 60 93 57 94 53 95 54 96 55 97 56 98
REMARK H PARENT 12 13 14 14 21 32 80 51 48 62
REMARK Flexibility Score: inf
ROOT
ATOM      1  C   UNL A   1      35.189  32.939  28.015  1.00  0.00     0.002 C 
ENDROOT
BRANCH   1   2
ATOM      2  C   UNL A   1      35.058  31.536  28.617  1.00  0.00     0.004 C 
BRANCH   2   3
ATOM      3  C   UNL A   1      34.963  30.398  27.595  1.00  0.00     0.046 C 
BRANCH   3   4
ATOM      4  C   UNL A   1      33.576  30.219  26.979  1.00  0.00     0.234 C 
BRANCH   4   5
ATOM      5  N   UNL A   1      33.364  28.829  26.591  1.00  0.00    -0.273 N 
ATOM      6  C   UNL A   1      32.687  25.898  25.776  1.00  0.00     0.033 C 
ATOM      7  C   UNL A   1      32.015  27.001  25.378  1.00  0.00     0.106 C 
ATOM      8  S   UNL A   1      30.603  27.108  24.386  1.00  0.00    -0.027 SA
ATOM      9  C   UNL A   1      32.401  28.442  25.691  1.00  0.00     0.288 C 
ATOM     10  C   UNL A   1      30.789  28.840  24.199  1.00  0.00     0.230 C 
ATOM     11  N   UNL A   1      31.728  29.364  25.045  1.00  0.00    -0.225 N 
ATOM     12  S   UNL A   1      29.906  29.698  23.069  1.00  0.00    -0.026 S 
ATOM     13  H   UNL A   1      31.882  30.330  25.157  1.00  0.00     0.314 HD
ATOM     14  H   UNL A   1      33.937  28.137  26.993  1.00  0.00     0.305 HD
BRANCH   6  15
ATOM     15  C   UNL A   1      32.466  24.422  25.534  1.00  0.00    -0.011 A 
ATOM     16  C   UNL A   1      32.106  21.589  25.265  1.00  0.00     0.161 A 
ATOM     17  C   UNL A   1      31.658  22.264  26.390  1.00  0.00     0.051 A 
ATOM     18  C   UNL A   1      32.657  22.310  24.198  1.00  0.00     0.170 A 
ATOM     19  C   UNL A   1      31.845  23.637  26.518  1.00  0.00     0.013 A 
ATOM     20  C   UNL A   1      32.874  23.722  24.350  1.00  0.00     0.050 A 
BRANCH  16  21
ATOM     21  O   UNL A   1      31.872  20.240  25.227  1.00  0.00    -0.493 OA
ATOM     22  C   UNL A   1      33.081  19.501  25.427  1.00  0.00     0.278 C 
ENDBRANCH  16  21
BRANCH  18  23
ATOM     23  O   UNL A   1      32.934  21.779  22.960  1.00  0.00    -0.492 OA
ATOM     24  C   UNL A   1      31.879  21.349  22.114  1.00  0.00     0.278 C 
ENDBRANCH  18  23
BRANCH  20  25
ATOM     25  C   UNL A   1      33.491  24.471  23.213  1.00  0.00     0.076 C 
ATOM     26  O   UNL A   1      32.902  25.102  22.358  1.00  0.00    -0.545 OA
ATOM     27  O   UNL A   1      34.839  24.441  23.222  1.00  0.00    -0.545 OA
ENDBRANCH  20  25
ENDBRANCH   6  15
ENDBRANCH   4   5
ENDBRANCH   3   4
ENDBRANCH   2   3
ENDBRANCH   1   2
BRANCH   1  28
ATOM     28  C   UNL A   1      33.926  33.803  28.097  1.00  0.00     0.021 C 
BRANCH  28  29
ATOM     29  C   UNL A   1      34.137  35.189  28.699  1.00  0.00     0.116 C 
BRANCH  29  30
ATOM     30  N   UNL A   1      33.193  35.472  29.768  1.00  0.00    -0.352 N 
ATOM     31  C   UNL A   1      33.217  35.079  31.084  1.00  0.00     0.251 C 
ATOM     32  H   UNL A   1      32.421  36.027  29.511  1.00  0.00     0.163 HD
ATOM     33  O   UNL A   1      32.223  35.247  31.785  1.00  0.00    -0.269 OA
BRANCH  31  34
ATOM     34  C   UNL A   1      34.428  34.436  31.645  1.00  0.00     0.039 A 
ATOM     35  C   UNL A   1      34.367  33.091  32.016  1.00  0.00     0.014 A 
ATOM     36  C   UNL A   1      35.615  35.155  31.810  1.00  0.00     0.014 A 
ATOM     37  C   UNL A   1      35.516  32.450  32.487  1.00  0.00     0.010 A 
ATOM     38  C   UNL A   1      36.777  34.496  32.208  1.00  0.00     0.010 A 
ATOM     39  C   UNL A   1      36.742  33.135  32.550  1.00  0.00    -0.014 A 
BRANCH  39  40
ATOM     40  C   UNL A   1      37.991  32.443  32.970  1.00  0.00     0.031 A 
ATOM     41  C   UNL A   1      38.560  31.331  32.128  1.00  0.00     0.074 A 
ATOM     42  C   UNL A   1      38.589  32.785  34.130  1.00  0.00     0.049 A 
ATOM     43  N   UNL A   1      39.587  30.556  32.367  1.00  0.00    -0.248 NA
ATOM     44  C   UNL A   1      37.870  31.039  30.862  1.00  0.00     0.031 C 
ATOM     45  C   UNL A   1      38.119  33.828  35.047  1.00  0.00     0.029 A 
ATOM     46  N   UNL A   1      39.714  32.292  34.744  1.00  0.00    -0.354 N 
ATOM     47  C   UNL A   1      39.670  29.691  31.283  1.00  0.00     0.074 A 
ATOM     48  C   UNL A   1      38.546  29.989  30.421  1.00  0.00     0.031 C 
ATOM     49  C   UNL A   1      38.960  33.909  36.090  1.00  0.00     0.029 A 
ATOM     50  C   UNL A   1      39.996  32.890  35.953  1.00  0.00     0.049 A 
ATOM     51  H   UNL A   1      40.267  31.576  34.357  1.00  0.00     0.167 HD
ATOM     52  C   UNL A   1      40.613  28.753  31.014  1.00  0.00     0.034 A 
ATOM     53  C   UNL A   1      40.963  32.634  36.856  1.00  0.00     0.034 A 
ATOM     54  C   UNL A   1      41.729  28.463  31.879  1.00  0.00     0.049 A 
ATOM     55  C   UNL A   1      41.963  31.540  36.561  1.00  0.00     0.074 A 
ATOM     56  C   UNL A   1      42.748  27.546  31.691  1.00  0.00     0.029 A 
ATOM     57  N   UNL A   1      41.976  29.084  33.097  1.00  0.00    -0.354 N 
ATOM     58  N   UNL A   1      42.043  30.754  35.511  1.00  0.00    -0.248 NA
ATOM     59  C   UNL A   1      43.010  31.306  37.564  1.00  0.00     0.031 C 
ATOM     60  C   UNL A   1      43.569  27.562  32.822  1.00  0.00     0.029 A 
ATOM     61  C   UNL A   1      43.117  28.551  33.679  1.00  0.00     0.049 A 
ATOM     62  H   UNL A   1      41.423  29.799  33.488  1.00  0.00     0.167 HD
ATOM     63  C   UNL A   1      43.174  29.965  35.714  1.00  0.00     0.074 A 
ATOM     64  C   UNL A   1      43.752  30.385  36.971  1.00  0.00     0.031 C 
ATOM     65  C   UNL A   1      43.689  28.983  34.931  1.00  0.00     0.034 A 
BRANCH  52  66
ATOM     66  C   UNL A   1      40.473  27.967  29.733  1.00  0.00     0.023 A 
ATOM     67  C   UNL A   1      41.324  28.196  28.637  1.00  0.00     0.031 A 
ATOM     68  C   UNL A   1      39.492  26.968  29.608  1.00  0.00     0.131 A 
ATOM     69  C   UNL A   1      41.144  27.475  27.448  1.00  0.00     0.055 A 
ATOM     70  C   UNL A   1      39.369  26.200  28.448  1.00  0.00     0.041 A 
ATOM     71  F   UNL A   1      38.637  26.719  30.612  1.00  0.00    -0.206 F 
ATOM     72  C   UNL A   1      40.191  26.458  27.355  1.00  0.00     0.022 A 
BRANCH  69  73
ATOM     73  S   UNL A   1      42.094  27.968  25.985  1.00  0.00     0.124 S 
ATOM     74  O   UNL A   1      41.485  29.255  25.657  1.00  0.00    -0.237 OA
ATOM     75  O   UNL A   1      43.459  28.018  26.496  1.00  0.00    -0.237 OA
ATOM     76  O   UNL A   1      41.826  26.899  25.025  1.00  0.00    -0.744 OA
ENDBRANCH  69  73
ENDBRANCH  52  66
BRANCH  53  77
ATOM     77  C   UNL A   1      41.034  33.390  38.143  1.00  0.00     0.023 A 
ATOM     78  C   UNL A   1      40.247  33.020  39.246  1.00  0.00     0.031 A 
ATOM     79  C   UNL A   1      41.815  34.555  38.259  1.00  0.00     0.131 A 
ATOM     80  C   UNL A   1      40.192  33.848  40.379  1.00  0.00     0.055 A 
ATOM     81  C   UNL A   1      41.818  35.333  39.418  1.00  0.00     0.041 A 
ATOM     82  F   UNL A   1      42.588  34.960  37.238  1.00  0.00    -0.206 F 
ATOM     83  C   UNL A   1      40.984  34.993  40.479  1.00  0.00     0.022 A 
BRANCH  80  84
ATOM     84  S   UNL A   1      38.952  33.487  41.654  1.00  0.00     0.124 S 
ATOM     85  O   UNL A   1      39.130  34.614  42.562  1.00  0.00    -0.237 OA
ATOM     86  O   UNL A   1      37.717  33.475  40.879  1.00  0.00    -0.237 OA
ATOM     87  O   UNL A   1      39.373  32.189  42.177  1.00  0.00    -0.744 OA
ENDBRANCH  80  84
ENDBRANCH  53  77
BRANCH  65  88
ATOM     88  C   UNL A   1      44.979  28.343  35.386  1.00  0.00     0.023 A 
ATOM     89  C   UNL A   1      44.996  27.175  36.168  1.00  0.00     0.031 A 
ATOM     90  C   UNL A   1      46.213  28.920  35.034  1.00  0.00     0.131 A 
ATOM     91  C   UNL A   1      46.218  26.658  36.625  1.00  0.00     0.055 A 
ATOM     92  C   UNL A   1      47.427  28.361  35.434  1.00  0.00     0.041 A 
ATOM     93  F   UNL A   1      46.259  30.037  34.291  1.00  0.00    -0.206 F 
ATOM     94  C   UNL A   1      47.434  27.232  36.247  1.00  0.00     0.022 A 
BRANCH  91  95
ATOM     95  S   UNL A   1      46.193  25.283  37.807  1.00  0.00     0.124 S 
ATOM     96  O   UNL A   1      44.761  25.049  37.970  1.00  0.00    -0.237 OA
ATOM     97  O   UNL A   1      46.930  24.245  37.095  1.00  0.00    -0.237 OA
ATOM     98  O   UNL A   1      46.870  25.828  38.983  1.00  0.00    -0.744 OA
ENDBRANCH  91  95
ENDBRANCH  65  88
ENDBRANCH  39  40
ENDBRANCH  31  34
ENDBRANCH  29  30
ENDBRANCH  28  29
ENDBRANCH   1  28
TORSDOF 19
ENDMDL
MODEL 3
REMARK VINA RESULT:      -9.6      5.779     10.301
REMARK SMILES COc1ccc(/C=C2\SC(=S)[NH+]=C2NCCCCCCNC(=O)c2ccc(-c3c4nc(c(-c5cc(S(=O)(=O)[O-])ccc5F)c5ccc([nH]5)c(-c5cc(S(=O)(=O)[O-])ccc5F)c5nc(c(-c6cc(S(=O)(=O)[O-])ccc6F)c6ccc3[nH]6)C=C5)C=C4)cc2)c(C(=O)[O-])c1OC
REMARK SMILES IDX 18 1 17 2 16 3 15 4 14 5 7 6 8 7 9 8 13 9 10 10 12 11 11 12
REMARK SMILES IDX 6 15 3 16 4 17 91 18 5 19 87 20 2 21 1 22 92 23 93 24 88 25
REMARK SMILES IDX 89 26 90 27 19 28 20 29 21 30 22 31 23 33 24 34 25 35 86 36
REMARK SMILES IDX 26 37 85 38 27 39 28 40 29 41 79 42 30 43 84 44 78 45 80 46
REMARK SMILES IDX 31 47 83 48 77 49 76 50 32 52 64 53 44 54 63 55 45 56 48 57
REMARK SMILES IDX 62 58 81 59 46 60 47 61 61 63 82 64 49 65 33 66 34 67 42 68
REMARK SMILES IDX 35 69 41 70 43 71 40 72 36 73 37 74 38 75 39 76 65 77 66 78
REMARK SMILES IDX 74 79 67 80 73 81 75 82 72 83 68 84 69 85 70 86 71 87 50 88
REMARK SMILES IDX 51 89 59 90 52 91 58 92 60 93 57 94 53 95 54 96 55 97 56 98
REMARK H PARENT 12 13 14 14 21 32 80 51 48 62
REMARK Flexibility Score: inf
ROOT
ATOM      1  C   UNL A   1      42.298  22.534  28.486  1.00  0.00     0.002 C 
ENDROOT
BRANCH   1   2
ATOM      2  C   UNL A   1      42.047  23.926  27.899  1.00  0.00     0.004 C 
BRANCH   2   3
ATOM      3  C   UNL A   1      40.578  24.359  27.861  1.00  0.00     0.046 C 
BRANCH   3   4
ATOM      4  C   UNL A   1      40.023  24.587  26.455  1.00  0.00     0.234 C 
BRANCH   4   5
ATOM      5  N   UNL A   1      38.577  24.403  26.439  1.00  0.00    -0.273 N 
ATOM      6  C   UNL A   1      35.509  23.907  26.201  1.00  0.00     0.033 C 
ATOM      7  C   UNL A   1      36.477  23.042  25.828  1.00  0.00     0.106 C 
ATOM      8  S   UNL A   1      36.313  21.490  25.084  1.00  0.00    -0.027 SA
ATOM      9  C   UNL A   1      37.975  23.237  26.033  1.00  0.00     0.288 C 
ATOM     10  C   UNL A   1      38.000  21.107  25.365  1.00  0.00     0.230 C 
ATOM     11  N   UNL A   1      38.725  22.191  25.777  1.00  0.00    -0.225 N 
ATOM     12  S   UNL A   1      38.590  19.556  25.161  1.00  0.00    -0.026 S 
ATOM     13  H   UNL A   1      39.704  22.187  25.873  1.00  0.00     0.314 HD
ATOM     14  H   UNL A   1      38.006  25.150  26.731  1.00  0.00     0.305 HD
BRANCH   6  15
ATOM     15  C   UNL A   1      34.000  23.860  26.105  1.00  0.00    -0.011 A 
ATOM     16  C   UNL A   1      31.148  23.580  25.995  1.00  0.00     0.161 A 
ATOM     17  C   UNL A   1      31.867  23.154  27.101  1.00  0.00     0.051 A 
ATOM     18  C   UNL A   1      31.809  24.245  24.954  1.00  0.00     0.170 A 
ATOM     19  C   UNL A   1      33.252  23.284  27.143  1.00  0.00     0.013 A 
ATOM     20  C   UNL A   1      33.241  24.348  24.991  1.00  0.00     0.050 A 
BRANCH  16  21
ATOM     21  O   UNL A   1      29.790  23.415  26.047  1.00  0.00    -0.493 OA
ATOM     22  C   UNL A   1      29.409  22.636  27.186  1.00  0.00     0.278 C 
ENDBRANCH  16  21
BRANCH  18  23
ATOM     23  O   UNL A   1      31.176  24.895  23.920  1.00  0.00    -0.492 OA
ATOM     24  C   UNL A   1      30.377  26.040  24.177  1.00  0.00     0.278 C 
ENDBRANCH  18  23
BRANCH  20  25
ATOM     25  C   UNL A   1      33.932  25.035  23.857  1.00  0.00     0.076 C 
ATOM     26  O   UNL A   1      34.322  24.519  22.829  1.00  0.00    -0.545 OA
ATOM     27  O   UNL A   1      34.059  26.366  24.036  1.00  0.00    -0.545 OA
ENDBRANCH  20  25
ENDBRANCH   6  15
ENDBRANCH   4   5
ENDBRANCH   3   4
ENDBRANCH   2   3
ENDBRANCH   1   2
BRANCH   1  28
ATOM     28  C   UNL A   1      42.394  21.401  27.459  1.00  0.00     0.021 C 
BRANCH  28  29
ATOM     29  C   UNL A   1      42.915  21.821  26.088  1.00  0.00     0.116 C 
BRANCH  29  30
ATOM     30  N   UNL A   1      44.280  21.375  25.860  1.00  0.00    -0.352 N 
ATOM     31  C   UNL A   1      45.444  22.103  25.818  1.00  0.00     0.251 C 
ATOM     32  H   UNL A   1      44.386  20.406  25.714  1.00  0.00     0.163 HD
ATOM     33  O   UNL A   1      46.474  21.576  25.408  1.00  0.00    -0.269 OA
BRANCH  31  34
ATOM     34  C   UNL A   1      45.447  23.522  26.242  1.00  0.00     0.039 A 
ATOM     35  C   UNL A   1      45.139  24.508  25.302  1.00  0.00     0.014 A 
ATOM     36  C   UNL A   1      45.759  23.881  27.556  1.00  0.00     0.014 A 
ATOM     37  C   UNL A   1      45.075  25.847  25.699  1.00  0.00     0.010 A 
ATOM     38  C   UNL A   1      45.621  25.206  27.966  1.00  0.00     0.010 A 
ATOM     39  C   UNL A   1      45.275  26.205  27.042  1.00  0.00    -0.014 A 
BRANCH  39  40
ATOM     40  C   UNL A   1      45.128  27.615  27.495  1.00  0.00     0.031 A 
ATOM     41  C   UNL A   1      46.324  28.530  27.525  1.00  0.00     0.074 A 
ATOM     42  C   UNL A   1      43.928  28.059  27.923  1.00  0.00     0.049 A 
ATOM     43  N   UNL A   1      46.415  29.759  27.963  1.00  0.00    -0.248 NA
ATOM     44  C   UNL A   1      47.590  27.981  27.012  1.00  0.00     0.031 C 
ATOM     45  C   UNL A   1      42.699  27.261  27.969  1.00  0.00     0.029 A 
ATOM     46  N   UNL A   1      43.541  29.284  28.408  1.00  0.00    -0.354 N 
ATOM     47  C   UNL A   1      47.740  30.133  27.776  1.00  0.00     0.074 A 
ATOM     48  C   UNL A   1      48.432  28.975  27.251  1.00  0.00     0.031 C 
ATOM     49  C   UNL A   1      41.696  28.023  28.433  1.00  0.00     0.029 A 
ATOM     50  C   UNL A   1      42.214  29.344  28.773  1.00  0.00     0.049 A 
ATOM     51  H   UNL A   1      44.155  30.049  28.488  1.00  0.00     0.167 HD
ATOM     52  C   UNL A   1      48.322  31.339  27.993  1.00  0.00     0.034 A 
ATOM     53  C   UNL A   1      41.501  30.341  29.337  1.00  0.00     0.034 A 
ATOM     54  C   UNL A   1      47.623  32.487  28.516  1.00  0.00     0.049 A 
ATOM     55  C   UNL A   1      42.190  31.654  29.627  1.00  0.00     0.074 A 
ATOM     56  C   UNL A   1      48.115  33.758  28.758  1.00  0.00     0.029 A 
ATOM     57  N   UNL A   1      46.283  32.506  28.881  1.00  0.00    -0.354 N 
ATOM     58  N   UNL A   1      43.440  31.998  29.411  1.00  0.00    -0.248 NA
ATOM     59  C   UNL A   1      41.373  32.717  30.226  1.00  0.00     0.031 C 
ATOM     60  C   UNL A   1      47.096  34.523  29.331  1.00  0.00     0.029 A 
ATOM     61  C   UNL A   1      45.941  33.760  29.367  1.00  0.00     0.049 A 
ATOM     62  H   UNL A   1      45.666  31.743  28.805  1.00  0.00     0.167 HD
ATOM     63  C   UNL A   1      43.540  33.330  29.808  1.00  0.00     0.074 A 
ATOM     64  C   UNL A   1      42.224  33.729  30.256  1.00  0.00     0.031 C 
ATOM     65  C   UNL A   1      44.622  34.149  29.803  1.00  0.00     0.034 A 
BRANCH  52  66
ATOM     66  C   UNL A   1      49.789  31.476  27.670  1.00  0.00     0.023 A 
ATOM     67  C   UNL A   1      50.222  32.023  26.449  1.00  0.00     0.031 A 
ATOM     68  C   UNL A   1      50.768  31.074  28.595  1.00  0.00     0.131 A 
ATOM     69  C   UNL A   1      51.592  32.102  26.163  1.00  0.00     0.055 A 
ATOM     70  C   UNL A   1      52.132  31.228  28.336  1.00  0.00     0.041 A 
ATOM     71  F   UNL A   1      50.417  30.526  29.769  1.00  0.00    -0.206 F 
ATOM     72  C   UNL A   1      52.552  31.735  27.110  1.00  0.00     0.022 A 
BRANCH  69  73
ATOM     73  S   UNL A   1      52.102  32.581  24.490  1.00  0.00     0.124 S 
ATOM     74  O   UNL A   1      51.264  33.754  24.251  1.00  0.00    -0.237 OA
ATOM     75  O   UNL A   1      53.528  32.837  24.655  1.00  0.00    -0.237 OA
ATOM     76  O   UNL A   1      51.767  31.411  23.681  1.00  0.00    -0.744 OA
ENDBRANCH  69  73
ENDBRANCH  52  66
BRANCH  53  77
ATOM     77  C   UNL A   1      40.065  30.148  29.701  1.00  0.00     0.023 A 
ATOM     78  C   UNL A   1      39.647  30.167  31.042  1.00  0.00     0.031 A 
ATOM     79  C   UNL A   1      39.102  29.842  28.721  1.00  0.00     0.131 A 
ATOM     80  C   UNL A   1      38.332  29.805  31.373  1.00  0.00     0.055 A 
ATOM     81  C   UNL A   1      37.775  29.560  29.049  1.00  0.00     0.041 A 
ATOM     82  F   UNL A   1      39.441  29.808  27.422  1.00  0.00    -0.206 F 
ATOM     83  C   UNL A   1      37.389  29.517  30.385  1.00  0.00     0.022 A 
BRANCH  80  84
ATOM     84  S   UNL A   1      37.916  29.564  33.123  1.00  0.00     0.124 S 
ATOM     85  O   UNL A   1      37.338  28.226  33.106  1.00  0.00    -0.237 OA
ATOM     86  O   UNL A   1      39.220  29.692  33.764  1.00  0.00    -0.237 OA
ATOM     87  O   UNL A   1      36.977  30.649  33.400  1.00  0.00    -0.744 OA
ENDBRANCH  80  84
ENDBRANCH  53  77
BRANCH  65  88
ATOM     88  C   UNL A   1      44.407  35.580  30.237  1.00  0.00     0.023 A 
ATOM     89  C   UNL A   1      44.246  35.933  31.588  1.00  0.00     0.031 A 
ATOM     90  C   UNL A   1      44.354  36.606  29.275  1.00  0.00     0.131 A 
ATOM     91  C   UNL A   1      43.978  37.266  31.934  1.00  0.00     0.055 A 
ATOM     92  C   UNL A   1      44.156  37.940  29.632  1.00  0.00     0.041 A 
ATOM     93  F   UNL A   1      44.498  36.328  27.970  1.00  0.00    -0.206 F 
ATOM     94  C   UNL A   1      43.951  38.275  30.967  1.00  0.00     0.022 A 
BRANCH  91  95
ATOM     95  S   UNL A   1      43.561  37.651  33.657  1.00  0.00     0.124 S 
ATOM     96  O   UNL A   1      44.864  37.569  34.309  1.00  0.00    -0.237 OA
ATOM     97  O   UNL A   1      42.986  38.987  33.549  1.00  0.00    -0.237 OA
ATOM     98  O   UNL A   1      42.616  36.598  34.025  1.00  0.00    -0.744 OA
ENDBRANCH  91  95
ENDBRANCH  65  88
ENDBRANCH  39  40
ENDBRANCH  31  34
ENDBRANCH  29  30
ENDBRANCH  28  29
ENDBRANCH   1  28
TORSDOF 19
ENDMDL
