MODEL 1
REMARK VINA RESULT:     -10.6      0.000      0.000
REMARK SMILES O=C(CNC(=O)CNC(=O)OCc1ccccc1)NCCCCCCNC(=O)c1ccc(-c2c3nc(c(-c4cc(S(=O)(=O)[O-])ccc4F)c4ccc([nH]4)c(-c4cc(S(=O)(=O)[O-])ccc4F)c4nc(c(-c5cc(S(=O)(=O)[O-])ccc5F)c5ccc2[nH]5)C=C4)C=C3)cc1
REMARK SMILES IDX 21 1 20 2 19 3 1 4 2 5 3 7 4 8 5 9 6 11 7 12 8 13 9 14 10 16
REMARK SMILES IDX 11 17 12 18 13 19 14 20 18 21 15 22 17 23 16 24 22 25 23 26
REMARK SMILES IDX 24 27 25 28 26 29 27 30 28 32 29 33 30 34 91 35 31 36 90 37
REMARK SMILES IDX 32 38 33 39 34 40 84 41 35 42 89 43 83 44 85 45 36 46 88 47
REMARK SMILES IDX 82 48 81 49 37 51 69 52 49 53 68 54 50 55 53 56 67 57 86 58
REMARK SMILES IDX 51 59 52 60 66 62 87 63 54 64 38 65 39 66 47 67 40 68 46 69
REMARK SMILES IDX 48 70 45 71 41 72 42 73 43 74 44 75 70 76 71 77 79 78 72 79
REMARK SMILES IDX 78 80 80 81 77 82 73 83 74 84 75 85 76 86 55 87 56 88 64 89
REMARK SMILES IDX 57 90 63 91 65 92 62 93 58 94 59 95 60 96 61 97
REMARK H PARENT 19 6 4 10 8 15 26 31 85 50 53 61
REMARK Flexibility Score: inf
ROOT
ATOM      1  C   UNL A   1      33.098  28.485  25.881  1.00  0.00     0.021 C 
ENDROOT
BRANCH   1   2
ATOM      2  C   UNL A   1      33.450  28.450  24.394  1.00  0.00     0.116 C 
BRANCH   2   3
ATOM      3  N   UNL A   1      33.308  27.126  23.814  1.00  0.00    -0.355 N 
ATOM      4  O   UNL A   1      33.673  27.756  21.635  1.00  0.00    -0.273 OA
ATOM      5  C   UNL A   1      33.471  26.877  22.470  1.00  0.00     0.239 C 
ATOM      6  H   UNL A   1      33.085  26.374  24.408  1.00  0.00     0.163 HD
BRANCH   5   7
ATOM      7  C   UNL A   1      33.239  25.422  22.045  1.00  0.00     0.216 C 
BRANCH   7   8
ATOM      8  N   UNL A   1      33.633  24.433  23.043  1.00  0.00    -0.346 N 
ATOM      9  C   UNL A   1      32.867  23.573  23.772  1.00  0.00     0.239 C 
ATOM     10  H   UNL A   1      34.601  24.379  23.215  1.00  0.00     0.164 HD
ATOM     11  O   UNL A   1      33.440  22.714  24.445  1.00  0.00    -0.273 OA
BRANCH   9  12
ATOM     12  C   UNL A   1      31.342  23.656  23.729  1.00  0.00     0.219 C 
BRANCH  12  13
ATOM     13  N   UNL A   1      30.853  24.298  24.932  1.00  0.00    -0.312 N 
ATOM     14  C   UNL A   1      30.114  25.436  25.001  1.00  0.00     0.407 C 
ATOM     15  H   UNL A   1      31.079  23.866  25.787  1.00  0.00     0.167 HD
ATOM     16  O   UNL A   1      29.912  25.992  26.072  1.00  0.00    -0.225 OA
BRANCH  14  17
ATOM     17  O   UNL A   1      29.683  25.864  23.791  1.00  0.00    -0.445 OA
BRANCH  17  18
ATOM     18  C   UNL A   1      28.525  26.713  23.820  1.00  0.00     0.270 C 
BRANCH  18  19
ATOM     19  C   UNL A   1      28.788  28.051  23.175  1.00  0.00    -0.011 A 
ATOM     20  C   UNL A   1      27.722  28.929  22.932  1.00  0.00     0.007 A 
ATOM     21  C   UNL A   1      30.076  28.406  22.755  1.00  0.00     0.007 A 
ATOM     22  C   UNL A   1      27.937  30.125  22.248  1.00  0.00     0.000 A 
ATOM     23  C   UNL A   1      30.287  29.603  22.070  1.00  0.00     0.000 A 
ATOM     24  C   UNL A   1      29.216  30.458  21.811  1.00  0.00     0.000 A 
ENDBRANCH  18  19
ENDBRANCH  17  18
ENDBRANCH  14  17
ENDBRANCH  12  13
ENDBRANCH   9  12
ENDBRANCH   7   8
ENDBRANCH   5   7
ENDBRANCH   2   3
ENDBRANCH   1   2
BRANCH   1  25
ATOM     25  C   UNL A   1      31.747  29.134  26.208  1.00  0.00     0.002 C 
BRANCH  25  26
ATOM     26  C   UNL A   1      31.458  30.465  25.514  1.00  0.00     0.002 C 
BRANCH  26  27
ATOM     27  C   UNL A   1      31.358  31.677  26.440  1.00  0.00     0.021 C 
BRANCH  27  28
ATOM     28  C   UNL A   1      32.696  32.232  26.917  1.00  0.00     0.116 C 
BRANCH  28  29
ATOM     29  N   UNL A   1      32.589  33.600  27.398  1.00  0.00    -0.352 N 
ATOM     30  C   UNL A   1      33.280  34.227  28.406  1.00  0.00     0.251 C 
ATOM     31  H   UNL A   1      31.924  34.158  26.933  1.00  0.00     0.163 HD
ATOM     32  O   UNL A   1      32.910  35.330  28.800  1.00  0.00    -0.269 OA
BRANCH  30  33
ATOM     33  C   UNL A   1      34.451  33.567  29.030  1.00  0.00     0.039 A 
ATOM     34  C   UNL A   1      34.244  32.671  30.080  1.00  0.00     0.014 A 
ATOM     35  C   UNL A   1      35.750  33.841  28.594  1.00  0.00     0.014 A 
ATOM     36  C   UNL A   1      35.335  32.011  30.657  1.00  0.00     0.010 A 
ATOM     37  C   UNL A   1      36.825  33.121  29.111  1.00  0.00     0.010 A 
ATOM     38  C   UNL A   1      36.633  32.207  30.158  1.00  0.00    -0.014 A 
BRANCH  38  39
ATOM     39  C   UNL A   1      37.803  31.501  30.748  1.00  0.00     0.031 A 
ATOM     40  C   UNL A   1      38.280  31.867  32.130  1.00  0.00     0.074 A 
ATOM     41  C   UNL A   1      38.455  30.559  30.035  1.00  0.00     0.049 A 
ATOM     42  N   UNL A   1      39.325  31.431  32.788  1.00  0.00    -0.248 NA
ATOM     43  C   UNL A   1      37.494  32.876  32.856  1.00  0.00     0.031 C 
ATOM     44  C   UNL A   1      38.107  30.133  28.677  1.00  0.00     0.029 A 
ATOM     45  N   UNL A   1      39.552  29.793  30.348  1.00  0.00    -0.354 N 
ATOM     46  C   UNL A   1      39.317  32.108  34.003  1.00  0.00     0.074 A 
ATOM     47  C   UNL A   1      38.212  33.041  33.957  1.00  0.00     0.031 C 
ATOM     48  C   UNL A   1      38.957  29.169  28.286  1.00  0.00     0.029 A 
ATOM     49  C   UNL A   1      39.944  28.942  29.338  1.00  0.00     0.049 A 
ATOM     50  H   UNL A   1      40.015  29.846  31.216  1.00  0.00     0.167 HD
ATOM     51  C   UNL A   1      40.133  31.945  35.073  1.00  0.00     0.034 A 
ATOM     52  C   UNL A   1      40.988  28.093  29.260  1.00  0.00     0.034 A 
ATOM     53  C   UNL A   1      41.229  31.010  35.113  1.00  0.00     0.049 A 
ATOM     54  C   UNL A   1      41.915  27.969  30.448  1.00  0.00     0.074 A 
ATOM     55  C   UNL A   1      42.113  30.760  36.148  1.00  0.00     0.029 A 
ATOM     56  N   UNL A   1      41.592  30.165  34.071  1.00  0.00    -0.354 N 
ATOM     57  N   UNL A   1      41.877  28.603  31.598  1.00  0.00    -0.248 NA
ATOM     58  C   UNL A   1      43.013  27.000  30.336  1.00  0.00     0.031 C 
ATOM     59  C   UNL A   1      43.047  29.816  35.711  1.00  0.00     0.029 A 
ATOM     60  C   UNL A   1      42.694  29.407  34.436  1.00  0.00     0.049 A 
ATOM     61  H   UNL A   1      41.134  30.112  33.201  1.00  0.00     0.167 HD
ATOM     62  C   UNL A   1      42.915  28.070  32.360  1.00  0.00     0.074 A 
ATOM     63  C   UNL A   1      43.547  27.055  31.545  1.00  0.00     0.031 C 
ATOM     64  C   UNL A   1      43.307  28.386  33.620  1.00  0.00     0.034 A 
BRANCH  51  65
ATOM     65  C   UNL A   1      39.870  32.802  36.288  1.00  0.00     0.023 A 
ATOM     66  C   UNL A   1      39.039  32.357  37.334  1.00  0.00     0.031 A 
ATOM     67  C   UNL A   1      40.454  34.074  36.411  1.00  0.00     0.131 A 
ATOM     68  C   UNL A   1      38.769  33.198  38.421  1.00  0.00     0.055 A 
ATOM     69  C   UNL A   1      40.247  34.874  37.536  1.00  0.00     0.041 A 
ATOM     70  F   UNL A   1      41.237  34.564  35.436  1.00  0.00    -0.206 F 
ATOM     71  C   UNL A   1      39.391  34.443  38.545  1.00  0.00     0.022 A 
BRANCH  68  72
ATOM     72  S   UNL A   1      37.495  32.695  39.610  1.00  0.00     0.124 S 
ATOM     73  O   UNL A   1      38.095  31.497  40.192  1.00  0.00    -0.237 OA
ATOM     74  O   UNL A   1      37.403  33.856  40.486  1.00  0.00    -0.237 OA
ATOM     75  O   UNL A   1      36.323  32.451  38.771  1.00  0.00    -0.744 OA
ENDBRANCH  68  72
ENDBRANCH  51  65
BRANCH  52  76
ATOM     76  C   UNL A   1      41.246  27.303  28.017  1.00  0.00     0.023 A 
ATOM     77  C   UNL A   1      40.892  25.946  27.931  1.00  0.00     0.031 A 
ATOM     78  C   UNL A   1      41.939  27.869  26.931  1.00  0.00     0.131 A 
ATOM     79  C   UNL A   1      41.306  25.183  26.828  1.00  0.00     0.055 A 
ATOM     80  C   UNL A   1      42.280  27.123  25.801  1.00  0.00     0.041 A 
ATOM     81  F   UNL A   1      42.305  29.160  26.956  1.00  0.00    -0.206 F 
ATOM     82  C   UNL A   1      41.984  25.764  25.756  1.00  0.00     0.022 A 
BRANCH  79  83
ATOM     83  S   UNL A   1      41.082  23.383  26.889  1.00  0.00     0.124 S 
ATOM     84  O   UNL A   1      41.923  22.945  25.781  1.00  0.00    -0.237 OA
ATOM     85  O   UNL A   1      41.567  23.063  28.228  1.00  0.00    -0.237 OA
ATOM     86  O   UNL A   1      39.645  23.213  26.689  1.00  0.00    -0.744 OA
ENDBRANCH  79  83
ENDBRANCH  52  76
BRANCH  64  87
ATOM     87  C   UNL A   1      44.421  27.565  34.226  1.00  0.00     0.023 A 
ATOM     88  C   UNL A   1      44.189  26.321  34.838  1.00  0.00     0.031 A 
ATOM     89  C   UNL A   1      45.742  28.052  34.203  1.00  0.00     0.131 A 
ATOM     90  C   UNL A   1      45.246  25.640  35.460  1.00  0.00     0.055 A 
ATOM     91  C   UNL A   1      46.802  27.335  34.759  1.00  0.00     0.041 A 
ATOM     92  F   UNL A   1      46.025  29.236  33.635  1.00  0.00    -0.206 F 
ATOM     93  C   UNL A   1      46.554  26.129  35.408  1.00  0.00     0.022 A 
BRANCH  90  94
ATOM     94  S   UNL A   1      44.870  24.162  36.444  1.00  0.00     0.124 S 
ATOM     95  O   UNL A   1      43.758  23.579  35.701  1.00  0.00    -0.237 OA
ATOM     96  O   UNL A   1      46.128  23.426  36.392  1.00  0.00    -0.237 OA
ATOM     97  O   UNL A   1      44.522  24.704  37.757  1.00  0.00    -0.744 OA
ENDBRANCH  90  94
ENDBRANCH  64  87
ENDBRANCH  38  39
ENDBRANCH  30  33
ENDBRANCH  28  29
ENDBRANCH  27  28
ENDBRANCH  26  27
ENDBRANCH  25  26
ENDBRANCH   1  25
TORSDOF 22
ENDMDL
MODEL 2
REMARK VINA RESULT:     -10.5      4.910     10.054
REMARK SMILES O=C(CNC(=O)CNC(=O)OCc1ccccc1)NCCCCCCNC(=O)c1ccc(-c2c3nc(c(-c4cc(S(=O)(=O)[O-])ccc4F)c4ccc([nH]4)c(-c4cc(S(=O)(=O)[O-])ccc4F)c4nc(c(-c5cc(S(=O)(=O)[O-])ccc5F)c5ccc2[nH]5)C=C4)C=C3)cc1
REMARK SMILES IDX 21 1 20 2 19 3 1 4 2 5 3 7 4 8 5 9 6 11 7 12 8 13 9 14 10 16
REMARK SMILES IDX 11 17 12 18 13 19 14 20 18 21 15 22 17 23 16 24 22 25 23 26
REMARK SMILES IDX 24 27 25 28 26 29 27 30 28 32 29 33 30 34 91 35 31 36 90 37
REMARK SMILES IDX 32 38 33 39 34 40 84 41 35 42 89 43 83 44 85 45 36 46 88 47
REMARK SMILES IDX 82 48 81 49 37 51 69 52 49 53 68 54 50 55 53 56 67 57 86 58
REMARK SMILES IDX 51 59 52 60 66 62 87 63 54 64 38 65 39 66 47 67 40 68 46 69
REMARK SMILES IDX 48 70 45 71 41 72 42 73 43 74 44 75 70 76 71 77 79 78 72 79
REMARK SMILES IDX 78 80 80 81 77 82 73 83 74 84 75 85 76 86 55 87 56 88 64 89
REMARK SMILES IDX 57 90 63 91 65 92 62 93 58 94 59 95 60 96 61 97
REMARK H PARENT 19 6 4 10 8 15 26 31 85 50 53 61
REMARK Flexibility Score: inf
ROOT
ATOM      1  C   UNL A   1      33.214  25.510  26.036  1.00  0.00     0.021 C 
ENDROOT
BRANCH   1   2
ATOM      2  C   UNL A   1      34.077  26.742  25.759  1.00  0.00     0.116 C 
BRANCH   2   3
ATOM      3  N   UNL A   1      33.842  27.307  24.442  1.00  0.00    -0.355 N 
ATOM      4  O   UNL A   1      33.216  29.396  25.165  1.00  0.00    -0.273 OA
ATOM      5  C   UNL A   1      33.463  28.616  24.248  1.00  0.00     0.239 C 
ATOM      6  H   UNL A   1      33.959  26.729  23.655  1.00  0.00     0.163 HD
BRANCH   5   7
ATOM      7  C   UNL A   1      33.223  29.014  22.786  1.00  0.00     0.216 C 
BRANCH   7   8
ATOM      8  N   UNL A   1      31.821  29.224  22.443  1.00  0.00    -0.346 N 
ATOM      9  C   UNL A   1      30.813  28.318  22.291  1.00  0.00     0.239 C 
ATOM     10  H   UNL A   1      31.563  30.163  22.299  1.00  0.00     0.164 HD
ATOM     11  O   UNL A   1      29.665  28.745  22.152  1.00  0.00    -0.273 OA
BRANCH   9  12
ATOM     12  C   UNL A   1      31.098  26.818  22.323  1.00  0.00     0.219 C 
BRANCH  12  13
ATOM     13  N   UNL A   1      31.626  26.392  21.042  1.00  0.00    -0.312 N 
ATOM     14  C   UNL A   1      32.651  25.525  20.835  1.00  0.00     0.407 C 
ATOM     15  H   UNL A   1      31.198  26.770  20.240  1.00  0.00     0.167 HD
ATOM     16  O   UNL A   1      33.136  25.379  19.721  1.00  0.00    -0.225 OA
BRANCH  14  17
ATOM     17  O   UNL A   1      33.059  24.904  21.967  1.00  0.00    -0.445 OA
BRANCH  17  18
ATOM     18  C   UNL A   1      33.085  23.470  21.902  1.00  0.00     0.270 C 
BRANCH  18  19
ATOM     19  C   UNL A   1      32.491  22.837  23.135  1.00  0.00    -0.011 A 
ATOM     20  C   UNL A   1      31.395  23.438  23.768  1.00  0.00     0.007 A 
ATOM     21  C   UNL A   1      33.059  21.686  23.697  1.00  0.00     0.007 A 
ATOM     22  C   UNL A   1      30.899  22.918  24.963  1.00  0.00     0.000 A 
ATOM     23  C   UNL A   1      32.561  21.169  24.894  1.00  0.00     0.000 A 
ATOM     24  C   UNL A   1      31.486  21.790  25.529  1.00  0.00     0.000 A 
ENDBRANCH  18  19
ENDBRANCH  17  18
ENDBRANCH  14  17
ENDBRANCH  12  13
ENDBRANCH   9  12
ENDBRANCH   7   8
ENDBRANCH   5   7
ENDBRANCH   2   3
ENDBRANCH   1   2
BRANCH   1  25
ATOM     25  C   UNL A   1      33.999  24.238  26.383  1.00  0.00     0.002 C 
BRANCH  25  26
ATOM     26  C   UNL A   1      35.320  24.043  25.637  1.00  0.00     0.002 C 
BRANCH  26  27
ATOM     27  C   UNL A   1      35.965  22.667  25.800  1.00  0.00     0.021 C 
BRANCH  27  28
ATOM     28  C   UNL A   1      37.217  22.441  24.959  1.00  0.00     0.116 C 
BRANCH  28  29
ATOM     29  N   UNL A   1      38.055  21.378  25.488  1.00  0.00    -0.352 N 
ATOM     30  C   UNL A   1      39.253  21.461  26.157  1.00  0.00     0.251 C 
ATOM     31  H   UNL A   1      37.715  20.465  25.346  1.00  0.00     0.163 HD
ATOM     32  O   UNL A   1      39.912  20.442  26.350  1.00  0.00    -0.269 OA
BRANCH  30  33
ATOM     33  C   UNL A   1      39.758  22.774  26.621  1.00  0.00     0.039 A 
ATOM     34  C   UNL A   1      40.683  22.814  27.666  1.00  0.00     0.014 A 
ATOM     35  C   UNL A   1      39.310  23.965  26.042  1.00  0.00     0.014 A 
ATOM     36  C   UNL A   1      41.197  24.042  28.093  1.00  0.00     0.010 A 
ATOM     37  C   UNL A   1      39.886  25.179  26.410  1.00  0.00     0.010 A 
ATOM     38  C   UNL A   1      40.826  25.235  27.449  1.00  0.00    -0.014 A 
BRANCH  38  39
ATOM     39  C   UNL A   1      41.377  26.550  27.879  1.00  0.00     0.031 A 
ATOM     40  C   UNL A   1      42.818  26.888  27.593  1.00  0.00     0.074 A 
ATOM     41  C   UNL A   1      40.599  27.422  28.553  1.00  0.00     0.049 A 
ATOM     42  N   UNL A   1      43.509  27.938  27.954  1.00  0.00    -0.248 NA
ATOM     43  C   UNL A   1      43.589  25.900  26.823  1.00  0.00     0.031 C 
ATOM     44  C   UNL A   1      39.197  27.201  28.913  1.00  0.00     0.029 A 
ATOM     45  N   UNL A   1      40.876  28.668  29.061  1.00  0.00    -0.354 N 
ATOM     46  C   UNL A   1      44.791  27.741  27.452  1.00  0.00     0.074 A 
ATOM     47  C   UNL A   1      44.802  26.433  26.832  1.00  0.00     0.031 C 
ATOM     48  C   UNL A   1      38.733  28.282  29.561  1.00  0.00     0.029 A 
ATOM     49  C   UNL A   1      39.814  29.252  29.713  1.00  0.00     0.049 A 
ATOM     50  H   UNL A   1      41.755  29.103  28.967  1.00  0.00     0.167 HD
ATOM     51  C   UNL A   1      45.853  28.583  27.474  1.00  0.00     0.034 A 
ATOM     52  C   UNL A   1      39.725  30.424  30.374  1.00  0.00     0.034 A 
ATOM     53  C   UNL A   1      45.833  29.886  28.090  1.00  0.00     0.049 A 
ATOM     54  C   UNL A   1      40.940  31.322  30.429  1.00  0.00     0.074 A 
ATOM     55  C   UNL A   1      46.850  30.821  28.163  1.00  0.00     0.029 A 
ATOM     56  N   UNL A   1      44.737  30.443  28.738  1.00  0.00    -0.354 N 
ATOM     57  N   UNL A   1      42.138  31.125  29.928  1.00  0.00    -0.248 NA
ATOM     58  C   UNL A   1      40.786  32.608  31.122  1.00  0.00     0.031 C 
ATOM     59  C   UNL A   1      46.393  31.911  28.909  1.00  0.00     0.029 A 
ATOM     60  C   UNL A   1      45.061  31.700  29.224  1.00  0.00     0.049 A 
ATOM     61  H   UNL A   1      43.859  30.008  28.837  1.00  0.00     0.167 HD
ATOM     62  C   UNL A   1      42.859  32.285  30.202  1.00  0.00     0.074 A 
ATOM     63  C   UNL A   1      41.958  33.179  30.897  1.00  0.00     0.031 C 
ATOM     64  C   UNL A   1      44.149  32.588  29.903  1.00  0.00     0.034 A 
BRANCH  51  65
ATOM     65  C   UNL A   1      47.128  28.115  26.813  1.00  0.00     0.023 A 
ATOM     66  C   UNL A   1      47.288  28.157  25.416  1.00  0.00     0.031 A 
ATOM     67  C   UNL A   1      48.199  27.627  27.582  1.00  0.00     0.131 A 
ATOM     68  C   UNL A   1      48.460  27.662  24.829  1.00  0.00     0.055 A 
ATOM     69  C   UNL A   1      49.397  27.213  26.996  1.00  0.00     0.041 A 
ATOM     70  F   UNL A   1      48.098  27.541  28.918  1.00  0.00    -0.206 F 
ATOM     71  C   UNL A   1      49.529  27.219  25.611  1.00  0.00     0.022 A 
BRANCH  68  72
ATOM     72  S   UNL A   1      48.520  27.492  23.024  1.00  0.00     0.124 S 
ATOM     73  O   UNL A   1      49.770  28.178  22.706  1.00  0.00    -0.237 OA
ATOM     74  O   UNL A   1      48.520  26.045  22.843  1.00  0.00    -0.237 OA
ATOM     75  O   UNL A   1      47.310  28.177  22.576  1.00  0.00    -0.744 OA
ENDBRANCH  68  72
ENDBRANCH  51  65
BRANCH  52  76
ATOM     76  C   UNL A   1      38.460  30.825  31.063  1.00  0.00     0.023 A 
ATOM     77  C   UNL A   1      37.520  31.657  30.432  1.00  0.00     0.031 A 
ATOM     78  C   UNL A   1      38.217  30.460  32.400  1.00  0.00     0.131 A 
ATOM     79  C   UNL A   1      36.433  32.166  31.160  1.00  0.00     0.055 A 
ATOM     80  C   UNL A   1      37.091  30.906  33.096  1.00  0.00     0.041 A 
ATOM     81  F   UNL A   1      39.078  29.667  33.056  1.00  0.00    -0.206 F 
ATOM     82  C   UNL A   1      36.204  31.784  32.482  1.00  0.00     0.022 A 
BRANCH  79  83
ATOM     83  S   UNL A   1      35.411  33.458  30.400  1.00  0.00     0.124 S 
ATOM     84  O   UNL A   1      36.228  33.846  29.257  1.00  0.00    -0.237 OA
ATOM     85  O   UNL A   1      34.183  32.731  30.095  1.00  0.00    -0.237 OA
ATOM     86  O   UNL A   1      35.294  34.462  31.455  1.00  0.00    -0.744 OA
ENDBRANCH  79  83
ENDBRANCH  52  76
BRANCH  64  87
ATOM     87  C   UNL A   1      44.633  33.976  30.251  1.00  0.00     0.023 A 
ATOM     88  C   UNL A   1      45.276  34.263  31.468  1.00  0.00     0.031 A 
ATOM     89  C   UNL A   1      44.430  35.036  29.347  1.00  0.00     0.131 A 
ATOM     90  C   UNL A   1      45.629  35.586  31.776  1.00  0.00     0.055 A 
ATOM     91  C   UNL A   1      44.849  36.336  29.629  1.00  0.00     0.041 A 
ATOM     92  F   UNL A   1      43.818  34.823  28.170  1.00  0.00    -0.206 F 
ATOM     93  C   UNL A   1      45.438  36.620  30.857  1.00  0.00     0.022 A 
BRANCH  90  94
ATOM     94  S   UNL A   1      46.235  35.957  33.446  1.00  0.00     0.124 S 
ATOM     95  O   UNL A   1      47.445  35.147  33.516  1.00  0.00    -0.237 OA
ATOM     96  O   UNL A   1      46.435  37.401  33.390  1.00  0.00    -0.237 OA
ATOM     97  O   UNL A   1      45.143  35.517  34.313  1.00  0.00    -0.744 OA
ENDBRANCH  90  94
ENDBRANCH  64  87
ENDBRANCH  38  39
ENDBRANCH  30  33
ENDBRANCH  28  29
ENDBRANCH  27  28
ENDBRANCH  26  27
ENDBRANCH  25  26
ENDBRANCH   1  25
TORSDOF 22
ENDMDL
MODEL 3
REMARK VINA RESULT:     -10.3      4.622      9.602
REMARK SMILES O=C(CNC(=O)CNC(=O)OCc1ccccc1)NCCCCCCNC(=O)c1ccc(-c2c3nc(c(-c4cc(S(=O)(=O)[O-])ccc4F)c4ccc([nH]4)c(-c4cc(S(=O)(=O)[O-])ccc4F)c4nc(c(-c5cc(S(=O)(=O)[O-])ccc5F)c5ccc2[nH]5)C=C4)C=C3)cc1
REMARK SMILES IDX 21 1 20 2 19 3 1 4 2 5 3 7 4 8 5 9 6 11 7 12 8 13 9 14 10 16
REMARK SMILES IDX 11 17 12 18 13 19 14 20 18 21 15 22 17 23 16 24 22 25 23 26
REMARK SMILES IDX 24 27 25 28 26 29 27 30 28 32 29 33 30 34 91 35 31 36 90 37
REMARK SMILES IDX 32 38 33 39 34 40 84 41 35 42 89 43 83 44 85 45 36 46 88 47
REMARK SMILES IDX 82 48 81 49 37 51 69 52 49 53 68 54 50 55 53 56 67 57 86 58
REMARK SMILES IDX 51 59 52 60 66 62 87 63 54 64 38 65 39 66 47 67 40 68 46 69
REMARK SMILES IDX 48 70 45 71 41 72 42 73 43 74 44 75 70 76 71 77 79 78 72 79
REMARK SMILES IDX 78 80 80 81 77 82 73 83 74 84 75 85 76 86 55 87 56 88 64 89
REMARK SMILES IDX 57 90 63 91 65 92 62 93 58 94 59 95 60 96 61 97
REMARK H PARENT 19 6 4 10 8 15 26 31 85 50 53 61
REMARK Flexibility Score: inf
ROOT
ATOM      1  C   UNL A   1      33.241  25.595  26.086  1.00  0.00     0.021 C 
ENDROOT
BRANCH   1   2
ATOM      2  C   UNL A   1      34.124  26.829  25.901  1.00  0.00     0.116 C 
BRANCH   2   3
ATOM      3  N   UNL A   1      33.923  27.476  24.616  1.00  0.00    -0.355 N 
ATOM      4  O   UNL A   1      32.632  29.208  25.398  1.00  0.00    -0.273 OA
ATOM      5  C   UNL A   1      33.216  28.648  24.473  1.00  0.00     0.239 C 
ATOM      6  H   UNL A   1      34.308  27.057  23.813  1.00  0.00     0.163 HD
BRANCH   5   7
ATOM      7  C   UNL A   1      33.078  29.153  23.030  1.00  0.00     0.216 C 
BRANCH   7   8
ATOM      8  N   UNL A   1      31.700  29.265  22.563  1.00  0.00    -0.346 N 
ATOM      9  C   UNL A   1      30.775  28.292  22.326  1.00  0.00     0.239 C 
ATOM     10  H   UNL A   1      31.392  30.184  22.393  1.00  0.00     0.164 HD
ATOM     11  O   UNL A   1      29.618  28.639  22.084  1.00  0.00    -0.273 OA
BRANCH   9  12
ATOM     12  C   UNL A   1      31.160  26.815  22.389  1.00  0.00     0.219 C 
BRANCH  12  13
ATOM     13  N   UNL A   1      31.677  26.388  21.105  1.00  0.00    -0.312 N 
ATOM     14  C   UNL A   1      32.662  25.477  20.889  1.00  0.00     0.407 C 
ATOM     15  H   UNL A   1      31.274  26.800  20.307  1.00  0.00     0.167 HD
ATOM     16  O   UNL A   1      33.148  25.327  19.777  1.00  0.00    -0.225 OA
BRANCH  14  17
ATOM     17  O   UNL A   1      33.031  24.817  22.012  1.00  0.00    -0.445 OA
BRANCH  17  18
ATOM     18  C   UNL A   1      32.998  23.384  21.918  1.00  0.00     0.270 C 
BRANCH  18  19
ATOM     19  C   UNL A   1      32.477  22.746  23.182  1.00  0.00    -0.011 A 
ATOM     20  C   UNL A   1      31.360  23.292  23.829  1.00  0.00     0.007 A 
ATOM     21  C   UNL A   1      33.133  21.650  23.756  1.00  0.00     0.007 A 
ATOM     22  C   UNL A   1      30.929  22.772  25.049  1.00  0.00     0.000 A 
ATOM     23  C   UNL A   1      32.700  21.133  24.978  1.00  0.00     0.000 A 
ATOM     24  C   UNL A   1      31.603  21.699  25.627  1.00  0.00     0.000 A 
ENDBRANCH  18  19
ENDBRANCH  17  18
ENDBRANCH  14  17
ENDBRANCH  12  13
ENDBRANCH   9  12
ENDBRANCH   7   8
ENDBRANCH   5   7
ENDBRANCH   2   3
ENDBRANCH   1   2
BRANCH   1  25
ATOM     25  C   UNL A   1      34.006  24.280  26.286  1.00  0.00     0.002 C 
BRANCH  25  26
ATOM     26  C   UNL A   1      35.383  24.200  25.627  1.00  0.00     0.002 C 
BRANCH  26  27
ATOM     27  C   UNL A   1      36.131  22.883  25.834  1.00  0.00     0.021 C 
BRANCH  27  28
ATOM     28  C   UNL A   1      37.468  22.783  25.108  1.00  0.00     0.116 C 
BRANCH  28  29
ATOM     29  N   UNL A   1      38.355  21.803  25.713  1.00  0.00    -0.352 N 
ATOM     30  C   UNL A   1      39.490  21.998  26.463  1.00  0.00     0.251 C 
ATOM     31  H   UNL A   1      38.107  20.862  25.563  1.00  0.00     0.163 HD
ATOM     32  O   UNL A   1      40.219  21.042  26.719  1.00  0.00    -0.269 OA
BRANCH  30  33
ATOM     33  C   UNL A   1      39.845  23.355  26.939  1.00  0.00     0.039 A 
ATOM     34  C   UNL A   1      40.750  23.489  27.994  1.00  0.00     0.014 A 
ATOM     35  C   UNL A   1      39.278  24.494  26.359  1.00  0.00     0.014 A 
ATOM     36  C   UNL A   1      41.123  24.763  28.432  1.00  0.00     0.010 A 
ATOM     37  C   UNL A   1      39.715  25.761  26.739  1.00  0.00     0.010 A 
ATOM     38  C   UNL A   1      40.633  25.912  27.789  1.00  0.00    -0.014 A 
BRANCH  38  39
ATOM     39  C   UNL A   1      41.034  27.277  28.232  1.00  0.00     0.031 A 
ATOM     40  C   UNL A   1      42.487  27.677  28.202  1.00  0.00     0.074 A 
ATOM     41  C   UNL A   1      40.104  28.140  28.689  1.00  0.00     0.049 A 
ATOM     42  N   UNL A   1      43.050  28.782  28.620  1.00  0.00    -0.248 NA
ATOM     43  C   UNL A   1      43.433  26.692  27.655  1.00  0.00     0.031 C 
ATOM     44  C   UNL A   1      38.670  27.863  28.792  1.00  0.00     0.029 A 
ATOM     45  N   UNL A   1      40.225  29.425  29.161  1.00  0.00    -0.354 N 
ATOM     46  C   UNL A   1      44.412  28.627  28.382  1.00  0.00     0.074 A 
ATOM     47  C   UNL A   1      44.597  27.291  27.859  1.00  0.00     0.031 C 
ATOM     48  C   UNL A   1      38.044  28.951  29.271  1.00  0.00     0.029 A 
ATOM     49  C   UNL A   1      39.032  29.985  29.563  1.00  0.00     0.049 A 
ATOM     50  H   UNL A   1      41.086  29.902  29.207  1.00  0.00     0.167 HD
ATOM     51  C   UNL A   1      45.412  29.526  28.550  1.00  0.00     0.034 A 
ATOM     52  C   UNL A   1      38.768  31.185  30.119  1.00  0.00     0.034 A 
ATOM     53  C   UNL A   1      45.218  30.857  29.067  1.00  0.00     0.049 A 
ATOM     54  C   UNL A   1      39.910  32.148  30.345  1.00  0.00     0.074 A 
ATOM     55  C   UNL A   1      46.161  31.849  29.272  1.00  0.00     0.029 A 
ATOM     56  N   UNL A   1      43.995  31.388  29.460  1.00  0.00    -0.354 N 
ATOM     57  N   UNL A   1      41.189  31.991  30.093  1.00  0.00    -0.248 NA
ATOM     58  C   UNL A   1      39.571  33.460  30.914  1.00  0.00     0.031 C 
ATOM     59  C   UNL A   1      45.523  32.951  29.847  1.00  0.00     0.029 A 
ATOM     60  C   UNL A   1      44.166  32.685  29.918  1.00  0.00     0.049 A 
ATOM     61  H   UNL A   1      43.134  30.912  29.419  1.00  0.00     0.167 HD
ATOM     62  C   UNL A   1      41.794  33.202  30.425  1.00  0.00     0.074 A 
ATOM     63  C   UNL A   1      40.739  34.081  30.879  1.00  0.00     0.031 C 
ATOM     64  C   UNL A   1      43.102  33.557  30.355  1.00  0.00     0.034 A 
BRANCH  51  65
ATOM     65  C   UNL A   1      46.809  29.094  28.173  1.00  0.00     0.023 A 
ATOM     66  C   UNL A   1      47.673  28.503  29.113  1.00  0.00     0.031 A 
ATOM     67  C   UNL A   1      47.286  29.267  26.862  1.00  0.00     0.131 A 
ATOM     68  C   UNL A   1      48.983  28.164  28.747  1.00  0.00     0.055 A 
ATOM     69  C   UNL A   1      48.564  28.851  26.482  1.00  0.00     0.041 A 
ATOM     70  F   UNL A   1      46.517  29.845  25.926  1.00  0.00    -0.206 F 
ATOM     71  C   UNL A   1      49.425  28.306  27.430  1.00  0.00     0.022 A 
BRANCH  68  72
ATOM     72  S   UNL A   1      50.140  27.652  30.046  1.00  0.00     0.124 S 
ATOM     73  O   UNL A   1      50.196  26.207  29.836  1.00  0.00    -0.237 OA
ATOM     74  O   UNL A   1      51.347  28.396  29.706  1.00  0.00    -0.237 OA
ATOM     75  O   UNL A   1      49.476  28.070  31.280  1.00  0.00    -0.744 OA
ENDBRANCH  68  72
ENDBRANCH  51  65
BRANCH  52  76
ATOM     76  C   UNL A   1      37.378  31.553  30.530  1.00  0.00     0.023 A 
ATOM     77  C   UNL A   1      36.499  32.185  29.636  1.00  0.00     0.031 A 
ATOM     78  C   UNL A   1      36.942  31.364  31.854  1.00  0.00     0.131 A 
ATOM     79  C   UNL A   1      35.269  32.682  30.095  1.00  0.00     0.055 A 
ATOM     80  C   UNL A   1      35.684  31.791  32.286  1.00  0.00     0.041 A 
ATOM     81  F   UNL A   1      37.737  30.766  32.755  1.00  0.00    -0.206 F 
ATOM     82  C   UNL A   1      34.849  32.477  31.410  1.00  0.00     0.022 A 
BRANCH  79  83
ATOM     83  S   UNL A   1      34.295  33.740  28.988  1.00  0.00     0.124 S 
ATOM     84  O   UNL A   1      35.318  34.637  28.463  1.00  0.00    -0.237 OA
ATOM     85  O   UNL A   1      33.748  32.769  28.047  1.00  0.00    -0.237 OA
ATOM     86  O   UNL A   1      33.319  34.359  29.882  1.00  0.00    -0.744 OA
ENDBRANCH  79  83
ENDBRANCH  52  76
BRANCH  64  87
ATOM     87  C   UNL A   1      43.451  34.987  30.700  1.00  0.00     0.023 A 
ATOM     88  C   UNL A   1      43.709  35.399  32.019  1.00  0.00     0.031 A 
ATOM     89  C   UNL A   1      43.509  35.958  29.683  1.00  0.00     0.131 A 
ATOM     90  C   UNL A   1      43.943  36.755  32.294  1.00  0.00     0.055 A 
ATOM     91  C   UNL A   1      43.816  37.292  29.953  1.00  0.00     0.041 A 
ATOM     92  F   UNL A   1      43.269  35.624  28.404  1.00  0.00    -0.206 F 
ATOM     93  C   UNL A   1      44.018  37.700  31.268  1.00  0.00     0.022 A 
BRANCH  90  94
ATOM     94  S   UNL A   1      44.033  37.288  34.026  1.00  0.00     0.124 S 
ATOM     95  O   UNL A   1      44.830  38.506  33.926  1.00  0.00    -0.237 OA
ATOM     96  O   UNL A   1      42.627  37.471  34.368  1.00  0.00    -0.237 OA
ATOM     97  O   UNL A   1      44.694  36.169  34.696  1.00  0.00    -0.744 OA
ENDBRANCH  90  94
ENDBRANCH  64  87
ENDBRANCH  38  39
ENDBRANCH  30  33
ENDBRANCH  28  29
ENDBRANCH  27  28
ENDBRANCH  26  27
ENDBRANCH  25  26
ENDBRANCH   1  25
TORSDOF 22
ENDMDL
