MODEL 1
REMARK VINA RESULT:     -10.3      0.000      0.000
REMARK SMILES CS(=O)(=O)c1ccc(-n2nc(C(F)(F)F)cc2-c2ccc(CC(=O)NCCCCCCNC(=O)c3ccc(-c4c5nc(c(-c6cc(S(=O)(=O)[O-])ccc6F)c6ccc([nH]6)c(-c6cc(S(=O)(=O)[O-])ccc6F)c6nc(c(-c7cc(S(=O)(=O)[O-])ccc7F)c7ccc4[nH]7)C=C6)C=C5)cc3)cc2)cc1
REMARK SMILES IDX 28 1 27 2 26 3 25 4 23 5 24 6 22 8 21 9 18 10 19 11 99 12
REMARK SMILES IDX 20 13 98 14 17 15 9 16 10 17 11 18 16 19 8 20 5 21 6 22
REMARK SMILES IDX 101 23 7 24 100 25 2 26 1 27 3 28 4 29 12 30 13 31 14 32
REMARK SMILES IDX 15 33 29 34 30 35 31 36 32 37 33 38 34 40 35 41 36 42 97 43
REMARK SMILES IDX 37 44 96 45 38 46 39 47 40 48 90 49 41 50 95 51 89 52 91 53
REMARK SMILES IDX 42 54 94 55 88 56 87 57 43 59 75 60 55 61 74 62 56 63 59 64
REMARK SMILES IDX 73 65 92 66 57 67 58 68 72 70 93 71 60 72 44 73 45 74 53 75
REMARK SMILES IDX 46 76 52 77 54 78 51 79 47 80 48 81 49 82 50 83 76 84 77 85
REMARK SMILES IDX 85 86 78 87 84 88 86 89 83 90 79 91 80 92 81 93 82 94 61 95
REMARK SMILES IDX 62 96 70 97 63 98 69 99 71 100 68 101 64 102 65 103 66 104
REMARK SMILES IDX 67 105
REMARK H PARENT 25 7 32 39 91 58 59 69
REMARK Flexibility Score: inf
ROOT
ATOM      1  C   UNL A   1      45.059  30.855  27.807  1.00  0.00     0.002 C 
ENDROOT
BRANCH   1   2
ATOM      2  C   UNL A   1      46.131  30.480  28.839  1.00  0.00     0.021 C 
BRANCH   2   3
ATOM      3  C   UNL A   1      45.621  29.622  29.996  1.00  0.00     0.116 C 
BRANCH   3   4
ATOM      4  N   UNL A   1      46.623  28.668  30.434  1.00  0.00    -0.356 N 
ATOM      5  C   UNL A   1      46.511  27.620  31.301  1.00  0.00     0.224 C 
ATOM      6  O   UNL A   1      47.528  26.980  31.578  1.00  0.00    -0.275 OA
ATOM      7  H   UNL A   1      47.519  28.797  30.049  1.00  0.00     0.163 HD
BRANCH   5   8
ATOM      8  C   UNL A   1      45.154  27.213  31.849  1.00  0.00     0.135 C 
BRANCH   8   9
ATOM      9  C   UNL A   1      44.414  26.212  31.003  1.00  0.00    -0.039 A 
ATOM     10  C   UNL A   1      43.190  24.369  29.305  1.00  0.00     0.000 A 
ATOM     11  C   UNL A   1      42.770  25.698  29.304  1.00  0.00     0.010 A 
ATOM     12  C   UNL A   1      44.170  23.943  30.205  1.00  0.00     0.010 A 
ATOM     13  C   UNL A   1      43.391  26.622  30.140  1.00  0.00     0.005 A 
ATOM     14  C   UNL A   1      44.764  24.856  31.065  1.00  0.00     0.005 A 
BRANCH  10  15
ATOM     15  C   UNL A   1      42.763  23.434  28.287  1.00  0.00     0.075 A 
ATOM     16  N   UNL A   1      43.440  23.290  27.090  1.00  0.00    -0.233 N 
ATOM     17  N   UNL A   1      43.202  22.073  26.541  1.00  0.00    -0.163 NA
ATOM     18  C   UNL A   1      42.101  21.620  27.178  1.00  0.00     0.167 A 
ATOM     19  C   UNL A   1      41.853  22.401  28.336  1.00  0.00     0.064 A 
BRANCH  16  20
ATOM     20  C   UNL A   1      44.197  24.294  26.426  1.00  0.00     0.065 A 
ATOM     21  C   UNL A   1      45.745  26.364  25.365  1.00  0.00     0.067 A 
ATOM     22  C   UNL A   1      44.353  26.372  25.213  1.00  0.00     0.022 A 
ATOM     23  C   UNL A   1      46.371  25.321  26.038  1.00  0.00     0.022 A 
ATOM     24  C   UNL A   1      43.567  25.358  25.783  1.00  0.00     0.030 A 
ATOM     25  C   UNL A   1      45.602  24.266  26.529  1.00  0.00     0.030 A 
BRANCH  21  26
ATOM     26  S   UNL A   1      46.735  27.699  24.727  1.00  0.00     0.175 S 
ATOM     27  C   UNL A   1      48.254  27.608  25.625  1.00  0.00     0.163 C 
ATOM     28  O   UNL A   1      46.101  28.945  25.135  1.00  0.00    -0.224 OA
ATOM     29  O   UNL A   1      47.033  27.412  23.347  1.00  0.00    -0.224 OA
ENDBRANCH  21  26
ENDBRANCH  16  20
BRANCH  18  30
ATOM     30  C   UNL A   1      41.280  20.433  26.730  1.00  0.00     0.435 C 
ATOM     31  F   UNL A   1      41.870  19.780  25.695  1.00  0.00    -0.164 F 
ATOM     32  F   UNL A   1      41.036  19.524  27.706  1.00  0.00    -0.164 F 
ATOM     33  F   UNL A   1      40.060  20.839  26.266  1.00  0.00    -0.164 F 
ENDBRANCH  18  30
ENDBRANCH  10  15
ENDBRANCH   8   9
ENDBRANCH   5   8
ENDBRANCH   3   4
ENDBRANCH   2   3
ENDBRANCH   1   2
BRANCH   1  34
ATOM     34  C   UNL A   1      45.465  31.882  26.739  1.00  0.00     0.002 C 
BRANCH  34  35
ATOM     35  C   UNL A   1      44.329  32.512  25.919  1.00  0.00     0.021 C 
BRANCH  35  36
ATOM     36  C   UNL A   1      44.497  33.999  25.647  1.00  0.00     0.116 C 
BRANCH  36  37
ATOM     37  N   UNL A   1      45.623  34.597  26.375  1.00  0.00    -0.352 N 
ATOM     38  C   UNL A   1      45.600  35.297  27.575  1.00  0.00     0.251 C 
ATOM     39  H   UNL A   1      46.509  34.488  25.959  1.00  0.00     0.163 HD
ATOM     40  O   UNL A   1      46.498  36.087  27.848  1.00  0.00    -0.269 OA
BRANCH  38  41
ATOM     41  C   UNL A   1      44.481  35.059  28.509  1.00  0.00     0.039 A 
ATOM     42  C   UNL A   1      43.280  35.774  28.489  1.00  0.00     0.014 A 
ATOM     43  C   UNL A   1      44.655  34.026  29.418  1.00  0.00     0.014 A 
ATOM     44  C   UNL A   1      42.254  35.387  29.361  1.00  0.00     0.010 A 
ATOM     45  C   UNL A   1      43.571  33.486  30.043  1.00  0.00     0.010 A 
ATOM     46  C   UNL A   1      42.413  34.230  30.140  1.00  0.00    -0.014 A 
BRANCH  46  47
ATOM     47  C   UNL A   1      41.382  33.672  31.012  1.00  0.00     0.031 A 
ATOM     48  C   UNL A   1      41.781  33.615  32.436  1.00  0.00     0.074 A 
ATOM     49  C   UNL A   1      40.097  33.475  30.615  1.00  0.00     0.049 A 
ATOM     50  N   UNL A   1      42.111  32.569  33.113  1.00  0.00    -0.248 NA
ATOM     51  C   UNL A   1      42.037  34.881  33.141  1.00  0.00     0.031 C 
ATOM     52  C   UNL A   1      39.492  33.764  29.311  1.00  0.00     0.029 A 
ATOM     53  N   UNL A   1      39.021  33.045  31.334  1.00  0.00    -0.354 N 
ATOM     54  C   UNL A   1      42.335  33.016  34.409  1.00  0.00     0.074 A 
ATOM     55  C   UNL A   1      42.531  34.434  34.298  1.00  0.00     0.031 C 
ATOM     56  C   UNL A   1      38.142  33.689  29.394  1.00  0.00     0.029 A 
ATOM     57  C   UNL A   1      37.773  33.190  30.708  1.00  0.00     0.049 A 
ATOM     58  H   UNL A   1      39.114  32.658  32.234  1.00  0.00     0.167 HD
ATOM     59  C   UNL A   1      42.052  32.217  35.478  1.00  0.00     0.034 A 
ATOM     60  C   UNL A   1      36.531  32.923  31.228  1.00  0.00     0.034 A 
ATOM     61  C   UNL A   1      41.857  30.844  35.050  1.00  0.00     0.049 A 
ATOM     62  C   UNL A   1      36.759  31.995  32.355  1.00  0.00     0.074 A 
ATOM     63  C   UNL A   1      42.629  29.922  34.366  1.00  0.00     0.029 A 
ATOM     64  N   UNL A   1      40.561  30.383  34.936  1.00  0.00    -0.354 N 
ATOM     65  N   UNL A   1      37.185  30.777  32.172  1.00  0.00    -0.248 NA
ATOM     66  C   UNL A   1      37.040  32.563  33.668  1.00  0.00     0.031 C 
ATOM     67  C   UNL A   1      41.727  29.287  33.461  1.00  0.00     0.029 A 
ATOM     68  C   UNL A   1      40.445  29.782  33.705  1.00  0.00     0.049 A 
ATOM     69  H   UNL A   1      39.851  30.468  35.613  1.00  0.00     0.167 HD
ATOM     70  C   UNL A   1      38.157  30.595  33.141  1.00  0.00     0.074 A 
ATOM     71  C   UNL A   1      37.946  31.680  34.103  1.00  0.00     0.031 C 
ATOM     72  C   UNL A   1      39.227  29.777  32.918  1.00  0.00     0.034 A 
BRANCH  59  73
ATOM     73  C   UNL A   1      41.556  32.710  36.824  1.00  0.00     0.023 A 
ATOM     74  C   UNL A   1      40.828  33.915  36.823  1.00  0.00     0.031 A 
ATOM     75  C   UNL A   1      41.977  32.254  38.094  1.00  0.00     0.131 A 
ATOM     76  C   UNL A   1      40.667  34.666  38.000  1.00  0.00     0.055 A 
ATOM     77  C   UNL A   1      41.758  32.974  39.272  1.00  0.00     0.041 A 
ATOM     78  F   UNL A   1      42.689  31.138  38.274  1.00  0.00    -0.206 F 
ATOM     79  C   UNL A   1      41.135  34.207  39.226  1.00  0.00     0.022 A 
BRANCH  76  80
ATOM     80  S   UNL A   1      40.002  36.343  37.858  1.00  0.00     0.124 S 
ATOM     81  O   UNL A   1      38.914  36.311  38.829  1.00  0.00    -0.237 OA
ATOM     82  O   UNL A   1      41.161  37.153  38.214  1.00  0.00    -0.237 OA
ATOM     83  O   UNL A   1      39.588  36.424  36.459  1.00  0.00    -0.744 OA
ENDBRANCH  76  80
ENDBRANCH  59  73
BRANCH  60  84
ATOM     84  C   UNL A   1      35.232  33.652  31.026  1.00  0.00     0.023 A 
ATOM     85  C   UNL A   1      34.688  34.686  31.825  1.00  0.00     0.031 A 
ATOM     86  C   UNL A   1      34.621  33.482  29.778  1.00  0.00     0.131 A 
ATOM     87  C   UNL A   1      33.589  35.469  31.354  1.00  0.00     0.055 A 
ATOM     88  C   UNL A   1      33.570  34.272  29.306  1.00  0.00     0.041 A 
ATOM     89  F   UNL A   1      35.119  32.576  28.938  1.00  0.00    -0.206 F 
ATOM     90  C   UNL A   1      33.046  35.272  30.089  1.00  0.00     0.022 A 
BRANCH  87  91
ATOM     91  S   UNL A   1      32.870  36.839  32.322  1.00  0.00     0.124 S 
ATOM     92  O   UNL A   1      31.520  36.355  32.585  1.00  0.00    -0.237 OA
ATOM     93  O   UNL A   1      33.767  36.930  33.467  1.00  0.00    -0.237 OA
ATOM     94  O   UNL A   1      32.935  37.981  31.406  1.00  0.00    -0.744 OA
ENDBRANCH  87  91
ENDBRANCH  60  84
BRANCH  72  95
ATOM     95  C   UNL A   1      39.224  28.940  31.650  1.00  0.00     0.023 A 
ATOM     96  C   UNL A   1      39.820  29.324  30.422  1.00  0.00     0.031 A 
ATOM     97  C   UNL A   1      38.692  27.645  31.737  1.00  0.00     0.131 A 
ATOM     98  C   UNL A   1      39.856  28.420  29.340  1.00  0.00     0.055 A 
ATOM     99  C   UNL A   1      38.743  26.750  30.669  1.00  0.00     0.041 A 
ATOM    100  F   UNL A   1      38.142  27.213  32.883  1.00  0.00    -0.206 F 
ATOM    101  C   UNL A   1      39.322  27.135  29.464  1.00  0.00     0.022 A 
BRANCH  98 102
ATOM    102  S   UNL A   1      40.598  28.897  27.740  1.00  0.00     0.124 S 
ATOM    103  O   UNL A   1      41.960  29.269  28.099  1.00  0.00    -0.237 OA
ATOM    104  O   UNL A   1      40.447  27.681  26.946  1.00  0.00    -0.237 OA
ATOM    105  O   UNL A   1      39.759  30.013  27.297  1.00  0.00    -0.744 OA
ENDBRANCH  98 102
ENDBRANCH  72  95
ENDBRANCH  46  47
ENDBRANCH  38  41
ENDBRANCH  36  37
ENDBRANCH  35  36
ENDBRANCH  34  35
ENDBRANCH   1  34
TORSDOF 21
ENDMDL
MODEL 2
REMARK VINA RESULT:     -10.2      5.687     11.124
REMARK SMILES CS(=O)(=O)c1ccc(-n2nc(C(F)(F)F)cc2-c2ccc(CC(=O)NCCCCCCNC(=O)c3ccc(-c4c5nc(c(-c6cc(S(=O)(=O)[O-])ccc6F)c6ccc([nH]6)c(-c6cc(S(=O)(=O)[O-])ccc6F)c6nc(c(-c7cc(S(=O)(=O)[O-])ccc7F)c7ccc4[nH]7)C=C6)C=C5)cc3)cc2)cc1
REMARK SMILES IDX 28 1 27 2 26 3 25 4 23 5 24 6 22 8 21 9 18 10 19 11 99 12
REMARK SMILES IDX 20 13 98 14 17 15 9 16 10 17 11 18 16 19 8 20 5 21 6 22
REMARK SMILES IDX 101 23 7 24 100 25 2 26 1 27 3 28 4 29 12 30 13 31 14 32
REMARK SMILES IDX 15 33 29 34 30 35 31 36 32 37 33 38 34 40 35 41 36 42 97 43
REMARK SMILES IDX 37 44 96 45 38 46 39 47 40 48 90 49 41 50 95 51 89 52 91 53
REMARK SMILES IDX 42 54 94 55 88 56 87 57 43 59 75 60 55 61 74 62 56 63 59 64
REMARK SMILES IDX 73 65 92 66 57 67 58 68 72 70 93 71 60 72 44 73 45 74 53 75
REMARK SMILES IDX 46 76 52 77 54 78 51 79 47 80 48 81 49 82 50 83 76 84 77 85
REMARK SMILES IDX 85 86 78 87 84 88 86 89 83 90 79 91 80 92 81 93 82 94 61 95
REMARK SMILES IDX 62 96 70 97 63 98 69 99 71 100 68 101 64 102 65 103 66 104
REMARK SMILES IDX 67 105
REMARK H PARENT 25 7 32 39 91 58 59 69
REMARK Flexibility Score: inf
ROOT
ATOM      1  C   UNL A   1      35.235  33.653  30.348  1.00  0.00     0.002 C 
ENDROOT
BRANCH   1   2
ATOM      2  C   UNL A   1      36.496  33.412  29.508  1.00  0.00     0.021 C 
BRANCH   2   3
ATOM      3  C   UNL A   1      36.293  32.473  28.319  1.00  0.00     0.116 C 
BRANCH   3   4
ATOM      4  N   UNL A   1      34.905  32.442  27.895  1.00  0.00    -0.356 N 
ATOM      5  C   UNL A   1      34.091  31.376  27.650  1.00  0.00     0.224 C 
ATOM      6  O   UNL A   1      32.953  31.596  27.228  1.00  0.00    -0.275 OA
ATOM      7  H   UNL A   1      34.489  33.324  27.765  1.00  0.00     0.163 HD
BRANCH   5   8
ATOM      8  C   UNL A   1      34.554  29.963  27.959  1.00  0.00     0.135 C 
BRANCH   8   9
ATOM      9  C   UNL A   1      33.954  28.902  27.076  1.00  0.00    -0.039 A 
ATOM     10  C   UNL A   1      32.942  26.803  25.544  1.00  0.00     0.000 A 
ATOM     11  C   UNL A   1      34.007  27.562  25.062  1.00  0.00     0.010 A 
ATOM     12  C   UNL A   1      32.333  27.137  26.756  1.00  0.00     0.010 A 
ATOM     13  C   UNL A   1      34.523  28.600  25.833  1.00  0.00     0.005 A 
ATOM     14  C   UNL A   1      32.823  28.196  27.508  1.00  0.00     0.005 A 
BRANCH  10  15
ATOM     15  C   UNL A   1      32.539  25.567  24.910  1.00  0.00     0.075 A 
ATOM     16  N   UNL A   1      31.769  25.546  23.762  1.00  0.00    -0.233 N 
ATOM     17  N   UNL A   1      31.939  24.383  23.086  1.00  0.00    -0.163 NA
ATOM     18  C   UNL A   1      32.496  23.542  23.983  1.00  0.00     0.167 A 
ATOM     19  C   UNL A   1      32.969  24.272  25.104  1.00  0.00     0.064 A 
BRANCH  16  20
ATOM     20  C   UNL A   1      30.824  26.531  23.365  1.00  0.00     0.065 A 
ATOM     21  C   UNL A   1      29.089  28.636  22.757  1.00  0.00     0.067 A 
ATOM     22  C   UNL A   1      28.630  27.525  23.475  1.00  0.00     0.022 A 
ATOM     23  C   UNL A   1      30.412  28.697  22.332  1.00  0.00     0.022 A 
ATOM     24  C   UNL A   1      29.508  26.486  23.822  1.00  0.00     0.030 A 
ATOM     25  C   UNL A   1      31.267  27.627  22.598  1.00  0.00     0.030 A 
BRANCH  21  26
ATOM     26  S   UNL A   1      28.002  29.999  22.399  1.00  0.00     0.175 S 
ATOM     27  C   UNL A   1      28.860  31.430  22.980  1.00  0.00     0.163 C 
ATOM     28  O   UNL A   1      26.831  29.857  23.254  1.00  0.00    -0.224 OA
ATOM     29  O   UNL A   1      27.891  30.115  20.968  1.00  0.00    -0.224 OA
ENDBRANCH  21  26
ENDBRANCH  16  20
BRANCH  18  30
ATOM     30  C   UNL A   1      32.621  22.048  23.795  1.00  0.00     0.435 C 
ATOM     31  F   UNL A   1      33.873  21.611  24.087  1.00  0.00    -0.164 F 
ATOM     32  F   UNL A   1      31.747  21.319  24.531  1.00  0.00    -0.164 F 
ATOM     33  F   UNL A   1      32.403  21.708  22.489  1.00  0.00    -0.164 F 
ENDBRANCH  18  30
ENDBRANCH  10  15
ENDBRANCH   8   9
ENDBRANCH   5   8
ENDBRANCH   3   4
ENDBRANCH   2   3
ENDBRANCH   1   2
BRANCH   1  34
ATOM     34  C   UNL A   1      34.826  32.527  31.309  1.00  0.00     0.002 C 
BRANCH  34  35
ATOM     35  C   UNL A   1      34.371  32.949  32.714  1.00  0.00     0.021 C 
BRANCH  35  36
ATOM     36  C   UNL A   1      34.779  34.361  33.111  1.00  0.00     0.116 C 
BRANCH  36  37
ATOM     37  N   UNL A   1      35.081  34.495  34.542  1.00  0.00    -0.352 N 
ATOM     38  C   UNL A   1      36.069  33.853  35.278  1.00  0.00     0.251 C 
ATOM     39  H   UNL A   1      34.511  35.122  35.043  1.00  0.00     0.163 HD
ATOM     40  O   UNL A   1      35.950  33.723  36.491  1.00  0.00    -0.269 OA
BRANCH  38  41
ATOM     41  C   UNL A   1      37.261  33.345  34.568  1.00  0.00     0.039 A 
ATOM     42  C   UNL A   1      37.751  32.042  34.694  1.00  0.00     0.014 A 
ATOM     43  C   UNL A   1      37.877  34.234  33.699  1.00  0.00     0.014 A 
ATOM     44  C   UNL A   1      38.829  31.650  33.891  1.00  0.00     0.010 A 
ATOM     45  C   UNL A   1      38.718  33.763  32.736  1.00  0.00     0.010 A 
ATOM     46  C   UNL A   1      39.309  32.528  32.906  1.00  0.00    -0.014 A 
BRANCH  46  47
ATOM     47  C   UNL A   1      40.360  32.199  31.945  1.00  0.00     0.031 A 
ATOM     48  C   UNL A   1      40.125  30.925  31.230  1.00  0.00     0.074 A 
ATOM     49  C   UNL A   1      41.310  33.084  31.548  1.00  0.00     0.049 A 
ATOM     50  N   UNL A   1      40.734  29.803  31.413  1.00  0.00    -0.248 NA
ATOM     51  C   UNL A   1      38.949  30.822  30.350  1.00  0.00     0.031 C 
ATOM     52  C   UNL A   1      41.483  34.481  31.959  1.00  0.00     0.029 A 
ATOM     53  N   UNL A   1      42.290  32.945  30.609  1.00  0.00    -0.354 N 
ATOM     54  C   UNL A   1      40.212  28.933  30.465  1.00  0.00     0.074 A 
ATOM     55  C   UNL A   1      38.973  29.524  30.042  1.00  0.00     0.031 C 
ATOM     56  C   UNL A   1      42.366  35.104  31.142  1.00  0.00     0.029 A 
ATOM     57  C   UNL A   1      42.954  34.126  30.242  1.00  0.00     0.049 A 
ATOM     58  H   UNL A   1      42.518  32.072  30.215  1.00  0.00     0.167 HD
ATOM     59  C   UNL A   1      40.990  27.958  29.913  1.00  0.00     0.034 A 
ATOM     60  C   UNL A   1      43.911  34.291  29.272  1.00  0.00     0.034 A 
ATOM     61  C   UNL A   1      42.206  27.780  30.684  1.00  0.00     0.049 A 
ATOM     62  C   UNL A   1      44.478  32.946  29.036  1.00  0.00     0.074 A 
ATOM     63  C   UNL A   1      42.480  27.469  32.004  1.00  0.00     0.029 A 
ATOM     64  N   UNL A   1      43.366  28.350  30.201  1.00  0.00    -0.354 N 
ATOM     65  N   UNL A   1      45.186  32.326  29.938  1.00  0.00    -0.248 NA
ATOM     66  C   UNL A   1      43.824  32.086  28.057  1.00  0.00     0.031 C 
ATOM     67  C   UNL A   1      43.556  28.333  32.368  1.00  0.00     0.029 A 
ATOM     68  C   UNL A   1      43.943  29.049  31.234  1.00  0.00     0.049 A 
ATOM     69  H   UNL A   1      43.715  28.271  29.284  1.00  0.00     0.167 HD
ATOM     70  C   UNL A   1      44.712  31.026  29.925  1.00  0.00     0.074 A 
ATOM     71  C   UNL A   1      43.958  30.906  28.674  1.00  0.00     0.031 C 
ATOM     72  C   UNL A   1      44.710  30.266  31.060  1.00  0.00     0.034 A 
BRANCH  59  73
ATOM     73  C   UNL A   1      40.870  27.454  28.487  1.00  0.00     0.023 A 
ATOM     74  C   UNL A   1      40.755  26.061  28.321  1.00  0.00     0.031 A 
ATOM     75  C   UNL A   1      41.141  28.187  27.310  1.00  0.00     0.131 A 
ATOM     76  C   UNL A   1      41.035  25.452  27.085  1.00  0.00     0.055 A 
ATOM     77  C   UNL A   1      41.355  27.581  26.068  1.00  0.00     0.041 A 
ATOM     78  F   UNL A   1      41.295  29.514  27.290  1.00  0.00    -0.206 F 
ATOM     79  C   UNL A   1      41.343  26.203  25.957  1.00  0.00     0.022 A 
BRANCH  76  80
ATOM     80  S   UNL A   1      41.175  23.648  27.036  1.00  0.00     0.124 S 
ATOM     81  O   UNL A   1      41.690  23.357  28.369  1.00  0.00    -0.237 OA
ATOM     82  O   UNL A   1      39.796  23.250  26.776  1.00  0.00    -0.237 OA
ATOM     83  O   UNL A   1      42.110  23.412  25.939  1.00  0.00    -0.744 OA
ENDBRANCH  76  80
ENDBRANCH  59  73
BRANCH  60  84
ATOM     84  C   UNL A   1      44.134  35.442  28.332  1.00  0.00     0.023 A 
ATOM     85  C   UNL A   1      43.288  36.557  28.116  1.00  0.00     0.031 A 
ATOM     86  C   UNL A   1      45.427  35.569  27.813  1.00  0.00     0.131 A 
ATOM     87  C   UNL A   1      43.762  37.703  27.405  1.00  0.00     0.055 A 
ATOM     88  C   UNL A   1      45.898  36.704  27.149  1.00  0.00     0.041 A 
ATOM     89  F   UNL A   1      46.305  34.592  28.035  1.00  0.00    -0.206 F 
ATOM     90  C   UNL A   1      45.070  37.780  26.940  1.00  0.00     0.022 A 
BRANCH  87  91
ATOM     91  S   UNL A   1      42.731  39.184  27.127  1.00  0.00     0.124 S 
ATOM     92  O   UNL A   1      41.522  38.613  26.546  1.00  0.00    -0.237 OA
ATOM     93  O   UNL A   1      42.610  39.747  28.465  1.00  0.00    -0.237 OA
ATOM     94  O   UNL A   1      43.527  39.990  26.198  1.00  0.00    -0.744 OA
ENDBRANCH  87  91
ENDBRANCH  60  84
BRANCH  72  95
ATOM     95  C   UNL A   1      45.405  30.831  32.287  1.00  0.00     0.023 A 
ATOM     96  C   UNL A   1      44.812  31.718  33.221  1.00  0.00     0.031 A 
ATOM     97  C   UNL A   1      46.690  30.347  32.577  1.00  0.00     0.131 A 
ATOM     98  C   UNL A   1      45.513  32.090  34.388  1.00  0.00     0.055 A 
ATOM     99  C   UNL A   1      47.373  30.706  33.739  1.00  0.00     0.041 A 
ATOM    100  F   UNL A   1      47.292  29.480  31.747  1.00  0.00    -0.206 F 
ATOM    101  C   UNL A   1      46.788  31.582  34.647  1.00  0.00     0.022 A 
BRANCH  98 102
ATOM    102  S   UNL A   1      44.781  33.248  35.595  1.00  0.00     0.124 S 
ATOM    103  O   UNL A   1      44.306  32.370  36.658  1.00  0.00    -0.237 OA
ATOM    104  O   UNL A   1      45.909  34.114  35.926  1.00  0.00    -0.237 OA
ATOM    105  O   UNL A   1      43.719  33.907  34.832  1.00  0.00    -0.744 OA
ENDBRANCH  98 102
ENDBRANCH  72  95
ENDBRANCH  46  47
ENDBRANCH  38  41
ENDBRANCH  36  37
ENDBRANCH  35  36
ENDBRANCH  34  35
ENDBRANCH   1  34
TORSDOF 21
ENDMDL
MODEL 3
REMARK VINA RESULT:     -10.0      5.414     10.127
REMARK SMILES CS(=O)(=O)c1ccc(-n2nc(C(F)(F)F)cc2-c2ccc(CC(=O)NCCCCCCNC(=O)c3ccc(-c4c5nc(c(-c6cc(S(=O)(=O)[O-])ccc6F)c6ccc([nH]6)c(-c6cc(S(=O)(=O)[O-])ccc6F)c6nc(c(-c7cc(S(=O)(=O)[O-])ccc7F)c7ccc4[nH]7)C=C6)C=C5)cc3)cc2)cc1
REMARK SMILES IDX 28 1 27 2 26 3 25 4 23 5 24 6 22 8 21 9 18 10 19 11 99 12
REMARK SMILES IDX 20 13 98 14 17 15 9 16 10 17 11 18 16 19 8 20 5 21 6 22
REMARK SMILES IDX 101 23 7 24 100 25 2 26 1 27 3 28 4 29 12 30 13 31 14 32
REMARK SMILES IDX 15 33 29 34 30 35 31 36 32 37 33 38 34 40 35 41 36 42 97 43
REMARK SMILES IDX 37 44 96 45 38 46 39 47 40 48 90 49 41 50 95 51 89 52 91 53
REMARK SMILES IDX 42 54 94 55 88 56 87 57 43 59 75 60 55 61 74 62 56 63 59 64
REMARK SMILES IDX 73 65 92 66 57 67 58 68 72 70 93 71 60 72 44 73 45 74 53 75
REMARK SMILES IDX 46 76 52 77 54 78 51 79 47 80 48 81 49 82 50 83 76 84 77 85
REMARK SMILES IDX 85 86 78 87 84 88 86 89 83 90 79 91 80 92 81 93 82 94 61 95
REMARK SMILES IDX 62 96 70 97 63 98 69 99 71 100 68 101 64 102 65 103 66 104
REMARK SMILES IDX 67 105
REMARK H PARENT 25 7 32 39 91 58 59 69
REMARK Flexibility Score: inf
ROOT
ATOM      1  C   UNL A   1      37.055  23.657  24.959  1.00  0.00     0.002 C 
ENDROOT
BRANCH   1   2
ATOM      2  C   UNL A   1      36.272  22.868  23.901  1.00  0.00     0.021 C 
BRANCH   2   3
ATOM      3  C   UNL A   1      34.863  22.461  24.333  1.00  0.00     0.116 C 
BRANCH   3   4
ATOM      4  N   UNL A   1      34.684  22.598  25.766  1.00  0.00    -0.356 N 
ATOM      5  C   UNL A   1      33.537  22.696  26.497  1.00  0.00     0.224 C 
ATOM      6  O   UNL A   1      33.633  22.876  27.713  1.00  0.00    -0.275 OA
ATOM      7  H   UNL A   1      35.517  22.625  26.290  1.00  0.00     0.163 HD
BRANCH   5   8
ATOM      8  C   UNL A   1      32.182  22.514  25.836  1.00  0.00     0.135 C 
BRANCH   8   9
ATOM      9  C   UNL A   1      31.509  23.798  25.429  1.00  0.00    -0.039 A 
ATOM     10  C   UNL A   1      30.442  26.246  24.629  1.00  0.00     0.000 A 
ATOM     11  C   UNL A   1      30.635  25.985  25.984  1.00  0.00     0.010 A 
ATOM     12  C   UNL A   1      30.710  25.259  23.677  1.00  0.00     0.010 A 
ATOM     13  C   UNL A   1      31.183  24.769  26.383  1.00  0.00     0.005 A 
ATOM     14  C   UNL A   1      31.222  24.033  24.078  1.00  0.00     0.005 A 
BRANCH  10  15
ATOM     15  C   UNL A   1      30.122  27.573  24.147  1.00  0.00     0.075 A 
ATOM     16  N   UNL A   1      31.052  28.595  24.138  1.00  0.00    -0.233 N 
ATOM     17  N   UNL A   1      30.725  29.540  23.221  1.00  0.00    -0.163 NA
ATOM     18  C   UNL A   1      29.424  29.310  22.941  1.00  0.00     0.167 A 
ATOM     19  C   UNL A   1      29.040  28.036  23.431  1.00  0.00     0.064 A 
BRANCH  16  20
ATOM     20  C   UNL A   1      32.150  28.742  25.029  1.00  0.00     0.065 A 
ATOM     21  C   UNL A   1      34.343  29.277  26.676  1.00  0.00     0.067 A 
ATOM     22  C   UNL A   1      34.445  28.336  25.644  1.00  0.00     0.022 A 
ATOM     23  C   UNL A   1      33.145  29.949  26.895  1.00  0.00     0.022 A 
ATOM     24  C   UNL A   1      33.361  28.096  24.786  1.00  0.00     0.030 A 
ATOM     25  C   UNL A   1      32.038  29.650  26.101  1.00  0.00     0.030 A 
BRANCH  21  26
ATOM     26  S   UNL A   1      35.747  29.654  27.704  1.00  0.00     0.175 S 
ATOM     27  C   UNL A   1      35.096  29.753  29.344  1.00  0.00     0.163 C 
ATOM     28  O   UNL A   1      36.187  31.000  27.364  1.00  0.00    -0.224 OA
ATOM     29  O   UNL A   1      36.642  28.526  27.664  1.00  0.00    -0.224 OA
ENDBRANCH  21  26
ENDBRANCH  16  20
BRANCH  18  30
ATOM     30  C   UNL A   1      28.529  30.266  22.187  1.00  0.00     0.435 C 
ATOM     31  F   UNL A   1      29.233  31.303  21.665  1.00  0.00    -0.164 F 
ATOM     32  F   UNL A   1      27.829  29.693  21.177  1.00  0.00    -0.164 F 
ATOM     33  F   UNL A   1      27.607  30.825  23.027  1.00  0.00    -0.164 F 
ENDBRANCH  18  30
ENDBRANCH  10  15
ENDBRANCH   8   9
ENDBRANCH   5   8
ENDBRANCH   3   4
ENDBRANCH   2   3
ENDBRANCH   1   2
BRANCH   1  34
ATOM     34  C   UNL A   1      38.118  22.875  25.747  1.00  0.00     0.002 C 
BRANCH  34  35
ATOM     35  C   UNL A   1      38.954  23.674  26.758  1.00  0.00     0.021 C 
BRANCH  35  36
ATOM     36  C   UNL A   1      40.094  22.891  27.392  1.00  0.00     0.116 C 
BRANCH  36  37
ATOM     37  N   UNL A   1      41.346  22.971  26.629  1.00  0.00    -0.352 N 
ATOM     38  C   UNL A   1      42.100  24.098  26.327  1.00  0.00     0.251 C 
ATOM     39  H   UNL A   1      41.697  22.116  26.289  1.00  0.00     0.163 HD
ATOM     40  O   UNL A   1      42.855  24.096  25.360  1.00  0.00    -0.269 OA
BRANCH  38  41
ATOM     41  C   UNL A   1      41.977  25.285  27.198  1.00  0.00     0.039 A 
ATOM     42  C   UNL A   1      42.541  25.380  28.474  1.00  0.00     0.014 A 
ATOM     43  C   UNL A   1      41.289  26.364  26.664  1.00  0.00     0.014 A 
ATOM     44  C   UNL A   1      42.441  26.596  29.161  1.00  0.00     0.010 A 
ATOM     45  C   UNL A   1      41.448  27.603  27.209  1.00  0.00     0.010 A 
ATOM     46  C   UNL A   1      41.887  27.711  28.512  1.00  0.00    -0.014 A 
BRANCH  46  47
ATOM     47  C   UNL A   1      41.816  29.053  29.088  1.00  0.00     0.031 A 
ATOM     48  C   UNL A   1      42.868  29.964  28.586  1.00  0.00     0.074 A 
ATOM     49  C   UNL A   1      40.749  29.504  29.796  1.00  0.00     0.049 A 
ATOM     50  N   UNL A   1      43.917  30.369  29.218  1.00  0.00    -0.248 NA
ATOM     51  C   UNL A   1      42.870  30.311  27.155  1.00  0.00     0.031 C 
ATOM     52  C   UNL A   1      39.504  28.799  30.120  1.00  0.00     0.029 A 
ATOM     53  N   UNL A   1      40.512  30.743  30.315  1.00  0.00    -0.354 N 
ATOM     54  C   UNL A   1      44.554  31.255  28.359  1.00  0.00     0.074 A 
ATOM     55  C   UNL A   1      44.024  30.973  27.054  1.00  0.00     0.031 C 
ATOM     56  C   UNL A   1      38.583  29.669  30.598  1.00  0.00     0.029 A 
ATOM     57  C   UNL A   1      39.205  30.971  30.774  1.00  0.00     0.049 A 
ATOM     58  H   UNL A   1      41.212  31.433  30.366  1.00  0.00     0.167 HD
ATOM     59  C   UNL A   1      45.243  32.325  28.849  1.00  0.00     0.034 A 
ATOM     60  C   UNL A   1      38.671  32.139  31.260  1.00  0.00     0.034 A 
ATOM     61  C   UNL A   1      45.476  32.170  30.273  1.00  0.00     0.049 A 
ATOM     62  C   UNL A   1      39.824  32.960  31.685  1.00  0.00     0.074 A 
ATOM     63  C   UNL A   1      46.097  31.213  31.056  1.00  0.00     0.029 A 
ATOM     64  N   UNL A   1      44.662  32.871  31.140  1.00  0.00    -0.354 N 
ATOM     65  N   UNL A   1      40.575  32.626  32.696  1.00  0.00    -0.248 NA
ATOM     66  C   UNL A   1      40.459  33.819  30.693  1.00  0.00     0.031 C 
ATOM     67  C   UNL A   1      45.241  31.053  32.187  1.00  0.00     0.029 A 
ATOM     68  C   UNL A   1      44.204  31.983  32.083  1.00  0.00     0.049 A 
ATOM     69  H   UNL A   1      44.449  33.831  31.090  1.00  0.00     0.167 HD
ATOM     70  C   UNL A   1      41.871  32.840  32.258  1.00  0.00     0.074 A 
ATOM     71  C   UNL A   1      41.737  33.679  31.065  1.00  0.00     0.031 C 
ATOM     72  C   UNL A   1      42.903  32.071  32.715  1.00  0.00     0.034 A 
BRANCH  59  73
ATOM     73  C   UNL A   1      45.355  33.674  28.166  1.00  0.00     0.023 A 
ATOM     74  C   UNL A   1      44.318  34.593  28.413  1.00  0.00     0.031 A 
ATOM     75  C   UNL A   1      46.223  34.008  27.101  1.00  0.00     0.131 A 
ATOM     76  C   UNL A   1      44.096  35.685  27.556  1.00  0.00     0.055 A 
ATOM     77  C   UNL A   1      46.036  35.132  26.290  1.00  0.00     0.041 A 
ATOM     78  F   UNL A   1      47.250  33.242  26.722  1.00  0.00    -0.206 F 
ATOM     79  C   UNL A   1      44.945  35.957  26.490  1.00  0.00     0.022 A 
BRANCH  76  80
ATOM     80  S   UNL A   1      42.564  36.627  27.755  1.00  0.00     0.124 S 
ATOM     81  O   UNL A   1      42.841  37.386  28.970  1.00  0.00    -0.237 OA
ATOM     82  O   UNL A   1      42.522  37.392  26.513  1.00  0.00    -0.237 OA
ATOM     83  O   UNL A   1      41.544  35.590  27.885  1.00  0.00    -0.744 OA
ENDBRANCH  76  80
ENDBRANCH  59  73
BRANCH  60  84
ATOM     84  C   UNL A   1      37.290  32.706  31.084  1.00  0.00     0.023 A 
ATOM     85  C   UNL A   1      36.726  33.258  29.908  1.00  0.00     0.031 A 
ATOM     86  C   UNL A   1      36.376  32.422  32.104  1.00  0.00     0.131 A 
ATOM     87  C   UNL A   1      35.320  33.498  29.819  1.00  0.00     0.055 A 
ATOM     88  C   UNL A   1      34.997  32.625  32.001  1.00  0.00     0.041 A 
ATOM     89  F   UNL A   1      36.817  31.836  33.216  1.00  0.00    -0.206 F 
ATOM     90  C   UNL A   1      34.458  33.163  30.858  1.00  0.00     0.022 A 
BRANCH  87  91
ATOM     91  S   UNL A   1      34.530  34.172  28.318  1.00  0.00     0.124 S 
ATOM     92  O   UNL A   1      35.607  34.086  27.339  1.00  0.00    -0.237 OA
ATOM     93  O   UNL A   1      33.395  33.279  28.122  1.00  0.00    -0.237 OA
ATOM     94  O   UNL A   1      34.169  35.540  28.701  1.00  0.00    -0.744 OA
ENDBRANCH  87  91
ENDBRANCH  60  84
BRANCH  72  95
ATOM     95  C   UNL A   1      42.611  31.098  33.845  1.00  0.00     0.023 A 
ATOM     96  C   UNL A   1      42.234  29.742  33.673  1.00  0.00     0.031 A 
ATOM     97  C   UNL A   1      42.846  31.546  35.153  1.00  0.00     0.131 A 
ATOM     98  C   UNL A   1      42.099  28.897  34.795  1.00  0.00     0.055 A 
ATOM     99  C   UNL A   1      42.725  30.703  36.258  1.00  0.00     0.041 A 
ATOM    100  F   UNL A   1      43.235  32.811  35.378  1.00  0.00    -0.206 F 
ATOM    101  C   UNL A   1      42.348  29.376  36.083  1.00  0.00     0.022 A 
BRANCH  98 102
ATOM    102  S   UNL A   1      41.593  27.153  34.602  1.00  0.00     0.124 S 
ATOM    103  O   UNL A   1      42.760  26.530  33.990  1.00  0.00    -0.237 OA
ATOM    104  O   UNL A   1      41.294  26.757  35.976  1.00  0.00    -0.237 OA
ATOM    105  O   UNL A   1      40.419  27.234  33.730  1.00  0.00    -0.744 OA
ENDBRANCH  98 102
ENDBRANCH  72  95
ENDBRANCH  46  47
ENDBRANCH  38  41
ENDBRANCH  36  37
ENDBRANCH  35  36
ENDBRANCH  34  35
ENDBRANCH   1  34
TORSDOF 21
ENDMDL
