MODEL 1
REMARK VINA RESULT:     -11.8      0.000      0.000
REMARK SMILES Cc1cc(CS(=O)(=O)[C@@H](C)CC(=O)NCCCCCCNC(=O)c2ccc(-c3c4nc(c(-c5cc(S(=O)(=O)[O-])ccc5F)c5ccc([nH]5)c(-c5cc(S(=O)(=O)[O-])ccc5F)c5nc(c(-c6cc(S(=O)(=O)[O-])ccc6F)c6ccc3[nH]6)C=C5)C=C4)cc2)c2ccccc2n1
REMARK SMILES IDX 17 1 16 2 15 3 14 4 12 5 13 6 11 8 9 9 10 10 6 11 7 12 8 13
REMARK SMILES IDX 5 14 4 15 1 16 2 17 3 18 93 19 92 20 87 21 91 22 88 23 90 24
REMARK SMILES IDX 89 25 18 26 19 27 20 28 21 29 22 30 23 32 24 33 25 34 86 35
REMARK SMILES IDX 26 36 85 37 27 38 28 39 29 40 79 41 30 42 84 43 78 44 80 45
REMARK SMILES IDX 31 46 83 47 77 48 76 49 32 51 64 52 44 53 63 54 45 55 48 56
REMARK SMILES IDX 62 57 81 58 46 59 47 60 61 62 82 63 49 64 33 65 34 66 42 67
REMARK SMILES IDX 35 68 41 69 43 70 40 71 36 72 37 73 38 74 39 75 65 76 66 77
REMARK SMILES IDX 74 78 67 79 73 80 75 81 72 82 68 83 69 84 70 85 71 86 50 87
REMARK SMILES IDX 51 88 59 89 52 90 58 91 60 92 57 93 53 94 54 95 55 96 56 97
REMARK H PARENT 14 7 21 31 80 50 48 61
REMARK Flexibility Score: inf
ROOT
ATOM      1  C   UNL A   1      35.100  20.757  24.798  1.00  0.00     0.002 C 
ENDROOT
BRANCH   1   2
ATOM      2  C   UNL A   1      33.912  20.644  25.757  1.00  0.00     0.021 C 
BRANCH   2   3
ATOM      3  C   UNL A   1      34.014  21.578  26.962  1.00  0.00     0.116 C 
BRANCH   3   4
ATOM      4  N   UNL A   1      32.739  22.152  27.334  1.00  0.00    -0.356 N 
ATOM      5  C   UNL A   1      32.198  23.353  26.994  1.00  0.00     0.221 C 
ATOM      6  O   UNL A   1      31.035  23.593  27.318  1.00  0.00    -0.275 OA
ATOM      7  H   UNL A   1      32.180  21.590  27.918  1.00  0.00     0.163 HD
BRANCH   5   8
ATOM      8  C   UNL A   1      33.018  24.369  26.226  1.00  0.00     0.119 C 
BRANCH   8   9
ATOM      9  C   UNL A   1      33.025  24.116  24.724  1.00  0.00     0.115 C 
ATOM     10  C   UNL A   1      34.251  24.744  24.047  1.00  0.00     0.025 C 
BRANCH   9  11
ATOM     11  S   UNL A   1      31.517  24.471  23.763  1.00  0.00     0.157 S 
ATOM     12  O   UNL A   1      30.898  23.170  23.549  1.00  0.00    -0.228 OA
ATOM     13  O   UNL A   1      31.944  25.219  22.589  1.00  0.00    -0.228 OA
BRANCH  11  14
ATOM     14  C   UNL A   1      30.227  25.489  24.524  1.00  0.00     0.173 C 
BRANCH  14  15
ATOM     15  C   UNL A   1      30.358  26.980  24.390  1.00  0.00    -0.022 A 
ATOM     16  C   UNL A   1      29.290  29.738  22.036  1.00  0.00     0.067 C 
ATOM     17  C   UNL A   1      30.011  28.972  23.101  1.00  0.00     0.038 A 
ATOM     18  C   UNL A   1      29.812  27.610  23.267  1.00  0.00     0.029 A 
ATOM     19  N   UNL A   1      30.790  29.702  23.930  1.00  0.00    -0.253 NA
ATOM     20  C   UNL A   1      31.253  29.136  25.050  1.00  0.00     0.071 A 
ATOM     21  C   UNL A   1      30.985  27.793  25.388  1.00  0.00     0.004 A 
ATOM     22  C   UNL A   1      32.021  29.918  25.905  1.00  0.00     0.029 A 
ATOM     23  C   UNL A   1      31.369  27.359  26.682  1.00  0.00     0.010 A 
ATOM     24  C   UNL A   1      32.457  29.450  27.142  1.00  0.00     0.002 A 
ATOM     25  C   UNL A   1      32.087  28.182  27.551  1.00  0.00     0.001 A 
ENDBRANCH  14  15
ENDBRANCH  11  14
ENDBRANCH   9  11
ENDBRANCH   8   9
ENDBRANCH   5   8
ENDBRANCH   3   4
ENDBRANCH   2   3
ENDBRANCH   1   2
BRANCH   1  26
ATOM     26  C   UNL A   1      36.396  21.292  25.419  1.00  0.00     0.002 C 
BRANCH  26  27
ATOM     27  C   UNL A   1      37.685  20.577  25.008  1.00  0.00     0.021 C 
BRANCH  27  28
ATOM     28  C   UNL A   1      38.922  20.990  25.800  1.00  0.00     0.116 C 
BRANCH  28  29
ATOM     29  N   UNL A   1      39.856  19.884  25.955  1.00  0.00    -0.352 N 
ATOM     30  C   UNL A   1      41.220  19.893  26.084  1.00  0.00     0.251 C 
ATOM     31  H   UNL A   1      39.443  18.990  25.969  1.00  0.00     0.163 HD
ATOM     32  O   UNL A   1      41.850  18.845  25.920  1.00  0.00    -0.269 OA
BRANCH  30  33
ATOM     33  C   UNL A   1      41.932  21.146  26.404  1.00  0.00     0.039 A 
ATOM     34  C   UNL A   1      42.261  22.031  25.373  1.00  0.00     0.014 A 
ATOM     35  C   UNL A   1      42.294  21.441  27.721  1.00  0.00     0.014 A 
ATOM     36  C   UNL A   1      42.882  23.246  25.674  1.00  0.00     0.010 A 
ATOM     37  C   UNL A   1      42.840  22.683  28.027  1.00  0.00     0.010 A 
ATOM     38  C   UNL A   1      43.136  23.600  27.008  1.00  0.00    -0.014 A 
BRANCH  38  39
ATOM     39  C   UNL A   1      43.698  24.926  27.374  1.00  0.00     0.031 A 
ATOM     40  C   UNL A   1      42.803  25.981  27.966  1.00  0.00     0.074 A 
ATOM     41  C   UNL A   1      44.981  25.208  27.076  1.00  0.00     0.049 A 
ATOM     42  N   UNL A   1      43.058  27.240  28.213  1.00  0.00    -0.248 NA
ATOM     43  C   UNL A   1      41.428  25.570  28.289  1.00  0.00     0.031 C 
ATOM     44  C   UNL A   1      45.930  24.274  26.465  1.00  0.00     0.029 A 
ATOM     45  N   UNL A   1      45.705  26.364  27.225  1.00  0.00    -0.354 N 
ATOM     46  C   UNL A   1      41.871  27.778  28.700  1.00  0.00     0.074 A 
ATOM     47  C   UNL A   1      40.883  26.719  28.658  1.00  0.00     0.031 C 
ATOM     48  C   UNL A   1      47.112  24.891  26.303  1.00  0.00     0.029 A 
ATOM     49  C   UNL A   1      46.992  26.276  26.746  1.00  0.00     0.049 A 
ATOM     50  H   UNL A   1      45.338  27.180  27.636  1.00  0.00     0.167 HD
ATOM     51  C   UNL A   1      41.634  29.034  29.155  1.00  0.00     0.034 A 
ATOM     52  C   UNL A   1      47.958  27.211  26.651  1.00  0.00     0.034 A 
ATOM     53  C   UNL A   1      42.639  30.067  29.203  1.00  0.00     0.049 A 
ATOM     54  C   UNL A   1      47.662  28.607  27.133  1.00  0.00     0.074 A 
ATOM     55  C   UNL A   1      42.535  31.349  29.712  1.00  0.00     0.029 A 
ATOM     56  N   UNL A   1      43.932  29.940  28.709  1.00  0.00    -0.354 N 
ATOM     57  N   UNL A   1      46.551  29.087  27.643  1.00  0.00    -0.248 NA
ATOM     58  C   UNL A   1      48.750  29.588  27.029  1.00  0.00     0.031 C 
ATOM     59  C   UNL A   1      43.739  32.018  29.466  1.00  0.00     0.029 A 
ATOM     60  C   UNL A   1      44.621  31.133  28.867  1.00  0.00     0.049 A 
ATOM     61  H   UNL A   1      44.305  29.123  28.307  1.00  0.00     0.167 HD
ATOM     62  C   UNL A   1      46.814  30.421  27.939  1.00  0.00     0.074 A 
ATOM     63  C   UNL A   1      48.193  30.664  27.568  1.00  0.00     0.031 C 
ATOM     64  C   UNL A   1      45.991  31.361  28.471  1.00  0.00     0.034 A 
BRANCH  51  65
ATOM     65  C   UNL A   1      40.231  29.357  29.612  1.00  0.00     0.023 A 
ATOM     66  C   UNL A   1      39.901  29.455  30.976  1.00  0.00     0.031 A 
ATOM     67  C   UNL A   1      39.201  29.544  28.673  1.00  0.00     0.131 A 
ATOM     68  C   UNL A   1      38.567  29.652  31.362  1.00  0.00     0.055 A 
ATOM     69  C   UNL A   1      37.889  29.822  29.063  1.00  0.00     0.041 A 
ATOM     70  F   UNL A   1      39.448  29.444  27.358  1.00  0.00    -0.206 F 
ATOM     71  C   UNL A   1      37.562  29.862  30.416  1.00  0.00     0.022 A 
BRANCH  68  72
ATOM     72  S   UNL A   1      38.143  29.486  33.118  1.00  0.00     0.124 S 
ATOM     73  O   UNL A   1      39.378  28.936  33.670  1.00  0.00    -0.237 OA
ATOM     74  O   UNL A   1      37.829  30.859  33.498  1.00  0.00    -0.237 OA
ATOM     75  O   UNL A   1      37.008  28.565  33.111  1.00  0.00    -0.744 OA
ENDBRANCH  68  72
ENDBRANCH  51  65
BRANCH  52  76
ATOM     76  C   UNL A   1      49.282  26.872  26.053  1.00  0.00     0.023 A 
ATOM     77  C   UNL A   1      49.626  27.313  24.766  1.00  0.00     0.031 A 
ATOM     78  C   UNL A   1      50.211  26.077  26.747  1.00  0.00     0.131 A 
ATOM     79  C   UNL A   1      50.848  26.924  24.196  1.00  0.00     0.055 A 
ATOM     80  C   UNL A   1      51.447  25.734  26.196  1.00  0.00     0.041 A 
ATOM     81  F   UNL A   1      49.936  25.633  27.984  1.00  0.00    -0.206 F 
ATOM     82  C   UNL A   1      51.766  26.148  24.907  1.00  0.00     0.022 A 
BRANCH  79  83
ATOM     83  S   UNL A   1      51.188  27.382  22.474  1.00  0.00     0.124 S 
ATOM     84  O   UNL A   1      51.038  28.833  22.519  1.00  0.00    -0.237 OA
ATOM     85  O   UNL A   1      52.547  26.883  22.292  1.00  0.00    -0.237 OA
ATOM     86  O   UNL A   1      50.158  26.670  21.722  1.00  0.00    -0.744 OA
ENDBRANCH  79  83
ENDBRANCH  52  76
BRANCH  64  87
ATOM     87  C   UNL A   1      46.580  32.729  28.701  1.00  0.00     0.023 A 
ATOM     88  C   UNL A   1      46.437  33.760  27.757  1.00  0.00     0.031 A 
ATOM     89  C   UNL A   1      47.295  33.004  29.881  1.00  0.00     0.131 A 
ATOM     90  C   UNL A   1      47.040  35.005  27.986  1.00  0.00     0.055 A 
ATOM     91  C   UNL A   1      47.843  34.262  30.130  1.00  0.00     0.041 A 
ATOM     92  F   UNL A   1      47.464  32.054  30.814  1.00  0.00    -0.206 F 
ATOM     93  C   UNL A   1      47.726  35.269  29.175  1.00  0.00     0.022 A 
BRANCH  90  94
ATOM     94  S   UNL A   1      46.978  36.258  26.676  1.00  0.00     0.124 S 
ATOM     95  O   UNL A   1      47.551  35.538  25.543  1.00  0.00    -0.237 OA
ATOM     96  O   UNL A   1      45.552  36.552  26.590  1.00  0.00    -0.237 OA
ATOM     97  O   UNL A   1      47.804  37.344  27.201  1.00  0.00    -0.744 OA
ENDBRANCH  90  94
ENDBRANCH  64  87
ENDBRANCH  38  39
ENDBRANCH  30  33
ENDBRANCH  28  29
ENDBRANCH  27  28
ENDBRANCH  26  27
ENDBRANCH   1  26
TORSDOF 20
ENDMDL
MODEL 2
REMARK VINA RESULT:     -11.6      1.334      1.550
REMARK SMILES Cc1cc(CS(=O)(=O)[C@@H](C)CC(=O)NCCCCCCNC(=O)c2ccc(-c3c4nc(c(-c5cc(S(=O)(=O)[O-])ccc5F)c5ccc([nH]5)c(-c5cc(S(=O)(=O)[O-])ccc5F)c5nc(c(-c6cc(S(=O)(=O)[O-])ccc6F)c6ccc3[nH]6)C=C5)C=C4)cc2)c2ccccc2n1
REMARK SMILES IDX 17 1 16 2 15 3 14 4 12 5 13 6 11 8 9 9 10 10 6 11 7 12 8 13
REMARK SMILES IDX 5 14 4 15 1 16 2 17 3 18 93 19 92 20 87 21 91 22 88 23 90 24
REMARK SMILES IDX 89 25 18 26 19 27 20 28 21 29 22 30 23 32 24 33 25 34 86 35
REMARK SMILES IDX 26 36 85 37 27 38 28 39 29 40 79 41 30 42 84 43 78 44 80 45
REMARK SMILES IDX 31 46 83 47 77 48 76 49 32 51 64 52 44 53 63 54 45 55 48 56
REMARK SMILES IDX 62 57 81 58 46 59 47 60 61 62 82 63 49 64 33 65 34 66 42 67
REMARK SMILES IDX 35 68 41 69 43 70 40 71 36 72 37 73 38 74 39 75 65 76 66 77
REMARK SMILES IDX 74 78 67 79 73 80 75 81 72 82 68 83 69 84 70 85 71 86 50 87
REMARK SMILES IDX 51 88 59 89 52 90 58 91 60 92 57 93 53 94 54 95 55 96 56 97
REMARK H PARENT 14 7 21 31 80 50 48 61
REMARK Flexibility Score: inf
ROOT
ATOM      1  C   UNL A   1      34.995  20.546  24.953  1.00  0.00     0.002 C 
ENDROOT
BRANCH   1   2
ATOM      2  C   UNL A   1      33.799  20.506  25.908  1.00  0.00     0.021 C 
BRANCH   2   3
ATOM      3  C   UNL A   1      33.947  21.446  27.104  1.00  0.00     0.116 C 
BRANCH   3   4
ATOM      4  N   UNL A   1      32.708  22.110  27.449  1.00  0.00    -0.356 N 
ATOM      5  C   UNL A   1      32.222  23.310  27.029  1.00  0.00     0.221 C 
ATOM      6  O   UNL A   1      31.078  23.632  27.348  1.00  0.00    -0.275 OA
ATOM      7  H   UNL A   1      32.131  21.621  28.079  1.00  0.00     0.163 HD
BRANCH   5   8
ATOM      8  C   UNL A   1      33.081  24.224  26.180  1.00  0.00     0.119 C 
BRANCH   8   9
ATOM      9  C   UNL A   1      33.021  23.888  24.695  1.00  0.00     0.115 C 
ATOM     10  C   UNL A   1      34.346  24.199  23.987  1.00  0.00     0.025 C 
BRANCH   9  11
ATOM     11  S   UNL A   1      31.615  24.501  23.709  1.00  0.00     0.157 S 
ATOM     12  O   UNL A   1      30.937  23.300  23.240  1.00  0.00    -0.228 OA
ATOM     13  O   UNL A   1      32.175  25.397  22.706  1.00  0.00    -0.228 OA
BRANCH  11  14
ATOM     14  C   UNL A   1      30.334  25.473  24.541  1.00  0.00     0.173 C 
BRANCH  14  15
ATOM     15  C   UNL A   1      30.407  26.969  24.405  1.00  0.00    -0.022 A 
ATOM     16  C   UNL A   1      29.164  29.689  22.094  1.00  0.00     0.067 C 
ATOM     17  C   UNL A   1      29.946  28.948  23.133  1.00  0.00     0.038 A 
ATOM     18  C   UNL A   1      29.802  27.579  23.303  1.00  0.00     0.029 A 
ATOM     19  N   UNL A   1      30.726  29.704  23.937  1.00  0.00    -0.253 NA
ATOM     20  C   UNL A   1      31.245  29.154  25.040  1.00  0.00     0.071 A 
ATOM     21  C   UNL A   1      31.037  27.802  25.384  1.00  0.00     0.004 A 
ATOM     22  C   UNL A   1      32.013  29.963  25.871  1.00  0.00     0.029 A 
ATOM     23  C   UNL A   1      31.479  27.381  26.664  1.00  0.00     0.010 A 
ATOM     24  C   UNL A   1      32.506  29.510  27.092  1.00  0.00     0.002 A 
ATOM     25  C   UNL A   1      32.195  28.229  27.510  1.00  0.00     0.001 A 
ENDBRANCH  14  15
ENDBRANCH  11  14
ENDBRANCH   9  11
ENDBRANCH   8   9
ENDBRANCH   5   8
ENDBRANCH   3   4
ENDBRANCH   2   3
ENDBRANCH   1   2
BRANCH   1  26
ATOM     26  C   UNL A   1      36.280  21.146  25.536  1.00  0.00     0.002 C 
BRANCH  26  27
ATOM     27  C   UNL A   1      37.594  20.592  24.979  1.00  0.00     0.021 C 
BRANCH  27  28
ATOM     28  C   UNL A   1      38.845  21.062  25.715  1.00  0.00     0.116 C 
BRANCH  28  29
ATOM     29  N   UNL A   1      39.802  19.980  25.895  1.00  0.00    -0.352 N 
ATOM     30  C   UNL A   1      41.164  20.022  26.044  1.00  0.00     0.251 C 
ATOM     31  H   UNL A   1      39.410  19.077  25.913  1.00  0.00     0.163 HD
ATOM     32  O   UNL A   1      41.820  18.988  25.900  1.00  0.00    -0.269 OA
BRANCH  30  33
ATOM     33  C   UNL A   1      41.842  21.295  26.359  1.00  0.00     0.039 A 
ATOM     34  C   UNL A   1      42.098  22.209  25.333  1.00  0.00     0.014 A 
ATOM     35  C   UNL A   1      42.244  21.580  27.667  1.00  0.00     0.014 A 
ATOM     36  C   UNL A   1      42.686  23.441  25.633  1.00  0.00     0.010 A 
ATOM     37  C   UNL A   1      42.756  22.835  27.975  1.00  0.00     0.010 A 
ATOM     38  C   UNL A   1      42.979  23.781  26.963  1.00  0.00    -0.014 A 
BRANCH  38  39
ATOM     39  C   UNL A   1      43.506  25.120  27.332  1.00  0.00     0.031 A 
ATOM     40  C   UNL A   1      42.576  26.164  27.886  1.00  0.00     0.074 A 
ATOM     41  C   UNL A   1      44.793  25.421  27.070  1.00  0.00     0.049 A 
ATOM     42  N   UNL A   1      42.801  27.430  28.128  1.00  0.00    -0.248 NA
ATOM     43  C   UNL A   1      41.199  25.733  28.172  1.00  0.00     0.031 C 
ATOM     44  C   UNL A   1      45.776  24.499  26.497  1.00  0.00     0.029 A 
ATOM     45  N   UNL A   1      45.492  26.592  27.229  1.00  0.00    -0.354 N 
ATOM     46  C   UNL A   1      41.590  27.952  28.573  1.00  0.00     0.074 A 
ATOM     47  C   UNL A   1      40.623  26.875  28.513  1.00  0.00     0.031 C 
ATOM     48  C   UNL A   1      46.951  25.135  26.364  1.00  0.00     0.029 A 
ATOM     49  C   UNL A   1      46.794  26.521  26.789  1.00  0.00     0.049 A 
ATOM     50  H   UNL A   1      45.099  27.405  27.620  1.00  0.00     0.167 HD
ATOM     51  C   UNL A   1      41.318  29.207  29.008  1.00  0.00     0.034 A 
ATOM     52  C   UNL A   1      47.746  27.472  26.714  1.00  0.00     0.034 A 
ATOM     53  C   UNL A   1      42.304  30.259  29.075  1.00  0.00     0.049 A 
ATOM     54  C   UNL A   1      47.411  28.868  27.173  1.00  0.00     0.074 A 
ATOM     55  C   UNL A   1      42.162  31.544  29.569  1.00  0.00     0.029 A 
ATOM     56  N   UNL A   1      43.613  30.150  28.623  1.00  0.00    -0.354 N 
ATOM     57  N   UNL A   1      46.277  29.333  27.644  1.00  0.00    -0.248 NA
ATOM     58  C   UNL A   1      48.484  29.867  27.091  1.00  0.00     0.031 C 
ATOM     59  C   UNL A   1      43.361  32.232  29.352  1.00  0.00     0.029 A 
ATOM     60  C   UNL A   1      44.276  31.356  28.788  1.00  0.00     0.049 A 
ATOM     61  H   UNL A   1      44.012  29.336  28.240  1.00  0.00     0.167 HD
ATOM     62  C   UNL A   1      46.508  30.674  27.934  1.00  0.00     0.074 A 
ATOM     63  C   UNL A   1      47.893  30.938  27.602  1.00  0.00     0.031 C 
ATOM     64  C   UNL A   1      45.653  31.605  28.432  1.00  0.00     0.034 A 
BRANCH  51  65
ATOM     65  C   UNL A   1      39.897  29.510  29.420  1.00  0.00     0.023 A 
ATOM     66  C   UNL A   1      39.518  29.589  30.772  1.00  0.00     0.031 A 
ATOM     67  C   UNL A   1      38.898  29.697  28.448  1.00  0.00     0.131 A 
ATOM     68  C   UNL A   1      38.169  29.767  31.114  1.00  0.00     0.055 A 
ATOM     69  C   UNL A   1      37.570  29.956  28.795  1.00  0.00     0.041 A 
ATOM     70  F   UNL A   1      39.192  29.615  27.140  1.00  0.00    -0.206 F 
ATOM     71  C   UNL A   1      37.196  29.977  30.136  1.00  0.00     0.022 A 
BRANCH  68  72
ATOM     72  S   UNL A   1      37.686  29.576  32.852  1.00  0.00     0.124 S 
ATOM     73  O   UNL A   1      37.566  28.124  32.967  1.00  0.00    -0.237 OA
ATOM     74  O   UNL A   1      38.808  30.183  33.559  1.00  0.00    -0.237 OA
ATOM     75  O   UNL A   1      36.424  30.307  32.939  1.00  0.00    -0.744 OA
ENDBRANCH  68  72
ENDBRANCH  51  65
BRANCH  52  76
ATOM     76  C   UNL A   1      49.093  27.151  26.159  1.00  0.00     0.023 A 
ATOM     77  C   UNL A   1      50.196  26.968  27.006  1.00  0.00     0.031 A 
ATOM     78  C   UNL A   1      49.303  27.053  24.772  1.00  0.00     0.131 A 
ATOM     79  C   UNL A   1      51.468  26.737  26.458  1.00  0.00     0.055 A 
ATOM     80  C   UNL A   1      50.559  26.772  24.233  1.00  0.00     0.041 A 
ATOM     81  F   UNL A   1      48.280  27.214  23.916  1.00  0.00    -0.206 F 
ATOM     82  C   UNL A   1      51.654  26.625  25.078  1.00  0.00     0.022 A 
BRANCH  79  83
ATOM     83  S   UNL A   1      52.894  26.662  27.576  1.00  0.00     0.124 S 
ATOM     84  O   UNL A   1      52.267  26.898  28.872  1.00  0.00    -0.237 OA
ATOM     85  O   UNL A   1      53.392  25.311  27.339  1.00  0.00    -0.237 OA
ATOM     86  O   UNL A   1      53.760  27.736  27.096  1.00  0.00    -0.744 OA
ENDBRANCH  79  83
ENDBRANCH  52  76
BRANCH  64  87
ATOM     87  C   UNL A   1      46.211  32.985  28.665  1.00  0.00     0.023 A 
ATOM     88  C   UNL A   1      46.026  34.021  27.734  1.00  0.00     0.031 A 
ATOM     89  C   UNL A   1      46.938  33.267  29.836  1.00  0.00     0.131 A 
ATOM     90  C   UNL A   1      46.600  35.279  27.965  1.00  0.00     0.055 A 
ATOM     91  C   UNL A   1      47.458  34.537  30.088  1.00  0.00     0.041 A 
ATOM     92  F   UNL A   1      47.147  32.313  30.756  1.00  0.00    -0.206 F 
ATOM     93  C   UNL A   1      47.300  35.549  29.145  1.00  0.00     0.022 A 
BRANCH  90  94
ATOM     94  S   UNL A   1      46.485  36.542  26.669  1.00  0.00     0.124 S 
ATOM     95  O   UNL A   1      47.671  37.352  26.930  1.00  0.00    -0.237 OA
ATOM     96  O   UNL A   1      46.515  35.743  25.448  1.00  0.00    -0.237 OA
ATOM     97  O   UNL A   1      45.211  37.202  26.946  1.00  0.00    -0.744 OA
ENDBRANCH  90  94
ENDBRANCH  64  87
ENDBRANCH  38  39
ENDBRANCH  30  33
ENDBRANCH  28  29
ENDBRANCH  27  28
ENDBRANCH  26  27
ENDBRANCH   1  26
TORSDOF 20
ENDMDL
MODEL 3
REMARK VINA RESULT:     -11.6      1.928      2.209
REMARK SMILES Cc1cc(CS(=O)(=O)[C@@H](C)CC(=O)NCCCCCCNC(=O)c2ccc(-c3c4nc(c(-c5cc(S(=O)(=O)[O-])ccc5F)c5ccc([nH]5)c(-c5cc(S(=O)(=O)[O-])ccc5F)c5nc(c(-c6cc(S(=O)(=O)[O-])ccc6F)c6ccc3[nH]6)C=C5)C=C4)cc2)c2ccccc2n1
REMARK SMILES IDX 17 1 16 2 15 3 14 4 12 5 13 6 11 8 9 9 10 10 6 11 7 12 8 13
REMARK SMILES IDX 5 14 4 15 1 16 2 17 3 18 93 19 92 20 87 21 91 22 88 23 90 24
REMARK SMILES IDX 89 25 18 26 19 27 20 28 21 29 22 30 23 32 24 33 25 34 86 35
REMARK SMILES IDX 26 36 85 37 27 38 28 39 29 40 79 41 30 42 84 43 78 44 80 45
REMARK SMILES IDX 31 46 83 47 77 48 76 49 32 51 64 52 44 53 63 54 45 55 48 56
REMARK SMILES IDX 62 57 81 58 46 59 47 60 61 62 82 63 49 64 33 65 34 66 42 67
REMARK SMILES IDX 35 68 41 69 43 70 40 71 36 72 37 73 38 74 39 75 65 76 66 77
REMARK SMILES IDX 74 78 67 79 73 80 75 81 72 82 68 83 69 84 70 85 71 86 50 87
REMARK SMILES IDX 51 88 59 89 52 90 58 91 60 92 57 93 53 94 54 95 55 96 56 97
REMARK H PARENT 14 7 21 31 80 50 48 61
REMARK Flexibility Score: inf
ROOT
ATOM      1  C   UNL A   1      34.812  20.643  24.722  1.00  0.00     0.002 C 
ENDROOT
BRANCH   1   2
ATOM      2  C   UNL A   1      33.709  20.497  25.774  1.00  0.00     0.021 C 
BRANCH   2   3
ATOM      3  C   UNL A   1      33.919  21.385  26.999  1.00  0.00     0.116 C 
BRANCH   3   4
ATOM      4  N   UNL A   1      32.709  22.064  27.411  1.00  0.00    -0.356 N 
ATOM      5  C   UNL A   1      32.256  23.304  27.080  1.00  0.00     0.221 C 
ATOM      6  O   UNL A   1      31.129  23.640  27.442  1.00  0.00    -0.275 OA
ATOM      7  H   UNL A   1      32.127  21.554  28.019  1.00  0.00     0.163 HD
BRANCH   5   8
ATOM      8  C   UNL A   1      33.129  24.244  26.275  1.00  0.00     0.119 C 
BRANCH   8   9
ATOM      9  C   UNL A   1      33.124  23.932  24.784  1.00  0.00     0.115 C 
ATOM     10  C   UNL A   1      34.486  24.219  24.137  1.00  0.00     0.025 C 
BRANCH   9  11
ATOM     11  S   UNL A   1      31.777  24.597  23.749  1.00  0.00     0.157 S 
ATOM     12  O   UNL A   1      31.164  23.426  23.138  1.00  0.00    -0.228 OA
ATOM     13  O   UNL A   1      32.385  25.582  22.866  1.00  0.00    -0.228 OA
BRANCH  11  14
ATOM     14  C   UNL A   1      30.416  25.474  24.561  1.00  0.00     0.173 C 
BRANCH  14  15
ATOM     15  C   UNL A   1      30.372  26.969  24.411  1.00  0.00    -0.022 A 
ATOM     16  C   UNL A   1      28.790  29.565  22.165  1.00  0.00     0.067 C 
ATOM     17  C   UNL A   1      29.689  28.895  23.156  1.00  0.00     0.038 A 
ATOM     18  C   UNL A   1      29.655  27.521  23.345  1.00  0.00     0.029 A 
ATOM     19  N   UNL A   1      30.461  29.714  23.903  1.00  0.00    -0.253 NA
ATOM     20  C   UNL A   1      31.089  29.216  24.974  1.00  0.00     0.071 A 
ATOM     21  C   UNL A   1      31.002  27.856  25.340  1.00  0.00     0.004 A 
ATOM     22  C   UNL A   1      31.848  30.087  25.748  1.00  0.00     0.029 A 
ATOM     23  C   UNL A   1      31.554  27.483  26.592  1.00  0.00     0.010 A 
ATOM     24  C   UNL A   1      32.450  29.685  26.937  1.00  0.00     0.002 A 
ATOM     25  C   UNL A   1      32.260  28.390  27.384  1.00  0.00     0.001 A 
ENDBRANCH  14  15
ENDBRANCH  11  14
ENDBRANCH   9  11
ENDBRANCH   8   9
ENDBRANCH   5   8
ENDBRANCH   3   4
ENDBRANCH   2   3
ENDBRANCH   1   2
BRANCH   1  26
ATOM     26  C   UNL A   1      36.149  21.182  25.244  1.00  0.00     0.002 C 
BRANCH  26  27
ATOM     27  C   UNL A   1      37.375  20.304  24.986  1.00  0.00     0.021 C 
BRANCH  27  28
ATOM     28  C   UNL A   1      38.678  20.844  25.569  1.00  0.00     0.116 C 
BRANCH  28  29
ATOM     29  N   UNL A   1      39.637  19.778  25.822  1.00  0.00    -0.352 N 
ATOM     30  C   UNL A   1      40.982  19.843  26.077  1.00  0.00     0.251 C 
ATOM     31  H   UNL A   1      39.260  18.868  25.809  1.00  0.00     0.163 HD
ATOM     32  O   UNL A   1      41.665  18.820  25.984  1.00  0.00    -0.269 OA
BRANCH  30  33
ATOM     33  C   UNL A   1      41.611  21.126  26.446  1.00  0.00     0.039 A 
ATOM     34  C   UNL A   1      42.027  22.002  25.439  1.00  0.00     0.014 A 
ATOM     35  C   UNL A   1      41.810  21.459  27.789  1.00  0.00     0.014 A 
ATOM     36  C   UNL A   1      42.568  23.244  25.780  1.00  0.00     0.010 A 
ATOM     37  C   UNL A   1      42.275  22.725  28.126  1.00  0.00     0.010 A 
ATOM     38  C   UNL A   1      42.656  23.633  27.126  1.00  0.00    -0.014 A 
BRANCH  38  39
ATOM     39  C   UNL A   1      43.128  24.984  27.523  1.00  0.00     0.031 A 
ATOM     40  C   UNL A   1      42.163  25.967  28.127  1.00  0.00     0.074 A 
ATOM     41  C   UNL A   1      44.394  25.354  27.243  1.00  0.00     0.049 A 
ATOM     42  N   UNL A   1      42.334  27.235  28.401  1.00  0.00    -0.248 NA
ATOM     43  C   UNL A   1      40.815  25.463  28.429  1.00  0.00     0.031 C 
ATOM     44  C   UNL A   1      45.405  24.496  26.623  1.00  0.00     0.029 A 
ATOM     45  N   UNL A   1      45.040  26.551  27.421  1.00  0.00    -0.354 N 
ATOM     46  C   UNL A   1      41.111  27.686  28.886  1.00  0.00     0.074 A 
ATOM     47  C   UNL A   1      40.194  26.567  28.815  1.00  0.00     0.031 C 
ATOM     48  C   UNL A   1      46.547  25.190  26.483  1.00  0.00     0.029 A 
ATOM     49  C   UNL A   1      46.334  26.555  26.952  1.00  0.00     0.049 A 
ATOM     50  H   UNL A   1      44.618  27.334  27.844  1.00  0.00     0.167 HD
ATOM     51  C   UNL A   1      40.790  28.915  29.364  1.00  0.00     0.034 A 
ATOM     52  C   UNL A   1      47.238  27.552  26.884  1.00  0.00     0.034 A 
ATOM     53  C   UNL A   1      41.726  30.009  29.441  1.00  0.00     0.049 A 
ATOM     54  C   UNL A   1      46.849  28.917  27.390  1.00  0.00     0.074 A 
ATOM     55  C   UNL A   1      41.536  31.272  29.974  1.00  0.00     0.029 A 
ATOM     56  N   UNL A   1      43.029  29.976  28.957  1.00  0.00    -0.354 N 
ATOM     57  N   UNL A   1      45.706  29.314  27.899  1.00  0.00    -0.248 NA
ATOM     58  C   UNL A   1      47.872  29.967  27.315  1.00  0.00     0.031 C 
ATOM     59  C   UNL A   1      42.696  32.022  29.751  1.00  0.00     0.029 A 
ATOM     60  C   UNL A   1      43.638  31.207  29.144  1.00  0.00     0.049 A 
ATOM     61  H   UNL A   1      43.456  29.193  28.542  1.00  0.00     0.167 HD
ATOM     62  C   UNL A   1      45.880  30.656  28.223  1.00  0.00     0.074 A 
ATOM     63  C   UNL A   1      47.243  30.994  27.870  1.00  0.00     0.031 C 
ATOM     64  C   UNL A   1      44.994  31.530  28.765  1.00  0.00     0.034 A 
BRANCH  51  65
ATOM     65  C   UNL A   1      39.365  29.138  29.814  1.00  0.00     0.023 A 
ATOM     66  C   UNL A   1      38.446  29.858  29.030  1.00  0.00     0.031 A 
ATOM     67  C   UNL A   1      38.926  28.648  31.056  1.00  0.00     0.131 A 
ATOM     68  C   UNL A   1      37.164  30.134  29.529  1.00  0.00     0.055 A 
ATOM     69  C   UNL A   1      37.621  28.856  31.511  1.00  0.00     0.041 A 
ATOM     70  F   UNL A   1      39.761  27.970  31.859  1.00  0.00    -0.206 F 
ATOM     71  C   UNL A   1      36.736  29.617  30.753  1.00  0.00     0.022 A 
BRANCH  68  72
ATOM     72  S   UNL A   1      36.116  31.301  28.618  1.00  0.00     0.124 S 
ATOM     73  O   UNL A   1      37.036  32.413  28.395  1.00  0.00    -0.237 OA
ATOM     74  O   UNL A   1      35.743  30.532  27.435  1.00  0.00    -0.237 OA
ATOM     75  O   UNL A   1      35.025  31.581  29.549  1.00  0.00    -0.744 OA
ENDBRANCH  68  72
ENDBRANCH  51  65
BRANCH  52  76
ATOM     76  C   UNL A   1      48.586  27.311  26.291  1.00  0.00     0.023 A 
ATOM     77  C   UNL A   1      48.819  27.516  24.923  1.00  0.00     0.031 A 
ATOM     78  C   UNL A   1      49.653  26.844  27.080  1.00  0.00     0.131 A 
ATOM     79  C   UNL A   1      50.076  27.215  24.375  1.00  0.00     0.055 A 
ATOM     80  C   UNL A   1      50.916  26.596  26.540  1.00  0.00     0.041 A 
ATOM     81  F   UNL A   1      49.487  26.637  28.396  1.00  0.00    -0.206 F 
ATOM     82  C   UNL A   1      51.129  26.769  25.176  1.00  0.00     0.022 A 
BRANCH  79  83
ATOM     83  S   UNL A   1      50.292  27.342  22.578  1.00  0.00     0.124 S 
ATOM     84  O   UNL A   1      51.603  26.729  22.394  1.00  0.00    -0.237 OA
ATOM     85  O   UNL A   1      49.151  26.580  22.082  1.00  0.00    -0.237 OA
ATOM     86  O   UNL A   1      50.235  28.780  22.330  1.00  0.00    -0.744 OA
ENDBRANCH  79  83
ENDBRANCH  52  76
BRANCH  64  87
ATOM     87  C   UNL A   1      45.491  32.929  29.027  1.00  0.00     0.023 A 
ATOM     88  C   UNL A   1      46.068  33.286  30.258  1.00  0.00     0.031 A 
ATOM     89  C   UNL A   1      45.384  33.917  28.032  1.00  0.00     0.131 A 
ATOM     90  C   UNL A   1      46.475  34.610  30.480  1.00  0.00     0.055 A 
ATOM     91  C   UNL A   1      45.844  35.218  28.239  1.00  0.00     0.041 A 
ATOM     92  F   UNL A   1      44.838  33.630  26.841  1.00  0.00    -0.206 F 
ATOM     93  C   UNL A   1      46.384  35.573  29.472  1.00  0.00     0.022 A 
BRANCH  90  94
ATOM     94  S   UNL A   1      47.060  35.076  32.132  1.00  0.00     0.124 S 
ATOM     95  O   UNL A   1      46.280  36.281  32.400  1.00  0.00    -0.237 OA
ATOM     96  O   UNL A   1      46.715  33.904  32.930  1.00  0.00    -0.237 OA
ATOM     97  O   UNL A   1      48.492  35.295  31.940  1.00  0.00    -0.744 OA
ENDBRANCH  90  94
ENDBRANCH  64  87
ENDBRANCH  38  39
ENDBRANCH  30  33
ENDBRANCH  28  29
ENDBRANCH  27  28
ENDBRANCH  26  27
ENDBRANCH   1  26
TORSDOF 20
ENDMDL
