MODEL 1
REMARK VINA RESULT:     -11.1      0.000      0.000
REMARK SMILES Cn1cc(/C=C/C(=O)Nc2ccc(C(=O)NCCCCCCNC(=O)c3ccc(-c4c5nc(c(-c6cc(S(=O)(=O)[O-])ccc6F)c6ccc([nH]6)c(-c6cc(S(=O)(=O)[O-])ccc6F)c6nc(c(-c7cc(S(=O)(=O)[O-])ccc7F)c7ccc4[nH]7)C=C6)C=C5)cc3)c(O)c2)cn1
REMARK SMILES IDX 19 1 18 2 17 3 16 4 14 5 15 6 13 8 10 9 11 10 91 11 12 12
REMARK SMILES IDX 89 13 9 14 7 15 8 16 6 18 5 19 4 20 1 21 2 22 3 23 93 24
REMARK SMILES IDX 92 25 90 26 20 28 21 29 22 30 23 31 24 32 25 34 26 35 27 36
REMARK SMILES IDX 88 37 28 38 87 39 29 40 30 41 31 42 81 43 32 44 86 45 80 46
REMARK SMILES IDX 82 47 33 48 85 49 79 50 78 51 34 53 66 54 46 55 65 56 47 57
REMARK SMILES IDX 50 58 64 59 83 60 48 61 49 62 63 64 84 65 51 66 35 67 36 68
REMARK SMILES IDX 44 69 37 70 43 71 45 72 42 73 38 74 39 75 40 76 41 77 67 78
REMARK SMILES IDX 68 79 76 80 69 81 75 82 77 83 74 84 70 85 71 86 72 87 73 88
REMARK SMILES IDX 52 89 53 90 61 91 54 92 60 93 62 94 59 95 55 96 56 97 57 98
REMARK SMILES IDX 58 99
REMARK H PARENT 16 7 9 17 90 27 23 33 82 52 50 63
REMARK Flexibility Score: inf
ROOT
ATOM      1  C   UNL A   1      31.291  29.203  24.774  1.00  0.00     0.002 C 
ENDROOT
BRANCH   1   2
ATOM      2  C   UNL A   1      30.546  28.712  23.528  1.00  0.00     0.021 C 
BRANCH   2   3
ATOM      3  C   UNL A   1      31.171  27.540  22.774  1.00  0.00     0.116 C 
BRANCH   3   4
ATOM      4  N   UNL A   1      30.563  26.251  23.053  1.00  0.00    -0.352 N 
ATOM      5  C   UNL A   1      31.116  25.066  23.480  1.00  0.00     0.255 C 
ATOM      6  O   UNL A   1      30.368  24.100  23.627  1.00  0.00    -0.269 OA
ATOM      7  H   UNL A   1      29.591  26.220  22.911  1.00  0.00     0.163 HD
BRANCH   5   8
ATOM      8  C   UNL A   1      32.581  24.877  23.675  1.00  0.00     0.081 A 
ATOM      9  C   UNL A   1      35.199  24.208  24.470  1.00  0.00     0.045 A 
ATOM     10  C   UNL A   1      34.407  25.021  25.278  1.00  0.00     0.027 A 
ATOM     11  C   UNL A   1      34.762  23.930  23.175  1.00  0.00     0.073 A 
ATOM     12  C   UNL A   1      33.095  25.319  24.903  1.00  0.00     0.020 A 
ATOM     13  C   UNL A   1      33.473  24.299  22.772  1.00  0.00     0.130 A 
BRANCH   9  14
ATOM     14  N   UNL A   1      36.408  23.631  24.896  1.00  0.00    -0.322 N 
ATOM     15  C   UNL A   1      36.672  22.448  25.534  1.00  0.00     0.248 C 
ATOM     16  O   UNL A   1      37.798  22.227  25.979  1.00  0.00    -0.270 OA
ATOM     17  H   UNL A   1      37.207  24.173  24.702  1.00  0.00     0.170 HD
BRANCH  15  18
ATOM     18  C   UNL A   1      35.636  21.397  25.693  1.00  0.00     0.072 C 
ATOM     19  C   UNL A   1      35.486  20.365  24.845  1.00  0.00     0.017 C 
BRANCH  19  20
ATOM     20  C   UNL A   1      34.416  19.431  24.897  1.00  0.00     0.013 A 
ATOM     21  C   UNL A   1      32.866  16.218  24.435  1.00  0.00     0.173 C 
ATOM     22  N   UNL A   1      33.272  17.576  24.702  1.00  0.00    -0.275 N 
ATOM     23  C   UNL A   1      34.530  18.094  24.591  1.00  0.00     0.116 A 
ATOM     24  N   UNL A   1      32.351  18.484  25.081  1.00  0.00    -0.181 NA
ATOM     25  C   UNL A   1      33.054  19.615  25.200  1.00  0.00     0.143 A 
ENDBRANCH  19  20
ENDBRANCH  15  18
ENDBRANCH   9  14
BRANCH  13  26
ATOM     26  O   UNL A   1      33.190  24.079  21.454  1.00  0.00    -0.507 OA
ATOM     27  H   UNL A   1      33.105  24.803  20.866  1.00  0.00     0.293 HD
ENDBRANCH  13  26
ENDBRANCH   5   8
ENDBRANCH   3   4
ENDBRANCH   2   3
ENDBRANCH   1   2
BRANCH   1  28
ATOM     28  C   UNL A   1      31.420  28.219  25.940  1.00  0.00     0.002 C 
BRANCH  28  29
ATOM     29  C   UNL A   1      32.593  28.435  26.898  1.00  0.00     0.021 C 
BRANCH  29  30
ATOM     30  C   UNL A   1      33.675  29.399  26.423  1.00  0.00     0.116 C 
BRANCH  30  31
ATOM     31  N   UNL A   1      33.582  30.708  27.045  1.00  0.00    -0.352 N 
ATOM     32  C   UNL A   1      34.401  31.293  27.980  1.00  0.00     0.251 C 
ATOM     33  H   UNL A   1      32.818  31.257  26.753  1.00  0.00     0.163 HD
ATOM     34  O   UNL A   1      34.064  32.359  28.493  1.00  0.00    -0.269 OA
BRANCH  32  35
ATOM     35  C   UNL A   1      35.659  30.631  28.392  1.00  0.00     0.039 A 
ATOM     36  C   UNL A   1      36.833  30.921  27.690  1.00  0.00     0.014 A 
ATOM     37  C   UNL A   1      35.691  29.730  29.460  1.00  0.00     0.014 A 
ATOM     38  C   UNL A   1      38.045  30.359  28.100  1.00  0.00     0.010 A 
ATOM     39  C   UNL A   1      36.911  29.236  29.917  1.00  0.00     0.010 A 
ATOM     40  C   UNL A   1      38.102  29.542  29.240  1.00  0.00    -0.014 A 
BRANCH  40  41
ATOM     41  C   UNL A   1      39.397  29.004  29.737  1.00  0.00     0.031 A 
ATOM     42  C   UNL A   1      40.099  29.658  30.895  1.00  0.00     0.074 A 
ATOM     43  C   UNL A   1      39.967  27.956  29.110  1.00  0.00     0.049 A 
ATOM     44  N   UNL A   1      41.252  29.362  31.442  1.00  0.00    -0.248 NA
ATOM     45  C   UNL A   1      39.428  30.819  31.496  1.00  0.00     0.031 C 
ATOM     46  C   UNL A   1      39.403  27.256  27.955  1.00  0.00     0.029 A 
ATOM     47  N   UNL A   1      41.144  27.295  29.355  1.00  0.00    -0.354 N 
ATOM     48  C   UNL A   1      41.447  30.304  32.447  1.00  0.00     0.074 A 
ATOM     49  C   UNL A   1      40.331  31.224  32.375  1.00  0.00     0.031 C 
ATOM     50  C   UNL A   1      40.212  26.238  27.620  1.00  0.00     0.029 A 
ATOM     51  C   UNL A   1      41.378  26.244  28.499  1.00  0.00     0.049 A 
ATOM     52  H   UNL A   1      41.765  27.549  30.077  1.00  0.00     0.167 HD
ATOM     53  C   UNL A   1      42.448  30.379  33.361  1.00  0.00     0.034 A 
ATOM     54  C   UNL A   1      42.413  25.387  28.424  1.00  0.00     0.034 A 
ATOM     55  C   UNL A   1      43.558  29.456  33.410  1.00  0.00     0.049 A 
ATOM     56  C   UNL A   1      43.546  25.522  29.408  1.00  0.00     0.074 A 
ATOM     57  C   UNL A   1      44.602  29.408  34.317  1.00  0.00     0.029 A 
ATOM     58  N   UNL A   1      43.780  28.426  32.502  1.00  0.00    -0.354 N 
ATOM     59  N   UNL A   1      43.694  26.386  30.386  1.00  0.00    -0.248 NA
ATOM     60  C   UNL A   1      44.647  24.560  29.281  1.00  0.00     0.031 C 
ATOM     61  C   UNL A   1      45.496  28.411  33.910  1.00  0.00     0.029 A 
ATOM     62  C   UNL A   1      44.965  27.769  32.802  1.00  0.00     0.049 A 
ATOM     63  H   UNL A   1      43.183  28.197  31.754  1.00  0.00     0.167 HD
ATOM     64  C   UNL A   1      44.892  26.049  31.012  1.00  0.00     0.074 A 
ATOM     65  C   UNL A   1      45.415  24.896  30.306  1.00  0.00     0.031 C 
ATOM     66  C   UNL A   1      45.495  26.634  32.079  1.00  0.00     0.034 A 
BRANCH  53  67
ATOM     67  C   UNL A   1      42.393  31.524  34.349  1.00  0.00     0.023 A 
ATOM     68  C   UNL A   1      41.545  31.490  35.471  1.00  0.00     0.031 A 
ATOM     69  C   UNL A   1      43.145  32.693  34.136  1.00  0.00     0.131 A 
ATOM     70  C   UNL A   1      41.381  32.636  36.263  1.00  0.00     0.055 A 
ATOM     71  C   UNL A   1      43.057  33.794  34.992  1.00  0.00     0.041 A 
ATOM     72  F   UNL A   1      43.960  32.799  33.074  1.00  0.00    -0.206 F 
ATOM     73  C   UNL A   1      42.152  33.780  36.049  1.00  0.00     0.022 A 
BRANCH  70  74
ATOM     74  S   UNL A   1      40.000  32.679  37.441  1.00  0.00     0.124 S 
ATOM     75  O   UNL A   1      40.689  32.449  38.709  1.00  0.00    -0.237 OA
ATOM     76  O   UNL A   1      39.458  34.018  37.241  1.00  0.00    -0.237 OA
ATOM     77  O   UNL A   1      39.140  31.583  37.002  1.00  0.00    -0.744 OA
ENDBRANCH  70  74
ENDBRANCH  53  67
BRANCH  54  78
ATOM     78  C   UNL A   1      42.425  24.316  27.387  1.00  0.00     0.023 A 
ATOM     79  C   UNL A   1      41.839  23.066  27.636  1.00  0.00     0.031 A 
ATOM     80  C   UNL A   1      43.033  24.522  26.135  1.00  0.00     0.131 A 
ATOM     81  C   UNL A   1      41.900  22.057  26.662  1.00  0.00     0.055 A 
ATOM     82  C   UNL A   1      43.047  23.534  25.150  1.00  0.00     0.041 A 
ATOM     83  F   UNL A   1      43.604  25.702  25.844  1.00  0.00    -0.206 F 
ATOM     84  C   UNL A   1      42.485  22.288  25.414  1.00  0.00     0.022 A 
BRANCH  81  85
ATOM     85  S   UNL A   1      41.255  20.413  27.071  1.00  0.00     0.124 S 
ATOM     86  O   UNL A   1      40.706  20.632  28.404  1.00  0.00    -0.237 OA
ATOM     87  O   UNL A   1      40.282  20.194  26.004  1.00  0.00    -0.237 OA
ATOM     88  O   UNL A   1      42.439  19.559  27.014  1.00  0.00    -0.744 OA
ENDBRANCH  81  85
ENDBRANCH  54  78
BRANCH  66  89
ATOM     89  C   UNL A   1      46.778  26.005  32.572  1.00  0.00     0.023 A 
ATOM     90  C   UNL A   1      46.784  24.985  33.539  1.00  0.00     0.031 A 
ATOM     91  C   UNL A   1      48.019  26.448  32.076  1.00  0.00     0.131 A 
ATOM     92  C   UNL A   1      48.002  24.485  34.025  1.00  0.00     0.055 A 
ATOM     93  C   UNL A   1      49.226  25.897  32.511  1.00  0.00     0.041 A 
ATOM     94  F   UNL A   1      48.079  27.424  31.156  1.00  0.00    -0.206 F 
ATOM     95  C   UNL A   1      49.222  24.921  33.502  1.00  0.00     0.022 A 
BRANCH  92  96
ATOM     96  S   UNL A   1      47.976  23.337  35.430  1.00  0.00     0.124 S 
ATOM     97  O   UNL A   1      48.061  24.247  36.566  1.00  0.00    -0.237 OA
ATOM     98  O   UNL A   1      46.698  22.656  35.252  1.00  0.00    -0.237 OA
ATOM     99  O   UNL A   1      49.158  22.504  35.213  1.00  0.00    -0.744 OA
ENDBRANCH  92  96
ENDBRANCH  66  89
ENDBRANCH  40  41
ENDBRANCH  32  35
ENDBRANCH  30  31
ENDBRANCH  29  30
ENDBRANCH  28  29
ENDBRANCH   1  28
TORSDOF 20
ENDMDL
MODEL 2
REMARK VINA RESULT:     -11.1      3.021      4.649
REMARK SMILES Cn1cc(/C=C/C(=O)Nc2ccc(C(=O)NCCCCCCNC(=O)c3ccc(-c4c5nc(c(-c6cc(S(=O)(=O)[O-])ccc6F)c6ccc([nH]6)c(-c6cc(S(=O)(=O)[O-])ccc6F)c6nc(c(-c7cc(S(=O)(=O)[O-])ccc7F)c7ccc4[nH]7)C=C6)C=C5)cc3)c(O)c2)cn1
REMARK SMILES IDX 19 1 18 2 17 3 16 4 14 5 15 6 13 8 10 9 11 10 91 11 12 12
REMARK SMILES IDX 89 13 9 14 7 15 8 16 6 18 5 19 4 20 1 21 2 22 3 23 93 24
REMARK SMILES IDX 92 25 90 26 20 28 21 29 22 30 23 31 24 32 25 34 26 35 27 36
REMARK SMILES IDX 88 37 28 38 87 39 29 40 30 41 31 42 81 43 32 44 86 45 80 46
REMARK SMILES IDX 82 47 33 48 85 49 79 50 78 51 34 53 66 54 46 55 65 56 47 57
REMARK SMILES IDX 50 58 64 59 83 60 48 61 49 62 63 64 84 65 51 66 35 67 36 68
REMARK SMILES IDX 44 69 37 70 43 71 45 72 42 73 38 74 39 75 40 76 41 77 67 78
REMARK SMILES IDX 68 79 76 80 69 81 75 82 77 83 74 84 70 85 71 86 72 87 73 88
REMARK SMILES IDX 52 89 53 90 61 91 54 92 60 93 62 94 59 95 55 96 56 97 57 98
REMARK SMILES IDX 58 99
REMARK H PARENT 16 7 9 17 90 27 23 33 82 52 50 63
REMARK Flexibility Score: inf
ROOT
ATOM      1  C   UNL A   1      34.912  31.222  28.334  1.00  0.00     0.002 C 
ENDROOT
BRANCH   1   2
ATOM      2  C   UNL A   1      35.446  29.918  27.731  1.00  0.00     0.021 C 
BRANCH   2   3
ATOM      3  C   UNL A   1      34.442  29.053  26.973  1.00  0.00     0.116 C 
BRANCH   3   4
ATOM      4  N   UNL A   1      33.213  28.779  27.697  1.00  0.00    -0.352 N 
ATOM      5  C   UNL A   1      32.018  28.244  27.276  1.00  0.00     0.255 C 
ATOM      6  O   UNL A   1      31.113  28.130  28.103  1.00  0.00    -0.269 OA
ATOM      7  H   UNL A   1      33.240  29.018  28.650  1.00  0.00     0.163 HD
BRANCH   5   8
ATOM      8  C   UNL A   1      31.741  27.890  25.856  1.00  0.00     0.081 A 
ATOM      9  C   UNL A   1      31.763  27.237  23.116  1.00  0.00     0.045 A 
ATOM     10  C   UNL A   1      32.153  28.507  23.537  1.00  0.00     0.027 A 
ATOM     11  C   UNL A   1      31.151  26.389  24.039  1.00  0.00     0.073 A 
ATOM     12  C   UNL A   1      32.180  28.817  24.899  1.00  0.00     0.020 A 
ATOM     13  C   UNL A   1      31.108  26.735  25.394  1.00  0.00     0.130 A 
BRANCH   9  14
ATOM     14  N   UNL A   1      31.974  26.753  21.813  1.00  0.00    -0.322 N 
ATOM     15  C   UNL A   1      32.718  25.701  21.347  1.00  0.00     0.248 C 
ATOM     16  O   UNL A   1      32.907  25.569  20.139  1.00  0.00    -0.270 OA
ATOM     17  H   UNL A   1      31.505  27.259  21.111  1.00  0.00     0.170 HD
BRANCH  15  18
ATOM     18  C   UNL A   1      33.295  24.684  22.263  1.00  0.00     0.072 C 
ATOM     19  C   UNL A   1      32.946  23.386  22.250  1.00  0.00     0.017 C 
BRANCH  19  20
ATOM     20  C   UNL A   1      33.378  22.429  23.207  1.00  0.00     0.013 A 
ATOM     21  C   UNL A   1      33.046  19.504  25.274  1.00  0.00     0.173 C 
ATOM     22  N   UNL A   1      33.397  20.698  24.547  1.00  0.00    -0.275 N 
ATOM     23  C   UNL A   1      32.672  21.301  23.559  1.00  0.00     0.116 A 
ATOM     24  N   UNL A   1      34.539  21.349  24.845  1.00  0.00    -0.181 NA
ATOM     25  C   UNL A   1      34.524  22.405  24.025  1.00  0.00     0.143 A 
ENDBRANCH  19  20
ENDBRANCH  15  18
ENDBRANCH   9  14
BRANCH  13  26
ATOM     26  O   UNL A   1      30.389  25.889  26.189  1.00  0.00    -0.507 OA
ATOM     27  H   UNL A   1      29.465  25.802  26.065  1.00  0.00     0.293 HD
ENDBRANCH  13  26
ENDBRANCH   5   8
ENDBRANCH   3   4
ENDBRANCH   2   3
ENDBRANCH   1   2
BRANCH   1  28
ATOM     28  C   UNL A   1      35.684  32.505  28.012  1.00  0.00     0.002 C 
BRANCH  28  29
ATOM     29  C   UNL A   1      34.880  33.806  27.996  1.00  0.00     0.021 C 
BRANCH  29  30
ATOM     30  C   UNL A   1      33.413  33.692  28.399  1.00  0.00     0.116 C 
BRANCH  30  31
ATOM     31  N   UNL A   1      33.000  34.721  29.335  1.00  0.00    -0.352 N 
ATOM     32  C   UNL A   1      33.471  34.998  30.595  1.00  0.00     0.251 C 
ATOM     33  H   UNL A   1      32.274  35.308  29.020  1.00  0.00     0.163 HD
ATOM     34  O   UNL A   1      32.883  35.825  31.291  1.00  0.00    -0.269 OA
BRANCH  32  35
ATOM     35  C   UNL A   1      34.654  34.283  31.127  1.00  0.00     0.039 A 
ATOM     36  C   UNL A   1      34.474  33.028  31.715  1.00  0.00     0.014 A 
ATOM     37  C   UNL A   1      35.934  34.840  31.051  1.00  0.00     0.014 A 
ATOM     38  C   UNL A   1      35.583  32.306  32.166  1.00  0.00     0.010 A 
ATOM     39  C   UNL A   1      37.044  34.086  31.426  1.00  0.00     0.010 A 
ATOM     40  C   UNL A   1      36.881  32.811  31.990  1.00  0.00    -0.014 A 
BRANCH  40  41
ATOM     41  C   UNL A   1      38.075  32.019  32.390  1.00  0.00     0.031 A 
ATOM     42  C   UNL A   1      38.769  32.295  33.696  1.00  0.00     0.074 A 
ATOM     43  C   UNL A   1      38.566  31.084  31.553  1.00  0.00     0.049 A 
ATOM     44  N   UNL A   1      39.845  31.742  34.197  1.00  0.00    -0.248 NA
ATOM     45  C   UNL A   1      38.192  33.356  34.532  1.00  0.00     0.031 C 
ATOM     46  C   UNL A   1      38.003  30.746  30.244  1.00  0.00     0.029 A 
ATOM     47  N   UNL A   1      39.645  30.246  31.675  1.00  0.00    -0.354 N 
ATOM     48  C   UNL A   1      40.078  32.392  35.405  1.00  0.00     0.074 A 
ATOM     49  C   UNL A   1      39.076  33.432  35.515  1.00  0.00     0.031 C 
ATOM     50  C   UNL A   1      38.716  29.745  29.705  1.00  0.00     0.029 A 
ATOM     51  C   UNL A   1      39.817  29.404  30.601  1.00  0.00     0.049 A 
ATOM     52  H   UNL A   1      40.242  30.248  32.459  1.00  0.00     0.167 HD
ATOM     53  C   UNL A   1      41.020  32.130  36.346  1.00  0.00     0.034 A 
ATOM     54  C   UNL A   1      40.755  28.468  30.361  1.00  0.00     0.034 A 
ATOM     55  C   UNL A   1      42.017  31.093  36.214  1.00  0.00     0.049 A 
ATOM     56  C   UNL A   1      41.830  28.232  31.389  1.00  0.00     0.074 A 
ATOM     57  C   UNL A   1      42.990  30.709  37.120  1.00  0.00     0.029 A 
ATOM     58  N   UNL A   1      42.183  30.285  35.094  1.00  0.00    -0.354 N 
ATOM     59  N   UNL A   1      42.010  28.819  32.550  1.00  0.00    -0.248 NA
ATOM     60  C   UNL A   1      42.826  27.199  31.076  1.00  0.00     0.031 C 
ATOM     61  C   UNL A   1      43.793  29.734  36.519  1.00  0.00     0.029 A 
ATOM     62  C   UNL A   1      43.267  29.437  35.271  1.00  0.00     0.049 A 
ATOM     63  H   UNL A   1      41.613  30.310  34.292  1.00  0.00     0.167 HD
ATOM     64  C   UNL A   1      43.121  28.203  33.121  1.00  0.00     0.074 A 
ATOM     65  C   UNL A   1      43.559  27.192  32.179  1.00  0.00     0.031 C 
ATOM     66  C   UNL A   1      43.715  28.446  34.317  1.00  0.00     0.034 A 
BRANCH  53  67
ATOM     67  C   UNL A   1      41.028  33.012  37.577  1.00  0.00     0.023 A 
ATOM     68  C   UNL A   1      40.326  32.656  38.743  1.00  0.00     0.031 A 
ATOM     69  C   UNL A   1      41.688  34.254  37.566  1.00  0.00     0.131 A 
ATOM     70  C   UNL A   1      40.202  33.574  39.796  1.00  0.00     0.055 A 
ATOM     71  C   UNL A   1      41.648  35.120  38.661  1.00  0.00     0.041 A 
ATOM     72  F   UNL A   1      42.360  34.662  36.478  1.00  0.00    -0.206 F 
ATOM     73  C   UNL A   1      40.882  34.794  39.776  1.00  0.00     0.022 A 
BRANCH  70  74
ATOM     74  S   UNL A   1      38.974  33.240  41.091  1.00  0.00     0.124 S 
ATOM     75  O   UNL A   1      39.212  31.823  41.361  1.00  0.00    -0.237 OA
ATOM     76  O   UNL A   1      39.370  34.167  42.145  1.00  0.00    -0.237 OA
ATOM     77  O   UNL A   1      37.700  33.535  40.441  1.00  0.00    -0.744 OA
ENDBRANCH  70  74
ENDBRANCH  53  67
BRANCH  54  78
ATOM     78  C   UNL A   1      40.716  27.675  29.099  1.00  0.00     0.023 A 
ATOM     79  C   UNL A   1      41.621  27.934  28.058  1.00  0.00     0.031 A 
ATOM     80  C   UNL A   1      39.767  26.655  28.910  1.00  0.00     0.131 A 
ATOM     81  C   UNL A   1      41.538  27.206  26.861  1.00  0.00     0.055 A 
ATOM     82  C   UNL A   1      39.721  25.898  27.739  1.00  0.00     0.041 A 
ATOM     83  F   UNL A   1      38.882  26.363  29.877  1.00  0.00    -0.206 F 
ATOM     84  C   UNL A   1      40.606  26.178  26.701  1.00  0.00     0.022 A 
BRANCH  81  85
ATOM     85  S   UNL A   1      42.632  27.661  25.489  1.00  0.00     0.124 S 
ATOM     86  O   UNL A   1      42.568  26.470  24.650  1.00  0.00    -0.237 OA
ATOM     87  O   UNL A   1      41.975  28.854  24.961  1.00  0.00    -0.237 OA
ATOM     88  O   UNL A   1      43.916  27.899  26.143  1.00  0.00    -0.744 OA
ENDBRANCH  81  85
ENDBRANCH  54  78
BRANCH  66  89
ATOM     89  C   UNL A   1      44.887  27.568  34.692  1.00  0.00     0.023 A 
ATOM     90  C   UNL A   1      44.725  26.388  35.439  1.00  0.00     0.031 A 
ATOM     91  C   UNL A   1      46.192  27.929  34.307  1.00  0.00     0.131 A 
ATOM     92  C   UNL A   1      45.851  25.647  35.832  1.00  0.00     0.055 A 
ATOM     93  C   UNL A   1      47.301  27.149  34.640  1.00  0.00     0.041 A 
ATOM     94  F   UNL A   1      46.411  29.048  33.598  1.00  0.00    -0.206 F 
ATOM     95  C   UNL A   1      47.135  26.009  35.419  1.00  0.00     0.022 A 
BRANCH  92  96
ATOM     96  S   UNL A   1      45.624  24.262  36.982  1.00  0.00     0.124 S 
ATOM     97  O   UNL A   1      46.962  24.116  37.546  1.00  0.00    -0.237 OA
ATOM     98  O   UNL A   1      44.601  24.773  37.889  1.00  0.00    -0.237 OA
ATOM     99  O   UNL A   1      45.193  23.165  36.117  1.00  0.00    -0.744 OA
ENDBRANCH  92  96
ENDBRANCH  66  89
ENDBRANCH  40  41
ENDBRANCH  32  35
ENDBRANCH  30  31
ENDBRANCH  29  30
ENDBRANCH  28  29
ENDBRANCH   1  28
TORSDOF 20
ENDMDL
MODEL 3
REMARK VINA RESULT:     -10.8      3.945      6.334
REMARK SMILES Cn1cc(/C=C/C(=O)Nc2ccc(C(=O)NCCCCCCNC(=O)c3ccc(-c4c5nc(c(-c6cc(S(=O)(=O)[O-])ccc6F)c6ccc([nH]6)c(-c6cc(S(=O)(=O)[O-])ccc6F)c6nc(c(-c7cc(S(=O)(=O)[O-])ccc7F)c7ccc4[nH]7)C=C6)C=C5)cc3)c(O)c2)cn1
REMARK SMILES IDX 19 1 18 2 17 3 16 4 14 5 15 6 13 8 10 9 11 10 91 11 12 12
REMARK SMILES IDX 89 13 9 14 7 15 8 16 6 18 5 19 4 20 1 21 2 22 3 23 93 24
REMARK SMILES IDX 92 25 90 26 20 28 21 29 22 30 23 31 24 32 25 34 26 35 27 36
REMARK SMILES IDX 88 37 28 38 87 39 29 40 30 41 31 42 81 43 32 44 86 45 80 46
REMARK SMILES IDX 82 47 33 48 85 49 79 50 78 51 34 53 66 54 46 55 65 56 47 57
REMARK SMILES IDX 50 58 64 59 83 60 48 61 49 62 63 64 84 65 51 66 35 67 36 68
REMARK SMILES IDX 44 69 37 70 43 71 45 72 42 73 38 74 39 75 40 76 41 77 67 78
REMARK SMILES IDX 68 79 76 80 69 81 75 82 77 83 74 84 70 85 71 86 72 87 73 88
REMARK SMILES IDX 52 89 53 90 61 91 54 92 60 93 62 94 59 95 55 96 56 97 57 98
REMARK SMILES IDX 58 99
REMARK H PARENT 16 7 9 17 90 27 23 33 82 52 50 63
REMARK Flexibility Score: inf
ROOT
ATOM      1  C   UNL A   1      35.576  32.775  28.981  1.00  0.00     0.002 C 
ENDROOT
BRANCH   1   2
ATOM      2  C   UNL A   1      35.993  31.669  28.005  1.00  0.00     0.021 C 
BRANCH   2   3
ATOM      3  C   UNL A   1      34.961  30.581  27.722  1.00  0.00     0.116 C 
BRANCH   3   4
ATOM      4  N   UNL A   1      33.612  31.071  27.501  1.00  0.00    -0.352 N 
ATOM      5  C   UNL A   1      32.507  30.459  26.957  1.00  0.00     0.255 C 
ATOM      6  O   UNL A   1      31.468  31.114  26.870  1.00  0.00    -0.269 OA
ATOM      7  H   UNL A   1      33.463  31.999  27.790  1.00  0.00     0.163 HD
BRANCH   5   8
ATOM      8  C   UNL A   1      32.539  29.083  26.385  1.00  0.00     0.081 A 
ATOM      9  C   UNL A   1      32.057  26.541  25.272  1.00  0.00     0.045 A 
ATOM     10  C   UNL A   1      31.630  26.833  26.566  1.00  0.00     0.027 A 
ATOM     11  C   UNL A   1      32.917  27.438  24.638  1.00  0.00     0.073 A 
ATOM     12  C   UNL A   1      31.834  28.106  27.102  1.00  0.00     0.020 A 
ATOM     13  C   UNL A   1      33.185  28.685  25.213  1.00  0.00     0.130 A 
BRANCH   9  14
ATOM     14  N   UNL A   1      31.649  25.400  24.559  1.00  0.00    -0.322 N 
ATOM     15  C   UNL A   1      30.502  25.131  23.861  1.00  0.00     0.248 C 
ATOM     16  O   UNL A   1      30.278  23.988  23.464  1.00  0.00    -0.270 OA
ATOM     17  H   UNL A   1      32.304  24.665  24.561  1.00  0.00     0.170 HD
BRANCH  15  18
ATOM     18  C   UNL A   1      29.512  26.191  23.543  1.00  0.00     0.072 C 
ATOM     19  C   UNL A   1      29.847  27.460  23.251  1.00  0.00     0.017 C 
BRANCH  19  20
ATOM     20  C   UNL A   1      28.914  28.518  23.084  1.00  0.00     0.013 A 
ATOM     21  C   UNL A   1      27.912  31.951  22.692  1.00  0.00     0.173 C 
ATOM     22  N   UNL A   1      28.078  30.526  22.840  1.00  0.00    -0.275 N 
ATOM     23  C   UNL A   1      29.255  29.836  22.879  1.00  0.00     0.116 A 
ATOM     24  N   UNL A   1      26.992  29.740  22.985  1.00  0.00    -0.181 NA
ATOM     25  C   UNL A   1      27.507  28.515  23.133  1.00  0.00     0.143 A 
ENDBRANCH  19  20
ENDBRANCH  15  18
ENDBRANCH   9  14
BRANCH  13  26
ATOM     26  O   UNL A   1      34.124  29.436  24.566  1.00  0.00    -0.507 OA
ATOM     27  H   UNL A   1      34.930  29.044  24.294  1.00  0.00     0.293 HD
ENDBRANCH  13  26
ENDBRANCH   5   8
ENDBRANCH   3   4
ENDBRANCH   2   3
ENDBRANCH   1   2
BRANCH   1  28
ATOM     28  C   UNL A   1      35.722  34.221  28.497  1.00  0.00     0.002 C 
BRANCH  28  29
ATOM     29  C   UNL A   1      34.462  35.087  28.526  1.00  0.00     0.021 C 
BRANCH  29  30
ATOM     30  C   UNL A   1      33.237  34.465  29.188  1.00  0.00     0.116 C 
BRANCH  30  31
ATOM     31  N   UNL A   1      32.673  35.299  30.234  1.00  0.00    -0.352 N 
ATOM     32  C   UNL A   1      33.032  35.407  31.556  1.00  0.00     0.251 C 
ATOM     33  H   UNL A   1      31.923  35.872  29.954  1.00  0.00     0.163 HD
ATOM     34  O   UNL A   1      32.329  36.067  32.319  1.00  0.00    -0.269 OA
BRANCH  32  35
ATOM     35  C   UNL A   1      34.234  34.709  32.066  1.00  0.00     0.039 A 
ATOM     36  C   UNL A   1      34.099  33.405  32.551  1.00  0.00     0.014 A 
ATOM     37  C   UNL A   1      35.487  35.328  32.070  1.00  0.00     0.014 A 
ATOM     38  C   UNL A   1      35.229  32.702  32.978  1.00  0.00     0.010 A 
ATOM     39  C   UNL A   1      36.622  34.599  32.419  1.00  0.00     0.010 A 
ATOM     40  C   UNL A   1      36.505  33.278  32.880  1.00  0.00    -0.014 A 
BRANCH  40  41
ATOM     41  C   UNL A   1      37.725  32.512  33.253  1.00  0.00     0.031 A 
ATOM     42  C   UNL A   1      38.468  32.836  34.520  1.00  0.00     0.074 A 
ATOM     43  C   UNL A   1      38.194  31.559  32.424  1.00  0.00     0.049 A 
ATOM     44  N   UNL A   1      39.571  32.311  34.993  1.00  0.00    -0.248 NA
ATOM     45  C   UNL A   1      37.912  33.914  35.349  1.00  0.00     0.031 C 
ATOM     46  C   UNL A   1      37.583  31.175  31.151  1.00  0.00     0.029 A 
ATOM     47  N   UNL A   1      39.289  30.738  32.527  1.00  0.00    -0.354 N 
ATOM     48  C   UNL A   1      39.845  33.000  36.171  1.00  0.00     0.074 A 
ATOM     49  C   UNL A   1      38.834  34.031  36.291  1.00  0.00     0.031 C 
ATOM     50  C   UNL A   1      38.286  30.166  30.612  1.00  0.00     0.029 A 
ATOM     51  C   UNL A   1      39.427  29.866  31.472  1.00  0.00     0.049 A 
ATOM     52  H   UNL A   1      39.917  30.771  33.284  1.00  0.00     0.167 HD
ATOM     53  C   UNL A   1      40.829  32.778  37.079  1.00  0.00     0.034 A 
ATOM     54  C   UNL A   1      40.367  28.935  31.221  1.00  0.00     0.034 A 
ATOM     55  C   UNL A   1      41.833  31.749  36.936  1.00  0.00     0.049 A 
ATOM     56  C   UNL A   1      41.486  28.742  32.211  1.00  0.00     0.074 A 
ATOM     57  C   UNL A   1      42.847  31.404  37.813  1.00  0.00     0.029 A 
ATOM     58  N   UNL A   1      41.963  30.910  35.835  1.00  0.00    -0.354 N 
ATOM     59  N   UNL A   1      41.705  29.366  33.345  1.00  0.00    -0.248 NA
ATOM     60  C   UNL A   1      42.482  27.713  31.887  1.00  0.00     0.031 C 
ATOM     61  C   UNL A   1      43.638  30.421  37.208  1.00  0.00     0.029 A 
ATOM     62  C   UNL A   1      43.065  30.081  35.992  1.00  0.00     0.049 A 
ATOM     63  H   UNL A   1      41.361  30.904  35.057  1.00  0.00     0.167 HD
ATOM     64  C   UNL A   1      42.847  28.781  33.887  1.00  0.00     0.074 A 
ATOM     65  C   UNL A   1      43.260  27.748  32.959  1.00  0.00     0.031 C 
ATOM     66  C   UNL A   1      43.487  29.067  35.050  1.00  0.00     0.034 A 
BRANCH  53  67
ATOM     67  C   UNL A   1      40.874  33.696  38.282  1.00  0.00     0.023 A 
ATOM     68  C   UNL A   1      40.053  33.484  39.404  1.00  0.00     0.031 A 
ATOM     69  C   UNL A   1      41.699  34.835  38.284  1.00  0.00     0.131 A 
ATOM     70  C   UNL A   1      39.986  34.449  40.418  1.00  0.00     0.055 A 
ATOM     71  C   UNL A   1      41.706  35.740  39.349  1.00  0.00     0.041 A 
ATOM     72  F   UNL A   1      42.494  35.107  37.237  1.00  0.00    -0.206 F 
ATOM     73  C   UNL A   1      40.828  35.563  40.414  1.00  0.00     0.022 A 
BRANCH  70  74
ATOM     74  S   UNL A   1      38.639  34.334  41.631  1.00  0.00     0.124 S 
ATOM     75  O   UNL A   1      39.197  33.392  42.599  1.00  0.00    -0.237 OA
ATOM     76  O   UNL A   1      38.505  35.714  42.084  1.00  0.00    -0.237 OA
ATOM     77  O   UNL A   1      37.517  33.819  40.849  1.00  0.00    -0.744 OA
ENDBRANCH  70  74
ENDBRANCH  53  67
BRANCH  54  78
ATOM     78  C   UNL A   1      40.287  28.104  29.986  1.00  0.00     0.023 A 
ATOM     79  C   UNL A   1      41.132  28.354  28.894  1.00  0.00     0.031 A 
ATOM     80  C   UNL A   1      39.358  27.055  29.874  1.00  0.00     0.131 A 
ATOM     81  C   UNL A   1      41.010  27.588  27.724  1.00  0.00     0.055 A 
ATOM     82  C   UNL A   1      39.274  26.262  28.728  1.00  0.00     0.041 A 
ATOM     83  F   UNL A   1      38.529  26.770  30.892  1.00  0.00    -0.206 F 
ATOM     84  C   UNL A   1      40.098  26.533  27.640  1.00  0.00     0.022 A 
BRANCH  81  85
ATOM     85  S   UNL A   1      42.022  28.031  26.286  1.00  0.00     0.124 S 
ATOM     86  O   UNL A   1      41.736  26.930  25.372  1.00  0.00    -0.237 OA
ATOM     87  O   UNL A   1      41.471  29.331  25.916  1.00  0.00    -0.237 OA
ATOM     88  O   UNL A   1      43.380  28.062  26.823  1.00  0.00    -0.744 OA
ENDBRANCH  81  85
ENDBRANCH  54  78
BRANCH  66  89
ATOM     89  C   UNL A   1      44.685  28.216  35.402  1.00  0.00     0.023 A 
ATOM     90  C   UNL A   1      44.553  26.978  36.057  1.00  0.00     0.031 A 
ATOM     91  C   UNL A   1      45.984  28.659  35.090  1.00  0.00     0.131 A 
ATOM     92  C   UNL A   1      45.697  26.259  36.434  1.00  0.00     0.055 A 
ATOM     93  C   UNL A   1      47.116  27.905  35.405  1.00  0.00     0.041 A 
ATOM     94  F   UNL A   1      46.175  29.835  34.472  1.00  0.00    -0.206 F 
ATOM     95  C   UNL A   1      46.976  26.704  36.094  1.00  0.00     0.022 A 
BRANCH  92  96
ATOM     96  S   UNL A   1      45.497  24.785  37.474  1.00  0.00     0.124 S 
ATOM     97  O   UNL A   1      46.794  24.134  37.328  1.00  0.00    -0.237 OA
ATOM     98  O   UNL A   1      45.217  25.363  38.784  1.00  0.00    -0.237 OA
ATOM     99  O   UNL A   1      44.376  24.079  36.855  1.00  0.00    -0.744 OA
ENDBRANCH  92  96
ENDBRANCH  66  89
ENDBRANCH  40  41
ENDBRANCH  32  35
ENDBRANCH  30  31
ENDBRANCH  29  30
ENDBRANCH  28  29
ENDBRANCH   1  28
TORSDOF 20
ENDMDL
