MODEL 1
REMARK VINA RESULT:     -12.6      0.000      0.000
REMARK SMILES O=C(NCCCCCCNC(=O)c1ccc(-c2c3nc(c(-c4cc(S(=O)(=O)[O-])ccc4F)c4ccc([nH]4)c(-c4cc(S(=O)(=O)[O-])ccc4F)c4nc(c(-c5cc(S(=O)(=O)[O-])ccc5F)c5ccc2[nH]5)C=C4)C=C3)cc1)C1=Cc2ccc(Cl)c(Cl)c2O[C@@H]1C(F)(F)F
REMARK SMILES IDX 7 1 6 2 5 3 4 4 3 5 1 6 2 7 76 9 77 10 87 11 78 12 86 13
REMARK SMILES IDX 79 14 85 15 80 16 83 17 81 18 84 19 82 20 88 21 89 22 90 23
REMARK SMILES IDX 91 24 8 25 9 26 10 27 11 28 12 30 13 31 14 32 75 33 15 34
REMARK SMILES IDX 74 35 16 36 17 37 18 38 68 39 19 40 73 41 67 42 69 43 20 44
REMARK SMILES IDX 72 45 66 46 65 47 21 49 53 50 33 51 52 52 34 53 37 54 51 55
REMARK SMILES IDX 70 56 35 57 36 58 50 60 71 61 38 62 22 63 23 64 31 65 24 66
REMARK SMILES IDX 30 67 32 68 29 69 25 70 26 71 27 72 28 73 54 74 55 75 63 76
REMARK SMILES IDX 56 77 62 78 64 79 61 80 57 81 58 82 59 83 60 84 39 85 40 86
REMARK SMILES IDX 48 87 41 88 47 89 49 90 46 91 42 92 43 93 44 94 45 95
REMARK H PARENT 3 8 10 29 69 48 37 59
REMARK Flexibility Score: inf
ROOT
ATOM      1  C   UNL A   1      31.452  30.570  26.192  1.00  0.00     0.002 C 
ENDROOT
BRANCH   1   2
ATOM      2  C   UNL A   1      32.264  29.665  27.127  1.00  0.00     0.002 C 
BRANCH   2   3
ATOM      3  C   UNL A   1      31.684  28.283  27.424  1.00  0.00     0.021 C 
BRANCH   3   4
ATOM      4  C   UNL A   1      31.441  27.376  26.221  1.00  0.00     0.116 C 
BRANCH   4   5
ATOM      5  N   UNL A   1      30.664  26.177  26.499  1.00  0.00    -0.352 N 
ATOM      6  O   UNL A   1      30.266  23.993  26.865  1.00  0.00    -0.270 OA
ATOM      7  C   UNL A   1      31.026  24.857  26.432  1.00  0.00     0.251 C 
ATOM      8  H   UNL A   1      29.733  26.339  26.779  1.00  0.00     0.163 HD
BRANCH   7   9
ATOM      9  C   UNL A   1      32.376  24.434  25.950  1.00  0.00     0.067 C 
ATOM     10  C   UNL A   1      33.038  23.441  26.561  1.00  0.00     0.025 C 
ATOM     11  C   UNL A   1      32.562  24.641  24.469  1.00  0.00     0.314 C 
ATOM     12  C   UNL A   1      33.208  22.235  25.735  1.00  0.00     0.019 A 
ATOM     13  O   UNL A   1      32.461  23.400  23.730  1.00  0.00    -0.474 OA
ATOM     14  C   UNL A   1      33.480  21.027  26.387  1.00  0.00     0.013 A 
ATOM     15  C   UNL A   1      32.785  22.238  24.394  1.00  0.00     0.148 A 
ATOM     16  C   UNL A   1      33.244  19.820  25.732  1.00  0.00     0.023 A 
ATOM     17  C   UNL A   1      32.560  21.020  23.732  1.00  0.00     0.102 A 
ATOM     18  C   UNL A   1      32.763  19.814  24.418  1.00  0.00     0.063 A 
ATOM     19  Cl  UNL A   1      31.925  21.040  22.118  1.00  0.00    -0.079 Cl
ATOM     20  Cl  UNL A   1      32.359  18.280  23.731  1.00  0.00    -0.083 Cl
BRANCH  11  21
ATOM     21  C   UNL A   1      33.886  25.370  24.176  1.00  0.00     0.429 C 
ATOM     22  F   UNL A   1      33.669  26.615  23.689  1.00  0.00    -0.167 F 
ATOM     23  F   UNL A   1      34.637  25.514  25.295  1.00  0.00    -0.167 F 
ATOM     24  F   UNL A   1      34.650  24.712  23.271  1.00  0.00    -0.167 F 
ENDBRANCH  11  21
ENDBRANCH   7   9
ENDBRANCH   4   5
ENDBRANCH   3   4
ENDBRANCH   2   3
ENDBRANCH   1   2
BRANCH   1  25
ATOM     25  C   UNL A   1      31.457  32.074  26.492  1.00  0.00     0.021 C 
BRANCH  25  26
ATOM     26  C   UNL A   1      32.667  32.615  27.252  1.00  0.00     0.116 C 
BRANCH  26  27
ATOM     27  N   UNL A   1      32.507  33.995  27.666  1.00  0.00    -0.352 N 
ATOM     28  C   UNL A   1      33.174  34.719  28.626  1.00  0.00     0.251 C 
ATOM     29  H   UNL A   1      31.809  34.493  27.183  1.00  0.00     0.163 HD
ATOM     30  O   UNL A   1      32.773  35.845  28.905  1.00  0.00    -0.269 OA
BRANCH  28  31
ATOM     31  C   UNL A   1      34.345  34.152  29.340  1.00  0.00     0.039 A 
ATOM     32  C   UNL A   1      34.113  33.332  30.450  1.00  0.00     0.014 A 
ATOM     33  C   UNL A   1      35.656  34.454  28.968  1.00  0.00     0.014 A 
ATOM     34  C   UNL A   1      35.189  32.777  31.149  1.00  0.00     0.010 A 
ATOM     35  C   UNL A   1      36.729  33.849  29.627  1.00  0.00     0.010 A 
ATOM     36  C   UNL A   1      36.508  33.007  30.728  1.00  0.00    -0.014 A 
BRANCH  36  37
ATOM     37  C   UNL A   1      37.660  32.385  31.437  1.00  0.00     0.031 A 
ATOM     38  C   UNL A   1      38.407  31.238  30.812  1.00  0.00     0.074 A 
ATOM     39  C   UNL A   1      38.005  32.823  32.665  1.00  0.00     0.049 A 
ATOM     40  N   UNL A   1      39.390  30.523  31.299  1.00  0.00    -0.248 NA
ATOM     41  C   UNL A   1      37.970  30.825  29.471  1.00  0.00     0.031 C 
ATOM     42  C   UNL A   1      37.336  33.902  33.393  1.00  0.00     0.029 A 
ATOM     43  N   UNL A   1      38.994  32.407  33.522  1.00  0.00    -0.354 N 
ATOM     44  C   UNL A   1      39.687  29.572  30.328  1.00  0.00     0.074 A 
ATOM     45  C   UNL A   1      38.730  29.762  29.257  1.00  0.00     0.031 C 
ATOM     46  C   UNL A   1      37.942  34.073  34.579  1.00  0.00     0.029 A 
ATOM     47  C   UNL A   1      39.013  33.090  34.716  1.00  0.00     0.049 A 
ATOM     48  H   UNL A   1      39.631  31.689  33.302  1.00  0.00     0.167 HD
ATOM     49  C   UNL A   1      40.679  28.645  30.319  1.00  0.00     0.034 A 
ATOM     50  C   UNL A   1      39.792  32.934  35.805  1.00  0.00     0.034 A 
ATOM     51  C   UNL A   1      41.624  28.468  31.396  1.00  0.00     0.049 A 
ATOM     52  C   UNL A   1      40.867  31.879  35.789  1.00  0.00     0.074 A 
ATOM     53  C   UNL A   1      42.688  27.587  31.476  1.00  0.00     0.029 A 
ATOM     54  N   UNL A   1      41.614  29.181  32.589  1.00  0.00    -0.354 N 
ATOM     55  N   UNL A   1      41.161  31.014  34.846  1.00  0.00    -0.248 NA
ATOM     56  C   UNL A   1      41.725  31.789  36.977  1.00  0.00     0.031 C 
ATOM     57  C   UNL A   1      43.277  27.719  32.739  1.00  0.00     0.029 A 
ATOM     58  C   UNL A   1      42.633  28.739  33.420  1.00  0.00     0.049 A 
ATOM     59  H   UNL A   1      40.976  29.898  32.812  1.00  0.00     0.167 HD
ATOM     60  C   UNL A   1      42.254  30.293  35.319  1.00  0.00     0.074 A 
ATOM     61  C   UNL A   1      42.576  30.837  36.623  1.00  0.00     0.031 C 
ATOM     62  C   UNL A   1      42.933  29.277  34.728  1.00  0.00     0.034 A 
BRANCH  49  63
ATOM     63  C   UNL A   1      40.764  27.738  29.110  1.00  0.00     0.023 A 
ATOM     64  C   UNL A   1      41.721  27.947  28.100  1.00  0.00     0.031 A 
ATOM     65  C   UNL A   1      39.856  26.678  28.942  1.00  0.00     0.131 A 
ATOM     66  C   UNL A   1      41.686  27.174  26.930  1.00  0.00     0.055 A 
ATOM     67  C   UNL A   1      39.885  25.853  27.816  1.00  0.00     0.041 A 
ATOM     68  F   UNL A   1      38.906  26.438  29.861  1.00  0.00    -0.206 F 
ATOM     69  C   UNL A   1      40.793  26.110  26.792  1.00  0.00     0.022 A 
BRANCH  66  70
ATOM     70  S   UNL A   1      42.712  27.688  25.525  1.00  0.00     0.124 S 
ATOM     71  O   UNL A   1      41.970  28.844  25.027  1.00  0.00    -0.237 OA
ATOM     72  O   UNL A   1      43.993  27.974  26.158  1.00  0.00    -0.237 OA
ATOM     73  O   UNL A   1      42.696  26.522  24.644  1.00  0.00    -0.744 OA
ENDBRANCH  66  70
ENDBRANCH  49  63
BRANCH  50  74
ATOM     74  C   UNL A   1      39.571  33.784  37.011  1.00  0.00     0.023 A 
ATOM     75  C   UNL A   1      38.919  33.282  38.147  1.00  0.00     0.031 A 
ATOM     76  C   UNL A   1      39.994  35.126  37.031  1.00  0.00     0.131 A 
ATOM     77  C   UNL A   1      38.672  34.127  39.241  1.00  0.00     0.055 A 
ATOM     78  C   UNL A   1      39.793  35.946  38.141  1.00  0.00     0.041 A 
ATOM     79  F   UNL A   1      40.627  35.654  35.971  1.00  0.00    -0.206 F 
ATOM     80  C   UNL A   1      39.117  35.450  39.252  1.00  0.00     0.022 A 
BRANCH  77  81
ATOM     81  S   UNL A   1      37.694  33.488  40.629  1.00  0.00     0.124 S 
ATOM     82  O   UNL A   1      38.611  32.517  41.216  1.00  0.00    -0.237 OA
ATOM     83  O   UNL A   1      37.452  34.696  41.411  1.00  0.00    -0.237 OA
ATOM     84  O   UNL A   1      36.513  32.921  39.981  1.00  0.00    -0.744 OA
ENDBRANCH  77  81
ENDBRANCH  50  74
BRANCH  62  85
ATOM     85  C   UNL A   1      44.119  28.717  35.477  1.00  0.00     0.023 A 
ATOM     86  C   UNL A   1      43.987  27.645  36.377  1.00  0.00     0.031 A 
ATOM     87  C   UNL A   1      45.398  29.274  35.295  1.00  0.00     0.131 A 
ATOM     88  C   UNL A   1      45.104  27.198  37.102  1.00  0.00     0.055 A 
ATOM     89  C   UNL A   1      46.516  28.786  35.974  1.00  0.00     0.041 A 
ATOM     90  F   UNL A   1      45.582  30.300  34.450  1.00  0.00    -0.206 F 
ATOM     91  C   UNL A   1      46.369  27.752  36.893  1.00  0.00     0.022 A 
BRANCH  88  92
ATOM     92  S   UNL A   1      44.864  25.945  38.391  1.00  0.00     0.124 S 
ATOM     93  O   UNL A   1      43.965  25.002  37.733  1.00  0.00    -0.237 OA
ATOM     94  O   UNL A   1      46.225  25.472  38.623  1.00  0.00    -0.237 OA
ATOM     95  O   UNL A   1      44.272  26.697  39.496  1.00  0.00    -0.744 OA
ENDBRANCH  88  92
ENDBRANCH  62  85
ENDBRANCH  36  37
ENDBRANCH  28  31
ENDBRANCH  26  27
ENDBRANCH  25  26
ENDBRANCH   1  25
TORSDOF 17
ENDMDL
MODEL 2
REMARK VINA RESULT:     -12.3      5.179      8.259
REMARK SMILES O=C(NCCCCCCNC(=O)c1ccc(-c2c3nc(c(-c4cc(S(=O)(=O)[O-])ccc4F)c4ccc([nH]4)c(-c4cc(S(=O)(=O)[O-])ccc4F)c4nc(c(-c5cc(S(=O)(=O)[O-])ccc5F)c5ccc2[nH]5)C=C4)C=C3)cc1)C1=Cc2ccc(Cl)c(Cl)c2O[C@@H]1C(F)(F)F
REMARK SMILES IDX 7 1 6 2 5 3 4 4 3 5 1 6 2 7 76 9 77 10 87 11 78 12 86 13
REMARK SMILES IDX 79 14 85 15 80 16 83 17 81 18 84 19 82 20 88 21 89 22 90 23
REMARK SMILES IDX 91 24 8 25 9 26 10 27 11 28 12 30 13 31 14 32 75 33 15 34
REMARK SMILES IDX 74 35 16 36 17 37 18 38 68 39 19 40 73 41 67 42 69 43 20 44
REMARK SMILES IDX 72 45 66 46 65 47 21 49 53 50 33 51 52 52 34 53 37 54 51 55
REMARK SMILES IDX 70 56 35 57 36 58 50 60 71 61 38 62 22 63 23 64 31 65 24 66
REMARK SMILES IDX 30 67 32 68 29 69 25 70 26 71 27 72 28 73 54 74 55 75 63 76
REMARK SMILES IDX 56 77 62 78 64 79 61 80 57 81 58 82 59 83 60 84 39 85 40 86
REMARK SMILES IDX 48 87 41 88 47 89 49 90 46 91 42 92 43 93 44 94 45 95
REMARK H PARENT 3 8 10 29 69 48 37 59
REMARK Flexibility Score: inf
ROOT
ATOM      1  C   UNL A   1      35.098  21.453  26.308  1.00  0.00     0.002 C 
ENDROOT
BRANCH   1   2
ATOM      2  C   UNL A   1      34.797  20.804  24.951  1.00  0.00     0.002 C 
BRANCH   2   3
ATOM      3  C   UNL A   1      33.658  19.786  24.912  1.00  0.00     0.021 C 
BRANCH   3   4
ATOM      4  C   UNL A   1      32.267  20.335  24.608  1.00  0.00     0.116 C 
BRANCH   4   5
ATOM      5  N   UNL A   1      31.751  21.282  25.586  1.00  0.00    -0.352 N 
ATOM      6  O   UNL A   1      30.830  23.185  26.356  1.00  0.00    -0.270 OA
ATOM      7  C   UNL A   1      31.401  22.599  25.438  1.00  0.00     0.251 C 
ATOM      8  H   UNL A   1      31.634  20.920  26.495  1.00  0.00     0.163 HD
BRANCH   7   9
ATOM      9  C   UNL A   1      31.589  23.323  24.144  1.00  0.00     0.067 C 
ATOM     10  C   UNL A   1      30.591  24.047  23.617  1.00  0.00     0.025 C 
ATOM     11  C   UNL A   1      33.013  23.758  23.917  1.00  0.00     0.314 C 
ATOM     12  C   UNL A   1      30.850  25.495  23.586  1.00  0.00     0.019 A 
ATOM     13  O   UNL A   1      33.195  25.173  24.160  1.00  0.00    -0.474 OA
ATOM     14  C   UNL A   1      29.752  26.355  23.473  1.00  0.00     0.013 A 
ATOM     15  C   UNL A   1      32.102  25.993  23.989  1.00  0.00     0.148 A 
ATOM     16  C   UNL A   1      29.880  27.691  23.848  1.00  0.00     0.023 A 
ATOM     17  C   UNL A   1      32.231  27.342  24.354  1.00  0.00     0.102 A 
ATOM     18  C   UNL A   1      31.107  28.179  24.310  1.00  0.00     0.063 A 
ATOM     19  Cl  UNL A   1      33.752  27.912  24.962  1.00  0.00    -0.079 Cl
ATOM     20  Cl  UNL A   1      31.141  29.807  24.891  1.00  0.00    -0.083 Cl
BRANCH  11  21
ATOM     21  C   UNL A   1      33.494  23.357  22.510  1.00  0.00     0.429 C 
ATOM     22  F   UNL A   1      33.313  24.360  21.619  1.00  0.00    -0.167 F 
ATOM     23  F   UNL A   1      34.816  23.058  22.498  1.00  0.00    -0.167 F 
ATOM     24  F   UNL A   1      32.841  22.271  22.030  1.00  0.00    -0.167 F 
ENDBRANCH  11  21
ENDBRANCH   7   9
ENDBRANCH   4   5
ENDBRANCH   3   4
ENDBRANCH   2   3
ENDBRANCH   1   2
BRANCH   1  25
ATOM     25  C   UNL A   1      35.249  22.979  26.337  1.00  0.00     0.021 C 
BRANCH  25  26
ATOM     26  C   UNL A   1      36.601  23.540  25.898  1.00  0.00     0.116 C 
BRANCH  26  27
ATOM     27  N   UNL A   1      37.683  22.584  26.030  1.00  0.00    -0.352 N 
ATOM     28  C   UNL A   1      38.987  22.766  26.426  1.00  0.00     0.251 C 
ATOM     29  H   UNL A   1      37.446  21.657  25.798  1.00  0.00     0.163 HD
ATOM     30  O   UNL A   1      39.773  21.827  26.328  1.00  0.00    -0.269 OA
BRANCH  28  31
ATOM     31  C   UNL A   1      39.459  24.076  26.940  1.00  0.00     0.039 A 
ATOM     32  C   UNL A   1      40.081  24.955  26.047  1.00  0.00     0.014 A 
ATOM     33  C   UNL A   1      39.344  24.426  28.287  1.00  0.00     0.014 A 
ATOM     34  C   UNL A   1      40.538  26.199  26.492  1.00  0.00     0.010 A 
ATOM     35  C   UNL A   1      39.743  25.695  28.717  1.00  0.00     0.010 A 
ATOM     36  C   UNL A   1      40.349  26.594  27.825  1.00  0.00    -0.014 A 
BRANCH  36  37
ATOM     37  C   UNL A   1      40.790  27.934  28.299  1.00  0.00     0.031 A 
ATOM     38  C   UNL A   1      42.256  28.264  28.385  1.00  0.00     0.074 A 
ATOM     39  C   UNL A   1      39.873  28.838  28.697  1.00  0.00     0.049 A 
ATOM     40  N   UNL A   1      42.839  29.347  28.834  1.00  0.00    -0.248 NA
ATOM     41  C   UNL A   1      43.189  27.225  27.928  1.00  0.00     0.031 C 
ATOM     42  C   UNL A   1      38.425  28.625  28.697  1.00  0.00     0.029 A 
ATOM     43  N   UNL A   1      40.022  30.112  29.190  1.00  0.00    -0.354 N 
ATOM     44  C   UNL A   1      44.206  29.119  28.720  1.00  0.00     0.074 A 
ATOM     45  C   UNL A   1      44.361  27.767  28.225  1.00  0.00     0.031 C 
ATOM     46  C   UNL A   1      37.818  29.733  29.153  1.00  0.00     0.029 A 
ATOM     47  C   UNL A   1      38.831  30.719  29.518  1.00  0.00     0.049 A 
ATOM     48  H   UNL A   1      40.897  30.549  29.297  1.00  0.00     0.167 HD
ATOM     49  C   UNL A   1      45.235  29.967  28.980  1.00  0.00     0.034 A 
ATOM     50  C   UNL A   1      38.582  31.925  30.066  1.00  0.00     0.034 A 
ATOM     51  C   UNL A   1      45.064  31.312  29.475  1.00  0.00     0.049 A 
ATOM     52  C   UNL A   1      39.738  32.839  30.377  1.00  0.00     0.074 A 
ATOM     53  C   UNL A   1      46.032  32.266  29.738  1.00  0.00     0.029 A 
ATOM     54  N   UNL A   1      43.842  31.894  29.792  1.00  0.00    -0.354 N 
ATOM     55  N   UNL A   1      41.025  32.624  30.225  1.00  0.00    -0.248 NA
ATOM     56  C   UNL A   1      39.410  34.164  30.919  1.00  0.00     0.031 C 
ATOM     57  C   UNL A   1      45.404  33.396  30.276  1.00  0.00     0.029 A 
ATOM     58  C   UNL A   1      44.035  33.180  30.276  1.00  0.00     0.049 A 
ATOM     59  H   UNL A   1      42.965  31.457  29.689  1.00  0.00     0.167 HD
ATOM     60  C   UNL A   1      41.657  33.796  30.630  1.00  0.00     0.074 A 
ATOM     61  C   UNL A   1      40.608  34.719  31.016  1.00  0.00     0.031 C 
ATOM     62  C   UNL A   1      42.982  34.086  30.675  1.00  0.00     0.034 A 
BRANCH  49  63
ATOM     63  C   UNL A   1      46.636  29.440  28.754  1.00  0.00     0.023 A 
ATOM     64  C   UNL A   1      47.142  29.225  27.459  1.00  0.00     0.031 A 
ATOM     65  C   UNL A   1      47.462  29.108  29.843  1.00  0.00     0.131 A 
ATOM     66  C   UNL A   1      48.390  28.610  27.286  1.00  0.00     0.055 A 
ATOM     67  C   UNL A   1      48.743  28.580  29.662  1.00  0.00     0.041 A 
ATOM     68  F   UNL A   1      47.032  29.271  31.104  1.00  0.00    -0.206 F 
ATOM     69  C   UNL A   1      49.207  28.309  28.378  1.00  0.00     0.022 A 
BRANCH  66  70
ATOM     70  S   UNL A   1      48.855  28.052  25.624  1.00  0.00     0.124 S 
ATOM     71  O   UNL A   1      48.985  26.610  25.823  1.00  0.00    -0.237 OA
ATOM     72  O   UNL A   1      47.721  28.487  24.817  1.00  0.00    -0.237 OA
ATOM     73  O   UNL A   1      50.111  28.753  25.366  1.00  0.00    -0.744 OA
ENDBRANCH  66  70
ENDBRANCH  49  63
BRANCH  50  74
ATOM     74  C   UNL A   1      37.180  32.331  30.375  1.00  0.00     0.023 A 
ATOM     75  C   UNL A   1      36.371  32.948  29.409  1.00  0.00     0.031 A 
ATOM     76  C   UNL A   1      36.639  32.127  31.658  1.00  0.00     0.131 A 
ATOM     77  C   UNL A   1      35.078  33.375  29.751  1.00  0.00     0.055 A 
ATOM     78  C   UNL A   1      35.335  32.505  31.977  1.00  0.00     0.041 A 
ATOM     79  F   UNL A   1      37.371  31.537  32.617  1.00  0.00    -0.206 F 
ATOM     80  C   UNL A   1      34.549  33.144  31.022  1.00  0.00     0.022 A 
BRANCH  77  81
ATOM     81  S   UNL A   1      34.116  34.302  28.524  1.00  0.00     0.124 S 
ATOM     82  O   UNL A   1      34.892  35.532  28.407  1.00  0.00    -0.237 OA
ATOM     83  O   UNL A   1      34.153  33.409  27.371  1.00  0.00    -0.237 OA
ATOM     84  O   UNL A   1      32.807  34.447  29.156  1.00  0.00    -0.744 OA
ENDBRANCH  77  81
ENDBRANCH  50  74
BRANCH  62  85
ATOM     85  C   UNL A   1      43.366  35.476  31.124  1.00  0.00     0.023 A 
ATOM     86  C   UNL A   1      43.431  35.824  32.484  1.00  0.00     0.031 A 
ATOM     87  C   UNL A   1      43.660  36.470  30.173  1.00  0.00     0.131 A 
ATOM     88  C   UNL A   1      43.727  37.146  32.856  1.00  0.00     0.055 A 
ATOM     89  C   UNL A   1      44.013  37.767  30.549  1.00  0.00     0.041 A 
ATOM     90  F   UNL A   1      43.611  36.195  28.860  1.00  0.00    -0.206 F 
ATOM     91  C   UNL A   1      44.035  38.114  31.896  1.00  0.00     0.022 A 
BRANCH  88  92
ATOM     92  S   UNL A   1      43.617  37.606  34.606  1.00  0.00     0.124 S 
ATOM     93  O   UNL A   1      44.378  38.851  34.642  1.00  0.00    -0.237 OA
ATOM     94  O   UNL A   1      42.176  37.734  34.805  1.00  0.00    -0.237 OA
ATOM     95  O   UNL A   1      44.240  36.479  35.298  1.00  0.00    -0.744 OA
ENDBRANCH  88  92
ENDBRANCH  62  85
ENDBRANCH  36  37
ENDBRANCH  28  31
ENDBRANCH  26  27
ENDBRANCH  25  26
ENDBRANCH   1  25
TORSDOF 17
ENDMDL
MODEL 3
REMARK VINA RESULT:     -12.3      3.347      8.502
REMARK SMILES O=C(NCCCCCCNC(=O)c1ccc(-c2c3nc(c(-c4cc(S(=O)(=O)[O-])ccc4F)c4ccc([nH]4)c(-c4cc(S(=O)(=O)[O-])ccc4F)c4nc(c(-c5cc(S(=O)(=O)[O-])ccc5F)c5ccc2[nH]5)C=C4)C=C3)cc1)C1=Cc2ccc(Cl)c(Cl)c2O[C@@H]1C(F)(F)F
REMARK SMILES IDX 7 1 6 2 5 3 4 4 3 5 1 6 2 7 76 9 77 10 87 11 78 12 86 13
REMARK SMILES IDX 79 14 85 15 80 16 83 17 81 18 84 19 82 20 88 21 89 22 90 23
REMARK SMILES IDX 91 24 8 25 9 26 10 27 11 28 12 30 13 31 14 32 75 33 15 34
REMARK SMILES IDX 74 35 16 36 17 37 18 38 68 39 19 40 73 41 67 42 69 43 20 44
REMARK SMILES IDX 72 45 66 46 65 47 21 49 53 50 33 51 52 52 34 53 37 54 51 55
REMARK SMILES IDX 70 56 35 57 36 58 50 60 71 61 38 62 22 63 23 64 31 65 24 66
REMARK SMILES IDX 30 67 32 68 29 69 25 70 26 71 27 72 28 73 54 74 55 75 63 76
REMARK SMILES IDX 56 77 62 78 64 79 61 80 57 81 58 82 59 83 60 84 39 85 40 86
REMARK SMILES IDX 48 87 41 88 47 89 49 90 46 91 42 92 43 93 44 94 45 95
REMARK H PARENT 3 8 10 29 69 48 37 59
REMARK Flexibility Score: inf
ROOT
ATOM      1  C   UNL A   1      31.414  29.099  25.002  1.00  0.00     0.002 C 
ENDROOT
BRANCH   1   2
ATOM      2  C   UNL A   1      30.553  29.698  23.883  1.00  0.00     0.002 C 
BRANCH   2   3
ATOM      3  C   UNL A   1      30.646  29.033  22.511  1.00  0.00     0.021 C 
BRANCH   3   4
ATOM      4  C   UNL A   1      30.572  27.509  22.489  1.00  0.00     0.116 C 
BRANCH   4   5
ATOM      5  N   UNL A   1      31.746  26.842  21.944  1.00  0.00    -0.352 N 
ATOM      6  O   UNL A   1      33.258  25.203  21.647  1.00  0.00    -0.270 OA
ATOM      7  C   UNL A   1      32.368  25.688  22.342  1.00  0.00     0.251 C 
ATOM      8  H   UNL A   1      32.157  27.291  21.170  1.00  0.00     0.163 HD
BRANCH   7   9
ATOM      9  C   UNL A   1      31.918  24.927  23.547  1.00  0.00     0.067 C 
ATOM     10  C   UNL A   1      31.559  23.638  23.445  1.00  0.00     0.025 C 
ATOM     11  C   UNL A   1      32.556  25.414  24.822  1.00  0.00     0.314 C 
ATOM     12  C   UNL A   1      32.464  22.706  24.139  1.00  0.00     0.019 A 
ATOM     13  O   UNL A   1      33.609  24.531  25.275  1.00  0.00    -0.474 OA
ATOM     14  C   UNL A   1      32.444  21.363  23.749  1.00  0.00     0.013 A 
ATOM     15  C   UNL A   1      33.527  23.205  24.912  1.00  0.00     0.148 A 
ATOM     16  C   UNL A   1      33.526  20.539  24.053  1.00  0.00     0.023 A 
ATOM     17  C   UNL A   1      34.610  22.370  25.228  1.00  0.00     0.102 A 
ATOM     18  C   UNL A   1      34.617  21.045  24.769  1.00  0.00     0.063 A 
ATOM     19  Cl  UNL A   1      35.968  23.033  26.080  1.00  0.00    -0.079 Cl
ATOM     20  Cl  UNL A   1      35.978  20.000  24.977  1.00  0.00    -0.083 Cl
BRANCH  11  21
ATOM     21  C   UNL A   1      31.497  25.644  25.916  1.00  0.00     0.429 C 
ATOM     22  F   UNL A   1      30.322  26.059  25.390  1.00  0.00    -0.167 F 
ATOM     23  F   UNL A   1      31.236  24.506  26.606  1.00  0.00    -0.167 F 
ATOM     24  F   UNL A   1      31.883  26.574  26.823  1.00  0.00    -0.167 F 
ENDBRANCH  11  21
ENDBRANCH   7   9
ENDBRANCH   4   5
ENDBRANCH   3   4
ENDBRANCH   2   3
ENDBRANCH   1   2
BRANCH   1  25
ATOM     25  C   UNL A   1      32.934  29.121  24.806  1.00  0.00     0.021 C 
BRANCH  25  26
ATOM     26  C   UNL A   1      33.784  29.294  26.064  1.00  0.00     0.116 C 
BRANCH  26  27
ATOM     27  N   UNL A   1      33.606  30.587  26.696  1.00  0.00    -0.352 N 
ATOM     28  C   UNL A   1      34.322  31.191  27.702  1.00  0.00     0.251 C 
ATOM     29  H   UNL A   1      32.852  31.117  26.349  1.00  0.00     0.163 HD
ATOM     30  O   UNL A   1      33.903  32.242  28.181  1.00  0.00    -0.269 OA
BRANCH  28  31
ATOM     31  C   UNL A   1      35.568  30.583  28.231  1.00  0.00     0.039 A 
ATOM     32  C   UNL A   1      36.760  30.795  27.531  1.00  0.00     0.014 A 
ATOM     33  C   UNL A   1      35.570  29.772  29.368  1.00  0.00     0.014 A 
ATOM     34  C   UNL A   1      37.956  30.241  27.997  1.00  0.00     0.010 A 
ATOM     35  C   UNL A   1      36.775  29.272  29.869  1.00  0.00     0.010 A 
ATOM     36  C   UNL A   1      37.981  29.496  29.186  1.00  0.00    -0.014 A 
BRANCH  36  37
ATOM     37  C   UNL A   1      39.255  28.939  29.717  1.00  0.00     0.031 A 
ATOM     38  C   UNL A   1      39.936  29.587  30.892  1.00  0.00     0.074 A 
ATOM     39  C   UNL A   1      39.824  27.877  29.112  1.00  0.00     0.049 A 
ATOM     40  N   UNL A   1      41.081  29.292  31.456  1.00  0.00    -0.248 NA
ATOM     41  C   UNL A   1      39.249  30.737  31.495  1.00  0.00     0.031 C 
ATOM     42  C   UNL A   1      39.281  27.182  27.943  1.00  0.00     0.029 A 
ATOM     43  N   UNL A   1      40.988  27.202  29.388  1.00  0.00    -0.354 N 
ATOM     44  C   UNL A   1      41.255  30.221  32.475  1.00  0.00     0.074 A 
ATOM     45  C   UNL A   1      40.129  31.130  32.404  1.00  0.00     0.031 C 
ATOM     46  C   UNL A   1      40.102  26.174  27.611  1.00  0.00     0.029 A 
ATOM     47  C   UNL A   1      41.250  26.173  28.513  1.00  0.00     0.049 A 
ATOM     48  H   UNL A   1      41.578  27.433  30.141  1.00  0.00     0.167 HD
ATOM     49  C   UNL A   1      42.246  30.295  33.401  1.00  0.00     0.034 A 
ATOM     50  C   UNL A   1      42.302  25.334  28.434  1.00  0.00     0.034 A 
ATOM     51  C   UNL A   1      43.363  29.381  33.458  1.00  0.00     0.049 A 
ATOM     52  C   UNL A   1      43.408  25.451  29.451  1.00  0.00     0.074 A 
ATOM     53  C   UNL A   1      44.401  29.342  34.372  1.00  0.00     0.029 A 
ATOM     54  N   UNL A   1      43.593  28.349  32.557  1.00  0.00    -0.354 N 
ATOM     55  N   UNL A   1      43.537  26.311  30.435  1.00  0.00    -0.248 NA
ATOM     56  C   UNL A   1      44.502  24.476  29.356  1.00  0.00     0.031 C 
ATOM     57  C   UNL A   1      45.292  28.333  33.986  1.00  0.00     0.029 A 
ATOM     58  C   UNL A   1      44.770  27.687  32.876  1.00  0.00     0.049 A 
ATOM     59  H   UNL A   1      43.004  28.118  31.801  1.00  0.00     0.167 HD
ATOM     60  C   UNL A   1      44.716  25.964  31.091  1.00  0.00     0.074 A 
ATOM     61  C   UNL A   1      45.248  24.807  30.400  1.00  0.00     0.031 C 
ATOM     62  C   UNL A   1      45.302  26.545  32.168  1.00  0.00     0.034 A 
BRANCH  49  63
ATOM     63  C   UNL A   1      42.169  31.425  34.405  1.00  0.00     0.023 A 
ATOM     64  C   UNL A   1      41.227  31.417  35.450  1.00  0.00     0.031 A 
ATOM     65  C   UNL A   1      43.017  32.542  34.296  1.00  0.00     0.131 A 
ATOM     66  C   UNL A   1      41.091  32.539  36.281  1.00  0.00     0.055 A 
ATOM     67  C   UNL A   1      42.937  33.617  35.184  1.00  0.00     0.041 A 
ATOM     68  F   UNL A   1      43.923  32.619  33.309  1.00  0.00    -0.206 F 
ATOM     69  C   UNL A   1      41.957  33.629  36.173  1.00  0.00     0.022 A 
BRANCH  66  70
ATOM     70  S   UNL A   1      39.658  32.624  37.389  1.00  0.00     0.124 S 
ATOM     71  O   UNL A   1      39.061  33.900  37.001  1.00  0.00    -0.237 OA
ATOM     72  O   UNL A   1      38.906  31.430  37.024  1.00  0.00    -0.237 OA
ATOM     73  O   UNL A   1      40.254  32.605  38.723  1.00  0.00    -0.744 OA
ENDBRANCH  66  70
ENDBRANCH  49  63
BRANCH  50  74
ATOM     74  C   UNL A   1      42.371  24.321  27.342  1.00  0.00     0.023 A 
ATOM     75  C   UNL A   1      41.600  23.149  27.385  1.00  0.00     0.031 A 
ATOM     76  C   UNL A   1      43.233  24.505  26.245  1.00  0.00     0.131 A 
ATOM     77  C   UNL A   1      41.735  22.187  26.372  1.00  0.00     0.055 A 
ATOM     78  C   UNL A   1      43.324  23.570  25.213  1.00  0.00     0.041 A 
ATOM     79  F   UNL A   1      43.988  25.611  26.154  1.00  0.00    -0.206 F 
ATOM     80  C   UNL A   1      42.580  22.396  25.279  1.00  0.00     0.022 A 
BRANCH  77  81
ATOM     81  S   UNL A   1      40.838  20.618  26.537  1.00  0.00     0.124 S 
ATOM     82  O   UNL A   1      41.645  19.728  25.709  1.00  0.00    -0.237 OA
ATOM     83  O   UNL A   1      40.897  20.386  27.976  1.00  0.00    -0.237 OA
ATOM     84  O   UNL A   1      39.511  20.929  26.011  1.00  0.00    -0.744 OA
ENDBRANCH  77  81
ENDBRANCH  50  74
BRANCH  62  85
ATOM     85  C   UNL A   1      46.569  25.908  32.686  1.00  0.00     0.023 A 
ATOM     86  C   UNL A   1      46.545  24.892  33.657  1.00  0.00     0.031 A 
ATOM     87  C   UNL A   1      47.821  26.336  32.209  1.00  0.00     0.131 A 
ATOM     88  C   UNL A   1      47.750  24.374  34.160  1.00  0.00     0.055 A 
ATOM     89  C   UNL A   1      49.015  25.776  32.668  1.00  0.00     0.041 A 
ATOM     90  F   UNL A   1      47.905  27.304  31.283  1.00  0.00    -0.206 F 
ATOM     91  C   UNL A   1      48.983  24.798  33.659  1.00  0.00     0.022 A 
BRANCH  88  92
ATOM     92  S   UNL A   1      47.687  23.203  35.543  1.00  0.00     0.124 S 
ATOM     93  O   UNL A   1      46.653  22.271  35.105  1.00  0.00    -0.237 OA
ATOM     94  O   UNL A   1      49.049  22.679  35.570  1.00  0.00    -0.237 OA
ATOM     95  O   UNL A   1      47.323  24.040  36.686  1.00  0.00    -0.744 OA
ENDBRANCH  88  92
ENDBRANCH  62  85
ENDBRANCH  36  37
ENDBRANCH  28  31
ENDBRANCH  26  27
ENDBRANCH  25  26
ENDBRANCH   1  25
TORSDOF 17
ENDMDL
