MODEL 1
REMARK VINA RESULT:      -9.1      0.000      0.000
REMARK SMILES CCn1cc(CC(=O)NCCCCCCNC(=O)c2ccc(-c3c4nc(c(-c5cc(S(=O)(=O)[O-])ccc5F)c5ccc([nH]5)c(-c5cc(S(=O)(=O)[O-])ccc5F)c5nc(c(-c6cc(S(=O)(=O)[O-])ccc6F)c6ccc3[nH]6)C=C5)C=C4)cc2)c2ccccc21
REMARK SMILES IDX 13 1 12 2 11 3 10 4 9 5 7 6 8 7 6 9 5 10 3 11 4 12 87 13
REMARK SMILES IDX 82 14 86 15 83 16 85 17 84 18 2 19 1 20 14 21 15 22 16 23
REMARK SMILES IDX 17 24 18 26 19 27 20 28 81 29 21 30 80 31 22 32 23 33 24 34
REMARK SMILES IDX 74 35 25 36 79 37 73 38 75 39 26 40 78 41 72 42 71 43 27 45
REMARK SMILES IDX 59 46 39 47 58 48 40 49 43 50 57 51 76 52 41 53 42 54 56 56
REMARK SMILES IDX 77 57 44 58 28 59 29 60 37 61 30 62 36 63 38 64 35 65 31 66
REMARK SMILES IDX 32 67 33 68 34 69 60 70 61 71 69 72 62 73 68 74 70 75 67 76
REMARK SMILES IDX 63 77 64 78 65 79 66 80 45 81 46 82 54 83 47 84 53 85 55 86
REMARK SMILES IDX 52 87 48 88 49 89 50 90 51 91
REMARK H PARENT 9 8 16 25 75 44 43 55
REMARK Flexibility Score: inf
ROOT
ATOM      1  C   UNL A   1      44.951  23.182  24.640  1.00  0.00     0.002 C 
ENDROOT
BRANCH   1   2
ATOM      2  C   UNL A   1      45.390  24.630  24.882  1.00  0.00     0.002 C 
BRANCH   2   3
ATOM      3  C   UNL A   1      44.274  25.572  25.351  1.00  0.00     0.021 C 
BRANCH   3   4
ATOM      4  C   UNL A   1      44.616  26.332  26.633  1.00  0.00     0.116 C 
BRANCH   4   5
ATOM      5  N   UNL A   1      45.726  25.709  27.328  1.00  0.00    -0.356 N 
ATOM      6  C   UNL A   1      46.112  25.860  28.629  1.00  0.00     0.224 C 
ATOM      7  O   UNL A   1      47.159  25.325  28.999  1.00  0.00    -0.275 OA
ATOM      8  H   UNL A   1      46.275  25.093  26.789  1.00  0.00     0.163 HD
BRANCH   6   9
ATOM      9  C   UNL A   1      45.223  26.617  29.603  1.00  0.00     0.137 C 
BRANCH   9  10
ATOM     10  C   UNL A   1      45.467  26.273  31.039  1.00  0.00    -0.013 A 
ATOM     11  N   UNL A   1      46.247  26.350  33.132  1.00  0.00    -0.347 N 
ATOM     12  C   UNL A   1      46.203  27.021  31.939  1.00  0.00     0.091 A 
ATOM     13  C   UNL A   1      45.483  25.204  33.058  1.00  0.00     0.048 A 
ATOM     14  C   UNL A   1      44.990  25.127  31.750  1.00  0.00     0.003 A 
ATOM     15  C   UNL A   1      45.195  24.221  34.018  1.00  0.00     0.027 A 
ATOM     16  C   UNL A   1      44.191  24.021  31.392  1.00  0.00     0.010 A 
ATOM     17  C   UNL A   1      44.403  23.135  33.636  1.00  0.00     0.002 A 
ATOM     18  C   UNL A   1      43.908  23.033  32.340  1.00  0.00     0.001 A 
BRANCH  11  19
ATOM     19  C   UNL A   1      46.990  26.805  34.295  1.00  0.00     0.119 C 
ATOM     20  C   UNL A   1      47.003  28.320  34.433  1.00  0.00     0.027 C 
ENDBRANCH  11  19
ENDBRANCH   9  10
ENDBRANCH   6   9
ENDBRANCH   4   5
ENDBRANCH   3   4
ENDBRANCH   2   3
ENDBRANCH   1   2
BRANCH   1  21
ATOM     21  C   UNL A   1      43.467  22.896  24.909  1.00  0.00     0.021 C 
BRANCH  21  22
ATOM     22  C   UNL A   1      43.210  21.629  25.727  1.00  0.00     0.116 C 
BRANCH  22  23
ATOM     23  N   UNL A   1      41.832  21.486  26.147  1.00  0.00    -0.352 N 
ATOM     24  C   UNL A   1      40.896  22.328  26.681  1.00  0.00     0.251 C 
ATOM     25  H   UNL A   1      41.489  20.573  26.016  1.00  0.00     0.163 HD
ATOM     26  O   UNL A   1      39.771  21.845  26.839  1.00  0.00    -0.269 OA
BRANCH  24  27
ATOM     27  C   UNL A   1      41.155  23.725  27.128  1.00  0.00     0.039 A 
ATOM     28  C   UNL A   1      41.961  24.097  28.204  1.00  0.00     0.014 A 
ATOM     29  C   UNL A   1      40.454  24.733  26.438  1.00  0.00     0.014 A 
ATOM     30  C   UNL A   1      41.967  25.408  28.662  1.00  0.00     0.010 A 
ATOM     31  C   UNL A   1      40.479  26.053  26.875  1.00  0.00     0.010 A 
ATOM     32  C   UNL A   1      41.179  26.372  28.033  1.00  0.00    -0.014 A 
BRANCH  32  33
ATOM     33  C   UNL A   1      41.103  27.687  28.663  1.00  0.00     0.031 A 
ATOM     34  C   UNL A   1      42.072  28.716  28.186  1.00  0.00     0.074 A 
ATOM     35  C   UNL A   1      40.172  27.986  29.588  1.00  0.00     0.049 A 
ATOM     36  N   UNL A   1      43.005  29.332  28.844  1.00  0.00    -0.248 NA
ATOM     37  C   UNL A   1      42.041  29.032  26.753  1.00  0.00     0.031 C 
ATOM     38  C   UNL A   1      38.970  27.228  29.949  1.00  0.00     0.029 A 
ATOM     39  N   UNL A   1      40.063  29.114  30.339  1.00  0.00    -0.354 N 
ATOM     40  C   UNL A   1      43.579  30.238  27.946  1.00  0.00     0.074 A 
ATOM     41  C   UNL A   1      43.030  29.920  26.652  1.00  0.00     0.031 C 
ATOM     42  C   UNL A   1      38.142  28.024  30.663  1.00  0.00     0.029 A 
ATOM     43  C   UNL A   1      38.829  29.270  30.946  1.00  0.00     0.049 A 
ATOM     44  H   UNL A   1      40.796  29.763  30.441  1.00  0.00     0.167 HD
ATOM     45  C   UNL A   1      44.353  31.291  28.339  1.00  0.00     0.034 A 
ATOM     46  C   UNL A   1      38.369  30.388  31.556  1.00  0.00     0.034 A 
ATOM     47  C   UNL A   1      44.820  31.145  29.688  1.00  0.00     0.049 A 
ATOM     48  C   UNL A   1      39.532  31.241  31.894  1.00  0.00     0.074 A 
ATOM     49  C   UNL A   1      45.687  30.292  30.336  1.00  0.00     0.029 A 
ATOM     50  N   UNL A   1      44.141  31.811  30.677  1.00  0.00    -0.354 N 
ATOM     51  N   UNL A   1      40.433  30.944  32.789  1.00  0.00    -0.248 NA
ATOM     52  C   UNL A   1      39.915  32.269  30.939  1.00  0.00     0.031 C 
ATOM     53  C   UNL A   1      45.155  30.152  31.650  1.00  0.00     0.029 A 
ATOM     54  C   UNL A   1      44.007  30.945  31.731  1.00  0.00     0.049 A 
ATOM     55  H   UNL A   1      43.813  32.739  30.637  1.00  0.00     0.167 HD
ATOM     56  C   UNL A   1      41.623  31.426  32.265  1.00  0.00     0.074 A 
ATOM     57  C   UNL A   1      41.225  32.328  31.188  1.00  0.00     0.031 C 
ATOM     58  C   UNL A   1      42.827  30.852  32.569  1.00  0.00     0.034 A 
BRANCH  45  59
ATOM     59  C   UNL A   1      44.475  32.593  27.580  1.00  0.00     0.023 A 
ATOM     60  C   UNL A   1      43.756  33.747  27.942  1.00  0.00     0.031 A 
ATOM     61  C   UNL A   1      45.477  32.778  26.604  1.00  0.00     0.131 A 
ATOM     62  C   UNL A   1      44.000  34.989  27.339  1.00  0.00     0.055 A 
ATOM     63  C   UNL A   1      45.771  34.034  26.051  1.00  0.00     0.041 A 
ATOM     64  F   UNL A   1      46.242  31.754  26.193  1.00  0.00    -0.206 F 
ATOM     65  C   UNL A   1      45.026  35.148  26.415  1.00  0.00     0.022 A 
BRANCH  62  66
ATOM     66  S   UNL A   1      42.963  36.417  27.753  1.00  0.00     0.124 S 
ATOM     67  O   UNL A   1      43.489  36.795  29.065  1.00  0.00    -0.237 OA
ATOM     68  O   UNL A   1      43.278  37.340  26.660  1.00  0.00    -0.237 OA
ATOM     69  O   UNL A   1      41.615  35.878  27.733  1.00  0.00    -0.744 OA
ENDBRANCH  62  66
ENDBRANCH  45  59
BRANCH  46  70
ATOM     70  C   UNL A   1      37.018  30.953  31.339  1.00  0.00     0.023 A 
ATOM     71  C   UNL A   1      36.547  31.146  30.024  1.00  0.00     0.031 A 
ATOM     72  C   UNL A   1      36.313  31.575  32.379  1.00  0.00     0.131 A 
ATOM     73  C   UNL A   1      35.440  31.965  29.777  1.00  0.00     0.055 A 
ATOM     74  C   UNL A   1      35.197  32.383  32.132  1.00  0.00     0.041 A 
ATOM     75  F   UNL A   1      36.733  31.460  33.648  1.00  0.00    -0.206 F 
ATOM     76  C   UNL A   1      34.763  32.592  30.825  1.00  0.00     0.022 A 
BRANCH  73  77
ATOM     77  S   UNL A   1      34.904  32.295  28.076  1.00  0.00     0.124 S 
ATOM     78  O   UNL A   1      34.979  30.968  27.469  1.00  0.00    -0.237 OA
ATOM     79  O   UNL A   1      33.557  32.816  28.285  1.00  0.00    -0.237 OA
ATOM     80  O   UNL A   1      35.890  33.254  27.587  1.00  0.00    -0.744 OA
ENDBRANCH  73  77
ENDBRANCH  46  70
BRANCH  58  81
ATOM     81  C   UNL A   1      42.890  29.819  33.674  1.00  0.00     0.023 A 
ATOM     82  C   UNL A   1      43.336  30.242  34.939  1.00  0.00     0.031 A 
ATOM     83  C   UNL A   1      42.780  28.431  33.455  1.00  0.00     0.131 A 
ATOM     84  C   UNL A   1      43.701  29.301  35.911  1.00  0.00     0.055 A 
ATOM     85  C   UNL A   1      43.076  27.498  34.452  1.00  0.00     0.041 A 
ATOM     86  F   UNL A   1      42.479  27.937  32.248  1.00  0.00    -0.206 F 
ATOM     87  C   UNL A   1      43.557  27.930  35.683  1.00  0.00     0.022 A 
BRANCH  84  88
ATOM     88  S   UNL A   1      44.531  29.827  37.433  1.00  0.00     0.124 S 
ATOM     89  O   UNL A   1      43.554  30.736  38.022  1.00  0.00    -0.237 OA
ATOM     90  O   UNL A   1      44.712  28.559  38.139  1.00  0.00    -0.237 OA
ATOM     91  O   UNL A   1      45.765  30.453  36.966  1.00  0.00    -0.744 OA
ENDBRANCH  84  88
ENDBRANCH  58  81
ENDBRANCH  32  33
ENDBRANCH  24  27
ENDBRANCH  22  23
ENDBRANCH  21  22
ENDBRANCH   1  21
TORSDOF 18
ENDMDL
MODEL 2
REMARK VINA RESULT:      -9.0      4.702     10.823
REMARK SMILES CCn1cc(CC(=O)NCCCCCCNC(=O)c2ccc(-c3c4nc(c(-c5cc(S(=O)(=O)[O-])ccc5F)c5ccc([nH]5)c(-c5cc(S(=O)(=O)[O-])ccc5F)c5nc(c(-c6cc(S(=O)(=O)[O-])ccc6F)c6ccc3[nH]6)C=C5)C=C4)cc2)c2ccccc21
REMARK SMILES IDX 13 1 12 2 11 3 10 4 9 5 7 6 8 7 6 9 5 10 3 11 4 12 87 13
REMARK SMILES IDX 82 14 86 15 83 16 85 17 84 18 2 19 1 20 14 21 15 22 16 23
REMARK SMILES IDX 17 24 18 26 19 27 20 28 81 29 21 30 80 31 22 32 23 33 24 34
REMARK SMILES IDX 74 35 25 36 79 37 73 38 75 39 26 40 78 41 72 42 71 43 27 45
REMARK SMILES IDX 59 46 39 47 58 48 40 49 43 50 57 51 76 52 41 53 42 54 56 56
REMARK SMILES IDX 77 57 44 58 28 59 29 60 37 61 30 62 36 63 38 64 35 65 31 66
REMARK SMILES IDX 32 67 33 68 34 69 60 70 61 71 69 72 62 73 68 74 70 75 67 76
REMARK SMILES IDX 63 77 64 78 65 79 66 80 45 81 46 82 54 83 47 84 53 85 55 86
REMARK SMILES IDX 52 87 48 88 49 89 50 90 51 91
REMARK H PARENT 9 8 16 25 75 44 43 55
REMARK Flexibility Score: inf
ROOT
ATOM      1  C   UNL A   1      32.853  28.305  26.971  1.00  0.00     0.002 C 
ENDROOT
BRANCH   1   2
ATOM      2  C   UNL A   1      32.470  27.779  25.583  1.00  0.00     0.002 C 
BRANCH   2   3
ATOM      3  C   UNL A   1      33.047  26.401  25.235  1.00  0.00     0.021 C 
BRANCH   3   4
ATOM      4  C   UNL A   1      32.302  25.242  25.899  1.00  0.00     0.116 C 
BRANCH   4   5
ATOM      5  N   UNL A   1      31.231  24.757  25.050  1.00  0.00    -0.356 N 
ATOM      6  C   UNL A   1      31.315  24.184  23.813  1.00  0.00     0.224 C 
ATOM      7  O   UNL A   1      30.271  23.942  23.203  1.00  0.00    -0.275 OA
ATOM      8  H   UNL A   1      30.321  24.854  25.414  1.00  0.00     0.163 HD
BRANCH   6   9
ATOM      9  C   UNL A   1      32.671  23.797  23.244  1.00  0.00     0.137 C 
BRANCH   9  10
ATOM     10  C   UNL A   1      33.227  22.529  23.814  1.00  0.00    -0.013 A 
ATOM     11  N   UNL A   1      33.349  20.489  24.718  1.00  0.00    -0.347 N 
ATOM     12  C   UNL A   1      32.494  21.419  24.189  1.00  0.00     0.091 A 
ATOM     13  C   UNL A   1      34.650  20.937  24.625  1.00  0.00     0.048 A 
ATOM     14  C   UNL A   1      34.600  22.221  24.070  1.00  0.00     0.003 A 
ATOM     15  C   UNL A   1      35.864  20.336  24.994  1.00  0.00     0.027 A 
ATOM     16  C   UNL A   1      35.807  22.928  23.889  1.00  0.00     0.010 A 
ATOM     17  C   UNL A   1      37.045  21.060  24.807  1.00  0.00     0.002 A 
ATOM     18  C   UNL A   1      37.019  22.339  24.263  1.00  0.00     0.001 A 
BRANCH  11  19
ATOM     19  C   UNL A   1      32.923  19.219  25.280  1.00  0.00     0.119 C 
ATOM     20  C   UNL A   1      32.601  18.179  24.217  1.00  0.00     0.027 C 
ENDBRANCH  11  19
ENDBRANCH   9  10
ENDBRANCH   6   9
ENDBRANCH   4   5
ENDBRANCH   3   4
ENDBRANCH   2   3
ENDBRANCH   1   2
BRANCH   1  21
ATOM     21  C   UNL A   1      32.348  29.718  27.294  1.00  0.00     0.021 C 
BRANCH  21  22
ATOM     22  C   UNL A   1      33.386  30.821  27.080  1.00  0.00     0.116 C 
BRANCH  22  23
ATOM     23  N   UNL A   1      33.683  31.571  28.282  1.00  0.00    -0.352 N 
ATOM     24  C   UNL A   1      34.801  31.764  29.044  1.00  0.00     0.251 C 
ATOM     25  H   UNL A   1      32.900  32.056  28.629  1.00  0.00     0.163 HD
ATOM     26  O   UNL A   1      34.679  32.558  29.981  1.00  0.00    -0.269 OA
BRANCH  24  27
ATOM     27  C   UNL A   1      36.097  31.052  28.862  1.00  0.00     0.039 A 
ATOM     28  C   UNL A   1      36.244  29.698  28.556  1.00  0.00     0.014 A 
ATOM     29  C   UNL A   1      37.257  31.814  29.098  1.00  0.00     0.014 A 
ATOM     30  C   UNL A   1      37.493  29.093  28.615  1.00  0.00     0.010 A 
ATOM     31  C   UNL A   1      38.514  31.218  29.129  1.00  0.00     0.010 A 
ATOM     32  C   UNL A   1      38.618  29.842  28.959  1.00  0.00    -0.014 A 
BRANCH  32  33
ATOM     33  C   UNL A   1      39.866  29.114  29.163  1.00  0.00     0.031 A 
ATOM     34  C   UNL A   1      40.224  28.778  30.572  1.00  0.00     0.074 A 
ATOM     35  C   UNL A   1      40.637  28.709  28.136  1.00  0.00     0.049 A 
ATOM     36  N   UNL A   1      41.252  29.152  31.270  1.00  0.00    -0.248 NA
ATOM     37  C   UNL A   1      39.248  27.980  31.324  1.00  0.00     0.031 C 
ATOM     38  C   UNL A   1      40.305  28.671  26.708  1.00  0.00     0.029 A 
ATOM     39  N   UNL A   1      41.871  28.140  28.182  1.00  0.00    -0.354 N 
ATOM     40  C   UNL A   1      41.139  28.505  32.504  1.00  0.00     0.074 A 
ATOM     41  C   UNL A   1      39.830  27.902  32.521  1.00  0.00     0.031 C 
ATOM     42  C   UNL A   1      41.206  27.896  26.065  1.00  0.00     0.029 A 
ATOM     43  C   UNL A   1      42.255  27.534  26.999  1.00  0.00     0.049 A 
ATOM     44  H   UNL A   1      42.440  28.157  28.985  1.00  0.00     0.167 HD
ATOM     45  C   UNL A   1      42.180  28.374  33.377  1.00  0.00     0.034 A 
ATOM     46  C   UNL A   1      43.315  26.709  26.826  1.00  0.00     0.034 A 
ATOM     47  C   UNL A   1      43.253  29.277  33.077  1.00  0.00     0.049 A 
ATOM     48  C   UNL A   1      44.258  26.928  27.948  1.00  0.00     0.074 A 
ATOM     49  C   UNL A   1      43.421  30.644  33.115  1.00  0.00     0.029 A 
ATOM     50  N   UNL A   1      44.325  28.788  32.374  1.00  0.00    -0.354 N 
ATOM     51  N   UNL A   1      44.948  28.019  28.133  1.00  0.00    -0.248 NA
ATOM     52  C   UNL A   1      44.139  26.060  29.109  1.00  0.00     0.031 C 
ATOM     53  C   UNL A   1      44.315  30.937  32.045  1.00  0.00     0.029 A 
ATOM     54  C   UNL A   1      44.655  29.729  31.433  1.00  0.00     0.049 A 
ATOM     55  H   UNL A   1      44.774  27.924  32.519  1.00  0.00     0.167 HD
ATOM     56  C   UNL A   1      44.989  28.183  29.510  1.00  0.00     0.074 A 
ATOM     57  C   UNL A   1      44.578  26.892  30.056  1.00  0.00     0.031 C 
ATOM     58  C   UNL A   1      45.091  29.419  30.084  1.00  0.00     0.034 A 
BRANCH  45  59
ATOM     59  C   UNL A   1      42.335  27.234  34.358  1.00  0.00     0.023 A 
ATOM     60  C   UNL A   1      43.115  26.097  34.075  1.00  0.00     0.031 A 
ATOM     61  C   UNL A   1      41.883  27.349  35.689  1.00  0.00     0.131 A 
ATOM     62  C   UNL A   1      43.387  25.127  35.049  1.00  0.00     0.055 A 
ATOM     63  C   UNL A   1      42.214  26.415  36.683  1.00  0.00     0.041 A 
ATOM     64  F   UNL A   1      41.148  28.401  36.083  1.00  0.00    -0.206 F 
ATOM     65  C   UNL A   1      42.966  25.293  36.364  1.00  0.00     0.022 A 
BRANCH  62  66
ATOM     66  S   UNL A   1      44.293  23.621  34.602  1.00  0.00     0.124 S 
ATOM     67  O   UNL A   1      43.381  23.002  33.640  1.00  0.00    -0.237 OA
ATOM     68  O   UNL A   1      45.525  24.172  34.036  1.00  0.00    -0.237 OA
ATOM     69  O   UNL A   1      44.454  22.930  35.870  1.00  0.00    -0.744 OA
ENDBRANCH  62  66
ENDBRANCH  45  59
BRANCH  46  70
ATOM     70  C   UNL A   1      43.254  25.424  26.093  1.00  0.00     0.023 A 
ATOM     71  C   UNL A   1      42.306  24.452  26.469  1.00  0.00     0.031 A 
ATOM     72  C   UNL A   1      44.291  25.024  25.238  1.00  0.00     0.131 A 
ATOM     73  C   UNL A   1      42.431  23.128  26.033  1.00  0.00     0.055 A 
ATOM     74  C   UNL A   1      44.408  23.702  24.791  1.00  0.00     0.041 A 
ATOM     75  F   UNL A   1      45.246  25.893  24.875  1.00  0.00    -0.206 F 
ATOM     76  C   UNL A   1      43.482  22.744  25.200  1.00  0.00     0.022 A 
BRANCH  73  77
ATOM     77  S   UNL A   1      41.269  21.859  26.607  1.00  0.00     0.124 S 
ATOM     78  O   UNL A   1      39.976  22.475  26.316  1.00  0.00    -0.237 OA
ATOM     79  O   UNL A   1      41.630  20.725  25.765  1.00  0.00    -0.237 OA
ATOM     80  O   UNL A   1      41.582  21.726  28.026  1.00  0.00    -0.744 OA
ENDBRANCH  73  77
ENDBRANCH  46  70
BRANCH  58  81
ATOM     81  C   UNL A   1      45.397  30.614  29.206  1.00  0.00     0.023 A 
ATOM     82  C   UNL A   1      46.707  31.128  29.236  1.00  0.00     0.031 A 
ATOM     83  C   UNL A   1      44.409  31.391  28.570  1.00  0.00     0.131 A 
ATOM     84  C   UNL A   1      46.983  32.390  28.692  1.00  0.00     0.055 A 
ATOM     85  C   UNL A   1      44.705  32.616  27.965  1.00  0.00     0.041 A 
ATOM     86  F   UNL A   1      43.118  31.038  28.598  1.00  0.00    -0.206 F 
ATOM     87  C   UNL A   1      45.994  33.131  28.041  1.00  0.00     0.022 A 
BRANCH  84  88
ATOM     88  S   UNL A   1      48.592  33.176  28.967  1.00  0.00     0.124 S 
ATOM     89  O   UNL A   1      48.300  34.582  28.709  1.00  0.00    -0.237 OA
ATOM     90  O   UNL A   1      48.865  32.838  30.363  1.00  0.00    -0.237 OA
ATOM     91  O   UNL A   1      49.472  32.532  27.995  1.00  0.00    -0.744 OA
ENDBRANCH  84  88
ENDBRANCH  58  81
ENDBRANCH  32  33
ENDBRANCH  24  27
ENDBRANCH  22  23
ENDBRANCH  21  22
ENDBRANCH   1  21
TORSDOF 18
ENDMDL
MODEL 3
REMARK VINA RESULT:      -9.0      3.939      7.251
REMARK SMILES CCn1cc(CC(=O)NCCCCCCNC(=O)c2ccc(-c3c4nc(c(-c5cc(S(=O)(=O)[O-])ccc5F)c5ccc([nH]5)c(-c5cc(S(=O)(=O)[O-])ccc5F)c5nc(c(-c6cc(S(=O)(=O)[O-])ccc6F)c6ccc3[nH]6)C=C5)C=C4)cc2)c2ccccc21
REMARK SMILES IDX 13 1 12 2 11 3 10 4 9 5 7 6 8 7 6 9 5 10 3 11 4 12 87 13
REMARK SMILES IDX 82 14 86 15 83 16 85 17 84 18 2 19 1 20 14 21 15 22 16 23
REMARK SMILES IDX 17 24 18 26 19 27 20 28 81 29 21 30 80 31 22 32 23 33 24 34
REMARK SMILES IDX 74 35 25 36 79 37 73 38 75 39 26 40 78 41 72 42 71 43 27 45
REMARK SMILES IDX 59 46 39 47 58 48 40 49 43 50 57 51 76 52 41 53 42 54 56 56
REMARK SMILES IDX 77 57 44 58 28 59 29 60 37 61 30 62 36 63 38 64 35 65 31 66
REMARK SMILES IDX 32 67 33 68 34 69 60 70 61 71 69 72 62 73 68 74 70 75 67 76
REMARK SMILES IDX 63 77 64 78 65 79 66 80 45 81 46 82 54 83 47 84 53 85 55 86
REMARK SMILES IDX 52 87 48 88 49 89 50 90 51 91
REMARK H PARENT 9 8 16 25 75 44 43 55
REMARK Flexibility Score: inf
ROOT
ATOM      1  C   UNL A   1      35.497  21.991  24.860  1.00  0.00     0.002 C 
ENDROOT
BRANCH   1   2
ATOM      2  C   UNL A   1      34.761  20.647  24.855  1.00  0.00     0.002 C 
BRANCH   2   3
ATOM      3  C   UNL A   1      33.475  20.612  25.691  1.00  0.00     0.021 C 
BRANCH   3   4
ATOM      4  C   UNL A   1      32.308  21.361  25.046  1.00  0.00     0.116 C 
BRANCH   4   5
ATOM      5  N   UNL A   1      31.497  22.024  26.050  1.00  0.00    -0.356 N 
ATOM      6  C   UNL A   1      31.639  23.280  26.568  1.00  0.00     0.224 C 
ATOM      7  O   UNL A   1      30.908  23.617  27.503  1.00  0.00    -0.275 OA
ATOM      8  H   UNL A   1      30.743  21.498  26.405  1.00  0.00     0.163 HD
BRANCH   6   9
ATOM      9  C   UNL A   1      32.632  24.250  25.950  1.00  0.00     0.137 C 
BRANCH   9  10
ATOM     10  C   UNL A   1      32.011  25.518  25.453  1.00  0.00    -0.013 A 
ATOM     11  N   UNL A   1      30.664  26.931  24.366  1.00  0.00    -0.347 N 
ATOM     12  C   UNL A   1      30.883  25.612  24.660  1.00  0.00     0.091 A 
ATOM     13  C   UNL A   1      31.587  27.720  25.020  1.00  0.00     0.048 A 
ATOM     14  C   UNL A   1      32.452  26.856  25.702  1.00  0.00     0.003 A 
ATOM     15  C   UNL A   1      31.748  29.115  25.060  1.00  0.00     0.027 A 
ATOM     16  C   UNL A   1      33.519  27.410  26.438  1.00  0.00     0.010 A 
ATOM     17  C   UNL A   1      32.817  29.636  25.794  1.00  0.00     0.002 A 
ATOM     18  C   UNL A   1      33.693  28.797  26.475  1.00  0.00     0.001 A 
BRANCH  11  19
ATOM     19  C   UNL A   1      29.600  27.405  23.498  1.00  0.00     0.119 C 
ATOM     20  C   UNL A   1      28.251  26.779  23.816  1.00  0.00     0.027 C 
ENDBRANCH  11  19
ENDBRANCH   9  10
ENDBRANCH   6   9
ENDBRANCH   4   5
ENDBRANCH   3   4
ENDBRANCH   2   3
ENDBRANCH   1   2
BRANCH   1  21
ATOM     21  C   UNL A   1      36.530  22.165  25.981  1.00  0.00     0.021 C 
BRANCH  21  22
ATOM     22  C   UNL A   1      37.951  22.442  25.489  1.00  0.00     0.116 C 
BRANCH  22  23
ATOM     23  N   UNL A   1      38.970  21.769  26.267  1.00  0.00    -0.352 N 
ATOM     24  C   UNL A   1      39.923  22.174  27.160  1.00  0.00     0.251 C 
ATOM     25  H   UNL A   1      38.977  20.796  26.120  1.00  0.00     0.163 HD
ATOM     26  O   UNL A   1      40.576  21.271  27.691  1.00  0.00    -0.269 OA
BRANCH  24  27
ATOM     27  C   UNL A   1      40.256  23.591  27.476  1.00  0.00     0.039 A 
ATOM     28  C   UNL A   1      41.447  24.038  28.049  1.00  0.00     0.014 A 
ATOM     29  C   UNL A   1      39.235  24.532  27.235  1.00  0.00     0.014 A 
ATOM     30  C   UNL A   1      41.569  25.349  28.492  1.00  0.00     0.010 A 
ATOM     31  C   UNL A   1      39.365  25.853  27.651  1.00  0.00     0.010 A 
ATOM     32  C   UNL A   1      40.505  26.239  28.345  1.00  0.00    -0.014 A 
BRANCH  32  33
ATOM     33  C   UNL A   1      40.638  27.547  28.978  1.00  0.00     0.031 A 
ATOM     34  C   UNL A   1      41.667  28.466  28.409  1.00  0.00     0.074 A 
ATOM     35  C   UNL A   1      39.839  27.941  29.988  1.00  0.00     0.049 A 
ATOM     36  N   UNL A   1      42.721  28.968  28.973  1.00  0.00    -0.248 NA
ATOM     37  C   UNL A   1      41.534  28.797  26.985  1.00  0.00     0.031 C 
ATOM     38  C   UNL A   1      38.599  27.318  30.464  1.00  0.00     0.029 A 
ATOM     39  N   UNL A   1      39.929  29.067  30.744  1.00  0.00    -0.354 N 
ATOM     40  C   UNL A   1      43.305  29.811  28.024  1.00  0.00     0.074 A 
ATOM     41  C   UNL A   1      42.603  29.569  26.788  1.00  0.00     0.031 C 
ATOM     42  C   UNL A   1      37.938  28.195  31.252  1.00  0.00     0.029 A 
ATOM     43  C   UNL A   1      38.785  29.354  31.466  1.00  0.00     0.049 A 
ATOM     44  H   UNL A   1      40.737  29.629  30.775  1.00  0.00     0.167 HD
ATOM     45  C   UNL A   1      44.226  30.767  28.338  1.00  0.00     0.034 A 
ATOM     46  C   UNL A   1      38.513  30.510  32.115  1.00  0.00     0.034 A 
ATOM     47  C   UNL A   1      44.800  30.557  29.637  1.00  0.00     0.049 A 
ATOM     48  C   UNL A   1      39.792  31.225  32.339  1.00  0.00     0.074 A 
ATOM     49  C   UNL A   1      45.624  29.607  30.200  1.00  0.00     0.029 A 
ATOM     50  N   UNL A   1      44.299  31.286  30.685  1.00  0.00    -0.354 N 
ATOM     51  N   UNL A   1      40.735  30.820  33.145  1.00  0.00    -0.248 NA
ATOM     52  C   UNL A   1      40.195  32.212  31.351  1.00  0.00     0.031 C 
ATOM     53  C   UNL A   1      45.208  29.515  31.559  1.00  0.00     0.029 A 
ATOM     54  C   UNL A   1      44.169  30.430  31.748  1.00  0.00     0.049 A 
ATOM     55  H   UNL A   1      44.074  32.245  30.676  1.00  0.00     0.167 HD
ATOM     56  C   UNL A   1      41.917  31.171  32.508  1.00  0.00     0.074 A 
ATOM     57  C   UNL A   1      41.521  32.122  31.473  1.00  0.00     0.031 C 
ATOM     58  C   UNL A   1      43.071  30.462  32.696  1.00  0.00     0.034 A 
BRANCH  45  59
ATOM     59  C   UNL A   1      44.421  32.054  27.569  1.00  0.00     0.023 A 
ATOM     60  C   UNL A   1      43.818  33.265  27.959  1.00  0.00     0.031 A 
ATOM     61  C   UNL A   1      45.389  32.155  26.548  1.00  0.00     0.131 A 
ATOM     62  C   UNL A   1      44.136  34.481  27.341  1.00  0.00     0.055 A 
ATOM     63  C   UNL A   1      45.760  33.382  25.977  1.00  0.00     0.041 A 
ATOM     64  F   UNL A   1      46.047  31.071  26.107  1.00  0.00    -0.206 F 
ATOM     65  C   UNL A   1      45.128  34.554  26.370  1.00  0.00     0.022 A 
BRANCH  62  66
ATOM     66  S   UNL A   1      43.242  35.991  27.796  1.00  0.00     0.124 S 
ATOM     67  O   UNL A   1      44.341  36.931  28.020  1.00  0.00    -0.237 OA
ATOM     68  O   UNL A   1      42.441  36.236  26.595  1.00  0.00    -0.237 OA
ATOM     69  O   UNL A   1      42.484  35.598  28.971  1.00  0.00    -0.744 OA
ENDBRANCH  62  66
ENDBRANCH  45  59
BRANCH  46  70
ATOM     70  C   UNL A   1      37.220  31.226  32.028  1.00  0.00     0.023 A 
ATOM     71  C   UNL A   1      36.706  31.583  30.765  1.00  0.00     0.031 A 
ATOM     72  C   UNL A   1      36.638  31.818  33.158  1.00  0.00     0.131 A 
ATOM     73  C   UNL A   1      35.680  32.528  30.655  1.00  0.00     0.055 A 
ATOM     74  C   UNL A   1      35.602  32.754  33.047  1.00  0.00     0.041 A 
ATOM     75  F   UNL A   1      37.108  31.548  34.385  1.00  0.00    -0.206 F 
ATOM     76  C   UNL A   1      35.127  33.123  31.790  1.00  0.00     0.022 A 
BRANCH  73  77
ATOM     77  S   UNL A   1      35.096  33.062  29.023  1.00  0.00     0.124 S 
ATOM     78  O   UNL A   1      34.067  32.068  28.726  1.00  0.00    -0.237 OA
ATOM     79  O   UNL A   1      34.608  34.407  29.309  1.00  0.00    -0.237 OA
ATOM     80  O   UNL A   1      36.291  32.981  28.189  1.00  0.00    -0.744 OA
ENDBRANCH  73  77
ENDBRANCH  46  70
BRANCH  58  81
ATOM     81  C   UNL A   1      43.123  29.419  33.791  1.00  0.00     0.023 A 
ATOM     82  C   UNL A   1      43.812  29.745  34.973  1.00  0.00     0.031 A 
ATOM     83  C   UNL A   1      42.755  28.071  33.606  1.00  0.00     0.131 A 
ATOM     84  C   UNL A   1      44.154  28.744  35.892  1.00  0.00     0.055 A 
ATOM     85  C   UNL A   1      43.035  27.088  34.560  1.00  0.00     0.041 A 
ATOM     86  F   UNL A   1      42.204  27.649  32.461  1.00  0.00    -0.206 F 
ATOM     87  C   UNL A   1      43.755  27.419  35.702  1.00  0.00     0.022 A 
BRANCH  84  88
ATOM     88  S   UNL A   1      45.272  29.106  37.271  1.00  0.00     0.124 S 
ATOM     89  O   UNL A   1      44.431  29.911  38.151  1.00  0.00    -0.237 OA
ATOM     90  O   UNL A   1      45.595  27.768  37.765  1.00  0.00    -0.237 OA
ATOM     91  O   UNL A   1      46.385  29.818  36.648  1.00  0.00    -0.744 OA
ENDBRANCH  84  88
ENDBRANCH  58  81
ENDBRANCH  32  33
ENDBRANCH  24  27
ENDBRANCH  22  23
ENDBRANCH  21  22
ENDBRANCH   1  21
TORSDOF 18
ENDMDL
