MODEL 1
REMARK VINA RESULT:     -12.3      0.000      0.000
REMARK SMILES O=C(NCCCCCCNC(=O)c1cc(-c2cc(Cl)ccc2Cl)cc([N+](=O)[O-])c1)c1ccc(-c2c3nc(c(-c4cc(S(=O)(=O)[O-])ccc4F)c4ccc([nH]4)c(-c4cc(S(=O)(=O)[O-])ccc4F)c4nc(c(-c5cc(S(=O)(=O)[O-])ccc5F)c5ccc2[nH]5)C=C4)C=C3)cc1
REMARK SMILES IDX 5 1 4 2 3 3 1 4 2 5 30 7 31 8 92 9 32 10 91 11 33 12 34 13
REMARK SMILES IDX 35 14 85 15 36 16 90 17 84 18 86 19 37 20 89 21 83 22 82 23
REMARK SMILES IDX 38 25 70 26 50 27 69 28 51 29 54 30 68 31 87 32 52 33 53 34
REMARK SMILES IDX 67 36 88 37 55 38 39 39 40 40 48 41 41 42 47 43 49 44 46 45
REMARK SMILES IDX 42 46 43 47 44 48 45 49 71 50 72 51 80 52 73 53 79 54 81 55
REMARK SMILES IDX 78 56 74 57 75 58 76 59 77 60 56 61 57 62 65 63 58 64 64 65
REMARK SMILES IDX 66 66 63 67 59 68 60 69 61 70 62 71 6 72 7 73 8 74 9 75
REMARK SMILES IDX 10 76 11 77 12 79 13 80 14 81 29 82 15 83 25 84 24 85 16 86
REMARK SMILES IDX 17 87 22 88 18 89 21 90 23 91 19 92 20 93 26 94 27 95 28 96
REMARK H PARENT 3 6 86 24 54 35 10 78
REMARK Flexibility Score: inf
ROOT
ATOM      1  C   UNL A   1      31.374  31.948  26.492  1.00  0.00     0.021 C 
ENDROOT
BRANCH   1   2
ATOM      2  C   UNL A   1      32.588  32.462  27.254  1.00  0.00     0.116 C 
BRANCH   2   3
ATOM      3  N   UNL A   1      32.463  33.861  27.626  1.00  0.00    -0.352 N 
ATOM      4  O   UNL A   1      32.830  35.712  28.862  1.00  0.00    -0.269 OA
ATOM      5  C   UNL A   1      33.171  34.567  28.567  1.00  0.00     0.251 C 
ATOM      6  H   UNL A   1      31.779  34.373  27.136  1.00  0.00     0.163 HD
BRANCH   5   7
ATOM      7  C   UNL A   1      34.330  33.939  29.237  1.00  0.00     0.039 A 
ATOM      8  C   UNL A   1      34.151  32.867  30.115  1.00  0.00     0.014 A 
ATOM      9  C   UNL A   1      35.614  34.427  28.976  1.00  0.00     0.014 A 
ATOM     10  C   UNL A   1      35.238  32.360  30.819  1.00  0.00     0.010 A 
ATOM     11  C   UNL A   1      36.715  33.865  29.627  1.00  0.00     0.010 A 
ATOM     12  C   UNL A   1      36.533  32.841  30.571  1.00  0.00    -0.014 A 
BRANCH  12  13
ATOM     13  C   UNL A   1      37.691  32.210  31.255  1.00  0.00     0.031 A 
ATOM     14  C   UNL A   1      38.454  31.085  30.613  1.00  0.00     0.074 A 
ATOM     15  C   UNL A   1      38.046  32.664  32.472  1.00  0.00     0.049 A 
ATOM     16  N   UNL A   1      39.472  30.408  31.079  1.00  0.00    -0.248 NA
ATOM     17  C   UNL A   1      38.008  30.660  29.279  1.00  0.00     0.031 C 
ATOM     18  C   UNL A   1      37.363  33.740  33.197  1.00  0.00     0.029 A 
ATOM     19  N   UNL A   1      39.059  32.288  33.314  1.00  0.00    -0.354 N 
ATOM     20  C   UNL A   1      39.781  29.463  30.106  1.00  0.00     0.074 A 
ATOM     21  C   UNL A   1      38.816  29.637  29.040  1.00  0.00     0.031 C 
ATOM     22  C   UNL A   1      37.989  33.950  34.364  1.00  0.00     0.029 A 
ATOM     23  C   UNL A   1      39.074  32.986  34.499  1.00  0.00     0.049 A 
ATOM     24  H   UNL A   1      39.713  31.586  33.092  1.00  0.00     0.167 HD
ATOM     25  C   UNL A   1      40.781  28.545  30.105  1.00  0.00     0.034 A 
ATOM     26  C   UNL A   1      39.851  32.846  35.590  1.00  0.00     0.034 A 
ATOM     27  C   UNL A   1      41.729  28.389  31.184  1.00  0.00     0.049 A 
ATOM     28  C   UNL A   1      40.929  31.798  35.581  1.00  0.00     0.074 A 
ATOM     29  C   UNL A   1      42.811  27.528  31.266  1.00  0.00     0.029 A 
ATOM     30  N   UNL A   1      41.701  29.097  32.381  1.00  0.00    -0.354 N 
ATOM     31  N   UNL A   1      41.234  30.939  34.637  1.00  0.00    -0.248 NA
ATOM     32  C   UNL A   1      41.770  31.705  36.780  1.00  0.00     0.031 C 
ATOM     33  C   UNL A   1      43.388  27.664  32.534  1.00  0.00     0.029 A 
ATOM     34  C   UNL A   1      42.719  28.666  33.219  1.00  0.00     0.049 A 
ATOM     35  H   UNL A   1      41.051  29.804  32.601  1.00  0.00     0.167 HD
ATOM     36  C   UNL A   1      42.313  30.209  35.124  1.00  0.00     0.074 A 
ATOM     37  C   UNL A   1      42.616  30.746  36.435  1.00  0.00     0.031 C 
ATOM     38  C   UNL A   1      42.993  29.191  34.537  1.00  0.00     0.034 A 
BRANCH  25  39
ATOM     39  C   UNL A   1      40.864  27.608  28.920  1.00  0.00     0.023 A 
ATOM     40  C   UNL A   1      41.831  27.769  27.913  1.00  0.00     0.031 A 
ATOM     41  C   UNL A   1      39.941  26.556  28.780  1.00  0.00     0.131 A 
ATOM     42  C   UNL A   1      41.804  26.946  26.776  1.00  0.00     0.055 A 
ATOM     43  C   UNL A   1      39.969  25.690  27.685  1.00  0.00     0.041 A 
ATOM     44  F   UNL A   1      38.982  26.361  29.699  1.00  0.00    -0.206 F 
ATOM     45  C   UNL A   1      40.894  25.892  26.665  1.00  0.00     0.022 A 
BRANCH  42  46
ATOM     46  S   UNL A   1      42.870  27.374  25.371  1.00  0.00     0.124 S 
ATOM     47  O   UNL A   1      44.084  27.827  26.048  1.00  0.00    -0.237 OA
ATOM     48  O   UNL A   1      42.971  26.106  24.658  1.00  0.00    -0.237 OA
ATOM     49  O   UNL A   1      42.123  28.423  24.680  1.00  0.00    -0.744 OA
ENDBRANCH  42  46
ENDBRANCH  25  39
BRANCH  26  50
ATOM     50  C   UNL A   1      39.598  33.691  36.790  1.00  0.00     0.023 A 
ATOM     51  C   UNL A   1      38.937  33.181  37.917  1.00  0.00     0.031 A 
ATOM     52  C   UNL A   1      40.026  35.032  36.821  1.00  0.00     0.131 A 
ATOM     53  C   UNL A   1      38.699  34.015  39.020  1.00  0.00     0.055 A 
ATOM     54  C   UNL A   1      39.829  35.843  37.939  1.00  0.00     0.041 A 
ATOM     55  F   UNL A   1      40.670  35.565  35.771  1.00  0.00    -0.206 F 
ATOM     56  C   UNL A   1      39.153  35.337  39.045  1.00  0.00     0.022 A 
BRANCH  53  57
ATOM     57  S   UNL A   1      37.735  33.363  40.409  1.00  0.00     0.124 S 
ATOM     58  O   UNL A   1      36.524  32.900  39.740  1.00  0.00    -0.237 OA
ATOM     59  O   UNL A   1      38.617  32.324  40.930  1.00  0.00    -0.237 OA
ATOM     60  O   UNL A   1      37.562  34.524  41.279  1.00  0.00    -0.744 OA
ENDBRANCH  53  57
ENDBRANCH  26  50
BRANCH  38  61
ATOM     61  C   UNL A   1      44.152  28.616  35.312  1.00  0.00     0.023 A 
ATOM     62  C   UNL A   1      43.967  27.624  36.290  1.00  0.00     0.031 A 
ATOM     63  C   UNL A   1      45.458  29.083  35.081  1.00  0.00     0.131 A 
ATOM     64  C   UNL A   1      45.063  27.169  37.040  1.00  0.00     0.055 A 
ATOM     65  C   UNL A   1      46.553  28.585  35.789  1.00  0.00     0.041 A 
ATOM     66  F   UNL A   1      45.691  30.034  34.161  1.00  0.00    -0.206 F 
ATOM     67  C   UNL A   1      46.356  27.631  36.784  1.00  0.00     0.022 A 
BRANCH  64  68
ATOM     68  S   UNL A   1      44.765  26.026  38.415  1.00  0.00     0.124 S 
ATOM     69  O   UNL A   1      44.631  24.747  37.723  1.00  0.00    -0.237 OA
ATOM     70  O   UNL A   1      45.967  26.188  39.225  1.00  0.00    -0.237 OA
ATOM     71  O   UNL A   1      43.536  26.532  39.022  1.00  0.00    -0.744 OA
ENDBRANCH  64  68
ENDBRANCH  38  61
ENDBRANCH  12  13
ENDBRANCH   5   7
ENDBRANCH   2   3
ENDBRANCH   1   2
BRANCH   1  72
ATOM     72  C   UNL A   1      31.502  30.526  25.945  1.00  0.00     0.002 C 
BRANCH  72  73
ATOM     73  C   UNL A   1      32.931  29.994  25.808  1.00  0.00     0.002 C 
BRANCH  73  74
ATOM     74  C   UNL A   1      33.327  28.887  26.790  1.00  0.00     0.021 C 
BRANCH  74  75
ATOM     75  C   UNL A   1      34.125  27.732  26.189  1.00  0.00     0.116 C 
BRANCH  75  76
ATOM     76  N   UNL A   1      33.557  26.439  26.528  1.00  0.00    -0.352 N 
ATOM     77  C   UNL A   1      32.654  25.673  25.845  1.00  0.00     0.251 C 
ATOM     78  H   UNL A   1      33.870  26.055  27.380  1.00  0.00     0.163 HD
ATOM     79  O   UNL A   1      32.160  24.679  26.374  1.00  0.00    -0.269 OA
BRANCH  77  80
ATOM     80  C   UNL A   1      32.241  26.039  24.473  1.00  0.00     0.047 A 
ATOM     81  C   UNL A   1      31.225  26.991  24.321  1.00  0.00     0.023 A 
ATOM     82  C   UNL A   1      32.775  25.397  23.355  1.00  0.00     0.099 A 
ATOM     83  C   UNL A   1      30.755  27.355  23.048  1.00  0.00    -0.009 A 
ATOM     84  C   UNL A   1      32.347  25.786  22.081  1.00  0.00     0.270 A 
ATOM     85  C   UNL A   1      31.361  26.772  21.924  1.00  0.00     0.094 A 
BRANCH  83  86
ATOM     86  C   UNL A   1      29.616  28.282  22.919  1.00  0.00     0.002 A 
ATOM     87  C   UNL A   1      29.838  29.596  22.460  1.00  0.00     0.030 A 
ATOM     88  C   UNL A   1      28.300  27.930  23.295  1.00  0.00     0.048 A 
ATOM     89  C   UNL A   1      28.790  30.518  22.390  1.00  0.00     0.041 A 
ATOM     90  C   UNL A   1      27.255  28.857  23.211  1.00  0.00     0.023 A 
ATOM     91  Cl  UNL A   1      27.907  26.368  23.932  1.00  0.00    -0.084 Cl
ATOM     92  Cl  UNL A   1      29.097  32.124  21.858  1.00  0.00    -0.084 Cl
ATOM     93  C   UNL A   1      27.500  30.153  22.764  1.00  0.00     0.022 A 
ENDBRANCH  83  86
BRANCH  84  94
ATOM     94  N   UNL A   1      32.915  25.130  20.897  1.00  0.00     0.062 N 
ATOM     95  O   UNL A   1      32.939  25.775  19.840  1.00  0.00    -0.258 OA
ATOM     96  O   UNL A   1      33.329  23.971  21.030  1.00  0.00    -0.258 OA
ENDBRANCH  84  94
ENDBRANCH  77  80
ENDBRANCH  75  76
ENDBRANCH  74  75
ENDBRANCH  73  74
ENDBRANCH  72  73
ENDBRANCH   1  72
TORSDOF 18
ENDMDL
MODEL 2
REMARK VINA RESULT:     -12.0      6.646     11.730
REMARK SMILES O=C(NCCCCCCNC(=O)c1cc(-c2cc(Cl)ccc2Cl)cc([N+](=O)[O-])c1)c1ccc(-c2c3nc(c(-c4cc(S(=O)(=O)[O-])ccc4F)c4ccc([nH]4)c(-c4cc(S(=O)(=O)[O-])ccc4F)c4nc(c(-c5cc(S(=O)(=O)[O-])ccc5F)c5ccc2[nH]5)C=C4)C=C3)cc1
REMARK SMILES IDX 5 1 4 2 3 3 1 4 2 5 30 7 31 8 92 9 32 10 91 11 33 12 34 13
REMARK SMILES IDX 35 14 85 15 36 16 90 17 84 18 86 19 37 20 89 21 83 22 82 23
REMARK SMILES IDX 38 25 70 26 50 27 69 28 51 29 54 30 68 31 87 32 52 33 53 34
REMARK SMILES IDX 67 36 88 37 55 38 39 39 40 40 48 41 41 42 47 43 49 44 46 45
REMARK SMILES IDX 42 46 43 47 44 48 45 49 71 50 72 51 80 52 73 53 79 54 81 55
REMARK SMILES IDX 78 56 74 57 75 58 76 59 77 60 56 61 57 62 65 63 58 64 64 65
REMARK SMILES IDX 66 66 63 67 59 68 60 69 61 70 62 71 6 72 7 73 8 74 9 75
REMARK SMILES IDX 10 76 11 77 12 79 13 80 14 81 29 82 15 83 25 84 24 85 16 86
REMARK SMILES IDX 17 87 22 88 18 89 21 90 23 91 19 92 20 93 26 94 27 95 28 96
REMARK H PARENT 3 6 86 24 54 35 10 78
REMARK Flexibility Score: inf
ROOT
ATOM      1  C   UNL A   1      38.156  19.751  24.955  1.00  0.00     0.021 C 
ENDROOT
BRANCH   1   2
ATOM      2  C   UNL A   1      39.201  20.083  26.012  1.00  0.00     0.116 C 
BRANCH   2   3
ATOM      3  N   UNL A   1      40.331  19.170  25.986  1.00  0.00    -0.352 N 
ATOM      4  O   UNL A   1      42.504  18.574  25.885  1.00  0.00    -0.269 OA
ATOM      5  C   UNL A   1      41.670  19.458  26.078  1.00  0.00     0.251 C 
ATOM      6  H   UNL A   1      40.106  18.216  25.892  1.00  0.00     0.163 HD
BRANCH   5   7
ATOM      7  C   UNL A   1      42.106  20.836  26.390  1.00  0.00     0.039 A 
ATOM      8  C   UNL A   1      42.361  21.221  27.709  1.00  0.00     0.014 A 
ATOM      9  C   UNL A   1      42.268  21.752  25.347  1.00  0.00     0.014 A 
ATOM     10  C   UNL A   1      42.663  22.548  27.997  1.00  0.00     0.010 A 
ATOM     11  C   UNL A   1      42.647  23.066  25.632  1.00  0.00     0.010 A 
ATOM     12  C   UNL A   1      42.827  23.481  26.961  1.00  0.00    -0.014 A 
BRANCH  12  13
ATOM     13  C   UNL A   1      43.256  24.865  27.285  1.00  0.00     0.031 A 
ATOM     14  C   UNL A   1      42.311  25.843  27.925  1.00  0.00     0.074 A 
ATOM     15  C   UNL A   1      44.518  25.234  26.989  1.00  0.00     0.049 A 
ATOM     16  N   UNL A   1      42.515  27.093  28.252  1.00  0.00    -0.248 NA
ATOM     17  C   UNL A   1      40.958  25.355  28.225  1.00  0.00     0.031 C 
ATOM     18  C   UNL A   1      45.515  24.370  26.350  1.00  0.00     0.029 A 
ATOM     19  N   UNL A   1      45.179  26.418  27.182  1.00  0.00    -0.354 N 
ATOM     20  C   UNL A   1      41.313  27.551  28.782  1.00  0.00     0.074 A 
ATOM     21  C   UNL A   1      40.377  26.448  28.698  1.00  0.00     0.031 C 
ATOM     22  C   UNL A   1      46.666  25.046  26.223  1.00  0.00     0.029 A 
ATOM     23  C   UNL A   1      46.472  26.407  26.711  1.00  0.00     0.049 A 
ATOM     24  H   UNL A   1      44.769  27.201  27.616  1.00  0.00     0.167 HD
ATOM     25  C   UNL A   1      41.026  28.774  29.296  1.00  0.00     0.034 A 
ATOM     26  C   UNL A   1      47.391  27.389  26.646  1.00  0.00     0.034 A 
ATOM     27  C   UNL A   1      41.977  29.860  29.365  1.00  0.00     0.049 A 
ATOM     28  C   UNL A   1      47.038  28.747  27.187  1.00  0.00     0.074 A 
ATOM     29  C   UNL A   1      41.809  31.122  29.910  1.00  0.00     0.029 A 
ATOM     30  N   UNL A   1      43.271  29.821  28.857  1.00  0.00    -0.354 N 
ATOM     31  N   UNL A   1      45.910  29.152  27.722  1.00  0.00    -0.248 NA
ATOM     32  C   UNL A   1      48.083  29.774  27.123  1.00  0.00     0.031 C 
ATOM     33  C   UNL A   1      42.971  31.865  29.667  1.00  0.00     0.029 A 
ATOM     34  C   UNL A   1      43.896  31.047  29.040  1.00  0.00     0.049 A 
ATOM     35  H   UNL A   1      43.684  29.037  28.429  1.00  0.00     0.167 HD
ATOM     36  C   UNL A   1      46.113  30.482  28.070  1.00  0.00     0.074 A 
ATOM     37  C   UNL A   1      47.479  30.801  27.704  1.00  0.00     0.031 C 
ATOM     38  C   UNL A   1      45.251  31.359  28.644  1.00  0.00     0.034 A 
BRANCH  25  39
ATOM     39  C   UNL A   1      39.611  29.013  29.775  1.00  0.00     0.023 A 
ATOM     40  C   UNL A   1      38.667  29.698  28.990  1.00  0.00     0.031 A 
ATOM     41  C   UNL A   1      39.210  28.576  31.051  1.00  0.00     0.131 A 
ATOM     42  C   UNL A   1      37.400  29.995  29.517  1.00  0.00     0.055 A 
ATOM     43  C   UNL A   1      37.921  28.805  31.538  1.00  0.00     0.041 A 
ATOM     44  F   UNL A   1      40.070  27.932  31.855  1.00  0.00    -0.206 F 
ATOM     45  C   UNL A   1      37.012  29.534  30.777  1.00  0.00     0.022 A 
BRANCH  42  46
ATOM     46  S   UNL A   1      36.325  31.131  28.597  1.00  0.00     0.124 S 
ATOM     47  O   UNL A   1      37.185  32.303  28.453  1.00  0.00    -0.237 OA
ATOM     48  O   UNL A   1      36.053  30.383  27.375  1.00  0.00    -0.237 OA
ATOM     49  O   UNL A   1      35.179  31.315  29.486  1.00  0.00    -0.744 OA
ENDBRANCH  42  46
ENDBRANCH  25  39
BRANCH  26  50
ATOM     50  C   UNL A   1      48.707  27.126  26.001  1.00  0.00     0.023 A 
ATOM     51  C   UNL A   1      48.920  27.393  24.641  1.00  0.00     0.031 A 
ATOM     52  C   UNL A   1      49.778  26.605  26.751  1.00  0.00     0.131 A 
ATOM     53  C   UNL A   1      50.169  27.113  24.065  1.00  0.00     0.055 A 
ATOM     54  C   UNL A   1      51.031  26.373  26.186  1.00  0.00     0.041 A 
ATOM     55  F   UNL A   1      49.626  26.340  28.059  1.00  0.00    -0.206 F 
ATOM     56  C   UNL A   1      51.230  26.619  24.831  1.00  0.00     0.022 A 
BRANCH  53  57
ATOM     57  S   UNL A   1      50.376  27.353  22.281  1.00  0.00     0.124 S 
ATOM     58  O   UNL A   1      51.713  26.814  22.060  1.00  0.00    -0.237 OA
ATOM     59  O   UNL A   1      49.271  26.568  21.739  1.00  0.00    -0.237 OA
ATOM     60  O   UNL A   1      50.250  28.798  22.114  1.00  0.00    -0.744 OA
ENDBRANCH  53  57
ENDBRANCH  26  50
BRANCH  38  61
ATOM     61  C   UNL A   1      45.781  32.741  28.933  1.00  0.00     0.023 A 
ATOM     62  C   UNL A   1      45.706  33.774  27.983  1.00  0.00     0.031 A 
ATOM     63  C   UNL A   1      46.389  33.021  30.170  1.00  0.00     0.131 A 
ATOM     64  C   UNL A   1      46.278  35.025  28.264  1.00  0.00     0.055 A 
ATOM     65  C   UNL A   1      46.904  34.284  30.466  1.00  0.00     0.041 A 
ATOM     66  F   UNL A   1      46.493  32.069  31.112  1.00  0.00    -0.206 F 
ATOM     67  C   UNL A   1      46.861  35.291  29.505  1.00  0.00     0.022 A 
BRANCH  64  68
ATOM     68  S   UNL A   1      46.326  36.277  26.953  1.00  0.00     0.124 S 
ATOM     69  O   UNL A   1      47.653  36.855  27.134  1.00  0.00    -0.237 OA
ATOM     70  O   UNL A   1      46.139  35.475  25.747  1.00  0.00    -0.237 OA
ATOM     71  O   UNL A   1      45.213  37.164  27.284  1.00  0.00    -0.744 OA
ENDBRANCH  64  68
ENDBRANCH  38  61
ENDBRANCH  12  13
ENDBRANCH   5   7
ENDBRANCH   2   3
ENDBRANCH   1   2
BRANCH   1  72
ATOM     72  C   UNL A   1      36.920  20.651  24.955  1.00  0.00     0.002 C 
BRANCH  72  73
ATOM     73  C   UNL A   1      37.097  22.022  24.297  1.00  0.00     0.002 C 
BRANCH  73  74
ATOM     74  C   UNL A   1      37.341  23.194  25.252  1.00  0.00     0.021 C 
BRANCH  74  75
ATOM     75  C   UNL A   1      36.100  23.990  25.644  1.00  0.00     0.116 C 
BRANCH  75  76
ATOM     76  N   UNL A   1      35.463  24.612  24.497  1.00  0.00    -0.352 N 
ATOM     77  C   UNL A   1      34.298  24.285  23.859  1.00  0.00     0.251 C 
ATOM     78  H   UNL A   1      35.941  25.386  24.120  1.00  0.00     0.163 HD
ATOM     79  O   UNL A   1      34.003  24.826  22.795  1.00  0.00    -0.269 OA
BRANCH  77  80
ATOM     80  C   UNL A   1      33.389  23.266  24.425  1.00  0.00     0.047 A 
ATOM     81  C   UNL A   1      33.584  21.929  24.054  1.00  0.00     0.023 A 
ATOM     82  C   UNL A   1      32.309  23.620  25.235  1.00  0.00     0.099 A 
ATOM     83  C   UNL A   1      32.732  20.915  24.522  1.00  0.00    -0.009 A 
ATOM     84  C   UNL A   1      31.483  22.612  25.742  1.00  0.00     0.270 A 
ATOM     85  C   UNL A   1      31.702  21.267  25.408  1.00  0.00     0.094 A 
BRANCH  83  86
ATOM     86  C   UNL A   1      32.895  19.532  24.036  1.00  0.00     0.002 A 
ATOM     87  C   UNL A   1      33.546  18.582  24.848  1.00  0.00     0.030 A 
ATOM     88  C   UNL A   1      32.476  19.121  22.750  1.00  0.00     0.048 A 
ATOM     89  C   UNL A   1      33.776  17.282  24.389  1.00  0.00     0.041 A 
ATOM     90  C   UNL A   1      32.700  17.814  22.303  1.00  0.00     0.023 A 
ATOM     91  Cl  UNL A   1      31.719  20.208  21.633  1.00  0.00    -0.084 Cl
ATOM     92  Cl  UNL A   1      34.603  16.155  25.390  1.00  0.00    -0.084 Cl
ATOM     93  C   UNL A   1      33.354  16.895  23.120  1.00  0.00     0.022 A 
ENDBRANCH  83  86
BRANCH  84  94
ATOM     94  N   UNL A   1      30.354  22.971  26.609  1.00  0.00     0.062 N 
ATOM     95  O   UNL A   1      29.438  22.146  26.731  1.00  0.00    -0.258 OA
ATOM     96  O   UNL A   1      30.387  24.080  27.160  1.00  0.00    -0.258 OA
ENDBRANCH  84  94
ENDBRANCH  77  80
ENDBRANCH  75  76
ENDBRANCH  74  75
ENDBRANCH  73  74
ENDBRANCH  72  73
ENDBRANCH   1  72
TORSDOF 18
ENDMDL
MODEL 3
REMARK VINA RESULT:     -11.9      2.396      3.800
REMARK SMILES O=C(NCCCCCCNC(=O)c1cc(-c2cc(Cl)ccc2Cl)cc([N+](=O)[O-])c1)c1ccc(-c2c3nc(c(-c4cc(S(=O)(=O)[O-])ccc4F)c4ccc([nH]4)c(-c4cc(S(=O)(=O)[O-])ccc4F)c4nc(c(-c5cc(S(=O)(=O)[O-])ccc5F)c5ccc2[nH]5)C=C4)C=C3)cc1
REMARK SMILES IDX 5 1 4 2 3 3 1 4 2 5 30 7 31 8 92 9 32 10 91 11 33 12 34 13
REMARK SMILES IDX 35 14 85 15 36 16 90 17 84 18 86 19 37 20 89 21 83 22 82 23
REMARK SMILES IDX 38 25 70 26 50 27 69 28 51 29 54 30 68 31 87 32 52 33 53 34
REMARK SMILES IDX 67 36 88 37 55 38 39 39 40 40 48 41 41 42 47 43 49 44 46 45
REMARK SMILES IDX 42 46 43 47 44 48 45 49 71 50 72 51 80 52 73 53 79 54 81 55
REMARK SMILES IDX 78 56 74 57 75 58 76 59 77 60 56 61 57 62 65 63 58 64 64 65
REMARK SMILES IDX 66 66 63 67 59 68 60 69 61 70 62 71 6 72 7 73 8 74 9 75
REMARK SMILES IDX 10 76 11 77 12 79 13 80 14 81 29 82 15 83 25 84 24 85 16 86
REMARK SMILES IDX 17 87 22 88 18 89 21 90 23 91 19 92 20 93 26 94 27 95 28 96
REMARK H PARENT 3 6 86 24 54 35 10 78
REMARK Flexibility Score: inf
ROOT
ATOM      1  C   UNL A   1      31.434  31.927  26.493  1.00  0.00     0.021 C 
ENDROOT
BRANCH   1   2
ATOM      2  C   UNL A   1      32.685  32.400  27.222  1.00  0.00     0.116 C 
BRANCH   2   3
ATOM      3  N   UNL A   1      32.621  33.805  27.588  1.00  0.00    -0.352 N 
ATOM      4  O   UNL A   1      33.095  35.650  28.795  1.00  0.00    -0.269 OA
ATOM      5  C   UNL A   1      33.385  34.492  28.497  1.00  0.00     0.251 C 
ATOM      6  H   UNL A   1      31.938  34.336  27.118  1.00  0.00     0.163 HD
BRANCH   5   7
ATOM      7  C   UNL A   1      34.546  33.829  29.131  1.00  0.00     0.039 A 
ATOM      8  C   UNL A   1      35.849  34.230  28.826  1.00  0.00     0.014 A 
ATOM      9  C   UNL A   1      34.324  32.799  30.049  1.00  0.00     0.014 A 
ATOM     10  C   UNL A   1      36.930  33.525  29.346  1.00  0.00     0.010 A 
ATOM     11  C   UNL A   1      35.412  32.143  30.630  1.00  0.00     0.010 A 
ATOM     12  C   UNL A   1      36.724  32.486  30.267  1.00  0.00    -0.014 A 
BRANCH  12  13
ATOM     13  C   UNL A   1      37.896  31.821  30.892  1.00  0.00     0.031 A 
ATOM     14  C   UNL A   1      38.682  30.775  30.153  1.00  0.00     0.074 A 
ATOM     15  C   UNL A   1      38.243  32.172  32.146  1.00  0.00     0.049 A 
ATOM     16  N   UNL A   1      39.714  30.080  30.557  1.00  0.00    -0.248 NA
ATOM     17  C   UNL A   1      38.244  30.461  28.786  1.00  0.00     0.031 C 
ATOM     18  C   UNL A   1      37.538  33.164  32.963  1.00  0.00     0.029 A 
ATOM     19  N   UNL A   1      39.264  31.743  32.952  1.00  0.00    -0.354 N 
ATOM     20  C   UNL A   1      40.042  29.232  29.504  1.00  0.00     0.074 A 
ATOM     21  C   UNL A   1      39.072  29.481  28.456  1.00  0.00     0.031 C 
ATOM     22  C   UNL A   1      38.160  33.282  34.145  1.00  0.00     0.029 A 
ATOM     23  C   UNL A   1      39.265  32.332  34.194  1.00  0.00     0.049 A 
ATOM     24  H   UNL A   1      39.932  31.078  32.668  1.00  0.00     0.167 HD
ATOM     25  C   UNL A   1      41.060  28.340  29.421  1.00  0.00     0.034 A 
ATOM     26  C   UNL A   1      40.046  32.112  35.269  1.00  0.00     0.034 A 
ATOM     27  C   UNL A   1      42.013  28.108  30.483  1.00  0.00     0.049 A 
ATOM     28  C   UNL A   1      41.146  31.091  35.167  1.00  0.00     0.074 A 
ATOM     29  C   UNL A   1      43.113  27.266  30.488  1.00  0.00     0.029 A 
ATOM     30  N   UNL A   1      41.971  28.705  31.738  1.00  0.00    -0.354 N 
ATOM     31  N   UNL A   1      41.468  30.327  34.150  1.00  0.00    -0.248 NA
ATOM     32  C   UNL A   1      41.989  30.909  36.353  1.00  0.00     0.031 C 
ATOM     33  C   UNL A   1      43.688  27.300  31.764  1.00  0.00     0.029 A 
ATOM     34  C   UNL A   1      42.999  28.222  32.536  1.00  0.00     0.049 A 
ATOM     35  H   UNL A   1      41.307  29.375  32.020  1.00  0.00     0.167 HD
ATOM     36  C   UNL A   1      42.562  29.579  34.570  1.00  0.00     0.074 A 
ATOM     37  C   UNL A   1      42.856  30.003  35.925  1.00  0.00     0.031 C 
ATOM     38  C   UNL A   1      43.263  28.633  33.896  1.00  0.00     0.034 A 
BRANCH  25  39
ATOM     39  C   UNL A   1      41.162  27.515  28.158  1.00  0.00     0.023 A 
ATOM     40  C   UNL A   1      40.790  26.159  28.124  1.00  0.00     0.031 A 
ATOM     41  C   UNL A   1      41.669  28.084  26.976  1.00  0.00     0.131 A 
ATOM     42  C   UNL A   1      41.005  25.401  26.962  1.00  0.00     0.055 A 
ATOM     43  C   UNL A   1      41.805  27.345  25.799  1.00  0.00     0.041 A 
ATOM     44  F   UNL A   1      42.058  29.369  26.949  1.00  0.00    -0.206 F 
ATOM     45  C   UNL A   1      41.488  25.990  25.792  1.00  0.00     0.022 A 
BRANCH  42  46
ATOM     46  S   UNL A   1      40.794  23.601  27.051  1.00  0.00     0.124 S 
ATOM     47  O   UNL A   1      41.406  23.294  28.342  1.00  0.00    -0.237 OA
ATOM     48  O   UNL A   1      39.345  23.452  26.979  1.00  0.00    -0.237 OA
ATOM     49  O   UNL A   1      41.532  23.111  25.889  1.00  0.00    -0.744 OA
ENDBRANCH  42  46
ENDBRANCH  25  39
BRANCH  26  50
ATOM     50  C   UNL A   1      39.776  32.840  36.539  1.00  0.00     0.023 A 
ATOM     51  C   UNL A   1      38.810  32.389  37.450  1.00  0.00     0.031 A 
ATOM     52  C   UNL A   1      40.496  34.007  36.859  1.00  0.00     0.131 A 
ATOM     53  C   UNL A   1      38.571  33.115  38.627  1.00  0.00     0.055 A 
ATOM     54  C   UNL A   1      40.288  34.698  38.053  1.00  0.00     0.041 A 
ATOM     55  F   UNL A   1      41.437  34.475  36.024  1.00  0.00    -0.206 F 
ATOM     56  C   UNL A   1      39.313  34.257  38.942  1.00  0.00     0.022 A 
BRANCH  53  57
ATOM     57  S   UNL A   1      37.232  32.574  39.723  1.00  0.00     0.124 S 
ATOM     58  O   UNL A   1      37.279  33.586  40.773  1.00  0.00    -0.237 OA
ATOM     59  O   UNL A   1      36.075  32.625  38.835  1.00  0.00    -0.237 OA
ATOM     60  O   UNL A   1      37.644  31.233  40.129  1.00  0.00    -0.744 OA
ENDBRANCH  53  57
ENDBRANCH  26  50
BRANCH  38  61
ATOM     61  C   UNL A   1      44.435  28.015  34.617  1.00  0.00     0.023 A 
ATOM     62  C   UNL A   1      44.318  26.797  35.309  1.00  0.00     0.031 A 
ATOM     63  C   UNL A   1      45.682  28.666  34.627  1.00  0.00     0.131 A 
ATOM     64  C   UNL A   1      45.413  26.294  36.029  1.00  0.00     0.055 A 
ATOM     65  C   UNL A   1      46.784  28.131  35.296  1.00  0.00     0.041 A 
ATOM     66  F   UNL A   1      45.848  29.834  33.986  1.00  0.00    -0.206 F 
ATOM     67  C   UNL A   1      46.649  26.945  36.013  1.00  0.00     0.022 A 
BRANCH  64  68
ATOM     68  S   UNL A   1      45.177  24.820  37.058  1.00  0.00     0.124 S 
ATOM     69  O   UNL A   1      45.080  25.397  38.396  1.00  0.00    -0.237 OA
ATOM     70  O   UNL A   1      43.945  24.254  36.518  1.00  0.00    -0.237 OA
ATOM     71  O   UNL A   1      46.382  24.032  36.811  1.00  0.00    -0.744 OA
ENDBRANCH  64  68
ENDBRANCH  38  61
ENDBRANCH  12  13
ENDBRANCH   5   7
ENDBRANCH   2   3
ENDBRANCH   1   2
BRANCH   1  72
ATOM     72  C   UNL A   1      31.519  30.520  25.899  1.00  0.00     0.002 C 
BRANCH  72  73
ATOM     73  C   UNL A   1      31.773  29.391  26.902  1.00  0.00     0.002 C 
BRANCH  73  74
ATOM     74  C   UNL A   1      33.119  28.673  26.770  1.00  0.00     0.021 C 
BRANCH  74  75
ATOM     75  C   UNL A   1      33.039  27.166  26.539  1.00  0.00     0.116 C 
BRANCH  75  76
ATOM     76  N   UNL A   1      31.705  26.645  26.782  1.00  0.00    -0.352 N 
ATOM     77  C   UNL A   1      30.950  25.788  26.030  1.00  0.00     0.251 C 
ATOM     78  H   UNL A   1      31.280  26.955  27.615  1.00  0.00     0.163 HD
ATOM     79  O   UNL A   1      29.770  25.592  26.315  1.00  0.00    -0.269 OA
BRANCH  77  80
ATOM     80  C   UNL A   1      31.531  25.104  24.856  1.00  0.00     0.047 A 
ATOM     81  C   UNL A   1      32.093  23.834  25.044  1.00  0.00     0.023 A 
ATOM     82  C   UNL A   1      31.605  25.728  23.610  1.00  0.00     0.099 A 
ATOM     83  C   UNL A   1      32.699  23.144  23.981  1.00  0.00    -0.009 A 
ATOM     84  C   UNL A   1      32.166  25.030  22.535  1.00  0.00     0.270 A 
ATOM     85  C   UNL A   1      32.690  23.740  22.710  1.00  0.00     0.094 A 
BRANCH  83  86
ATOM     86  C   UNL A   1      33.374  21.857  24.226  1.00  0.00     0.002 A 
ATOM     87  C   UNL A   1      32.638  20.658  24.137  1.00  0.00     0.030 A 
ATOM     88  C   UNL A   1      34.731  21.768  24.610  1.00  0.00     0.048 A 
ATOM     89  C   UNL A   1      33.232  19.428  24.430  1.00  0.00     0.041 A 
ATOM     90  C   UNL A   1      35.321  20.530  24.890  1.00  0.00     0.023 A 
ATOM     91  Cl  UNL A   1      35.728  23.170  24.814  1.00  0.00    -0.084 Cl
ATOM     92  Cl  UNL A   1      32.300  17.985  24.346  1.00  0.00    -0.084 Cl
ATOM     93  C   UNL A   1      34.571  19.359  24.805  1.00  0.00     0.022 A 
ENDBRANCH  83  86
BRANCH  84  94
ATOM     94  N   UNL A   1      32.234  25.670  21.216  1.00  0.00     0.062 N 
ATOM     95  O   UNL A   1      31.394  26.543  20.956  1.00  0.00    -0.258 OA
ATOM     96  O   UNL A   1      33.125  25.292  20.443  1.00  0.00    -0.258 OA
ENDBRANCH  84  94
ENDBRANCH  77  80
ENDBRANCH  75  76
ENDBRANCH  74  75
ENDBRANCH  73  74
ENDBRANCH  72  73
ENDBRANCH   1  72
TORSDOF 18
ENDMDL
