MODEL 1
REMARK VINA RESULT:     -10.7      0.000      0.000
REMARK SMILES CC(=O)NCCc1c[nH]c2ccc(C(=O)NCCCCCCNC(=O)c3ccc(-c4c5nc(c(-c6cc(S(=O)(=O)[O-])ccc6F)c6ccc([nH]6)c(-c6cc(S(=O)(=O)[O-])ccc6F)c6nc(c(-c7cc(S(=O)(=O)[O-])ccc7F)c7ccc4[nH]7)C=C6)C=C5)cc3)cc12
REMARK SMILES IDX 19 1 18 2 17 3 16 4 14 5 15 6 13 8 7 9 8 10 90 11 9 12 10 13
REMARK SMILES IDX 89 14 11 16 12 17 6 18 5 19 4 20 1 21 2 22 3 23 20 25 21 26
REMARK SMILES IDX 22 27 23 28 24 29 25 31 26 32 27 33 88 34 28 35 87 36 29 37
REMARK SMILES IDX 30 38 31 39 81 40 32 41 86 42 80 43 82 44 33 45 85 46 79 47
REMARK SMILES IDX 78 48 34 50 66 51 46 52 65 53 47 54 50 55 64 56 83 57 48 58
REMARK SMILES IDX 49 59 63 61 84 62 51 63 35 64 36 65 44 66 37 67 43 68 45 69
REMARK SMILES IDX 42 70 38 71 39 72 40 73 41 74 67 75 68 76 76 77 69 78 75 79
REMARK SMILES IDX 77 80 74 81 70 82 71 83 72 84 73 85 52 86 53 87 61 88 54 89
REMARK SMILES IDX 60 90 62 91 59 92 55 93 56 94 57 95 58 96
REMARK H PARENT 16 7 9 15 4 24 23 30 82 49 50 60
REMARK Flexibility Score: inf
ROOT
ATOM      1  C   UNL A   1      37.983  32.912  29.536  1.00  0.00     0.002 C 
ENDROOT
BRANCH   1   2
ATOM      2  C   UNL A   1      39.394  33.423  29.865  1.00  0.00     0.021 C 
BRANCH   2   3
ATOM      3  C   UNL A   1      39.385  34.785  30.562  1.00  0.00     0.116 C 
BRANCH   3   4
ATOM      4  N   UNL A   1      39.768  34.624  31.948  1.00  0.00    -0.352 N 
ATOM      5  C   UNL A   1      39.076  34.313  33.084  1.00  0.00     0.251 C 
ATOM      6  O   UNL A   1      39.720  34.305  34.137  1.00  0.00    -0.269 OA
ATOM      7  H   UNL A   1      40.729  34.768  32.105  1.00  0.00     0.163 HD
BRANCH   5   8
ATOM      8  C   UNL A   1      37.632  33.935  33.120  1.00  0.00     0.040 A 
ATOM      9  C   UNL A   1      34.201  35.629  32.830  1.00  0.00    -0.021 A 
ATOM     10  C   UNL A   1      33.086  34.828  32.989  1.00  0.00     0.087 A 
ATOM     11  C   UNL A   1      35.340  34.787  33.023  1.00  0.00     0.003 A 
ATOM     12  N   UNL A   1      33.506  33.547  33.233  1.00  0.00    -0.361 N 
ATOM     13  C   UNL A   1      34.879  33.486  33.200  1.00  0.00     0.046 A 
ATOM     14  C   UNL A   1      36.729  35.009  33.021  1.00  0.00     0.024 A 
ATOM     15  H   UNL A   1      32.911  32.782  33.407  1.00  0.00     0.166 HD
ATOM     16  C   UNL A   1      35.741  32.390  33.290  1.00  0.00     0.027 A 
ATOM     17  C   UNL A   1      37.121  32.637  33.194  1.00  0.00     0.016 A 
BRANCH   9  18
ATOM     18  C   UNL A   1      34.219  37.087  32.480  1.00  0.00     0.059 C 
BRANCH  18  19
ATOM     19  C   UNL A   1      33.186  37.467  31.409  1.00  0.00     0.120 C 
BRANCH  19  20
ATOM     20  N   UNL A   1      32.776  36.327  30.601  1.00  0.00    -0.356 N 
ATOM     21  C   UNL A   1      33.730  37.140  28.487  1.00  0.00     0.114 C 
ATOM     22  C   UNL A   1      32.983  36.100  29.274  1.00  0.00     0.216 C 
ATOM     23  O   UNL A   1      32.565  35.069  28.752  1.00  0.00    -0.275 OA
ATOM     24  H   UNL A   1      32.283  35.623  31.079  1.00  0.00     0.163 HD
ENDBRANCH  19  20
ENDBRANCH  18  19
ENDBRANCH   9  18
ENDBRANCH   5   8
ENDBRANCH   3   4
ENDBRANCH   2   3
ENDBRANCH   1   2
BRANCH   1  25
ATOM     25  C   UNL A   1      36.863  33.937  29.762  1.00  0.00     0.002 C 
BRANCH  25  26
ATOM     26  C   UNL A   1      35.462  33.443  29.397  1.00  0.00     0.021 C 
BRANCH  26  27
ATOM     27  C   UNL A   1      35.250  33.240  27.901  1.00  0.00     0.116 C 
BRANCH  27  28
ATOM     28  N   UNL A   1      34.216  32.250  27.644  1.00  0.00    -0.352 N 
ATOM     29  C   UNL A   1      34.327  30.883  27.581  1.00  0.00     0.251 C 
ATOM     30  H   UNL A   1      33.312  32.609  27.494  1.00  0.00     0.163 HD
ATOM     31  O   UNL A   1      33.424  30.218  27.087  1.00  0.00    -0.269 OA
BRANCH  29  32
ATOM     32  C   UNL A   1      35.547  30.230  28.102  1.00  0.00     0.039 A 
ATOM     33  C   UNL A   1      36.676  30.149  27.285  1.00  0.00     0.014 A 
ATOM     34  C   UNL A   1      35.570  29.700  29.395  1.00  0.00     0.014 A 
ATOM     35  C   UNL A   1      37.849  29.582  27.788  1.00  0.00     0.010 A 
ATOM     36  C   UNL A   1      36.760  29.208  29.919  1.00  0.00     0.010 A 
ATOM     37  C   UNL A   1      37.911  29.137  29.120  1.00  0.00    -0.014 A 
BRANCH  37  38
ATOM     38  C   UNL A   1      39.166  28.582  29.690  1.00  0.00     0.031 A 
ATOM     39  C   UNL A   1      39.743  29.170  30.949  1.00  0.00     0.074 A 
ATOM     40  C   UNL A   1      39.813  27.593  29.042  1.00  0.00     0.049 A 
ATOM     41  N   UNL A   1      40.863  28.880  31.559  1.00  0.00    -0.248 NA
ATOM     42  C   UNL A   1      38.972  30.248  31.588  1.00  0.00     0.031 C 
ATOM     43  C   UNL A   1      39.366  26.968  27.794  1.00  0.00     0.029 A 
ATOM     44  N   UNL A   1      40.985  26.943  29.336  1.00  0.00    -0.354 N 
ATOM     45  C   UNL A   1      40.938  29.746  32.646  1.00  0.00     0.074 A 
ATOM     46  C   UNL A   1      39.782  30.614  32.570  1.00  0.00     0.031 C 
ATOM     47  C   UNL A   1      40.237  26.008  27.447  1.00  0.00     0.029 A 
ATOM     48  C   UNL A   1      41.332  25.984  28.412  1.00  0.00     0.049 A 
ATOM     49  H   UNL A   1      41.528  27.145  30.131  1.00  0.00     0.167 HD
ATOM     50  C   UNL A   1      41.870  29.794  33.630  1.00  0.00     0.034 A 
ATOM     51  C   UNL A   1      42.416  25.184  28.343  1.00  0.00     0.034 A 
ATOM     52  C   UNL A   1      43.011  28.913  33.692  1.00  0.00     0.049 A 
ATOM     53  C   UNL A   1      43.459  25.281  29.427  1.00  0.00     0.074 A 
ATOM     54  C   UNL A   1      43.991  28.840  34.666  1.00  0.00     0.029 A 
ATOM     55  N   UNL A   1      43.332  27.956  32.736  1.00  0.00    -0.354 N 
ATOM     56  N   UNL A   1      43.492  26.074  30.474  1.00  0.00    -0.248 NA
ATOM     57  C   UNL A   1      44.607  24.369  29.328  1.00  0.00     0.031 C 
ATOM     58  C   UNL A   1      44.944  27.900  34.261  1.00  0.00     0.029 A 
ATOM     59  C   UNL A   1      44.512  27.316  33.081  1.00  0.00     0.049 A 
ATOM     60  H   UNL A   1      42.800  27.762  31.931  1.00  0.00     0.167 HD
ATOM     61  C   UNL A   1      44.642  25.726  31.178  1.00  0.00     0.074 A 
ATOM     62  C   UNL A   1      45.269  24.649  30.441  1.00  0.00     0.031 C 
ATOM     63  C   UNL A   1      45.130  26.243  32.335  1.00  0.00     0.034 A 
BRANCH  50  64
ATOM     64  C   UNL A   1      41.705  30.851  34.697  1.00  0.00     0.023 A 
ATOM     65  C   UNL A   1      40.587  30.873  35.549  1.00  0.00     0.031 A 
ATOM     66  C   UNL A   1      42.668  31.863  34.852  1.00  0.00     0.131 A 
ATOM     67  C   UNL A   1      40.420  31.928  36.459  1.00  0.00     0.055 A 
ATOM     68  C   UNL A   1      42.541  32.860  35.822  1.00  0.00     0.041 A 
ATOM     69  F   UNL A   1      43.747  31.910  34.054  1.00  0.00    -0.206 F 
ATOM     70  C   UNL A   1      41.403  32.906  36.622  1.00  0.00     0.022 A 
BRANCH  67  71
ATOM     71  S   UNL A   1      38.829  32.086  37.318  1.00  0.00     0.124 S 
ATOM     72  O   UNL A   1      39.261  32.304  38.696  1.00  0.00    -0.237 OA
ATOM     73  O   UNL A   1      38.222  33.230  36.649  1.00  0.00    -0.237 OA
ATOM     74  O   UNL A   1      38.179  30.800  37.072  1.00  0.00    -0.744 OA
ENDBRANCH  67  71
ENDBRANCH  50  64
BRANCH  51  75
ATOM     75  C   UNL A   1      42.580  24.231  27.207  1.00  0.00     0.023 A 
ATOM     76  C   UNL A   1      42.005  22.950  27.248  1.00  0.00     0.031 A 
ATOM     77  C   UNL A   1      43.351  24.570  26.081  1.00  0.00     0.131 A 
ATOM     78  C   UNL A   1      42.252  22.039  26.209  1.00  0.00     0.055 A 
ATOM     79  C   UNL A   1      43.544  23.680  25.022  1.00  0.00     0.041 A 
ATOM     80  F   UNL A   1      43.923  25.782  25.988  1.00  0.00    -0.206 F 
ATOM     81  C   UNL A   1      43.005  22.400  25.090  1.00  0.00     0.022 A 
BRANCH  78  82
ATOM     82  S   UNL A   1      41.658  20.335  26.391  1.00  0.00     0.124 S 
ATOM     83  O   UNL A   1      40.219  20.505  26.235  1.00  0.00    -0.237 OA
ATOM     84  O   UNL A   1      42.346  19.657  25.298  1.00  0.00    -0.237 OA
ATOM     85  O   UNL A   1      42.103  19.961  27.732  1.00  0.00    -0.744 OA
ENDBRANCH  78  82
ENDBRANCH  51  75
BRANCH  63  86
ATOM     86  C   UNL A   1      46.373  25.606  32.908  1.00  0.00     0.023 A 
ATOM     87  C   UNL A   1      46.313  24.522  33.801  1.00  0.00     0.031 A 
ATOM     88  C   UNL A   1      47.641  26.093  32.543  1.00  0.00     0.131 A 
ATOM     89  C   UNL A   1      47.496  23.993  34.337  1.00  0.00     0.055 A 
ATOM     90  C   UNL A   1      48.817  25.521  33.029  1.00  0.00     0.041 A 
ATOM     91  F   UNL A   1      47.758  27.129  31.697  1.00  0.00    -0.206 F 
ATOM     92  C   UNL A   1      48.749  24.472  33.941  1.00  0.00     0.022 A 
BRANCH  89  93
ATOM     93  S   UNL A   1      47.379  22.726  35.630  1.00  0.00     0.124 S 
ATOM     94  O   UNL A   1      48.184  23.309  36.699  1.00  0.00    -0.237 OA
ATOM     95  O   UNL A   1      45.942  22.663  35.876  1.00  0.00    -0.237 OA
ATOM     96  O   UNL A   1      47.953  21.538  35.000  1.00  0.00    -0.744 OA
ENDBRANCH  89  93
ENDBRANCH  63  86
ENDBRANCH  37  38
ENDBRANCH  29  32
ENDBRANCH  27  28
ENDBRANCH  26  27
ENDBRANCH  25  26
ENDBRANCH   1  25
TORSDOF 19
ENDMDL
MODEL 2
REMARK VINA RESULT:     -10.3      3.901      6.694
REMARK SMILES CC(=O)NCCc1c[nH]c2ccc(C(=O)NCCCCCCNC(=O)c3ccc(-c4c5nc(c(-c6cc(S(=O)(=O)[O-])ccc6F)c6ccc([nH]6)c(-c6cc(S(=O)(=O)[O-])ccc6F)c6nc(c(-c7cc(S(=O)(=O)[O-])ccc7F)c7ccc4[nH]7)C=C6)C=C5)cc3)cc12
REMARK SMILES IDX 19 1 18 2 17 3 16 4 14 5 15 6 13 8 7 9 8 10 90 11 9 12 10 13
REMARK SMILES IDX 89 14 11 16 12 17 6 18 5 19 4 20 1 21 2 22 3 23 20 25 21 26
REMARK SMILES IDX 22 27 23 28 24 29 25 31 26 32 27 33 88 34 28 35 87 36 29 37
REMARK SMILES IDX 30 38 31 39 81 40 32 41 86 42 80 43 82 44 33 45 85 46 79 47
REMARK SMILES IDX 78 48 34 50 66 51 46 52 65 53 47 54 50 55 64 56 83 57 48 58
REMARK SMILES IDX 49 59 63 61 84 62 51 63 35 64 36 65 44 66 37 67 43 68 45 69
REMARK SMILES IDX 42 70 38 71 39 72 40 73 41 74 67 75 68 76 76 77 69 78 75 79
REMARK SMILES IDX 77 80 74 81 70 82 71 83 72 84 73 85 52 86 53 87 61 88 54 89
REMARK SMILES IDX 60 90 62 91 59 92 55 93 56 94 57 95 58 96
REMARK H PARENT 16 7 9 15 4 24 23 30 82 49 50 60
REMARK Flexibility Score: inf
ROOT
ATOM      1  C   UNL A   1      35.419  32.691  29.064  1.00  0.00     0.002 C 
ENDROOT
BRANCH   1   2
ATOM      2  C   UNL A   1      35.894  31.616  28.074  1.00  0.00     0.021 C 
BRANCH   2   3
ATOM      3  C   UNL A   1      34.761  30.707  27.595  1.00  0.00     0.116 C 
BRANCH   3   4
ATOM      4  N   UNL A   1      33.535  31.469  27.497  1.00  0.00    -0.352 N 
ATOM      5  C   UNL A   1      32.304  31.204  26.968  1.00  0.00     0.251 C 
ATOM      6  O   UNL A   1      31.476  32.119  27.012  1.00  0.00    -0.269 OA
ATOM      7  H   UNL A   1      33.603  32.368  27.894  1.00  0.00     0.163 HD
BRANCH   5   8
ATOM      8  C   UNL A   1      31.889  29.884  26.407  1.00  0.00     0.040 A 
ATOM      9  C   UNL A   1      30.491  28.459  23.129  1.00  0.00    -0.021 A 
ATOM     10  C   UNL A   1      30.200  27.108  23.101  1.00  0.00     0.087 A 
ATOM     11  C   UNL A   1      30.949  28.751  24.451  1.00  0.00     0.003 A 
ATOM     12  N   UNL A   1      30.494  26.577  24.330  1.00  0.00    -0.361 N 
ATOM     13  C   UNL A   1      31.009  27.551  25.153  1.00  0.00     0.046 A 
ATOM     14  C   UNL A   1      31.360  29.928  25.104  1.00  0.00     0.024 A 
ATOM     15  H   UNL A   1      30.356  25.637  24.586  1.00  0.00     0.166 HD
ATOM     16  C   UNL A   1      31.538  27.462  26.443  1.00  0.00     0.027 A 
ATOM     17  C   UNL A   1      32.023  28.643  27.031  1.00  0.00     0.016 A 
BRANCH   9  18
ATOM     18  C   UNL A   1      30.390  29.424  21.987  1.00  0.00     0.059 C 
BRANCH  18  19
ATOM     19  C   UNL A   1      29.035  30.147  21.922  1.00  0.00     0.120 C 
BRANCH  19  20
ATOM     20  N   UNL A   1      29.065  31.446  22.579  1.00  0.00    -0.356 N 
ATOM     21  C   UNL A   1      27.869  32.667  20.813  1.00  0.00     0.114 C 
ATOM     22  C   UNL A   1      28.560  32.635  22.147  1.00  0.00     0.216 C 
ATOM     23  O   UNL A   1      28.675  33.643  22.841  1.00  0.00    -0.275 OA
ATOM     24  H   UNL A   1      29.511  31.468  23.455  1.00  0.00     0.163 HD
ENDBRANCH  19  20
ENDBRANCH  18  19
ENDBRANCH   9  18
ENDBRANCH   5   8
ENDBRANCH   3   4
ENDBRANCH   2   3
ENDBRANCH   1   2
BRANCH   1  25
ATOM     25  C   UNL A   1      35.764  34.130  28.658  1.00  0.00     0.002 C 
BRANCH  25  26
ATOM     26  C   UNL A   1      34.582  35.102  28.689  1.00  0.00     0.021 C 
BRANCH  26  27
ATOM     27  C   UNL A   1      33.326  34.526  29.331  1.00  0.00     0.116 C 
BRANCH  27  28
ATOM     28  N   UNL A   1      32.828  35.393  30.388  1.00  0.00    -0.352 N 
ATOM     29  C   UNL A   1      33.156  35.404  31.720  1.00  0.00     0.251 C 
ATOM     30  H   UNL A   1      32.163  36.063  30.108  1.00  0.00     0.163 HD
ATOM     31  O   UNL A   1      32.449  36.008  32.519  1.00  0.00    -0.269 OA
BRANCH  29  32
ATOM     32  C   UNL A   1      34.356  34.673  32.178  1.00  0.00     0.039 A 
ATOM     33  C   UNL A   1      34.228  33.348  32.596  1.00  0.00     0.014 A 
ATOM     34  C   UNL A   1      35.605  35.301  32.192  1.00  0.00     0.014 A 
ATOM     35  C   UNL A   1      35.365  32.634  32.979  1.00  0.00     0.010 A 
ATOM     36  C   UNL A   1      36.745  34.566  32.498  1.00  0.00     0.010 A 
ATOM     37  C   UNL A   1      36.637  33.226  32.902  1.00  0.00    -0.014 A 
BRANCH  37  38
ATOM     38  C   UNL A   1      37.865  32.465  33.251  1.00  0.00     0.031 A 
ATOM     39  C   UNL A   1      38.571  32.734  34.551  1.00  0.00     0.074 A 
ATOM     40  C   UNL A   1      38.373  31.580  32.371  1.00  0.00     0.049 A 
ATOM     41  N   UNL A   1      39.693  32.234  35.002  1.00  0.00    -0.248 NA
ATOM     42  C   UNL A   1      37.948  33.719  35.449  1.00  0.00     0.031 C 
ATOM     43  C   UNL A   1      37.793  31.262  31.063  1.00  0.00     0.029 A 
ATOM     44  N   UNL A   1      39.492  30.789  32.437  1.00  0.00    -0.354 N 
ATOM     45  C   UNL A   1      39.916  32.851  36.230  1.00  0.00     0.074 A 
ATOM     46  C   UNL A   1      38.847  33.808  36.418  1.00  0.00     0.031 C 
ATOM     47  C   UNL A   1      38.545  30.324  30.465  1.00  0.00     0.029 A 
ATOM     48  C   UNL A   1      39.689  30.013  31.317  1.00  0.00     0.049 A 
ATOM     49  H   UNL A   1      40.100  30.778  33.211  1.00  0.00     0.167 HD
ATOM     50  C   UNL A   1      40.906  32.620  37.127  1.00  0.00     0.034 A 
ATOM     51  C   UNL A   1      40.684  29.158  31.006  1.00  0.00     0.034 A 
ATOM     52  C   UNL A   1      41.958  31.653  36.923  1.00  0.00     0.049 A 
ATOM     53  C   UNL A   1      41.795  28.945  32.003  1.00  0.00     0.074 A 
ATOM     54  C   UNL A   1      42.984  31.303  37.784  1.00  0.00     0.029 A 
ATOM     55  N   UNL A   1      42.127  30.889  35.775  1.00  0.00    -0.354 N 
ATOM     56  N   UNL A   1      41.968  29.502  33.179  1.00  0.00    -0.248 NA
ATOM     57  C   UNL A   1      42.841  27.980  31.635  1.00  0.00     0.031 C 
ATOM     58  C   UNL A   1      43.815  30.390  37.127  1.00  0.00     0.029 A 
ATOM     59  C   UNL A   1      43.259  30.097  35.893  1.00  0.00     0.049 A 
ATOM     60  H   UNL A   1      41.531  30.908  34.992  1.00  0.00     0.167 HD
ATOM     61  C   UNL A   1      43.119  28.924  33.709  1.00  0.00     0.074 A 
ATOM     62  C   UNL A   1      43.594  27.972  32.726  1.00  0.00     0.031 C 
ATOM     63  C   UNL A   1      43.723  29.152  34.903  1.00  0.00     0.034 A 
BRANCH  50  64
ATOM     64  C   UNL A   1      40.909  33.446  38.391  1.00  0.00     0.023 A 
ATOM     65  C   UNL A   1      40.173  33.063  39.527  1.00  0.00     0.031 A 
ATOM     66  C   UNL A   1      41.640  34.645  38.458  1.00  0.00     0.131 A 
ATOM     67  C   UNL A   1      40.120  33.908  40.646  1.00  0.00     0.055 A 
ATOM     68  C   UNL A   1      41.656  35.437  39.608  1.00  0.00     0.041 A 
ATOM     69  F   UNL A   1      42.345  35.077  37.400  1.00  0.00    -0.206 F 
ATOM     70  C   UNL A   1      40.880  35.078  40.707  1.00  0.00     0.022 A 
BRANCH  67  71
ATOM     71  S   UNL A   1      38.926  33.531  41.959  1.00  0.00     0.124 S 
ATOM     72  O   UNL A   1      39.588  34.100  43.130  1.00  0.00    -0.237 OA
ATOM     73  O   UNL A   1      37.727  34.224  41.503  1.00  0.00    -0.237 OA
ATOM     74  O   UNL A   1      38.850  32.072  41.943  1.00  0.00    -0.744 OA
ENDBRANCH  67  71
ENDBRANCH  50  64
BRANCH  51  75
ATOM     75  C   UNL A   1      40.687  28.446  29.694  1.00  0.00     0.023 A 
ATOM     76  C   UNL A   1      41.636  28.753  28.706  1.00  0.00     0.031 A 
ATOM     77  C   UNL A   1      39.712  27.478  29.393  1.00  0.00     0.131 A 
ATOM     78  C   UNL A   1      41.560  28.136  27.448  1.00  0.00     0.055 A 
ATOM     79  C   UNL A   1      39.677  26.824  28.160  1.00  0.00     0.041 A 
ATOM     80  F   UNL A   1      38.781  27.144  30.301  1.00  0.00    -0.206 F 
ATOM     81  C   UNL A   1      40.597  27.163  27.173  1.00  0.00     0.022 A 
BRANCH  78  82
ATOM     82  S   UNL A   1      42.679  28.700  26.136  1.00  0.00     0.124 S 
ATOM     83  O   UNL A   1      41.839  28.564  24.952  1.00  0.00    -0.237 OA
ATOM     84  O   UNL A   1      42.978  30.064  26.559  1.00  0.00    -0.237 OA
ATOM     85  O   UNL A   1      43.798  27.764  26.220  1.00  0.00    -0.744 OA
ENDBRANCH  78  82
ENDBRANCH  51  75
BRANCH  63  86
ATOM     86  C   UNL A   1      44.931  28.310  35.239  1.00  0.00     0.023 A 
ATOM     87  C   UNL A   1      44.822  27.082  35.913  1.00  0.00     0.031 A 
ATOM     88  C   UNL A   1      46.215  28.749  34.867  1.00  0.00     0.131 A 
ATOM     89  C   UNL A   1      45.979  26.359  36.238  1.00  0.00     0.055 A 
ATOM     90  C   UNL A   1      47.358  27.994  35.136  1.00  0.00     0.041 A 
ATOM     91  F   UNL A   1      46.379  29.917  34.226  1.00  0.00    -0.206 F 
ATOM     92  C   UNL A   1      47.244  26.797  35.836  1.00  0.00     0.022 A 
BRANCH  89  93
ATOM     93  S   UNL A   1      45.821  24.878  37.274  1.00  0.00     0.124 S 
ATOM     94  O   UNL A   1      46.118  23.811  36.324  1.00  0.00    -0.237 OA
ATOM     95  O   UNL A   1      46.826  25.109  38.306  1.00  0.00    -0.237 OA
ATOM     96  O   UNL A   1      44.435  24.928  37.736  1.00  0.00    -0.744 OA
ENDBRANCH  89  93
ENDBRANCH  63  86
ENDBRANCH  37  38
ENDBRANCH  29  32
ENDBRANCH  27  28
ENDBRANCH  26  27
ENDBRANCH  25  26
ENDBRANCH   1  25
TORSDOF 19
ENDMDL
MODEL 3
REMARK VINA RESULT:     -10.3      2.012      2.365
REMARK SMILES CC(=O)NCCc1c[nH]c2ccc(C(=O)NCCCCCCNC(=O)c3ccc(-c4c5nc(c(-c6cc(S(=O)(=O)[O-])ccc6F)c6ccc([nH]6)c(-c6cc(S(=O)(=O)[O-])ccc6F)c6nc(c(-c7cc(S(=O)(=O)[O-])ccc7F)c7ccc4[nH]7)C=C6)C=C5)cc3)cc12
REMARK SMILES IDX 19 1 18 2 17 3 16 4 14 5 15 6 13 8 7 9 8 10 90 11 9 12 10 13
REMARK SMILES IDX 89 14 11 16 12 17 6 18 5 19 4 20 1 21 2 22 3 23 20 25 21 26
REMARK SMILES IDX 22 27 23 28 24 29 25 31 26 32 27 33 88 34 28 35 87 36 29 37
REMARK SMILES IDX 30 38 31 39 81 40 32 41 86 42 80 43 82 44 33 45 85 46 79 47
REMARK SMILES IDX 78 48 34 50 66 51 46 52 65 53 47 54 50 55 64 56 83 57 48 58
REMARK SMILES IDX 49 59 63 61 84 62 51 63 35 64 36 65 44 66 37 67 43 68 45 69
REMARK SMILES IDX 42 70 38 71 39 72 40 73 41 74 67 75 68 76 76 77 69 78 75 79
REMARK SMILES IDX 77 80 74 81 70 82 71 83 72 84 73 85 52 86 53 87 61 88 54 89
REMARK SMILES IDX 60 90 62 91 59 92 55 93 56 94 57 95 58 96
REMARK H PARENT 16 7 9 15 4 24 23 30 82 49 50 60
REMARK Flexibility Score: inf
ROOT
ATOM      1  C   UNL A   1      37.869  32.902  29.415  1.00  0.00     0.002 C 
ENDROOT
BRANCH   1   2
ATOM      2  C   UNL A   1      39.221  33.622  29.528  1.00  0.00     0.021 C 
BRANCH   2   3
ATOM      3  C   UNL A   1      39.154  34.880  30.395  1.00  0.00     0.116 C 
BRANCH   3   4
ATOM      4  N   UNL A   1      39.589  34.566  31.740  1.00  0.00    -0.352 N 
ATOM      5  C   UNL A   1      38.935  34.155  32.866  1.00  0.00     0.251 C 
ATOM      6  O   UNL A   1      39.620  34.022  33.884  1.00  0.00    -0.269 OA
ATOM      7  H   UNL A   1      40.559  34.673  31.870  1.00  0.00     0.163 HD
BRANCH   5   8
ATOM      8  C   UNL A   1      37.484  33.806  32.925  1.00  0.00     0.040 A 
ATOM      9  C   UNL A   1      34.087  35.589  32.828  1.00  0.00    -0.021 A 
ATOM     10  C   UNL A   1      32.958  34.805  32.977  1.00  0.00     0.087 A 
ATOM     11  C   UNL A   1      35.211  34.713  32.942  1.00  0.00     0.003 A 
ATOM     12  N   UNL A   1      33.354  33.504  33.139  1.00  0.00    -0.361 N 
ATOM     13  C   UNL A   1      34.724  33.415  33.062  1.00  0.00     0.046 A 
ATOM     14  C   UNL A   1      36.604  34.904  32.911  1.00  0.00     0.024 A 
ATOM     15  H   UNL A   1      32.747  32.744  33.290  1.00  0.00     0.166 HD
ATOM     16  C   UNL A   1      35.563  32.297  33.068  1.00  0.00     0.027 A 
ATOM     17  C   UNL A   1      36.945  32.518  32.944  1.00  0.00     0.016 A 
BRANCH   9  18
ATOM     18  C   UNL A   1      34.129  37.063  32.557  1.00  0.00     0.059 C 
BRANCH  18  19
ATOM     19  C   UNL A   1      33.211  37.494  31.403  1.00  0.00     0.120 C 
BRANCH  19  20
ATOM     20  N   UNL A   1      32.741  36.365  30.613  1.00  0.00    -0.356 N 
ATOM     21  C   UNL A   1      33.877  37.003  28.529  1.00  0.00     0.114 C 
ATOM     22  C   UNL A   1      32.997  36.067  29.309  1.00  0.00     0.216 C 
ATOM     23  O   UNL A   1      32.513  35.059  28.800  1.00  0.00    -0.275 OA
ATOM     24  H   UNL A   1      32.159  35.729  31.087  1.00  0.00     0.163 HD
ENDBRANCH  19  20
ENDBRANCH  18  19
ENDBRANCH   9  18
ENDBRANCH   5   8
ENDBRANCH   3   4
ENDBRANCH   2   3
ENDBRANCH   1   2
BRANCH   1  25
ATOM     25  C   UNL A   1      36.645  33.822  29.518  1.00  0.00     0.002 C 
BRANCH  25  26
ATOM     26  C   UNL A   1      35.306  33.137  29.235  1.00  0.00     0.021 C 
BRANCH  26  27
ATOM     27  C   UNL A   1      35.080  32.808  27.764  1.00  0.00     0.116 C 
BRANCH  27  28
ATOM     28  N   UNL A   1      34.242  31.629  27.609  1.00  0.00    -0.352 N 
ATOM     29  C   UNL A   1      34.598  30.305  27.662  1.00  0.00     0.251 C 
ATOM     30  H   UNL A   1      33.288  31.807  27.444  1.00  0.00     0.163 HD
ATOM     31  O   UNL A   1      33.829  29.448  27.242  1.00  0.00    -0.269 OA
BRANCH  29  32
ATOM     32  C   UNL A   1      35.916  29.930  28.216  1.00  0.00     0.039 A 
ATOM     33  C   UNL A   1      36.006  29.544  29.555  1.00  0.00     0.014 A 
ATOM     34  C   UNL A   1      37.058  29.962  27.411  1.00  0.00     0.014 A 
ATOM     35  C   UNL A   1      37.238  29.137  30.071  1.00  0.00     0.010 A 
ATOM     36  C   UNL A   1      38.266  29.482  27.905  1.00  0.00     0.010 A 
ATOM     37  C   UNL A   1      38.371  29.071  29.242  1.00  0.00    -0.014 A 
BRANCH  37  38
ATOM     38  C   UNL A   1      39.678  28.588  29.759  1.00  0.00     0.031 A 
ATOM     39  C   UNL A   1      40.383  29.348  30.848  1.00  0.00     0.074 A 
ATOM     40  C   UNL A   1      40.253  27.501  29.206  1.00  0.00     0.049 A 
ATOM     41  N   UNL A   1      41.560  29.134  31.378  1.00  0.00    -0.248 NA
ATOM     42  C   UNL A   1      39.684  30.523  31.392  1.00  0.00     0.031 C 
ATOM     43  C   UNL A   1      39.678  26.703  28.120  1.00  0.00     0.029 A 
ATOM     44  N   UNL A   1      41.448  26.882  29.473  1.00  0.00    -0.354 N 
ATOM     45  C   UNL A   1      41.748  30.153  32.308  1.00  0.00     0.074 A 
ATOM     46  C   UNL A   1      40.593  31.019  32.219  1.00  0.00     0.031 C 
ATOM     47  C   UNL A   1      40.507  25.687  27.835  1.00  0.00     0.029 A 
ATOM     48  C   UNL A   1      41.696  25.789  28.676  1.00  0.00     0.049 A 
ATOM     49  H   UNL A   1      42.071  27.192  30.169  1.00  0.00     0.167 HD
ATOM     50  C   UNL A   1      42.777  30.332  33.172  1.00  0.00     0.034 A 
ATOM     51  C   UNL A   1      42.765  24.970  28.618  1.00  0.00     0.034 A 
ATOM     52  C   UNL A   1      43.917  29.451  33.250  1.00  0.00     0.049 A 
ATOM     53  C   UNL A   1      43.916  25.211  29.563  1.00  0.00     0.074 A 
ATOM     54  C   UNL A   1      44.993  29.509  34.119  1.00  0.00     0.029 A 
ATOM     55  N   UNL A   1      44.136  28.355  32.423  1.00  0.00    -0.354 N 
ATOM     56  N   UNL A   1      44.058  26.151  30.468  1.00  0.00    -0.248 NA
ATOM     57  C   UNL A   1      45.045  24.274  29.487  1.00  0.00     0.031 C 
ATOM     58  C   UNL A   1      45.897  28.502  33.766  1.00  0.00     0.029 A 
ATOM     59  C   UNL A   1      45.345  27.754  32.738  1.00  0.00     0.049 A 
ATOM     60  H   UNL A   1      43.523  28.051  31.715  1.00  0.00     0.167 HD
ATOM     61  C   UNL A   1      45.274  25.894  31.096  1.00  0.00     0.074 A 
ATOM     62  C   UNL A   1      45.820  24.707  30.470  1.00  0.00     0.031 C 
ATOM     63  C   UNL A   1      45.880  26.571  32.105  1.00  0.00     0.034 A 
BRANCH  50  64
ATOM     64  C   UNL A   1      42.726  31.540  34.078  1.00  0.00     0.023 A 
ATOM     65  C   UNL A   1      42.152  31.479  35.360  1.00  0.00     0.031 A 
ATOM     66  C   UNL A   1      43.238  32.776  33.647  1.00  0.00     0.131 A 
ATOM     67  C   UNL A   1      42.032  32.646  36.131  1.00  0.00     0.055 A 
ATOM     68  C   UNL A   1      43.197  33.914  34.456  1.00  0.00     0.041 A 
ATOM     69  F   UNL A   1      43.778  32.905  32.424  1.00  0.00    -0.206 F 
ATOM     70  C   UNL A   1      42.577  33.857  35.700  1.00  0.00     0.022 A 
BRANCH  67  71
ATOM     71  S   UNL A   1      41.020  32.588  37.636  1.00  0.00     0.124 S 
ATOM     72  O   UNL A   1      40.859  34.008  37.935  1.00  0.00    -0.237 OA
ATOM     73  O   UNL A   1      39.822  31.890  37.183  1.00  0.00    -0.237 OA
ATOM     74  O   UNL A   1      41.855  31.849  38.581  1.00  0.00    -0.744 OA
ENDBRANCH  67  71
ENDBRANCH  50  64
BRANCH  51  75
ATOM     75  C   UNL A   1      42.810  23.853  27.629  1.00  0.00     0.023 A 
ATOM     76  C   UNL A   1      43.801  23.804  26.636  1.00  0.00     0.031 A 
ATOM     77  C   UNL A   1      41.835  22.840  27.635  1.00  0.00     0.131 A 
ATOM     78  C   UNL A   1      43.766  22.795  25.661  1.00  0.00     0.055 A 
ATOM     79  C   UNL A   1      41.839  21.804  26.699  1.00  0.00     0.041 A 
ATOM     80  F   UNL A   1      40.864  22.836  28.563  1.00  0.00    -0.206 F 
ATOM     81  C   UNL A   1      42.801  21.786  25.694  1.00  0.00     0.022 A 
BRANCH  78  82
ATOM     82  S   UNL A   1      44.943  22.878  24.284  1.00  0.00     0.124 S 
ATOM     83  O   UNL A   1      46.009  22.000  24.752  1.00  0.00    -0.237 OA
ATOM     84  O   UNL A   1      44.142  22.380  23.171  1.00  0.00    -0.237 OA
ATOM     85  O   UNL A   1      45.287  24.297  24.215  1.00  0.00    -0.744 OA
ENDBRANCH  78  82
ENDBRANCH  51  75
BRANCH  63  86
ATOM     86  C   UNL A   1      47.175  26.006  32.638  1.00  0.00     0.023 A 
ATOM     87  C   UNL A   1      48.421  26.339  32.081  1.00  0.00     0.031 A 
ATOM     88  C   UNL A   1      47.154  25.122  33.733  1.00  0.00     0.131 A 
ATOM     89  C   UNL A   1      49.591  25.755  32.588  1.00  0.00     0.055 A 
ATOM     90  C   UNL A   1      48.327  24.594  34.274  1.00  0.00     0.041 A 
ATOM     91  F   UNL A   1      45.992  24.765  34.302  1.00  0.00    -0.206 F 
ATOM     92  C   UNL A   1      49.554  24.900  33.693  1.00  0.00     0.022 A 
BRANCH  89  93
ATOM     93  S   UNL A   1      51.160  26.054  31.727  1.00  0.00     0.124 S 
ATOM     94  O   UNL A   1      52.135  25.568  32.698  1.00  0.00    -0.237 OA
ATOM     95  O   UNL A   1      51.011  25.251  30.517  1.00  0.00    -0.237 OA
ATOM     96  O   UNL A   1      51.165  27.500  31.514  1.00  0.00    -0.744 OA
ENDBRANCH  89  93
ENDBRANCH  63  86
ENDBRANCH  37  38
ENDBRANCH  29  32
ENDBRANCH  27  28
ENDBRANCH  26  27
ENDBRANCH  25  26
ENDBRANCH   1  25
TORSDOF 19
ENDMDL
