MODEL 1
REMARK VINA RESULT:     -10.9      0.000      0.000
REMARK SMILES Cc1ccc(NC(=O)NC2(C(=O)NCCCCCCNC(=O)c3ccc(-c4c5nc(c(-c6cc(S(=O)(=O)[O-])ccc6F)c6ccc([nH]6)c(-c6cc(S(=O)(=O)[O-])ccc6F)c6nc(c(-c7cc(S(=O)(=O)[O-])ccc7F)c7ccc4[nH]7)C=C6)C=C5)cc3)CC2)c(C)n1
REMARK SMILES IDX 17 1 16 2 15 3 14 4 13 5 11 6 12 7 10 9 86 10 87 11 9 12
REMARK SMILES IDX 6 13 7 14 8 16 5 18 1 19 2 20 3 21 90 22 4 23 88 24 89 25
REMARK SMILES IDX 18 26 19 27 20 28 21 29 22 31 23 32 24 33 85 34 25 35 84 36
REMARK SMILES IDX 26 37 27 38 28 39 78 40 29 41 83 42 77 43 79 44 30 45 82 46
REMARK SMILES IDX 76 47 75 48 31 50 63 51 43 52 62 53 44 54 47 55 61 56 80 57
REMARK SMILES IDX 45 58 46 59 60 61 81 62 48 63 32 64 33 65 41 66 34 67 40 68
REMARK SMILES IDX 42 69 39 70 35 71 36 72 37 73 38 74 64 75 65 76 73 77 66 78
REMARK SMILES IDX 72 79 74 80 71 81 67 82 68 83 69 84 70 85 49 86 50 87 58 88
REMARK SMILES IDX 51 89 57 90 59 91 56 92 52 93 53 94 54 95 55 96
REMARK H PARENT 13 8 6 15 9 17 20 30 79 49 47 60
REMARK Flexibility Score: inf
ROOT
ATOM      1  C   UNL A   1      34.864  23.794  24.190  1.00  0.00     0.002 C 
ENDROOT
BRANCH   1   2
ATOM      2  C   UNL A   1      34.082  24.926  24.866  1.00  0.00     0.002 C 
BRANCH   2   3
ATOM      3  C   UNL A   1      32.578  24.702  25.085  1.00  0.00     0.021 C 
BRANCH   3   4
ATOM      4  C   UNL A   1      31.875  25.646  26.093  1.00  0.00     0.116 C 
BRANCH   4   5
ATOM      5  N   UNL A   1      32.757  26.723  26.573  1.00  0.00    -0.354 N 
ATOM      6  C   UNL A   1      32.314  27.856  27.241  1.00  0.00     0.245 C 
ATOM      7  O   UNL A   1      31.267  27.871  27.899  1.00  0.00    -0.272 OA
ATOM      8  H   UNL A   1      33.724  26.633  26.410  1.00  0.00     0.163 HD
BRANCH   6   9
ATOM      9  C   UNL A   1      33.177  29.152  27.124  1.00  0.00     0.120 C 
ATOM     10  C   UNL A   1      34.500  28.908  26.374  1.00  0.00     0.041 C 
ATOM     11  C   UNL A   1      34.569  29.571  27.680  1.00  0.00     0.041 C 
BRANCH   9  12
ATOM     12  N   UNL A   1      32.397  30.319  27.068  1.00  0.00    -0.323 N 
ATOM     13  N   UNL A   1      31.613  30.095  24.819  1.00  0.00    -0.306 N 
ATOM     14  C   UNL A   1      31.685  30.707  26.014  1.00  0.00     0.320 C 
ATOM     15  H   UNL A   1      31.057  30.699  24.276  1.00  0.00     0.171 HD
ATOM     16  O   UNL A   1      31.035  31.755  26.128  1.00  0.00    -0.248 OA
ATOM     17  H   UNL A   1      32.376  30.892  27.867  1.00  0.00     0.166 HD
BRANCH  13  18
ATOM     18  C   UNL A   1      31.930  29.011  23.919  1.00  0.00     0.064 A 
ATOM     19  C   UNL A   1      31.810  25.534  21.361  1.00  0.00     0.067 C 
ATOM     20  C   UNL A   1      31.745  26.698  22.284  1.00  0.00     0.038 A 
ATOM     21  C   UNL A   1      30.618  27.132  22.913  1.00  0.00     0.025 A 
ATOM     22  N   UNL A   1      32.893  27.352  22.433  1.00  0.00    -0.256 NA
ATOM     23  C   UNL A   1      30.729  28.261  23.725  1.00  0.00     0.030 A 
ATOM     24  C   UNL A   1      33.023  28.496  23.177  1.00  0.00     0.061 A 
ATOM     25  C   UNL A   1      34.439  28.856  22.865  1.00  0.00     0.069 C 
ENDBRANCH  13  18
ENDBRANCH   9  12
ENDBRANCH   6   9
ENDBRANCH   4   5
ENDBRANCH   3   4
ENDBRANCH   2   3
ENDBRANCH   1   2
BRANCH   1  26
ATOM     26  C   UNL A   1      36.347  23.647  24.559  1.00  0.00     0.021 C 
BRANCH  26  27
ATOM     27  C   UNL A   1      36.676  23.275  26.011  1.00  0.00     0.116 C 
BRANCH  27  28
ATOM     28  N   UNL A   1      37.711  22.258  26.128  1.00  0.00    -0.352 N 
ATOM     29  C   UNL A   1      39.054  22.359  26.406  1.00  0.00     0.251 C 
ATOM     30  H   UNL A   1      37.394  21.337  25.983  1.00  0.00     0.163 HD
ATOM     31  O   UNL A   1      39.765  21.361  26.291  1.00  0.00    -0.269 OA
BRANCH  29  32
ATOM     32  C   UNL A   1      39.663  23.644  26.822  1.00  0.00     0.039 A 
ATOM     33  C   UNL A   1      39.887  24.630  25.854  1.00  0.00     0.014 A 
ATOM     34  C   UNL A   1      40.056  23.873  28.143  1.00  0.00     0.014 A 
ATOM     35  C   UNL A   1      40.416  25.871  26.226  1.00  0.00     0.010 A 
ATOM     36  C   UNL A   1      40.528  25.131  28.524  1.00  0.00     0.010 A 
ATOM     37  C   UNL A   1      40.695  26.151  27.574  1.00  0.00    -0.014 A 
BRANCH  37  38
ATOM     38  C   UNL A   1      41.108  27.514  28.010  1.00  0.00     0.031 A 
ATOM     39  C   UNL A   1      42.563  27.890  28.084  1.00  0.00     0.074 A 
ATOM     40  C   UNL A   1      40.166  28.391  28.413  1.00  0.00     0.049 A 
ATOM     41  N   UNL A   1      43.113  28.992  28.529  1.00  0.00    -0.248 NA
ATOM     42  C   UNL A   1      43.528  26.884  27.615  1.00  0.00     0.031 C 
ATOM     43  C   UNL A   1      38.725  28.135  28.414  1.00  0.00     0.029 A 
ATOM     44  N   UNL A   1      40.274  29.667  28.910  1.00  0.00    -0.354 N 
ATOM     45  C   UNL A   1      44.486  28.814  28.402  1.00  0.00     0.074 A 
ATOM     46  C   UNL A   1      44.685  27.473  27.888  1.00  0.00     0.031 C 
ATOM     47  C   UNL A   1      38.083  29.223  28.867  1.00  0.00     0.029 A 
ATOM     48  C   UNL A   1      39.064  30.234  29.246  1.00  0.00     0.049 A 
ATOM     49  H   UNL A   1      41.134  30.133  29.016  1.00  0.00     0.167 HD
ATOM     50  C   UNL A   1      45.486  29.691  28.670  1.00  0.00     0.034 A 
ATOM     51  C   UNL A   1      38.777  31.421  29.818  1.00  0.00     0.034 A 
ATOM     52  C   UNL A   1      45.268  31.024  29.182  1.00  0.00     0.049 A 
ATOM     53  C   UNL A   1      39.909  32.353  30.171  1.00  0.00     0.074 A 
ATOM     54  C   UNL A   1      46.204  32.013  29.435  1.00  0.00     0.029 A 
ATOM     55  N   UNL A   1      44.033  31.552  29.539  1.00  0.00    -0.354 N 
ATOM     56  N   UNL A   1      41.200  32.188  29.992  1.00  0.00    -0.248 NA
ATOM     57  C   UNL A   1      39.546  33.629  30.800  1.00  0.00     0.031 C 
ATOM     58  C   UNL A   1      45.548  33.102  30.020  1.00  0.00     0.029 A 
ATOM     59  C   UNL A   1      44.190  32.830  30.054  1.00  0.00     0.049 A 
ATOM     60  H   UNL A   1      43.171  31.085  29.441  1.00  0.00     0.167 HD
ATOM     61  C   UNL A   1      41.800  33.351  30.467  1.00  0.00     0.074 A 
ATOM     62  C   UNL A   1      40.729  34.216  30.919  1.00  0.00     0.031 C 
ATOM     63  C   UNL A   1      43.117  33.676  30.523  1.00  0.00     0.034 A 
BRANCH  50  64
ATOM     64  C   UNL A   1      46.906  29.227  28.444  1.00  0.00     0.023 A 
ATOM     65  C   UNL A   1      47.393  28.941  27.157  1.00  0.00     0.031 A 
ATOM     66  C   UNL A   1      47.783  29.059  29.531  1.00  0.00     0.131 A 
ATOM     67  C   UNL A   1      48.691  28.432  26.995  1.00  0.00     0.055 A 
ATOM     68  C   UNL A   1      49.101  28.633  29.355  1.00  0.00     0.041 A 
ATOM     69  F   UNL A   1      47.371  29.296  30.785  1.00  0.00    -0.206 F 
ATOM     70  C   UNL A   1      49.558  28.302  28.083  1.00  0.00     0.022 A 
BRANCH  67  71
ATOM     71  S   UNL A   1      49.178  27.805  25.366  1.00  0.00     0.124 S 
ATOM     72  O   UNL A   1      48.033  28.192  24.546  1.00  0.00    -0.237 OA
ATOM     73  O   UNL A   1      50.420  28.525  25.109  1.00  0.00    -0.237 OA
ATOM     74  O   UNL A   1      49.322  26.367  25.581  1.00  0.00    -0.744 OA
ENDBRANCH  67  71
ENDBRANCH  50  64
BRANCH  51  75
ATOM     75  C   UNL A   1      37.364  31.790  30.126  1.00  0.00     0.023 A 
ATOM     76  C   UNL A   1      36.582  32.496  29.198  1.00  0.00     0.031 A 
ATOM     77  C   UNL A   1      36.787  31.483  31.372  1.00  0.00     0.131 A 
ATOM     78  C   UNL A   1      35.288  32.912  29.546  1.00  0.00     0.055 A 
ATOM     79  C   UNL A   1      35.478  31.846  31.690  1.00  0.00     0.041 A 
ATOM     80  F   UNL A   1      37.490  30.812  32.300  1.00  0.00    -0.206 F 
ATOM     81  C   UNL A   1      34.724  32.577  30.780  1.00  0.00     0.022 A 
BRANCH  78  82
ATOM     82  S   UNL A   1      34.384  33.985  28.396  1.00  0.00     0.124 S 
ATOM     83  O   UNL A   1      35.367  34.181  27.338  1.00  0.00    -0.237 OA
ATOM     84  O   UNL A   1      33.229  33.159  28.056  1.00  0.00    -0.237 OA
ATOM     85  O   UNL A   1      34.085  35.169  29.199  1.00  0.00    -0.744 OA
ENDBRANCH  78  82
ENDBRANCH  51  75
BRANCH  63  86
ATOM     86  C   UNL A   1      43.467  35.038  31.072  1.00  0.00     0.023 A 
ATOM     87  C   UNL A   1      43.586  36.162  30.234  1.00  0.00     0.031 A 
ATOM     88  C   UNL A   1      43.680  35.216  32.450  1.00  0.00     0.131 A 
ATOM     89  C   UNL A   1      43.958  37.401  30.777  1.00  0.00     0.055 A 
ATOM     90  C   UNL A   1      43.986  36.464  32.992  1.00  0.00     0.041 A 
ATOM     91  F   UNL A   1      43.584  34.177  33.295  1.00  0.00    -0.206 F 
ATOM     92  C   UNL A   1      44.138  37.563  32.153  1.00  0.00     0.022 A 
BRANCH  89  93
ATOM     93  S   UNL A   1      44.283  38.784  29.649  1.00  0.00     0.124 S 
ATOM     94  O   UNL A   1      42.954  39.054  29.111  1.00  0.00    -0.237 OA
ATOM     95  O   UNL A   1      44.825  39.800  30.547  1.00  0.00    -0.237 OA
ATOM     96  O   UNL A   1      45.239  38.230  28.693  1.00  0.00    -0.744 OA
ENDBRANCH  89  93
ENDBRANCH  63  86
ENDBRANCH  37  38
ENDBRANCH  29  32
ENDBRANCH  27  28
ENDBRANCH  26  27
ENDBRANCH   1  26
TORSDOF 18
ENDMDL
MODEL 2
REMARK VINA RESULT:     -10.8      1.834      2.198
REMARK SMILES Cc1ccc(NC(=O)NC2(C(=O)NCCCCCCNC(=O)c3ccc(-c4c5nc(c(-c6cc(S(=O)(=O)[O-])ccc6F)c6ccc([nH]6)c(-c6cc(S(=O)(=O)[O-])ccc6F)c6nc(c(-c7cc(S(=O)(=O)[O-])ccc7F)c7ccc4[nH]7)C=C6)C=C5)cc3)CC2)c(C)n1
REMARK SMILES IDX 17 1 16 2 15 3 14 4 13 5 11 6 12 7 10 9 86 10 87 11 9 12
REMARK SMILES IDX 6 13 7 14 8 16 5 18 1 19 2 20 3 21 90 22 4 23 88 24 89 25
REMARK SMILES IDX 18 26 19 27 20 28 21 29 22 31 23 32 24 33 85 34 25 35 84 36
REMARK SMILES IDX 26 37 27 38 28 39 78 40 29 41 83 42 77 43 79 44 30 45 82 46
REMARK SMILES IDX 76 47 75 48 31 50 63 51 43 52 62 53 44 54 47 55 61 56 80 57
REMARK SMILES IDX 45 58 46 59 60 61 81 62 48 63 32 64 33 65 41 66 34 67 40 68
REMARK SMILES IDX 42 69 39 70 35 71 36 72 37 73 38 74 64 75 65 76 73 77 66 78
REMARK SMILES IDX 72 79 74 80 71 81 67 82 68 83 69 84 70 85 49 86 50 87 58 88
REMARK SMILES IDX 51 89 57 90 59 91 56 92 52 93 53 94 54 95 55 96
REMARK H PARENT 13 8 6 15 9 17 20 30 79 49 47 60
REMARK Flexibility Score: inf
ROOT
ATOM      1  C   UNL A   1      34.619  23.847  24.283  1.00  0.00     0.002 C 
ENDROOT
BRANCH   1   2
ATOM      2  C   UNL A   1      33.793  24.989  24.885  1.00  0.00     0.002 C 
BRANCH   2   3
ATOM      3  C   UNL A   1      32.362  24.654  25.335  1.00  0.00     0.021 C 
BRANCH   3   4
ATOM      4  C   UNL A   1      31.729  25.593  26.392  1.00  0.00     0.116 C 
BRANCH   4   5
ATOM      5  N   UNL A   1      32.628  26.690  26.788  1.00  0.00    -0.354 N 
ATOM      6  C   UNL A   1      32.195  27.925  27.253  1.00  0.00     0.245 C 
ATOM      7  O   UNL A   1      31.103  28.076  27.815  1.00  0.00    -0.272 OA
ATOM      8  H   UNL A   1      33.598  26.539  26.718  1.00  0.00     0.163 HD
BRANCH   6   9
ATOM      9  C   UNL A   1      33.130  29.155  27.027  1.00  0.00     0.120 C 
ATOM     10  C   UNL A   1      34.384  28.794  26.209  1.00  0.00     0.041 C 
ATOM     11  C   UNL A   1      34.579  29.501  27.478  1.00  0.00     0.041 C 
BRANCH   9  12
ATOM     12  N   UNL A   1      32.425  30.368  26.969  1.00  0.00    -0.323 N 
ATOM     13  N   UNL A   1      31.362  30.040  24.851  1.00  0.00    -0.306 N 
ATOM     14  C   UNL A   1      31.617  30.730  25.977  1.00  0.00     0.320 C 
ATOM     15  H   UNL A   1      30.783  30.642  24.330  1.00  0.00     0.171 HD
ATOM     16  O   UNL A   1      31.053  31.827  26.081  1.00  0.00    -0.248 OA
ATOM     17  H   UNL A   1      32.537  30.997  27.717  1.00  0.00     0.166 HD
BRANCH  13  18
ATOM     18  C   UNL A   1      31.498  28.874  24.011  1.00  0.00     0.064 A 
ATOM     19  C   UNL A   1      32.909  25.801  21.325  1.00  0.00     0.067 C 
ATOM     20  C   UNL A   1      32.516  26.925  22.216  1.00  0.00     0.038 A 
ATOM     21  C   UNL A   1      33.325  27.963  22.564  1.00  0.00     0.025 A 
ATOM     22  N   UNL A   1      31.287  26.833  22.715  1.00  0.00    -0.256 NA
ATOM     23  C   UNL A   1      32.805  28.921  23.435  1.00  0.00     0.030 A 
ATOM     24  C   UNL A   1      30.766  27.725  23.616  1.00  0.00     0.061 A 
ATOM     25  C   UNL A   1      29.468  27.057  23.930  1.00  0.00     0.069 C 
ENDBRANCH  13  18
ENDBRANCH   9  12
ENDBRANCH   6   9
ENDBRANCH   4   5
ENDBRANCH   3   4
ENDBRANCH   2   3
ENDBRANCH   1   2
BRANCH   1  26
ATOM     26  C   UNL A   1      36.123  23.831  24.591  1.00  0.00     0.021 C 
BRANCH  26  27
ATOM     27  C   UNL A   1      36.545  23.452  26.016  1.00  0.00     0.116 C 
BRANCH  27  28
ATOM     28  N   UNL A   1      37.596  22.445  26.062  1.00  0.00    -0.352 N 
ATOM     29  C   UNL A   1      38.945  22.553  26.308  1.00  0.00     0.251 C 
ATOM     30  H   UNL A   1      37.287  21.526  25.886  1.00  0.00     0.163 HD
ATOM     31  O   UNL A   1      39.664  21.570  26.131  1.00  0.00    -0.269 OA
BRANCH  29  32
ATOM     32  C   UNL A   1      39.548  23.827  26.763  1.00  0.00     0.039 A 
ATOM     33  C   UNL A   1      39.930  24.773  25.804  1.00  0.00     0.014 A 
ATOM     34  C   UNL A   1      39.782  24.084  28.116  1.00  0.00     0.014 A 
ATOM     35  C   UNL A   1      40.458  26.005  26.206  1.00  0.00     0.010 A 
ATOM     36  C   UNL A   1      40.254  25.334  28.519  1.00  0.00     0.010 A 
ATOM     37  C   UNL A   1      40.579  26.317  27.570  1.00  0.00    -0.014 A 
BRANCH  37  38
ATOM     38  C   UNL A   1      40.989  27.677  28.019  1.00  0.00     0.031 A 
ATOM     39  C   UNL A   1      42.440  28.075  28.038  1.00  0.00     0.074 A 
ATOM     40  C   UNL A   1      40.052  28.530  28.480  1.00  0.00     0.049 A 
ATOM     41  N   UNL A   1      42.991  29.177  28.483  1.00  0.00    -0.248 NA
ATOM     42  C   UNL A   1      43.399  27.096  27.506  1.00  0.00     0.031 C 
ATOM     43  C   UNL A   1      38.616  28.250  28.538  1.00  0.00     0.029 A 
ATOM     44  N   UNL A   1      40.161  29.796  29.000  1.00  0.00    -0.354 N 
ATOM     45  C   UNL A   1      44.360  29.024  28.293  1.00  0.00     0.074 A 
ATOM     46  C   UNL A   1      44.557  27.698  27.742  1.00  0.00     0.031 C 
ATOM     47  C   UNL A   1      37.977  29.317  29.042  1.00  0.00     0.029 A 
ATOM     48  C   UNL A   1      38.958  30.336  29.401  1.00  0.00     0.049 A 
ATOM     49  H   UNL A   1      41.018  30.274  29.080  1.00  0.00     0.167 HD
ATOM     50  C   UNL A   1      45.356  29.912  28.538  1.00  0.00     0.034 A 
ATOM     51  C   UNL A   1      38.677  31.506  30.010  1.00  0.00     0.034 A 
ATOM     52  C   UNL A   1      45.140  31.230  29.088  1.00  0.00     0.049 A 
ATOM     53  C   UNL A   1      39.808  32.448  30.334  1.00  0.00     0.074 A 
ATOM     54  C   UNL A   1      46.070  32.229  29.322  1.00  0.00     0.029 A 
ATOM     55  N   UNL A   1      43.913  31.729  29.509  1.00  0.00    -0.354 N 
ATOM     56  N   UNL A   1      41.093  32.309  30.097  1.00  0.00    -0.248 NA
ATOM     57  C   UNL A   1      39.454  33.705  31.007  1.00  0.00     0.031 C 
ATOM     58  C   UNL A   1      45.424  33.294  29.958  1.00  0.00     0.029 A 
ATOM     59  C   UNL A   1      44.073  32.999  30.045  1.00  0.00     0.049 A 
ATOM     60  H   UNL A   1      43.055  31.251  29.437  1.00  0.00     0.167 HD
ATOM     61  C   UNL A   1      41.695  33.472  30.571  1.00  0.00     0.074 A 
ATOM     62  C   UNL A   1      40.631  34.309  31.087  1.00  0.00     0.031 C 
ATOM     63  C   UNL A   1      43.008  33.816  30.577  1.00  0.00     0.034 A 
BRANCH  50  64
ATOM     64  C   UNL A   1      46.772  29.476  28.241  1.00  0.00     0.023 A 
ATOM     65  C   UNL A   1      47.583  28.882  29.224  1.00  0.00     0.031 A 
ATOM     66  C   UNL A   1      47.324  29.665  26.961  1.00  0.00     0.131 A 
ATOM     67  C   UNL A   1      48.920  28.567  28.934  1.00  0.00     0.055 A 
ATOM     68  C   UNL A   1      48.629  29.272  26.655  1.00  0.00     0.041 A 
ATOM     69  F   UNL A   1      46.608  30.246  25.986  1.00  0.00    -0.206 F 
ATOM     70  C   UNL A   1      49.440  28.733  27.649  1.00  0.00     0.022 A 
BRANCH  67  71
ATOM     71  S   UNL A   1      50.009  28.077  30.298  1.00  0.00     0.124 S 
ATOM     72  O   UNL A   1      50.867  29.251  30.428  1.00  0.00    -0.237 OA
ATOM     73  O   UNL A   1      49.067  27.851  31.387  1.00  0.00    -0.237 OA
ATOM     74  O   UNL A   1      50.676  26.880  29.791  1.00  0.00    -0.744 OA
ENDBRANCH  67  71
ENDBRANCH  50  64
BRANCH  51  75
ATOM     75  C   UNL A   1      37.273  31.845  30.387  1.00  0.00     0.023 A 
ATOM     76  C   UNL A   1      36.426  32.516  29.491  1.00  0.00     0.031 A 
ATOM     77  C   UNL A   1      36.770  31.543  31.665  1.00  0.00     0.131 A 
ATOM     78  C   UNL A   1      35.142  32.906  29.900  1.00  0.00     0.055 A 
ATOM     79  C   UNL A   1      35.471  31.878  32.047  1.00  0.00     0.041 A 
ATOM     80  F   UNL A   1      37.537  30.904  32.564  1.00  0.00    -0.206 F 
ATOM     81  C   UNL A   1      34.652  32.576  31.166  1.00  0.00     0.022 A 
BRANCH  78  82
ATOM     82  S   UNL A   1      34.152  33.938  28.784  1.00  0.00     0.124 S 
ATOM     83  O   UNL A   1      35.116  34.960  28.393  1.00  0.00    -0.237 OA
ATOM     84  O   UNL A   1      33.771  32.984  27.747  1.00  0.00    -0.237 OA
ATOM     85  O   UNL A   1      33.057  34.403  29.632  1.00  0.00    -0.744 OA
ENDBRANCH  78  82
ENDBRANCH  51  75
BRANCH  63  86
ATOM     86  C   UNL A   1      43.360  35.172  31.141  1.00  0.00     0.023 A 
ATOM     87  C   UNL A   1      43.491  35.384  32.525  1.00  0.00     0.031 A 
ATOM     88  C   UNL A   1      43.570  36.266  30.282  1.00  0.00     0.131 A 
ATOM     89  C   UNL A   1      43.774  36.669  33.011  1.00  0.00     0.055 A 
ATOM     90  C   UNL A   1      43.914  37.527  30.769  1.00  0.00     0.041 A 
ATOM     91  F   UNL A   1      43.453  36.123  28.953  1.00  0.00    -0.206 F 
ATOM     92  C   UNL A   1      44.007  37.737  32.141  1.00  0.00     0.022 A 
BRANCH  89  93
ATOM     93  S   UNL A   1      43.754  36.946  34.805  1.00  0.00     0.124 S 
ATOM     94  O   UNL A   1      42.337  37.182  35.058  1.00  0.00    -0.237 OA
ATOM     95  O   UNL A   1      44.294  35.691  35.321  1.00  0.00    -0.237 OA
ATOM     96  O   UNL A   1      44.620  38.110  34.981  1.00  0.00    -0.744 OA
ENDBRANCH  89  93
ENDBRANCH  63  86
ENDBRANCH  37  38
ENDBRANCH  29  32
ENDBRANCH  27  28
ENDBRANCH  26  27
ENDBRANCH   1  26
TORSDOF 18
ENDMDL
MODEL 3
REMARK VINA RESULT:     -10.6      3.438      8.826
REMARK SMILES Cc1ccc(NC(=O)NC2(C(=O)NCCCCCCNC(=O)c3ccc(-c4c5nc(c(-c6cc(S(=O)(=O)[O-])ccc6F)c6ccc([nH]6)c(-c6cc(S(=O)(=O)[O-])ccc6F)c6nc(c(-c7cc(S(=O)(=O)[O-])ccc7F)c7ccc4[nH]7)C=C6)C=C5)cc3)CC2)c(C)n1
REMARK SMILES IDX 17 1 16 2 15 3 14 4 13 5 11 6 12 7 10 9 86 10 87 11 9 12
REMARK SMILES IDX 6 13 7 14 8 16 5 18 1 19 2 20 3 21 90 22 4 23 88 24 89 25
REMARK SMILES IDX 18 26 19 27 20 28 21 29 22 31 23 32 24 33 85 34 25 35 84 36
REMARK SMILES IDX 26 37 27 38 28 39 78 40 29 41 83 42 77 43 79 44 30 45 82 46
REMARK SMILES IDX 76 47 75 48 31 50 63 51 43 52 62 53 44 54 47 55 61 56 80 57
REMARK SMILES IDX 45 58 46 59 60 61 81 62 48 63 32 64 33 65 41 66 34 67 40 68
REMARK SMILES IDX 42 69 39 70 35 71 36 72 37 73 38 74 64 75 65 76 73 77 66 78
REMARK SMILES IDX 72 79 74 80 71 81 67 82 68 83 69 84 70 85 49 86 50 87 58 88
REMARK SMILES IDX 51 89 57 90 59 91 56 92 52 93 53 94 54 95 55 96
REMARK H PARENT 13 8 6 15 9 17 20 30 79 49 47 60
REMARK Flexibility Score: inf
ROOT
ATOM      1  C   UNL A   1      36.813  20.769  25.060  1.00  0.00     0.002 C 
ENDROOT
BRANCH   1   2
ATOM      2  C   UNL A   1      37.058  22.258  25.323  1.00  0.00     0.002 C 
BRANCH   2   3
ATOM      3  C   UNL A   1      36.432  23.254  24.334  1.00  0.00     0.021 C 
BRANCH   3   4
ATOM      4  C   UNL A   1      35.519  24.352  24.937  1.00  0.00     0.116 C 
BRANCH   4   5
ATOM      5  N   UNL A   1      34.088  24.088  24.711  1.00  0.00    -0.354 N 
ATOM      6  C   UNL A   1      33.230  23.558  25.665  1.00  0.00     0.245 C 
ATOM      7  O   UNL A   1      33.429  23.689  26.879  1.00  0.00    -0.272 OA
ATOM      8  H   UNL A   1      33.715  24.301  23.825  1.00  0.00     0.163 HD
BRANCH   6   9
ATOM      9  C   UNL A   1      31.991  22.754  25.162  1.00  0.00     0.120 C 
ATOM     10  C   UNL A   1      32.325  21.860  23.953  1.00  0.00     0.041 C 
ATOM     11  C   UNL A   1      31.172  22.758  23.839  1.00  0.00     0.041 C 
BRANCH   9  12
ATOM     12  N   UNL A   1      31.089  22.446  26.194  1.00  0.00    -0.323 N 
ATOM     13  N   UNL A   1      30.151  24.627  26.487  1.00  0.00    -0.306 N 
ATOM     14  C   UNL A   1      30.255  23.314  26.758  1.00  0.00     0.320 C 
ATOM     15  H   UNL A   1      29.490  24.953  27.139  1.00  0.00     0.171 HD
ATOM     16  O   UNL A   1      29.508  22.882  27.646  1.00  0.00    -0.248 OA
ATOM     17  H   UNL A   1      31.072  21.519  26.523  1.00  0.00     0.166 HD
BRANCH  13  18
ATOM     18  C   UNL A   1      30.507  25.806  25.733  1.00  0.00     0.064 A 
ATOM     19  C   UNL A   1      30.648  29.089  22.932  1.00  0.00     0.067 C 
ATOM     20  C   UNL A   1      30.517  27.910  23.827  1.00  0.00     0.038 A 
ATOM     21  C   UNL A   1      29.489  27.017  23.794  1.00  0.00     0.025 A 
ATOM     22  N   UNL A   1      31.480  27.793  24.736  1.00  0.00    -0.256 NA
ATOM     23  C   UNL A   1      29.507  25.980  24.727  1.00  0.00     0.030 A 
ATOM     24  C   UNL A   1      31.497  26.821  25.702  1.00  0.00     0.061 A 
ATOM     25  C   UNL A   1      32.679  27.262  26.502  1.00  0.00     0.069 C 
ENDBRANCH  13  18
ENDBRANCH   9  12
ENDBRANCH   6   9
ENDBRANCH   4   5
ENDBRANCH   3   4
ENDBRANCH   2   3
ENDBRANCH   1   2
BRANCH   1  26
ATOM     26  C   UNL A   1      38.046  19.857  24.990  1.00  0.00     0.021 C 
BRANCH  26  27
ATOM     27  C   UNL A   1      39.262  20.252  25.838  1.00  0.00     0.116 C 
BRANCH  27  28
ATOM     28  N   UNL A   1      40.283  19.216  25.906  1.00  0.00    -0.352 N 
ATOM     29  C   UNL A   1      41.644  19.296  26.087  1.00  0.00     0.251 C 
ATOM     30  H   UNL A   1      39.939  18.299  25.805  1.00  0.00     0.163 HD
ATOM     31  O   UNL A   1      42.326  18.281  25.945  1.00  0.00    -0.269 OA
BRANCH  29  32
ATOM     32  C   UNL A   1      42.306  20.576  26.429  1.00  0.00     0.039 A 
ATOM     33  C   UNL A   1      42.866  21.343  25.401  1.00  0.00     0.014 A 
ATOM     34  C   UNL A   1      42.418  21.011  27.753  1.00  0.00     0.014 A 
ATOM     35  C   UNL A   1      43.455  22.580  25.688  1.00  0.00     0.010 A 
ATOM     36  C   UNL A   1      42.952  22.270  28.032  1.00  0.00     0.010 A 
ATOM     37  C   UNL A   1      43.459  23.079  27.002  1.00  0.00    -0.014 A 
BRANCH  37  38
ATOM     38  C   UNL A   1      43.936  24.457  27.304  1.00  0.00     0.031 A 
ATOM     39  C   UNL A   1      42.984  25.507  27.807  1.00  0.00     0.074 A 
ATOM     40  C   UNL A   1      45.221  24.779  27.052  1.00  0.00     0.049 A 
ATOM     41  N   UNL A   1      43.199  26.779  28.033  1.00  0.00    -0.248 NA
ATOM     42  C   UNL A   1      41.604  25.075  28.070  1.00  0.00     0.031 C 
ATOM     43  C   UNL A   1      46.235  23.856  26.537  1.00  0.00     0.029 A 
ATOM     44  N   UNL A   1      45.896  25.969  27.179  1.00  0.00    -0.354 N 
ATOM     45  C   UNL A   1      41.982  27.303  28.458  1.00  0.00     0.074 A 
ATOM     46  C   UNL A   1      41.022  26.218  28.404  1.00  0.00     0.031 C 
ATOM     47  C   UNL A   1      47.402  24.505  26.413  1.00  0.00     0.029 A 
ATOM     48  C   UNL A   1      47.212  25.904  26.780  1.00  0.00     0.049 A 
ATOM     49  H   UNL A   1      45.478  26.791  27.523  1.00  0.00     0.167 HD
ATOM     50  C   UNL A   1      41.698  28.564  28.871  1.00  0.00     0.034 A 
ATOM     51  C   UNL A   1      48.155  26.866  26.695  1.00  0.00     0.034 A 
ATOM     52  C   UNL A   1      42.668  29.632  28.917  1.00  0.00     0.049 A 
ATOM     53  C   UNL A   1      47.797  28.274  27.095  1.00  0.00     0.074 A 
ATOM     54  C   UNL A   1      42.500  30.930  29.371  1.00  0.00     0.029 A 
ATOM     55  N   UNL A   1      43.983  29.537  28.477  1.00  0.00    -0.354 N 
ATOM     56  N   UNL A   1      46.654  28.739  27.547  1.00  0.00    -0.248 NA
ATOM     57  C   UNL A   1      48.853  29.288  26.975  1.00  0.00     0.031 C 
ATOM     58  C   UNL A   1      43.682  31.638  29.129  1.00  0.00     0.029 A 
ATOM     59  C   UNL A   1      44.619  30.764  28.604  1.00  0.00     0.049 A 
ATOM     60  H   UNL A   1      44.402  28.718  28.125  1.00  0.00     0.167 HD
ATOM     61  C   UNL A   1      46.863  30.095  27.786  1.00  0.00     0.074 A 
ATOM     62  C   UNL A   1      48.246  30.367  27.449  1.00  0.00     0.031 C 
ATOM     63  C   UNL A   1      45.992  31.029  28.244  1.00  0.00     0.034 A 
BRANCH  50  64
ATOM     64  C   UNL A   1      40.273  28.864  29.276  1.00  0.00     0.023 A 
ATOM     65  C   UNL A   1      39.874  28.869  30.624  1.00  0.00     0.031 A 
ATOM     66  C   UNL A   1      39.297  29.140  28.302  1.00  0.00     0.131 A 
ATOM     67  C   UNL A   1      38.525  29.069  30.956  1.00  0.00     0.055 A 
ATOM     68  C   UNL A   1      37.972  29.422  28.643  1.00  0.00     0.041 A 
ATOM     69  F   UNL A   1      39.610  29.129  26.997  1.00  0.00    -0.206 F 
ATOM     70  C   UNL A   1      37.577  29.373  29.977  1.00  0.00     0.022 A 
BRANCH  67  71
ATOM     71  S   UNL A   1      38.003  28.781  32.668  1.00  0.00     0.124 S 
ATOM     72  O   UNL A   1      36.637  29.297  32.651  1.00  0.00    -0.237 OA
ATOM     73  O   UNL A   1      38.138  27.336  32.800  1.00  0.00    -0.237 OA
ATOM     74  O   UNL A   1      38.950  29.572  33.452  1.00  0.00    -0.744 OA
ENDBRANCH  67  71
ENDBRANCH  50  64
BRANCH  51  75
ATOM     75  C   UNL A   1      49.519  26.545  26.181  1.00  0.00     0.023 A 
ATOM     76  C   UNL A   1      49.966  27.050  24.950  1.00  0.00     0.031 A 
ATOM     77  C   UNL A   1      50.381  25.689  26.891  1.00  0.00     0.131 A 
ATOM     78  C   UNL A   1      51.215  26.660  24.445  1.00  0.00     0.055 A 
ATOM     79  C   UNL A   1      51.648  25.353  26.414  1.00  0.00     0.041 A 
ATOM     80  F   UNL A   1      50.005  25.174  28.074  1.00  0.00    -0.206 F 
ATOM     81  C   UNL A   1      52.067  25.829  25.176  1.00  0.00     0.022 A 
BRANCH  78  82
ATOM     82  S   UNL A   1      51.673  27.179  22.768  1.00  0.00     0.124 S 
ATOM     83  O   UNL A   1      51.900  28.608  22.952  1.00  0.00    -0.237 OA
ATOM     84  O   UNL A   1      52.860  26.368  22.513  1.00  0.00    -0.237 OA
ATOM     85  O   UNL A   1      50.499  26.830  21.971  1.00  0.00    -0.744 OA
ENDBRANCH  78  82
ENDBRANCH  51  75
BRANCH  63  86
ATOM     86  C   UNL A   1      46.523  32.430  28.431  1.00  0.00     0.023 A 
ATOM     87  C   UNL A   1      46.645  33.323  27.350  1.00  0.00     0.031 A 
ATOM     88  C   UNL A   1      46.908  32.881  29.706  1.00  0.00     0.131 A 
ATOM     89  C   UNL A   1      47.186  34.600  27.557  1.00  0.00     0.055 A 
ATOM     90  C   UNL A   1      47.384  34.175  29.916  1.00  0.00     0.041 A 
ATOM     91  F   UNL A   1      46.816  32.071  30.773  1.00  0.00    -0.206 F 
ATOM     92  C   UNL A   1      47.536  35.039  28.837  1.00  0.00     0.022 A 
BRANCH  89  93
ATOM     93  S   UNL A   1      47.501  35.657  26.116  1.00  0.00     0.124 S 
ATOM     94  O   UNL A   1      47.914  34.683  25.112  1.00  0.00    -0.237 OA
ATOM     95  O   UNL A   1      46.202  36.285  25.898  1.00  0.00    -0.237 OA
ATOM     96  O   UNL A   1      48.554  36.559  26.577  1.00  0.00    -0.744 OA
ENDBRANCH  89  93
ENDBRANCH  63  86
ENDBRANCH  37  38
ENDBRANCH  29  32
ENDBRANCH  27  28
ENDBRANCH  26  27
ENDBRANCH   1  26
TORSDOF 18
ENDMDL
