MODEL 1
REMARK VINA RESULT:     -12.9      0.000      0.000
REMARK SMILES Cn1cc([C@@H]2CC(NCCCCCCNC(=O)c3ccc(-c4c5nc(c(-c6cc(S(=O)(=O)[O-])ccc6F)c6ccc([nH]6)c(-c6cc(S(=O)(=O)[O-])ccc6F)c6nc(c(-c7cc(S(=O)(=O)[O-])ccc7F)c7ccc4[nH]7)C=C6)C=C5)cc3)=[NH+]c3c2sc(C(=O)[O-])c3-c2ccc(Cl)cc2)cn1
REMARK SMILES IDX 13 1 12 2 11 3 10 4 9 5 8 6 5 7 6 8 83 9 7 10 82 11 84 12
REMARK SMILES IDX 81 13 89 14 85 15 4 18 1 19 2 20 3 21 98 22 97 23 90 24
REMARK SMILES IDX 91 25 96 26 92 27 95 28 93 29 94 30 86 31 87 32 88 33 14 34
REMARK SMILES IDX 15 35 16 36 17 38 18 39 19 40 80 41 20 42 79 43 21 44 22 45
REMARK SMILES IDX 23 46 73 47 24 48 78 49 72 50 74 51 25 52 77 53 71 54 70 55
REMARK SMILES IDX 26 57 58 58 38 59 57 60 39 61 42 62 56 63 75 64 40 65 41 66
REMARK SMILES IDX 55 68 76 69 43 70 27 71 28 72 36 73 29 74 35 75 37 76 34 77
REMARK SMILES IDX 30 78 31 79 32 80 33 81 59 82 60 83 68 84 61 85 67 86 69 87
REMARK SMILES IDX 66 88 62 89 63 90 64 91 65 92 44 93 45 94 53 95 46 96 52 97
REMARK SMILES IDX 54 98 51 99 47 100 48 101 49 102 50 103
REMARK H PARENT 8 16 81 17 15 37 74 56 42 67
REMARK Flexibility Score: inf
ROOT
ATOM      1  C   UNL A   1      41.804  39.094  26.548  1.00  0.00     0.021 C 
ENDROOT
BRANCH   1   2
ATOM      2  C   UNL A   1      41.484  40.579  26.329  1.00  0.00     0.002 C 
BRANCH   2   3
ATOM      3  C   UNL A   1      42.210  41.281  25.172  1.00  0.00     0.004 C 
BRANCH   3   4
ATOM      4  C   UNL A   1      41.415  41.435  23.870  1.00  0.00     0.046 C 
BRANCH   4   5
ATOM      5  C   UNL A   1      41.215  42.874  23.401  1.00  0.00     0.233 C 
BRANCH   5   6
ATOM      6  N   UNL A   1      41.269  42.954  21.953  1.00  0.00    -0.278 N 
ATOM      7  C   UNL A   1      43.412  43.933  18.923  1.00  0.00     0.079 C 
ATOM      8  C   UNL A   1      42.201  43.455  19.735  1.00  0.00     0.142 C 
ATOM      9  C   UNL A   1      44.594  44.142  19.804  1.00  0.00     0.061 A 
ATOM     10  C   UNL A   1      42.385  43.353  21.250  1.00  0.00     0.248 C 
ATOM     11  C   UNL A   1      44.598  43.992  21.158  1.00  0.00     0.147 A 
ATOM     12  S   UNL A   1      46.132  44.589  19.234  1.00  0.00    -0.133 S 
ATOM     13  N   UNL A   1      43.488  43.591  21.895  1.00  0.00    -0.243 N 
ATOM     14  C   UNL A   1      45.850  44.288  21.781  1.00  0.00     0.049 A 
ATOM     15  C   UNL A   1      46.803  44.640  20.829  1.00  0.00     0.062 A 
ATOM     16  H   UNL A   1      40.463  42.710  21.444  1.00  0.00     0.304 HD
ATOM     17  H   UNL A   1      43.537  43.492  22.873  1.00  0.00     0.312 HD
BRANCH   7  18
ATOM     18  C   UNL A   1      43.098  45.159  18.109  1.00  0.00    -0.001 A 
ATOM     19  C   UNL A   1      43.589  48.391  16.588  1.00  0.00     0.173 C 
ATOM     20  N   UNL A   1      43.167  47.106  17.090  1.00  0.00    -0.276 N 
ATOM     21  C   UNL A   1      43.795  46.349  18.034  1.00  0.00     0.112 A 
ATOM     22  N   UNL A   1      42.066  46.519  16.582  1.00  0.00    -0.182 NA
ATOM     23  C   UNL A   1      42.037  45.331  17.189  1.00  0.00     0.139 A 
ENDBRANCH   7  18
BRANCH  14  24
ATOM     24  C   UNL A   1      46.113  44.188  23.216  1.00  0.00    -0.012 A 
ATOM     25  C   UNL A   1      46.860  43.128  23.748  1.00  0.00     0.010 A 
ATOM     26  C   UNL A   1      45.635  45.189  24.074  1.00  0.00     0.010 A 
ATOM     27  C   UNL A   1      47.066  43.038  25.129  1.00  0.00     0.021 A 
ATOM     28  C   UNL A   1      45.853  45.105  25.451  1.00  0.00     0.021 A 
ATOM     29  C   UNL A   1      46.552  44.020  25.973  1.00  0.00     0.041 A 
ATOM     30  Cl  UNL A   1      46.773  43.892  27.675  1.00  0.00    -0.084 Cl
ENDBRANCH  14  24
BRANCH  15  31
ATOM     31  C   UNL A   1      48.206  45.008  20.914  1.00  0.00     0.082 C 
ATOM     32  O   UNL A   1      49.125  44.380  21.402  1.00  0.00    -0.544 OA
ATOM     33  O   UNL A   1      48.464  46.227  20.385  1.00  0.00    -0.544 OA
ENDBRANCH  15  31
ENDBRANCH   5   6
ENDBRANCH   4   5
ENDBRANCH   3   4
ENDBRANCH   2   3
ENDBRANCH   1   2
BRANCH   1  34
ATOM     34  C   UNL A   1      42.987  38.831  27.468  1.00  0.00     0.116 C 
BRANCH  34  35
ATOM     35  N   UNL A   1      44.005  37.976  26.856  1.00  0.00    -0.352 N 
ATOM     36  C   UNL A   1      44.610  36.852  27.392  1.00  0.00     0.251 C 
ATOM     37  H   UNL A   1      44.296  38.232  25.951  1.00  0.00     0.163 HD
ATOM     38  O   UNL A   1      45.706  36.484  26.986  1.00  0.00    -0.269 OA
BRANCH  36  39
ATOM     39  C   UNL A   1      43.905  36.108  28.455  1.00  0.00     0.039 A 
ATOM     40  C   UNL A   1      43.812  36.585  29.765  1.00  0.00     0.014 A 
ATOM     41  C   UNL A   1      43.292  34.914  28.093  1.00  0.00     0.014 A 
ATOM     42  C   UNL A   1      43.020  35.885  30.677  1.00  0.00     0.010 A 
ATOM     43  C   UNL A   1      42.372  34.338  28.927  1.00  0.00     0.010 A 
ATOM     44  C   UNL A   1      42.280  34.770  30.243  1.00  0.00    -0.014 A 
BRANCH  44  45
ATOM     45  C   UNL A   1      41.282  34.124  31.096  1.00  0.00     0.031 A 
ATOM     46  C   UNL A   1      41.698  34.061  32.519  1.00  0.00     0.074 A 
ATOM     47  C   UNL A   1      40.014  33.862  30.700  1.00  0.00     0.049 A 
ATOM     48  N   UNL A   1      42.168  33.040  33.158  1.00  0.00    -0.248 NA
ATOM     49  C   UNL A   1      41.822  35.326  33.267  1.00  0.00     0.031 C 
ATOM     50  C   UNL A   1      39.404  34.206  29.408  1.00  0.00     0.029 A 
ATOM     51  N   UNL A   1      38.958  33.335  31.390  1.00  0.00    -0.354 N 
ATOM     52  C   UNL A   1      42.295  33.470  34.476  1.00  0.00     0.074 A 
ATOM     53  C   UNL A   1      42.377  34.900  34.404  1.00  0.00     0.031 C 
ATOM     54  C   UNL A   1      38.059  34.109  29.491  1.00  0.00     0.029 A 
ATOM     55  C   UNL A   1      37.719  33.507  30.768  1.00  0.00     0.049 A 
ATOM     56  H   UNL A   1      39.062  32.874  32.252  1.00  0.00     0.167 HD
ATOM     57  C   UNL A   1      41.906  32.650  35.495  1.00  0.00     0.034 A 
ATOM     58  C   UNL A   1      36.492  33.157  31.239  1.00  0.00     0.034 A 
ATOM     59  C   UNL A   1      41.684  31.313  34.987  1.00  0.00     0.049 A 
ATOM     60  C   UNL A   1      36.710  32.065  32.213  1.00  0.00     0.074 A 
ATOM     61  C   UNL A   1      42.449  30.254  34.551  1.00  0.00     0.029 A 
ATOM     62  N   UNL A   1      40.407  31.109  34.523  1.00  0.00    -0.354 N 
ATOM     63  N   UNL A   1      37.220  30.912  31.876  1.00  0.00    -0.248 NA
ATOM     64  C   UNL A   1      36.744  32.367  33.639  1.00  0.00     0.031 C 
ATOM     65  C   UNL A   1      41.617  29.498  33.668  1.00  0.00     0.029 A 
ATOM     66  C   UNL A   1      40.347  30.071  33.631  1.00  0.00     0.049 A 
ATOM     67  H   UNL A   1      39.628  31.645  34.798  1.00  0.00     0.167 HD
ATOM     68  C   UNL A   1      38.017  30.564  32.947  1.00  0.00     0.074 A 
ATOM     69  C   UNL A   1      37.549  31.385  34.057  1.00  0.00     0.031 C 
ATOM     70  C   UNL A   1      39.198  29.907  32.757  1.00  0.00     0.034 A 
BRANCH  57  71
ATOM     71  C   UNL A   1      41.207  33.092  36.780  1.00  0.00     0.023 A 
ATOM     72  C   UNL A   1      39.924  32.550  37.017  1.00  0.00     0.031 A 
ATOM     73  C   UNL A   1      41.558  34.187  37.601  1.00  0.00     0.131 A 
ATOM     74  C   UNL A   1      39.031  33.150  37.922  1.00  0.00     0.055 A 
ATOM     75  C   UNL A   1      40.679  34.758  38.529  1.00  0.00     0.041 A 
ATOM     76  F   UNL A   1      42.731  34.821  37.518  1.00  0.00    -0.206 F 
ATOM     77  C   UNL A   1      39.396  34.262  38.672  1.00  0.00     0.022 A 
BRANCH  74  78
ATOM     78  S   UNL A   1      37.325  32.542  37.992  1.00  0.00     0.124 S 
ATOM     79  O   UNL A   1      36.674  33.367  36.981  1.00  0.00    -0.237 OA
ATOM     80  O   UNL A   1      37.499  31.131  37.666  1.00  0.00    -0.237 OA
ATOM     81  O   UNL A   1      36.927  32.815  39.372  1.00  0.00    -0.744 OA
ENDBRANCH  74  78
ENDBRANCH  57  71
BRANCH  58  82
ATOM     82  C   UNL A   1      35.200  33.888  31.095  1.00  0.00     0.023 A 
ATOM     83  C   UNL A   1      34.749  34.854  32.023  1.00  0.00     0.031 A 
ATOM     84  C   UNL A   1      34.512  33.823  29.863  1.00  0.00     0.131 A 
ATOM     85  C   UNL A   1      33.673  35.716  31.691  1.00  0.00     0.055 A 
ATOM     86  C   UNL A   1      33.459  34.682  29.539  1.00  0.00     0.041 A 
ATOM     87  F   UNL A   1      34.902  32.978  28.896  1.00  0.00    -0.206 F 
ATOM     88  C   UNL A   1      33.044  35.643  30.446  1.00  0.00     0.022 A 
BRANCH  85  89
ATOM     89  S   UNL A   1      33.124  37.017  32.848  1.00  0.00     0.124 S 
ATOM     90  O   UNL A   1      31.731  36.656  33.083  1.00  0.00    -0.237 OA
ATOM     91  O   UNL A   1      34.038  36.845  33.972  1.00  0.00    -0.237 OA
ATOM     92  O   UNL A   1      33.317  38.253  32.088  1.00  0.00    -0.744 OA
ENDBRANCH  85  89
ENDBRANCH  58  82
BRANCH  70  93
ATOM     93  C   UNL A   1      39.333  29.040  31.532  1.00  0.00     0.023 A 
ATOM     94  C   UNL A   1      40.077  29.352  30.372  1.00  0.00     0.031 A 
ATOM     95  C   UNL A   1      38.677  27.796  31.573  1.00  0.00     0.131 A 
ATOM     96  C   UNL A   1      40.138  28.426  29.310  1.00  0.00     0.055 A 
ATOM     97  C   UNL A   1      38.755  26.877  30.532  1.00  0.00     0.041 A 
ATOM     98  F   UNL A   1      37.956  27.444  32.651  1.00  0.00    -0.206 F 
ATOM     99  C   UNL A   1      39.483  27.191  29.392  1.00  0.00     0.022 A 
BRANCH  96 100
ATOM    100  S   UNL A   1      41.041  28.818  27.776  1.00  0.00     0.124 S 
ATOM    101  O   UNL A   1      41.665  27.553  27.411  1.00  0.00    -0.237 OA
ATOM    102  O   UNL A   1      39.975  29.283  26.893  1.00  0.00    -0.237 OA
ATOM    103  O   UNL A   1      41.980  29.863  28.192  1.00  0.00    -0.744 OA
ENDBRANCH  96 100
ENDBRANCH  70  93
ENDBRANCH  44  45
ENDBRANCH  36  39
ENDBRANCH  34  35
ENDBRANCH   1  34
TORSDOF 18
ENDMDL
MODEL 2
REMARK VINA RESULT:     -12.6      6.634     11.799
REMARK SMILES Cn1cc([C@@H]2CC(NCCCCCCNC(=O)c3ccc(-c4c5nc(c(-c6cc(S(=O)(=O)[O-])ccc6F)c6ccc([nH]6)c(-c6cc(S(=O)(=O)[O-])ccc6F)c6nc(c(-c7cc(S(=O)(=O)[O-])ccc7F)c7ccc4[nH]7)C=C6)C=C5)cc3)=[NH+]c3c2sc(C(=O)[O-])c3-c2ccc(Cl)cc2)cn1
REMARK SMILES IDX 13 1 12 2 11 3 10 4 9 5 8 6 5 7 6 8 83 9 7 10 82 11 84 12
REMARK SMILES IDX 81 13 89 14 85 15 4 18 1 19 2 20 3 21 98 22 97 23 90 24
REMARK SMILES IDX 91 25 96 26 92 27 95 28 93 29 94 30 86 31 87 32 88 33 14 34
REMARK SMILES IDX 15 35 16 36 17 38 18 39 19 40 80 41 20 42 79 43 21 44 22 45
REMARK SMILES IDX 23 46 73 47 24 48 78 49 72 50 74 51 25 52 77 53 71 54 70 55
REMARK SMILES IDX 26 57 58 58 38 59 57 60 39 61 42 62 56 63 75 64 40 65 41 66
REMARK SMILES IDX 55 68 76 69 43 70 27 71 28 72 36 73 29 74 35 75 37 76 34 77
REMARK SMILES IDX 30 78 31 79 32 80 33 81 59 82 60 83 68 84 61 85 67 86 69 87
REMARK SMILES IDX 66 88 62 89 63 90 64 91 65 92 44 93 45 94 53 95 46 96 52 97
REMARK SMILES IDX 54 98 51 99 47 100 48 101 49 102 50 103
REMARK H PARENT 8 16 81 17 15 37 74 56 42 67
REMARK Flexibility Score: inf
ROOT
ATOM      1  C   UNL A   1      34.527  32.790  32.036  1.00  0.00     0.021 C 
ENDROOT
BRANCH   1   2
ATOM      2  C   UNL A   1      35.545  32.462  33.137  1.00  0.00     0.002 C 
BRANCH   2   3
ATOM      3  C   UNL A   1      37.020  32.389  32.717  1.00  0.00     0.004 C 
BRANCH   3   4
ATOM      4  C   UNL A   1      37.994  33.265  33.512  1.00  0.00     0.046 C 
BRANCH   4   5
ATOM      5  C   UNL A   1      38.357  34.593  32.851  1.00  0.00     0.233 C 
BRANCH   5   6
ATOM      6  N   UNL A   1      38.889  34.374  31.519  1.00  0.00    -0.278 N 
ATOM      7  C   UNL A   1      42.068  34.229  29.371  1.00  0.00     0.079 C 
ATOM      8  C   UNL A   1      40.578  34.207  29.741  1.00  0.00     0.142 C 
ATOM      9  C   UNL A   1      42.917  34.332  30.590  1.00  0.00     0.061 A 
ATOM     10  C   UNL A   1      40.235  34.363  31.223  1.00  0.00     0.248 C 
ATOM     11  C   UNL A   1      42.448  34.451  31.864  1.00  0.00     0.147 A 
ATOM     12  S   UNL A   1      44.616  34.296  30.565  1.00  0.00    -0.133 S 
ATOM     13  N   UNL A   1      41.096  34.465  32.192  1.00  0.00    -0.243 N 
ATOM     14  C   UNL A   1      43.467  34.571  32.858  1.00  0.00     0.049 A 
ATOM     15  C   UNL A   1      44.732  34.504  32.280  1.00  0.00     0.062 A 
ATOM     16  H   UNL A   1      38.252  34.226  30.783  1.00  0.00     0.304 HD
ATOM     17  H   UNL A   1      40.802  34.550  33.127  1.00  0.00     0.312 HD
BRANCH   7  18
ATOM     18  C   UNL A   1      42.387  35.311  28.375  1.00  0.00    -0.001 A 
ATOM     19  C   UNL A   1      42.592  38.628  26.978  1.00  0.00     0.173 C 
ATOM     20  N   UNL A   1      42.615  37.227  27.323  1.00  0.00    -0.276 N 
ATOM     21  C   UNL A   1      41.990  36.634  28.379  1.00  0.00     0.112 A 
ATOM     22  N   UNL A   1      43.348  36.370  26.587  1.00  0.00    -0.182 NA
ATOM     23  C   UNL A   1      43.221  35.212  27.237  1.00  0.00     0.139 A 
ENDBRANCH   7  18
BRANCH  14  24
ATOM     24  C   UNL A   1      43.221  34.695  34.295  1.00  0.00    -0.012 A 
ATOM     25  C   UNL A   1      43.268  35.939  34.938  1.00  0.00     0.010 A 
ATOM     26  C   UNL A   1      42.902  33.550  35.039  1.00  0.00     0.010 A 
ATOM     27  C   UNL A   1      43.065  36.024  36.320  1.00  0.00     0.021 A 
ATOM     28  C   UNL A   1      42.685  33.637  36.415  1.00  0.00     0.021 A 
ATOM     29  C   UNL A   1      42.786  34.872  37.052  1.00  0.00     0.041 A 
ATOM     30  Cl  UNL A   1      42.571  34.968  38.757  1.00  0.00    -0.084 Cl
ENDBRANCH  14  24
BRANCH  15  31
ATOM     31  C   UNL A   1      46.079  34.553  32.822  1.00  0.00     0.082 C 
ATOM     32  O   UNL A   1      46.758  35.529  33.075  1.00  0.00    -0.544 OA
ATOM     33  O   UNL A   1      46.606  33.325  33.034  1.00  0.00    -0.544 OA
ENDBRANCH  15  31
ENDBRANCH   5   6
ENDBRANCH   4   5
ENDBRANCH   3   4
ENDBRANCH   2   3
ENDBRANCH   1   2
BRANCH   1  34
ATOM     34  C   UNL A   1      35.130  33.386  30.773  1.00  0.00     0.116 C 
BRANCH  34  35
ATOM     35  N   UNL A   1      34.621  32.764  29.550  1.00  0.00    -0.352 N 
ATOM     36  C   UNL A   1      35.284  31.906  28.690  1.00  0.00     0.251 C 
ATOM     37  H   UNL A   1      33.691  32.983  29.310  1.00  0.00     0.163 HD
ATOM     38  O   UNL A   1      34.922  31.793  27.524  1.00  0.00    -0.269 OA
BRANCH  36  39
ATOM     39  C   UNL A   1      36.427  31.128  29.208  1.00  0.00     0.039 A 
ATOM     40  C   UNL A   1      36.301  29.800  29.622  1.00  0.00     0.014 A 
ATOM     41  C   UNL A   1      37.665  31.761  29.234  1.00  0.00     0.014 A 
ATOM     42  C   UNL A   1      37.453  29.097  29.977  1.00  0.00     0.010 A 
ATOM     43  C   UNL A   1      38.806  31.023  29.397  1.00  0.00     0.010 A 
ATOM     44  C   UNL A   1      38.712  29.710  29.839  1.00  0.00    -0.014 A 
BRANCH  44  45
ATOM     45  C   UNL A   1      39.958  28.962  29.999  1.00  0.00     0.031 A 
ATOM     46  C   UNL A   1      40.282  28.681  31.420  1.00  0.00     0.074 A 
ATOM     47  C   UNL A   1      40.603  28.353  28.976  1.00  0.00     0.049 A 
ATOM     48  N   UNL A   1      41.142  29.291  32.167  1.00  0.00    -0.248 NA
ATOM     49  C   UNL A   1      39.396  27.772  32.170  1.00  0.00     0.031 C 
ATOM     50  C   UNL A   1      40.169  28.285  27.573  1.00  0.00     0.029 A 
ATOM     51  N   UNL A   1      41.723  27.569  28.972  1.00  0.00    -0.354 N 
ATOM     52  C   UNL A   1      41.141  28.583  33.366  1.00  0.00     0.074 A 
ATOM     53  C   UNL A   1      39.875  27.910  33.410  1.00  0.00     0.031 C 
ATOM     54  C   UNL A   1      40.859  27.324  26.921  1.00  0.00     0.029 A 
ATOM     55  C   UNL A   1      41.918  26.847  27.792  1.00  0.00     0.049 A 
ATOM     56  H   UNL A   1      42.340  27.518  29.736  1.00  0.00     0.167 HD
ATOM     57  C   UNL A   1      42.323  28.298  33.984  1.00  0.00     0.034 A 
ATOM     58  C   UNL A   1      42.893  25.939  27.519  1.00  0.00     0.034 A 
ATOM     59  C   UNL A   1      43.388  29.071  33.380  1.00  0.00     0.049 A 
ATOM     60  C   UNL A   1      44.028  26.259  28.412  1.00  0.00     0.074 A 
ATOM     61  C   UNL A   1      43.813  30.381  33.376  1.00  0.00     0.029 A 
ATOM     62  N   UNL A   1      43.966  28.454  32.297  1.00  0.00    -0.354 N 
ATOM     63  N   UNL A   1      44.676  27.391  28.351  1.00  0.00    -0.248 NA
ATOM     64  C   UNL A   1      44.210  25.505  29.647  1.00  0.00     0.031 C 
ATOM     65  C   UNL A   1      44.532  30.564  32.155  1.00  0.00     0.029 A 
ATOM     66  C   UNL A   1      44.586  29.351  31.469  1.00  0.00     0.049 A 
ATOM     67  H   UNL A   1      43.937  27.484  32.136  1.00  0.00     0.167 HD
ATOM     68  C   UNL A   1      44.962  27.692  29.667  1.00  0.00     0.074 A 
ATOM     69  C   UNL A   1      44.822  26.433  30.388  1.00  0.00     0.031 C 
ATOM     70  C   UNL A   1      44.946  28.983  30.110  1.00  0.00     0.034 A 
BRANCH  57  71
ATOM     71  C   UNL A   1      42.658  26.998  34.714  1.00  0.00     0.023 A 
ATOM     72  C   UNL A   1      43.534  26.110  34.048  1.00  0.00     0.031 A 
ATOM     73  C   UNL A   1      41.979  26.452  35.825  1.00  0.00     0.131 A 
ATOM     74  C   UNL A   1      43.612  24.753  34.407  1.00  0.00     0.055 A 
ATOM     75  C   UNL A   1      42.090  25.108  36.203  1.00  0.00     0.041 A 
ATOM     76  F   UNL A   1      41.117  27.146  36.573  1.00  0.00    -0.206 F 
ATOM     77  C   UNL A   1      42.884  24.242  35.475  1.00  0.00     0.022 A 
BRANCH  74  78
ATOM     78  S   UNL A   1      44.571  23.631  33.356  1.00  0.00     0.124 S 
ATOM     79  O   UNL A   1      45.765  24.424  33.087  1.00  0.00    -0.237 OA
ATOM     80  O   UNL A   1      44.742  22.476  34.231  1.00  0.00    -0.237 OA
ATOM     81  O   UNL A   1      43.694  23.414  32.208  1.00  0.00    -0.744 OA
ENDBRANCH  74  78
ENDBRANCH  57  71
BRANCH  58  82
ATOM     82  C   UNL A   1      42.791  24.672  26.738  1.00  0.00     0.023 A 
ATOM     83  C   UNL A   1      43.845  24.161  25.949  1.00  0.00     0.031 A 
ATOM     84  C   UNL A   1      41.710  23.800  26.993  1.00  0.00     0.131 A 
ATOM     85  C   UNL A   1      43.799  22.827  25.471  1.00  0.00     0.055 A 
ATOM     86  C   UNL A   1      41.674  22.483  26.527  1.00  0.00     0.041 A 
ATOM     87  F   UNL A   1      40.688  24.174  27.779  1.00  0.00    -0.206 F 
ATOM     88  C   UNL A   1      42.727  21.985  25.776  1.00  0.00     0.022 A 
BRANCH  85  89
ATOM     89  S   UNL A   1      45.184  22.128  24.509  1.00  0.00     0.124 S 
ATOM     90  O   UNL A   1      46.108  21.708  25.556  1.00  0.00    -0.237 OA
ATOM     91  O   UNL A   1      44.536  21.065  23.749  1.00  0.00    -0.237 OA
ATOM     92  O   UNL A   1      45.646  23.260  23.703  1.00  0.00    -0.744 OA
ENDBRANCH  85  89
ENDBRANCH  58  82
BRANCH  70  93
ATOM     93  C   UNL A   1      45.232  30.075  29.111  1.00  0.00     0.023 A 
ATOM     94  C   UNL A   1      46.509  30.461  28.647  1.00  0.00     0.031 A 
ATOM     95  C   UNL A   1      44.114  30.743  28.581  1.00  0.00     0.131 A 
ATOM     96  C   UNL A   1      46.623  31.486  27.685  1.00  0.00     0.055 A 
ATOM     97  C   UNL A   1      44.229  31.739  27.618  1.00  0.00     0.041 A 
ATOM     98  F   UNL A   1      42.874  30.416  28.984  1.00  0.00    -0.206 F 
ATOM     99  C   UNL A   1      45.486  32.119  27.169  1.00  0.00     0.022 A 
BRANCH  96 100
ATOM    100  S   UNL A   1      48.257  32.048  27.105  1.00  0.00     0.124 S 
ATOM    101  O   UNL A   1      48.852  32.654  28.288  1.00  0.00    -0.237 OA
ATOM    102  O   UNL A   1      48.872  30.805  26.646  1.00  0.00    -0.237 OA
ATOM    103  O   UNL A   1      47.932  32.993  26.034  1.00  0.00    -0.744 OA
ENDBRANCH  96 100
ENDBRANCH  70  93
ENDBRANCH  44  45
ENDBRANCH  36  39
ENDBRANCH  34  35
ENDBRANCH   1  34
TORSDOF 18
ENDMDL
MODEL 3
REMARK VINA RESULT:     -12.6      8.793     15.195
REMARK SMILES Cn1cc([C@@H]2CC(NCCCCCCNC(=O)c3ccc(-c4c5nc(c(-c6cc(S(=O)(=O)[O-])ccc6F)c6ccc([nH]6)c(-c6cc(S(=O)(=O)[O-])ccc6F)c6nc(c(-c7cc(S(=O)(=O)[O-])ccc7F)c7ccc4[nH]7)C=C6)C=C5)cc3)=[NH+]c3c2sc(C(=O)[O-])c3-c2ccc(Cl)cc2)cn1
REMARK SMILES IDX 13 1 12 2 11 3 10 4 9 5 8 6 5 7 6 8 83 9 7 10 82 11 84 12
REMARK SMILES IDX 81 13 89 14 85 15 4 18 1 19 2 20 3 21 98 22 97 23 90 24
REMARK SMILES IDX 91 25 96 26 92 27 95 28 93 29 94 30 86 31 87 32 88 33 14 34
REMARK SMILES IDX 15 35 16 36 17 38 18 39 19 40 80 41 20 42 79 43 21 44 22 45
REMARK SMILES IDX 23 46 73 47 24 48 78 49 72 50 74 51 25 52 77 53 71 54 70 55
REMARK SMILES IDX 26 57 58 58 38 59 57 60 39 61 42 62 56 63 75 64 40 65 41 66
REMARK SMILES IDX 55 68 76 69 43 70 27 71 28 72 36 73 29 74 35 75 37 76 34 77
REMARK SMILES IDX 30 78 31 79 32 80 33 81 59 82 60 83 68 84 61 85 67 86 69 87
REMARK SMILES IDX 66 88 62 89 63 90 64 91 65 92 44 93 45 94 53 95 46 96 52 97
REMARK SMILES IDX 54 98 51 99 47 100 48 101 49 102 50 103
REMARK H PARENT 8 16 81 17 15 37 74 56 42 67
REMARK Flexibility Score: inf
ROOT
ATOM      1  C   UNL A   1      35.646  32.029  32.807  1.00  0.00     0.021 C 
ENDROOT
BRANCH   1   2
ATOM      2  C   UNL A   1      36.740  30.955  32.731  1.00  0.00     0.002 C 
BRANCH   2   3
ATOM      3  C   UNL A   1      38.064  31.263  33.445  1.00  0.00     0.004 C 
BRANCH   3   4
ATOM      4  C   UNL A   1      37.953  31.721  34.904  1.00  0.00     0.046 C 
BRANCH   4   5
ATOM      5  C   UNL A   1      38.573  30.772  35.928  1.00  0.00     0.233 C 
BRANCH   5   6
ATOM      6  N   UNL A   1      37.702  30.618  37.078  1.00  0.00    -0.278 N 
ATOM      7  C   UNL A   1      36.741  32.013  40.523  1.00  0.00     0.079 C 
ATOM      8  C   UNL A   1      36.757  31.089  39.297  1.00  0.00     0.142 C 
ATOM      9  C   UNL A   1      37.618  33.197  40.306  1.00  0.00     0.061 A 
ATOM     10  C   UNL A   1      37.685  31.486  38.148  1.00  0.00     0.248 C 
ATOM     11  C   UNL A   1      38.382  33.415  39.200  1.00  0.00     0.147 A 
ATOM     12  S   UNL A   1      37.776  34.472  41.419  1.00  0.00    -0.133 S 
ATOM     13  N   UNL A   1      38.420  32.557  38.106  1.00  0.00    -0.243 N 
ATOM     14  C   UNL A   1      39.165  34.609  39.250  1.00  0.00     0.049 A 
ATOM     15  C   UNL A   1      38.933  35.303  40.434  1.00  0.00     0.062 A 
ATOM     16  H   UNL A   1      37.088  29.849  37.095  1.00  0.00     0.304 HD
ATOM     17  H   UNL A   1      38.985  32.756  37.325  1.00  0.00     0.312 HD
BRANCH   7  18
ATOM     18  C   UNL A   1      37.095  31.279  41.788  1.00  0.00    -0.001 A 
ATOM     19  C   UNL A   1      36.811  30.148  45.199  1.00  0.00     0.173 C 
ATOM     20  N   UNL A   1      37.134  30.465  43.829  1.00  0.00    -0.276 N 
ATOM     21  C   UNL A   1      36.545  31.413  43.048  1.00  0.00     0.112 A 
ATOM     22  N   UNL A   1      38.081  29.755  43.184  1.00  0.00    -0.182 NA
ATOM     23  C   UNL A   1      38.042  30.240  41.942  1.00  0.00     0.139 A 
ENDBRANCH   7  18
BRANCH  14  24
ATOM     24  C   UNL A   1      40.053  35.071  38.183  1.00  0.00    -0.012 A 
ATOM     25  C   UNL A   1      41.432  34.824  38.223  1.00  0.00     0.010 A 
ATOM     26  C   UNL A   1      39.509  35.748  37.081  1.00  0.00     0.010 A 
ATOM     27  C   UNL A   1      42.262  35.309  37.207  1.00  0.00     0.021 A 
ATOM     28  C   UNL A   1      40.336  36.219  36.061  1.00  0.00     0.021 A 
ATOM     29  C   UNL A   1      41.711  36.013  36.138  1.00  0.00     0.041 A 
ATOM     30  Cl  UNL A   1      42.735  36.642  34.905  1.00  0.00    -0.084 Cl
ENDBRANCH  14  24
BRANCH  15  31
ATOM     31  C   UNL A   1      39.440  36.554  40.972  1.00  0.00     0.082 C 
ATOM     32  O   UNL A   1      40.396  36.732  41.701  1.00  0.00    -0.544 OA
ATOM     33  O   UNL A   1      38.702  37.625  40.600  1.00  0.00    -0.544 OA
ENDBRANCH  15  31
ENDBRANCH   5   6
ENDBRANCH   4   5
ENDBRANCH   3   4
ENDBRANCH   2   3
ENDBRANCH   1   2
BRANCH   1  34
ATOM     34  C   UNL A   1      35.532  32.905  31.568  1.00  0.00     0.116 C 
BRANCH  34  35
ATOM     35  N   UNL A   1      34.635  32.346  30.556  1.00  0.00    -0.352 N 
ATOM     36  C   UNL A   1      34.973  31.715  29.372  1.00  0.00     0.251 C 
ATOM     37  H   UNL A   1      33.670  32.429  30.741  1.00  0.00     0.163 HD
ATOM     38  O   UNL A   1      34.176  31.673  28.441  1.00  0.00    -0.269 OA
BRANCH  36  39
ATOM     39  C   UNL A   1      36.306  31.090  29.258  1.00  0.00     0.039 A 
ATOM     40  C   UNL A   1      37.481  31.844  29.197  1.00  0.00     0.014 A 
ATOM     41  C   UNL A   1      36.358  29.701  29.254  1.00  0.00     0.014 A 
ATOM     42  C   UNL A   1      38.707  31.175  29.220  1.00  0.00     0.010 A 
ATOM     43  C   UNL A   1      37.548  29.061  29.467  1.00  0.00     0.010 A 
ATOM     44  C   UNL A   1      38.733  29.778  29.380  1.00  0.00    -0.014 A 
BRANCH  44  45
ATOM     45  C   UNL A   1      39.981  29.051  29.614  1.00  0.00     0.031 A 
ATOM     46  C   UNL A   1      40.270  28.853  31.056  1.00  0.00     0.074 A 
ATOM     47  C   UNL A   1      40.657  28.392  28.643  1.00  0.00     0.049 A 
ATOM     48  N   UNL A   1      41.105  29.512  31.790  1.00  0.00    -0.248 NA
ATOM     49  C   UNL A   1      39.372  27.979  31.833  1.00  0.00     0.031 C 
ATOM     50  C   UNL A   1      40.260  28.242  27.236  1.00  0.00     0.029 A 
ATOM     51  N   UNL A   1      41.783  27.620  28.712  1.00  0.00    -0.354 N 
ATOM     52  C   UNL A   1      41.078  28.872  33.026  1.00  0.00     0.074 A 
ATOM     53  C   UNL A   1      39.817  28.191  33.075  1.00  0.00     0.031 C 
ATOM     54  C   UNL A   1      40.975  27.252  26.656  1.00  0.00     0.029 A 
ATOM     55  C   UNL A   1      42.014  26.835  27.580  1.00  0.00     0.049 A 
ATOM     56  H   UNL A   1      42.381  27.617  29.494  1.00  0.00     0.167 HD
ATOM     57  C   UNL A   1      42.245  28.633  33.689  1.00  0.00     0.034 A 
ATOM     58  C   UNL A   1      43.003  25.922  27.383  1.00  0.00     0.034 A 
ATOM     59  C   UNL A   1      43.320  29.381  33.070  1.00  0.00     0.049 A 
ATOM     60  C   UNL A   1      44.112  26.302  28.286  1.00  0.00     0.074 A 
ATOM     61  C   UNL A   1      43.735  30.692  33.004  1.00  0.00     0.029 A 
ATOM     62  N   UNL A   1      43.931  28.709  32.039  1.00  0.00    -0.354 N 
ATOM     63  N   UNL A   1      44.752  27.434  28.178  1.00  0.00    -0.248 NA
ATOM     64  C   UNL A   1      44.267  25.620  29.565  1.00  0.00     0.031 C 
ATOM     65  C   UNL A   1      44.484  30.813  31.793  1.00  0.00     0.029 A 
ATOM     66  C   UNL A   1      44.566  29.565  31.178  1.00  0.00     0.049 A 
ATOM     67  H   UNL A   1      43.914  27.731  31.932  1.00  0.00     0.167 HD
ATOM     68  C   UNL A   1      45.002  27.811  29.482  1.00  0.00     0.074 A 
ATOM     69  C   UNL A   1      44.853  26.593  30.269  1.00  0.00     0.031 C 
ATOM     70  C   UNL A   1      44.964  29.124  29.851  1.00  0.00     0.034 A 
BRANCH  57  71
ATOM     71  C   UNL A   1      42.572  27.379  34.499  1.00  0.00     0.023 A 
ATOM     72  C   UNL A   1      43.504  26.484  33.926  1.00  0.00     0.031 A 
ATOM     73  C   UNL A   1      41.846  26.868  35.598  1.00  0.00     0.131 A 
ATOM     74  C   UNL A   1      43.596  25.148  34.355  1.00  0.00     0.055 A 
ATOM     75  C   UNL A   1      41.969  25.547  36.047  1.00  0.00     0.041 A 
ATOM     76  F   UNL A   1      40.928  27.573  36.263  1.00  0.00    -0.206 F 
ATOM     77  C   UNL A   1      42.823  24.669  35.406  1.00  0.00     0.022 A 
BRANCH  74  78
ATOM     78  S   UNL A   1      44.638  24.003  33.414  1.00  0.00     0.124 S 
ATOM     79  O   UNL A   1      44.979  23.011  34.427  1.00  0.00    -0.237 OA
ATOM     80  O   UNL A   1      43.728  23.570  32.360  1.00  0.00    -0.237 OA
ATOM     81  O   UNL A   1      45.746  24.846  32.968  1.00  0.00    -0.744 OA
ENDBRANCH  74  78
ENDBRANCH  57  71
BRANCH  58  82
ATOM     82  C   UNL A   1      42.931  24.613  26.673  1.00  0.00     0.023 A 
ATOM     83  C   UNL A   1      43.803  24.253  25.620  1.00  0.00     0.031 A 
ATOM     84  C   UNL A   1      42.149  23.576  27.229  1.00  0.00     0.131 A 
ATOM     85  C   UNL A   1      43.880  22.906  25.184  1.00  0.00     0.055 A 
ATOM     86  C   UNL A   1      42.237  22.249  26.802  1.00  0.00     0.041 A 
ATOM     87  F   UNL A   1      41.334  23.807  28.270  1.00  0.00    -0.206 F 
ATOM     88  C   UNL A   1      43.114  21.905  25.787  1.00  0.00     0.022 A 
BRANCH  85  89
ATOM     89  S   UNL A   1      45.051  22.411  23.874  1.00  0.00     0.124 S 
ATOM     90  O   UNL A   1      44.180  22.280  22.712  1.00  0.00    -0.237 OA
ATOM     91  O   UNL A   1      45.994  23.524  23.858  1.00  0.00    -0.237 OA
ATOM     92  O   UNL A   1      45.605  21.149  24.371  1.00  0.00    -0.744 OA
ENDBRANCH  85  89
ENDBRANCH  58  82
BRANCH  70  93
ATOM     93  C   UNL A   1      45.268  30.162  28.801  1.00  0.00     0.023 A 
ATOM     94  C   UNL A   1      46.552  30.624  28.439  1.00  0.00     0.031 A 
ATOM     95  C   UNL A   1      44.163  30.687  28.107  1.00  0.00     0.131 A 
ATOM     96  C   UNL A   1      46.687  31.582  27.412  1.00  0.00     0.055 A 
ATOM     97  C   UNL A   1      44.301  31.617  27.081  1.00  0.00     0.041 A 
ATOM     98  F   UNL A   1      42.917  30.283  28.407  1.00  0.00    -0.206 F 
ATOM     99  C   UNL A   1      45.565  32.073  26.733  1.00  0.00     0.022 A 
BRANCH  96 100
ATOM    100  S   UNL A   1      48.324  32.243  26.956  1.00  0.00     0.124 S 
ATOM    101  O   UNL A   1      48.028  33.188  25.888  1.00  0.00    -0.237 OA
ATOM    102  O   UNL A   1      48.789  32.824  28.213  1.00  0.00    -0.237 OA
ATOM    103  O   UNL A   1      49.064  31.053  26.530  1.00  0.00    -0.744 OA
ENDBRANCH  96 100
ENDBRANCH  70  93
ENDBRANCH  44  45
ENDBRANCH  36  39
ENDBRANCH  34  35
ENDBRANCH   1  34
TORSDOF 18
ENDMDL
