MODEL 1
REMARK VINA RESULT:     -12.3      0.000      0.000
REMARK SMILES O=C(NCCCCCCNC(=O)c1ccc(-c2c3nc(c(-c4cc(S(=O)(=O)[O-])ccc4F)c4ccc([nH]4)c(-c4cc(S(=O)(=O)[O-])ccc4F)c4nc(c(-c5cc(S(=O)(=O)[O-])ccc5F)c5ccc2[nH]5)C=C4)C=C3)cc1)C1=Cc2cc(Cl)c(Cl)c(Cl)c2O[C@@H]1C(F)(F)F
REMARK SMILES IDX 7 1 6 2 5 3 4 4 3 5 1 6 2 7 76 9 77 10 88 11 78 12 87 13
REMARK SMILES IDX 79 14 86 15 80 16 84 17 81 18 82 19 85 20 83 21 89 22 90 23
REMARK SMILES IDX 91 24 92 25 8 26 9 27 10 28 11 29 12 31 13 32 14 33 75 34
REMARK SMILES IDX 15 35 74 36 16 37 17 38 18 39 68 40 19 41 73 42 67 43 69 44
REMARK SMILES IDX 20 45 72 46 66 47 65 48 21 50 53 51 33 52 52 53 34 54 37 55
REMARK SMILES IDX 51 56 70 57 35 58 36 59 50 61 71 62 38 63 22 64 23 65 31 66
REMARK SMILES IDX 24 67 30 68 32 69 29 70 25 71 26 72 27 73 28 74 54 75 55 76
REMARK SMILES IDX 63 77 56 78 62 79 64 80 61 81 57 82 58 83 59 84 60 85 39 86
REMARK SMILES IDX 40 87 48 88 41 89 47 90 49 91 46 92 42 93 43 94 44 95 45 96
REMARK H PARENT 3 8 10 30 69 49 37 60
REMARK Flexibility Score: inf
ROOT
ATOM      1  C   UNL A   1      31.933  30.195  26.660  1.00  0.00     0.002 C 
ENDROOT
BRANCH   1   2
ATOM      2  C   UNL A   1      31.442  29.584  25.341  1.00  0.00     0.002 C 
BRANCH   2   3
ATOM      3  C   UNL A   1      31.560  28.066  25.197  1.00  0.00     0.021 C 
BRANCH   3   4
ATOM      4  C   UNL A   1      31.715  27.268  26.491  1.00  0.00     0.116 C 
BRANCH   4   5
ATOM      5  N   UNL A   1      30.802  26.139  26.634  1.00  0.00    -0.352 N 
ATOM      6  O   UNL A   1      30.160  23.981  26.770  1.00  0.00    -0.270 OA
ATOM      7  C   UNL A   1      31.008  24.795  26.418  1.00  0.00     0.251 C 
ATOM      8  H   UNL A   1      29.894  26.375  26.934  1.00  0.00     0.163 HD
BRANCH   7   9
ATOM      9  C   UNL A   1      32.328  24.307  25.922  1.00  0.00     0.067 C 
ATOM     10  C   UNL A   1      32.952  23.241  26.441  1.00  0.00     0.025 C 
ATOM     11  C   UNL A   1      32.631  24.672  24.499  1.00  0.00     0.314 C 
ATOM     12  C   UNL A   1      33.083  22.108  25.525  1.00  0.00     0.020 A 
ATOM     13  O   UNL A   1      32.552  23.529  23.620  1.00  0.00    -0.474 OA
ATOM     14  C   UNL A   1      33.183  20.819  26.059  1.00  0.00     0.034 A 
ATOM     15  C   UNL A   1      32.765  22.282  24.168  1.00  0.00     0.148 A 
ATOM     16  C   UNL A   1      32.897  19.708  25.259  1.00  0.00     0.062 A 
ATOM     17  C   UNL A   1      32.511  21.164  23.358  1.00  0.00     0.103 A 
ATOM     18  Cl  UNL A   1      32.872  18.168  26.047  1.00  0.00    -0.083 Cl
ATOM     19  C   UNL A   1      32.549  19.871  23.909  1.00  0.00     0.082 A 
ATOM     20  Cl  UNL A   1      32.038  21.428  21.706  1.00  0.00    -0.079 Cl
ATOM     21  Cl  UNL A   1      32.078  18.497  22.958  1.00  0.00    -0.081 Cl
BRANCH  11  22
ATOM     22  C   UNL A   1      34.013  25.359  24.408  1.00  0.00     0.429 C 
ATOM     23  F   UNL A   1      34.008  26.361  23.499  1.00  0.00    -0.167 F 
ATOM     24  F   UNL A   1      34.386  25.905  25.592  1.00  0.00    -0.167 F 
ATOM     25  F   UNL A   1      34.996  24.498  24.047  1.00  0.00    -0.167 F 
ENDBRANCH  11  22
ENDBRANCH   7   9
ENDBRANCH   4   5
ENDBRANCH   3   4
ENDBRANCH   2   3
ENDBRANCH   1   2
BRANCH   1  26
ATOM     26  C   UNL A   1      31.741  31.704  26.849  1.00  0.00     0.021 C 
BRANCH  26  27
ATOM     27  C   UNL A   1      33.002  32.525  27.118  1.00  0.00     0.116 C 
BRANCH  27  28
ATOM     28  N   UNL A   1      32.717  33.842  27.653  1.00  0.00    -0.352 N 
ATOM     29  C   UNL A   1      33.281  34.514  28.713  1.00  0.00     0.251 C 
ATOM     30  H   UNL A   1      32.006  34.335  27.183  1.00  0.00     0.163 HD
ATOM     31  O   UNL A   1      32.779  35.571  29.077  1.00  0.00    -0.269 OA
BRANCH  29  32
ATOM     32  C   UNL A   1      34.460  33.967  29.430  1.00  0.00     0.039 A 
ATOM     33  C   UNL A   1      34.242  33.059  30.471  1.00  0.00     0.014 A 
ATOM     34  C   UNL A   1      35.763  34.372  29.129  1.00  0.00     0.014 A 
ATOM     35  C   UNL A   1      35.326  32.522  31.172  1.00  0.00     0.010 A 
ATOM     36  C   UNL A   1      36.848  33.787  29.786  1.00  0.00     0.010 A 
ATOM     37  C   UNL A   1      36.642  32.859  30.818  1.00  0.00    -0.014 A 
BRANCH  37  38
ATOM     38  C   UNL A   1      37.805  32.261  31.529  1.00  0.00     0.031 A 
ATOM     39  C   UNL A   1      38.599  31.153  30.891  1.00  0.00     0.074 A 
ATOM     40  C   UNL A   1      38.118  32.682  32.770  1.00  0.00     0.049 A 
ATOM     41  N   UNL A   1      39.602  30.464  31.374  1.00  0.00    -0.248 NA
ATOM     42  C   UNL A   1      38.189  30.750  29.537  1.00  0.00     0.031 C 
ATOM     43  C   UNL A   1      37.403  33.723  33.511  1.00  0.00     0.029 A 
ATOM     44  N   UNL A   1      39.108  32.282  33.633  1.00  0.00    -0.354 N 
ATOM     45  C   UNL A   1      39.940  29.541  30.390  1.00  0.00     0.074 A 
ATOM     46  C   UNL A   1      38.990  29.720  29.310  1.00  0.00     0.031 C 
ATOM     47  C   UNL A   1      37.988  33.890  34.708  1.00  0.00     0.029 A 
ATOM     48  C   UNL A   1      39.090  32.941  34.840  1.00  0.00     0.049 A 
ATOM     49  H   UNL A   1      39.770  31.588  33.408  1.00  0.00     0.167 HD
ATOM     50  C   UNL A   1      40.960  28.646  30.375  1.00  0.00     0.034 A 
ATOM     51  C   UNL A   1      39.860  32.791  35.935  1.00  0.00     0.034 A 
ATOM     52  C   UNL A   1      41.899  28.482  31.461  1.00  0.00     0.049 A 
ATOM     53  C   UNL A   1      40.969  31.770  35.913  1.00  0.00     0.074 A 
ATOM     54  C   UNL A   1      42.994  27.638  31.535  1.00  0.00     0.029 A 
ATOM     55  N   UNL A   1      41.848  29.168  32.668  1.00  0.00    -0.354 N 
ATOM     56  N   UNL A   1      41.305  30.935  34.956  1.00  0.00    -0.248 NA
ATOM     57  C   UNL A   1      41.810  31.680  37.113  1.00  0.00     0.031 C 
ATOM     58  C   UNL A   1      43.563  27.763  32.808  1.00  0.00     0.029 A 
ATOM     59  C   UNL A   1      42.872  28.743  33.504  1.00  0.00     0.049 A 
ATOM     60  H   UNL A   1      41.182  29.855  32.899  1.00  0.00     0.167 HD
ATOM     61  C   UNL A   1      42.414  30.239  35.431  1.00  0.00     0.074 A 
ATOM     62  C   UNL A   1      42.698  30.764  36.752  1.00  0.00     0.031 C 
ATOM     63  C   UNL A   1      43.135  29.259  34.828  1.00  0.00     0.034 A 
BRANCH  50  64
ATOM     64  C   UNL A   1      41.086  27.761  29.156  1.00  0.00     0.023 A 
ATOM     65  C   UNL A   1      42.106  27.952  28.207  1.00  0.00     0.031 A 
ATOM     66  C   UNL A   1      40.152  26.738  28.914  1.00  0.00     0.131 A 
ATOM     67  C   UNL A   1      42.114  27.201  27.021  1.00  0.00     0.055 A 
ATOM     68  C   UNL A   1      40.219  25.932  27.774  1.00  0.00     0.041 A 
ATOM     69  F   UNL A   1      39.144  26.515  29.771  1.00  0.00    -0.206 F 
ATOM     70  C   UNL A   1      41.193  26.174  26.810  1.00  0.00     0.022 A 
BRANCH  67  71
ATOM     71  S   UNL A   1      43.241  27.700  25.690  1.00  0.00     0.124 S 
ATOM     72  O   UNL A   1      43.891  28.869  26.277  1.00  0.00    -0.237 OA
ATOM     73  O   UNL A   1      44.077  26.518  25.524  1.00  0.00    -0.237 OA
ATOM     74  O   UNL A   1      42.343  27.993  24.573  1.00  0.00    -0.744 OA
ENDBRANCH  67  71
ENDBRANCH  50  64
BRANCH  51  75
ATOM     75  C   UNL A   1      39.603  33.613  37.152  1.00  0.00     0.023 A 
ATOM     76  C   UNL A   1      38.886  33.096  38.242  1.00  0.00     0.031 A 
ATOM     77  C   UNL A   1      40.055  34.943  37.229  1.00  0.00     0.131 A 
ATOM     78  C   UNL A   1      38.610  33.914  39.348  1.00  0.00     0.055 A 
ATOM     79  C   UNL A   1      39.821  35.737  38.352  1.00  0.00     0.041 A 
ATOM     80  F   UNL A   1      40.748  35.485  36.216  1.00  0.00    -0.206 F 
ATOM     81  C   UNL A   1      39.084  35.227  39.417  1.00  0.00     0.022 A 
BRANCH  78  82
ATOM     82  S   UNL A   1      37.558  33.259  40.673  1.00  0.00     0.124 S 
ATOM     83  O   UNL A   1      37.235  34.469  41.421  1.00  0.00    -0.237 OA
ATOM     84  O   UNL A   1      36.463  32.658  39.922  1.00  0.00    -0.237 OA
ATOM     85  O   UNL A   1      38.431  32.312  41.364  1.00  0.00    -0.744 OA
ENDBRANCH  78  82
ENDBRANCH  51  75
BRANCH  63  86
ATOM     86  C   UNL A   1      44.326  28.721  35.583  1.00  0.00     0.023 A 
ATOM     87  C   UNL A   1      44.205  27.665  36.504  1.00  0.00     0.031 A 
ATOM     88  C   UNL A   1      45.600  29.283  35.386  1.00  0.00     0.131 A 
ATOM     89  C   UNL A   1      45.327  27.243  37.234  1.00  0.00     0.055 A 
ATOM     90  C   UNL A   1      46.724  28.818  36.071  1.00  0.00     0.041 A 
ATOM     91  F   UNL A   1      45.774  30.295  34.521  1.00  0.00    -0.206 F 
ATOM     92  C   UNL A   1      46.589  27.800  37.011  1.00  0.00     0.022 A 
BRANCH  89  93
ATOM     93  S   UNL A   1      45.100  26.011  38.548  1.00  0.00     0.124 S 
ATOM     94  O   UNL A   1      46.422  25.982  39.166  1.00  0.00    -0.237 OA
ATOM     95  O   UNL A   1      44.035  26.601  39.349  1.00  0.00    -0.237 OA
ATOM     96  O   UNL A   1      44.729  24.798  37.821  1.00  0.00    -0.744 OA
ENDBRANCH  89  93
ENDBRANCH  63  86
ENDBRANCH  37  38
ENDBRANCH  29  32
ENDBRANCH  27  28
ENDBRANCH  26  27
ENDBRANCH   1  26
TORSDOF 17
ENDMDL
MODEL 2
REMARK VINA RESULT:     -12.0      1.902      2.230
REMARK SMILES O=C(NCCCCCCNC(=O)c1ccc(-c2c3nc(c(-c4cc(S(=O)(=O)[O-])ccc4F)c4ccc([nH]4)c(-c4cc(S(=O)(=O)[O-])ccc4F)c4nc(c(-c5cc(S(=O)(=O)[O-])ccc5F)c5ccc2[nH]5)C=C4)C=C3)cc1)C1=Cc2cc(Cl)c(Cl)c(Cl)c2O[C@@H]1C(F)(F)F
REMARK SMILES IDX 7 1 6 2 5 3 4 4 3 5 1 6 2 7 76 9 77 10 88 11 78 12 87 13
REMARK SMILES IDX 79 14 86 15 80 16 84 17 81 18 82 19 85 20 83 21 89 22 90 23
REMARK SMILES IDX 91 24 92 25 8 26 9 27 10 28 11 29 12 31 13 32 14 33 75 34
REMARK SMILES IDX 15 35 74 36 16 37 17 38 18 39 68 40 19 41 73 42 67 43 69 44
REMARK SMILES IDX 20 45 72 46 66 47 65 48 21 50 53 51 33 52 52 53 34 54 37 55
REMARK SMILES IDX 51 56 70 57 35 58 36 59 50 61 71 62 38 63 22 64 23 65 31 66
REMARK SMILES IDX 24 67 30 68 32 69 29 70 25 71 26 72 27 73 28 74 54 75 55 76
REMARK SMILES IDX 63 77 56 78 62 79 64 80 61 81 57 82 58 83 59 84 60 85 39 86
REMARK SMILES IDX 40 87 48 88 41 89 47 90 49 91 46 92 42 93 43 94 44 95 45 96
REMARK H PARENT 3 8 10 30 69 49 37 60
REMARK Flexibility Score: inf
ROOT
ATOM      1  C   UNL A   1      31.414  30.403  26.020  1.00  0.00     0.002 C 
ENDROOT
BRANCH   1   2
ATOM      2  C   UNL A   1      32.296  29.427  26.810  1.00  0.00     0.002 C 
BRANCH   2   3
ATOM      3  C   UNL A   1      31.640  28.126  27.274  1.00  0.00     0.021 C 
BRANCH   3   4
ATOM      4  C   UNL A   1      31.710  26.944  26.307  1.00  0.00     0.116 C 
BRANCH   4   5
ATOM      5  N   UNL A   1      30.884  25.797  26.672  1.00  0.00    -0.352 N 
ATOM      6  O   UNL A   1      30.389  23.644  27.123  1.00  0.00    -0.270 OA
ATOM      7  C   UNL A   1      31.151  24.448  26.595  1.00  0.00     0.251 C 
ATOM      8  H   UNL A   1      29.995  26.023  27.029  1.00  0.00     0.163 HD
BRANCH   7   9
ATOM      9  C   UNL A   1      32.447  23.969  26.033  1.00  0.00     0.067 C 
ATOM     10  C   UNL A   1      33.081  22.881  26.491  1.00  0.00     0.025 C 
ATOM     11  C   UNL A   1      32.699  24.382  24.614  1.00  0.00     0.314 C 
ATOM     12  C   UNL A   1      33.167  21.780  25.531  1.00  0.00     0.020 A 
ATOM     13  O   UNL A   1      32.577  23.271  23.698  1.00  0.00    -0.474 OA
ATOM     14  C   UNL A   1      33.276  20.472  26.015  1.00  0.00     0.034 A 
ATOM     15  C   UNL A   1      32.799  22.004  24.194  1.00  0.00     0.148 A 
ATOM     16  C   UNL A   1      32.950  19.392  25.189  1.00  0.00     0.062 A 
ATOM     17  C   UNL A   1      32.506  20.917  23.355  1.00  0.00     0.103 A 
ATOM     18  Cl  UNL A   1      32.942  17.825  25.922  1.00  0.00    -0.083 Cl
ATOM     19  C   UNL A   1      32.553  19.605  23.859  1.00  0.00     0.082 A 
ATOM     20  Cl  UNL A   1      31.973  21.243  21.732  1.00  0.00    -0.079 Cl
ATOM     21  Cl  UNL A   1      32.034  18.269  22.879  1.00  0.00    -0.081 Cl
BRANCH  11  22
ATOM     22  C   UNL A   1      34.082  25.061  24.494  1.00  0.00     0.429 C 
ATOM     23  F   UNL A   1      34.040  26.125  23.659  1.00  0.00    -0.167 F 
ATOM     24  F   UNL A   1      34.526  25.519  25.691  1.00  0.00    -0.167 F 
ATOM     25  F   UNL A   1      35.033  24.219  24.020  1.00  0.00    -0.167 F 
ENDBRANCH  11  22
ENDBRANCH   7   9
ENDBRANCH   4   5
ENDBRANCH   3   4
ENDBRANCH   2   3
ENDBRANCH   1   2
BRANCH   1  26
ATOM     26  C   UNL A   1      31.380  31.860  26.496  1.00  0.00     0.021 C 
BRANCH  26  27
ATOM     27  C   UNL A   1      32.677  32.420  27.077  1.00  0.00     0.116 C 
BRANCH  27  28
ATOM     28  N   UNL A   1      32.541  33.781  27.560  1.00  0.00    -0.352 N 
ATOM     29  C   UNL A   1      33.248  34.458  28.527  1.00  0.00     0.251 C 
ATOM     30  H   UNL A   1      31.828  34.304  27.128  1.00  0.00     0.163 HD
ATOM     31  O   UNL A   1      32.862  35.569  28.873  1.00  0.00    -0.269 OA
BRANCH  29  32
ATOM     32  C   UNL A   1      34.445  33.857  29.167  1.00  0.00     0.039 A 
ATOM     33  C   UNL A   1      34.253  32.855  30.125  1.00  0.00     0.014 A 
ATOM     34  C   UNL A   1      35.739  34.297  28.879  1.00  0.00     0.014 A 
ATOM     35  C   UNL A   1      35.354  32.264  30.752  1.00  0.00     0.010 A 
ATOM     36  C   UNL A   1      36.841  33.662  29.458  1.00  0.00     0.010 A 
ATOM     37  C   UNL A   1      36.660  32.642  30.404  1.00  0.00    -0.014 A 
BRANCH  37  38
ATOM     38  C   UNL A   1      37.841  31.989  31.034  1.00  0.00     0.031 A 
ATOM     39  C   UNL A   1      38.619  30.940  30.286  1.00  0.00     0.074 A 
ATOM     40  C   UNL A   1      38.184  32.307  32.298  1.00  0.00     0.049 A 
ATOM     41  N   UNL A   1      39.634  30.216  30.686  1.00  0.00    -0.248 NA
ATOM     42  C   UNL A   1      38.176  30.650  28.915  1.00  0.00     0.031 C 
ATOM     43  C   UNL A   1      37.488  33.281  33.140  1.00  0.00     0.029 A 
ATOM     44  N   UNL A   1      39.196  31.839  33.100  1.00  0.00    -0.354 N 
ATOM     45  C   UNL A   1      39.948  29.379  29.620  1.00  0.00     0.074 A 
ATOM     46  C   UNL A   1      38.971  29.644  28.583  1.00  0.00     0.031 C 
ATOM     47  C   UNL A   1      38.103  33.350  34.332  1.00  0.00     0.029 A 
ATOM     48  C   UNL A   1      39.208  32.396  34.357  1.00  0.00     0.049 A 
ATOM     49  H   UNL A   1      39.852  31.168  32.801  1.00  0.00     0.167 HD
ATOM     50  C   UNL A   1      40.967  28.491  29.507  1.00  0.00     0.034 A 
ATOM     51  C   UNL A   1      40.005  32.157  35.417  1.00  0.00     0.034 A 
ATOM     52  C   UNL A   1      41.934  28.239  30.551  1.00  0.00     0.049 A 
ATOM     53  C   UNL A   1      41.114  31.144  35.283  1.00  0.00     0.074 A 
ATOM     54  C   UNL A   1      43.031  27.395  30.528  1.00  0.00     0.029 A 
ATOM     55  N   UNL A   1      41.912  28.822  31.812  1.00  0.00    -0.354 N 
ATOM     56  N   UNL A   1      41.426  30.393  34.251  1.00  0.00    -0.248 NA
ATOM     57  C   UNL A   1      41.984  30.957  36.450  1.00  0.00     0.031 C 
ATOM     58  C   UNL A   1      43.630  27.415  31.792  1.00  0.00     0.029 A 
ATOM     59  C   UNL A   1      42.957  28.332  32.584  1.00  0.00     0.049 A 
ATOM     60  H   UNL A   1      41.252  29.486  32.115  1.00  0.00     0.167 HD
ATOM     61  C   UNL A   1      42.546  29.662  34.640  1.00  0.00     0.074 A 
ATOM     62  C   UNL A   1      42.863  30.076  35.992  1.00  0.00     0.031 C 
ATOM     63  C   UNL A   1      43.252  28.738  33.939  1.00  0.00     0.034 A 
BRANCH  50  64
ATOM     64  C   UNL A   1      41.063  27.710  28.215  1.00  0.00     0.023 A 
ATOM     65  C   UNL A   1      40.691  26.355  28.142  1.00  0.00     0.031 A 
ATOM     66  C   UNL A   1      41.572  28.311  27.050  1.00  0.00     0.131 A 
ATOM     67  C   UNL A   1      40.919  25.625  26.965  1.00  0.00     0.055 A 
ATOM     68  C   UNL A   1      41.712  27.602  25.854  1.00  0.00     0.041 A 
ATOM     69  F   UNL A   1      41.962  29.596  27.058  1.00  0.00    -0.206 F 
ATOM     70  C   UNL A   1      41.403  26.246  25.812  1.00  0.00     0.022 A 
BRANCH  67  71
ATOM     71  S   UNL A   1      40.733  23.822  27.017  1.00  0.00     0.124 S 
ATOM     72  O   UNL A   1      39.299  23.666  26.783  1.00  0.00    -0.237 OA
ATOM     73  O   UNL A   1      41.609  23.382  25.939  1.00  0.00    -0.237 OA
ATOM     74  O   UNL A   1      41.177  23.471  28.366  1.00  0.00    -0.744 OA
ENDBRANCH  67  71
ENDBRANCH  50  64
BRANCH  51  75
ATOM     75  C   UNL A   1      39.778  32.875  36.703  1.00  0.00     0.023 A 
ATOM     76  C   UNL A   1      38.872  32.390  37.658  1.00  0.00     0.031 A 
ATOM     77  C   UNL A   1      40.453  34.077  36.985  1.00  0.00     0.131 A 
ATOM     78  C   UNL A   1      38.636  33.119  38.833  1.00  0.00     0.055 A 
ATOM     79  C   UNL A   1      40.253  34.773  38.177  1.00  0.00     0.041 A 
ATOM     80  F   UNL A   1      41.333  34.583  36.107  1.00  0.00    -0.206 F 
ATOM     81  C   UNL A   1      39.331  34.301  39.106  1.00  0.00     0.022 A 
BRANCH  78  82
ATOM     82  S   UNL A   1      37.353  32.537  39.976  1.00  0.00     0.124 S 
ATOM     83  O   UNL A   1      36.291  32.147  39.056  1.00  0.00    -0.237 OA
ATOM     84  O   UNL A   1      38.035  31.450  40.668  1.00  0.00    -0.237 OA
ATOM     85  O   UNL A   1      37.069  33.713  40.796  1.00  0.00    -0.744 OA
ENDBRANCH  78  82
ENDBRANCH  51  75
BRANCH  63  86
ATOM     86  C   UNL A   1      44.463  28.141  34.618  1.00  0.00     0.023 A 
ATOM     87  C   UNL A   1      45.733  28.737  34.525  1.00  0.00     0.031 A 
ATOM     88  C   UNL A   1      44.343  26.952  35.358  1.00  0.00     0.131 A 
ATOM     89  C   UNL A   1      46.843  28.112  35.114  1.00  0.00     0.055 A 
ATOM     90  C   UNL A   1      45.440  26.366  35.992  1.00  0.00     0.041 A 
ATOM     91  F   UNL A   1      43.155  26.338  35.478  1.00  0.00    -0.206 F 
ATOM     92  C   UNL A   1      46.702  26.940  35.862  1.00  0.00     0.022 A 
BRANCH  89  93
ATOM     93  S   UNL A   1      48.494  28.803  34.817  1.00  0.00     0.124 S 
ATOM     94  O   UNL A   1      49.312  28.049  35.761  1.00  0.00    -0.237 OA
ATOM     95  O   UNL A   1      48.709  28.504  33.406  1.00  0.00    -0.237 OA
ATOM     96  O   UNL A   1      48.333  30.223  35.131  1.00  0.00    -0.744 OA
ENDBRANCH  89  93
ENDBRANCH  63  86
ENDBRANCH  37  38
ENDBRANCH  29  32
ENDBRANCH  27  28
ENDBRANCH  26  27
ENDBRANCH   1  26
TORSDOF 17
ENDMDL
MODEL 3
REMARK VINA RESULT:     -12.0      0.539      7.632
REMARK SMILES O=C(NCCCCCCNC(=O)c1ccc(-c2c3nc(c(-c4cc(S(=O)(=O)[O-])ccc4F)c4ccc([nH]4)c(-c4cc(S(=O)(=O)[O-])ccc4F)c4nc(c(-c5cc(S(=O)(=O)[O-])ccc5F)c5ccc2[nH]5)C=C4)C=C3)cc1)C1=Cc2cc(Cl)c(Cl)c(Cl)c2O[C@@H]1C(F)(F)F
REMARK SMILES IDX 7 1 6 2 5 3 4 4 3 5 1 6 2 7 76 9 77 10 88 11 78 12 87 13
REMARK SMILES IDX 79 14 86 15 80 16 84 17 81 18 82 19 85 20 83 21 89 22 90 23
REMARK SMILES IDX 91 24 92 25 8 26 9 27 10 28 11 29 12 31 13 32 14 33 75 34
REMARK SMILES IDX 15 35 74 36 16 37 17 38 18 39 68 40 19 41 73 42 67 43 69 44
REMARK SMILES IDX 20 45 72 46 66 47 65 48 21 50 53 51 33 52 52 53 34 54 37 55
REMARK SMILES IDX 51 56 70 57 35 58 36 59 50 61 71 62 38 63 22 64 23 65 31 66
REMARK SMILES IDX 24 67 30 68 32 69 29 70 25 71 26 72 27 73 28 74 54 75 55 76
REMARK SMILES IDX 63 77 56 78 62 79 64 80 61 81 57 82 58 83 59 84 60 85 39 86
REMARK SMILES IDX 40 87 48 88 41 89 47 90 49 91 46 92 42 93 43 94 44 95 45 96
REMARK H PARENT 3 8 10 30 69 49 37 60
REMARK Flexibility Score: inf
ROOT
ATOM      1  C   UNL A   1      31.711  30.819  26.210  1.00  0.00     0.002 C 
ENDROOT
BRANCH   1   2
ATOM      2  C   UNL A   1      32.404  29.699  26.995  1.00  0.00     0.002 C 
BRANCH   2   3
ATOM      3  C   UNL A   1      31.572  28.453  27.302  1.00  0.00     0.021 C 
BRANCH   3   4
ATOM      4  C   UNL A   1      31.845  27.221  26.440  1.00  0.00     0.116 C 
BRANCH   4   5
ATOM      5  N   UNL A   1      30.939  26.098  26.661  1.00  0.00    -0.352 N 
ATOM      6  O   UNL A   1      30.306  23.948  26.912  1.00  0.00    -0.270 OA
ATOM      7  C   UNL A   1      31.141  24.746  26.498  1.00  0.00     0.251 C 
ATOM      8  H   UNL A   1      30.040  26.347  26.978  1.00  0.00     0.163 HD
BRANCH   7   9
ATOM      9  C   UNL A   1      32.446  24.237  25.984  1.00  0.00     0.067 C 
ATOM     10  C   UNL A   1      33.063  23.165  26.498  1.00  0.00     0.025 C 
ATOM     11  C   UNL A   1      32.733  24.593  24.556  1.00  0.00     0.314 C 
ATOM     12  C   UNL A   1      33.163  22.027  25.584  1.00  0.00     0.020 A 
ATOM     13  O   UNL A   1      32.624  23.447  23.682  1.00  0.00    -0.474 OA
ATOM     14  C   UNL A   1      33.254  20.738  26.122  1.00  0.00     0.034 A 
ATOM     15  C   UNL A   1      32.827  22.200  24.232  1.00  0.00     0.148 A 
ATOM     16  C   UNL A   1      32.939  19.628  25.332  1.00  0.00     0.062 A 
ATOM     17  C   UNL A   1      32.546  21.082  23.430  1.00  0.00     0.103 A 
ATOM     18  Cl  UNL A   1      32.905  18.092  26.126  1.00  0.00    -0.083 Cl
ATOM     19  C   UNL A   1      32.573  19.791  23.986  1.00  0.00     0.082 A 
ATOM     20  Cl  UNL A   1      32.051  21.347  21.785  1.00  0.00    -0.079 Cl
ATOM     21  Cl  UNL A   1      32.068  18.420  23.048  1.00  0.00    -0.081 Cl
BRANCH  11  22
ATOM     22  C   UNL A   1      34.122  25.259  24.440  1.00  0.00     0.429 C 
ATOM     23  F   UNL A   1      34.914  24.602  23.561  1.00  0.00    -0.167 F 
ATOM     24  F   UNL A   1      34.035  26.541  24.006  1.00  0.00    -0.167 F 
ATOM     25  F   UNL A   1      34.781  25.291  25.624  1.00  0.00    -0.167 F 
ENDBRANCH  11  22
ENDBRANCH   7   9
ENDBRANCH   4   5
ENDBRANCH   3   4
ENDBRANCH   2   3
ENDBRANCH   1   2
BRANCH   1  26
ATOM     26  C   UNL A   1      31.553  32.173  26.911  1.00  0.00     0.021 C 
BRANCH  26  27
ATOM     27  C   UNL A   1      32.838  32.951  27.194  1.00  0.00     0.116 C 
BRANCH  27  28
ATOM     28  N   UNL A   1      32.598  34.224  27.847  1.00  0.00    -0.352 N 
ATOM     29  C   UNL A   1      33.189  34.781  28.957  1.00  0.00     0.251 C 
ATOM     30  H   UNL A   1      31.900  34.778  27.428  1.00  0.00     0.163 HD
ATOM     31  O   UNL A   1      32.724  35.817  29.418  1.00  0.00    -0.269 OA
BRANCH  29  32
ATOM     32  C   UNL A   1      34.354  34.136  29.613  1.00  0.00     0.039 A 
ATOM     33  C   UNL A   1      34.115  33.221  30.644  1.00  0.00     0.014 A 
ATOM     34  C   UNL A   1      35.670  34.455  29.266  1.00  0.00     0.014 A 
ATOM     35  C   UNL A   1      35.185  32.593  31.287  1.00  0.00     0.010 A 
ATOM     36  C   UNL A   1      36.736  33.779  29.865  1.00  0.00     0.010 A 
ATOM     37  C   UNL A   1      36.506  32.845  30.886  1.00  0.00    -0.014 A 
BRANCH  37  38
ATOM     38  C   UNL A   1      37.651  32.149  31.535  1.00  0.00     0.031 A 
ATOM     39  C   UNL A   1      38.139  32.588  32.889  1.00  0.00     0.074 A 
ATOM     40  C   UNL A   1      38.283  31.153  30.884  1.00  0.00     0.049 A 
ATOM     41  N   UNL A   1      39.156  32.151  33.588  1.00  0.00    -0.248 NA
ATOM     42  C   UNL A   1      37.396  33.684  33.528  1.00  0.00     0.031 C 
ATOM     43  C   UNL A   1      37.929  30.660  29.551  1.00  0.00     0.029 A 
ATOM     44  N   UNL A   1      39.361  30.383  31.246  1.00  0.00    -0.354 N 
ATOM     45  C   UNL A   1      39.183  32.922  34.745  1.00  0.00     0.074 A 
ATOM     46  C   UNL A   1      38.116  33.896  34.620  1.00  0.00     0.031 C 
ATOM     47  C   UNL A   1      38.762  29.662  29.217  1.00  0.00     0.029 A 
ATOM     48  C   UNL A   1      39.736  29.471  30.287  1.00  0.00     0.049 A 
ATOM     49  H   UNL A   1      39.821  30.475  32.112  1.00  0.00     0.167 HD
ATOM     50  C   UNL A   1      40.002  32.814  35.822  1.00  0.00     0.034 A 
ATOM     51  C   UNL A   1      40.757  28.591  30.263  1.00  0.00     0.034 A 
ATOM     52  C   UNL A   1      41.060  31.836  35.931  1.00  0.00     0.049 A 
ATOM     53  C   UNL A   1      41.676  28.506  31.455  1.00  0.00     0.074 A 
ATOM     54  C   UNL A   1      41.920  31.609  36.991  1.00  0.00     0.029 A 
ATOM     55  N   UNL A   1      41.411  30.929  34.938  1.00  0.00    -0.354 N 
ATOM     56  N   UNL A   1      41.660  29.213  32.563  1.00  0.00    -0.248 NA
ATOM     57  C   UNL A   1      42.742  27.498  31.398  1.00  0.00     0.031 C 
ATOM     58  C   UNL A   1      42.832  30.616  36.616  1.00  0.00     0.029 A 
ATOM     59  C   UNL A   1      42.494  30.164  35.350  1.00  0.00     0.049 A 
ATOM     60  H   UNL A   1      40.958  30.842  34.068  1.00  0.00     0.167 HD
ATOM     61  C   UNL A   1      42.699  28.714  33.345  1.00  0.00     0.074 A 
ATOM     62  C   UNL A   1      43.308  27.639  32.589  1.00  0.00     0.031 C 
ATOM     63  C   UNL A   1      43.107  29.106  34.579  1.00  0.00     0.034 A 
BRANCH  50  64
ATOM     64  C   UNL A   1      39.797  33.801  36.949  1.00  0.00     0.023 A 
ATOM     65  C   UNL A   1      39.258  33.407  38.187  1.00  0.00     0.031 A 
ATOM     66  C   UNL A   1      40.103  35.162  36.773  1.00  0.00     0.131 A 
ATOM     67  C   UNL A   1      38.956  34.370  39.162  1.00  0.00     0.055 A 
ATOM     68  C   UNL A   1      39.884  36.104  37.783  1.00  0.00     0.041 A 
ATOM     69  F   UNL A   1      40.603  35.607  35.610  1.00  0.00    -0.206 F 
ATOM     70  C   UNL A   1      39.289  35.713  38.978  1.00  0.00     0.022 A 
BRANCH  67  71
ATOM     71  S   UNL A   1      37.970  33.866  40.598  1.00  0.00     0.124 S 
ATOM     72  O   UNL A   1      36.966  33.002  39.979  1.00  0.00    -0.237 OA
ATOM     73  O   UNL A   1      38.954  33.200  41.440  1.00  0.00    -0.237 OA
ATOM     74  O   UNL A   1      37.453  35.131  41.120  1.00  0.00    -0.744 OA
ENDBRANCH  67  71
ENDBRANCH  50  64
BRANCH  51  75
ATOM     75  C   UNL A   1      40.976  27.731  29.066  1.00  0.00     0.023 A 
ATOM     76  C   UNL A   1      41.966  28.039  28.120  1.00  0.00     0.031 A 
ATOM     77  C   UNL A   1      40.178  26.595  28.840  1.00  0.00     0.131 A 
ATOM     78  C   UNL A   1      42.110  27.242  26.974  1.00  0.00     0.055 A 
ATOM     79  C   UNL A   1      40.357  25.777  27.724  1.00  0.00     0.041 A 
ATOM     80  F   UNL A   1      39.219  26.254  29.716  1.00  0.00    -0.206 F 
ATOM     81  C   UNL A   1      41.321  26.106  26.776  1.00  0.00     0.022 A 
BRANCH  78  82
ATOM     82  S   UNL A   1      43.300  27.752  25.703  1.00  0.00     0.124 S 
ATOM     83  O   UNL A   1      42.425  28.028  24.570  1.00  0.00    -0.237 OA
ATOM     84  O   UNL A   1      43.929  28.912  26.325  1.00  0.00    -0.237 OA
ATOM     85  O   UNL A   1      44.163  26.582  25.556  1.00  0.00    -0.744 OA
ENDBRANCH  78  82
ENDBRANCH  51  75
BRANCH  63  86
ATOM     86  C   UNL A   1      44.247  28.336  35.201  1.00  0.00     0.023 A 
ATOM     87  C   UNL A   1      44.028  27.176  35.966  1.00  0.00     0.031 A 
ATOM     88  C   UNL A   1      45.571  28.777  35.034  1.00  0.00     0.131 A 
ATOM     89  C   UNL A   1      45.112  26.530  36.582  1.00  0.00     0.055 A 
ATOM     90  C   UNL A   1      46.651  28.097  35.600  1.00  0.00     0.041 A 
ATOM     91  F   UNL A   1      45.840  29.880  34.316  1.00  0.00    -0.206 F 
ATOM     92  C   UNL A   1      46.423  26.973  36.389  1.00  0.00     0.022 A 
BRANCH  89  93
ATOM     93  S   UNL A   1      44.777  25.153  37.714  1.00  0.00     0.124 S 
ATOM     94  O   UNL A   1      46.039  24.419  37.679  1.00  0.00    -0.237 OA
ATOM     95  O   UNL A   1      44.475  25.841  38.964  1.00  0.00    -0.237 OA
ATOM     96  O   UNL A   1      43.644  24.467  37.095  1.00  0.00    -0.744 OA
ENDBRANCH  89  93
ENDBRANCH  63  86
ENDBRANCH  37  38
ENDBRANCH  29  32
ENDBRANCH  27  28
ENDBRANCH  26  27
ENDBRANCH   1  26
TORSDOF 17
ENDMDL
