MODEL 1
REMARK VINA RESULT:      -8.9      0.000      0.000
REMARK SMILES COc1cc(/C=C/c2nc3sc4c(c3c(=O)[nH]2)CCCC4)ccc1OCC(=O)NCCCCCCNC(=O)c1ccc(-c2c3nc(c(-c4cc(S(=O)(=O)[O-])ccc4F)c4ccc([nH]4)c(-c4cc(S(=O)(=O)[O-])ccc4F)c4nc(c(-c5cc(S(=O)(=O)[O-])ccc5F)c5ccc2[nH]5)C=C4)C=C3)cc1
REMARK SMILES IDX 32 1 31 2 30 3 29 4 27 5 28 6 26 8 25 9 24 10 3 11 4 12 5 13
REMARK SMILES IDX 23 14 22 15 2 16 1 17 6 18 7 19 8 20 9 21 17 22 10 23 15 24
REMARK SMILES IDX 11 26 14 27 16 28 12 29 13 30 21 31 18 32 20 33 19 34 33 35
REMARK SMILES IDX 34 36 35 37 36 38 37 39 38 41 39 42 40 43 101 44 41 45
REMARK SMILES IDX 100 46 42 47 43 48 44 49 94 50 45 51 99 52 93 53 95 54 46 55
REMARK SMILES IDX 98 56 92 57 91 58 47 60 79 61 59 62 78 63 60 64 63 65 77 66
REMARK SMILES IDX 96 67 61 68 62 69 76 71 97 72 64 73 48 74 49 75 57 76 50 77
REMARK SMILES IDX 56 78 58 79 55 80 51 81 52 82 53 83 54 84 80 85 81 86 89 87
REMARK SMILES IDX 82 88 88 89 90 90 87 91 83 92 84 93 85 94 86 95 65 96 66 97
REMARK SMILES IDX 74 98 67 99 73 100 75 101 72 102 68 103 69 104 70 105 71 106
REMARK H PARENT 29 7 17 25 36 40 95 59 63 70
REMARK Flexibility Score: inf
ROOT
ATOM      1  C   UNL A   1      42.422  27.055  29.876  1.00  0.00     0.002 C 
ENDROOT
BRANCH   1   2
ATOM      2  C   UNL A   1      43.660  27.465  29.070  1.00  0.00     0.021 C 
BRANCH   2   3
ATOM      3  C   UNL A   1      44.589  26.322  28.671  1.00  0.00     0.116 C 
BRANCH   3   4
ATOM      4  N   UNL A   1      44.890  26.319  27.256  1.00  0.00    -0.353 N 
ATOM      5  C   UNL A   1      44.111  25.878  26.228  1.00  0.00     0.257 C 
ATOM      6  O   UNL A   1      44.436  26.200  25.082  1.00  0.00    -0.271 OA
ATOM      7  H   UNL A   1      45.770  26.680  27.004  1.00  0.00     0.163 HD
BRANCH   5   8
ATOM      8  C   UNL A   1      42.832  25.081  26.519  1.00  0.00     0.329 C 
BRANCH   8   9
ATOM      9  O   UNL A   1      41.608  25.549  25.980  1.00  0.00    -0.480 OA
BRANCH   9  10
ATOM     10  C   UNL A   1      40.828  26.435  26.666  1.00  0.00     0.161 A 
ATOM     11  C   UNL A   1      39.788  26.174  27.559  1.00  0.00     0.161 A 
ATOM     12  C   UNL A   1      39.053  27.237  28.114  1.00  0.00     0.058 A 
ATOM     13  C   UNL A   1      39.346  28.577  27.804  1.00  0.00    -0.022 A 
ATOM     14  C   UNL A   1      41.127  27.770  26.362  1.00  0.00     0.051 A 
ATOM     15  C   UNL A   1      40.401  28.827  26.921  1.00  0.00     0.012 A 
BRANCH  11  16
ATOM     16  O   UNL A   1      39.360  24.891  27.774  1.00  0.00    -0.493 OA
ATOM     17  C   UNL A   1      38.551  24.387  26.711  1.00  0.00     0.278 C 
ENDBRANCH  11  16
BRANCH  13  18
ATOM     18  C   UNL A   1      38.514  29.709  28.265  1.00  0.00     0.012 C 
ATOM     19  C   UNL A   1      37.621  29.625  29.263  1.00  0.00     0.048 C 
BRANCH  19  20
ATOM     20  C   UNL A   1      36.709  30.710  29.705  1.00  0.00     0.134 A 
ATOM     21  N   UNL A   1      36.213  31.523  28.823  1.00  0.00    -0.220 NA
ATOM     22  N   UNL A   1      36.524  30.843  31.062  1.00  0.00    -0.306 N 
ATOM     23  C   UNL A   1      35.469  32.536  29.336  1.00  0.00     0.131 A 
ATOM     24  C   UNL A   1      35.812  31.880  31.635  1.00  0.00     0.260 A 
ATOM     25  H   UNL A   1      36.919  30.164  31.656  1.00  0.00     0.171 HD
ATOM     26  S   UNL A   1      34.709  33.674  28.319  1.00  0.00    -0.120 S 
ATOM     27  C   UNL A   1      35.239  32.800  30.670  1.00  0.00     0.080 A 
ATOM     28  O   UNL A   1      35.705  31.999  32.848  1.00  0.00    -0.269 OA
ATOM     29  C   UNL A   1      34.090  34.535  29.648  1.00  0.00     0.011 A 
ATOM     30  C   UNL A   1      34.463  33.989  30.864  1.00  0.00    -0.019 A 
ATOM     31  C   UNL A   1      33.264  35.771  29.470  1.00  0.00     0.047 C 
ATOM     32  C   UNL A   1      34.040  34.601  32.169  1.00  0.00     0.037 C 
ATOM     33  C   UNL A   1      32.537  36.117  30.776  1.00  0.00     0.006 C 
ATOM     34  C   UNL A   1      33.479  36.023  31.985  1.00  0.00     0.005 C 
ENDBRANCH  19  20
ENDBRANCH  13  18
ENDBRANCH   9  10
ENDBRANCH   8   9
ENDBRANCH   5   8
ENDBRANCH   3   4
ENDBRANCH   2   3
ENDBRANCH   1   2
BRANCH   1  35
ATOM     35  C   UNL A   1      41.773  28.159  30.717  1.00  0.00     0.002 C 
BRANCH  35  36
ATOM     36  C   UNL A   1      40.409  27.819  31.316  1.00  0.00     0.021 C 
BRANCH  36  37
ATOM     37  C   UNL A   1      40.325  27.946  32.831  1.00  0.00     0.116 C 
BRANCH  37  38
ATOM     38  N   UNL A   1      39.273  28.856  33.246  1.00  0.00    -0.352 N 
ATOM     39  C   UNL A   1      39.266  30.229  33.234  1.00  0.00     0.251 C 
ATOM     40  H   UNL A   1      38.450  28.430  33.582  1.00  0.00     0.163 HD
ATOM     41  O   UNL A   1      38.373  30.842  33.812  1.00  0.00    -0.269 OA
BRANCH  39  42
ATOM     42  C   UNL A   1      40.358  30.959  32.550  1.00  0.00     0.039 A 
ATOM     43  C   UNL A   1      41.516  31.269  33.262  1.00  0.00     0.014 A 
ATOM     44  C   UNL A   1      40.242  31.323  31.204  1.00  0.00     0.014 A 
ATOM     45  C   UNL A   1      42.585  31.888  32.609  1.00  0.00     0.010 A 
ATOM     46  C   UNL A   1      41.337  31.861  30.535  1.00  0.00     0.010 A 
ATOM     47  C   UNL A   1      42.519  32.156  31.231  1.00  0.00    -0.014 A 
BRANCH  47  48
ATOM     48  C   UNL A   1      43.673  32.751  30.507  1.00  0.00     0.031 A 
ATOM     49  C   UNL A   1      43.618  34.182  30.046  1.00  0.00     0.074 A 
ATOM     50  C   UNL A   1      44.746  31.989  30.218  1.00  0.00     0.049 A 
ATOM     51  N   UNL A   1      44.495  34.863  29.353  1.00  0.00    -0.248 NA
ATOM     52  C   UNL A   1      42.403  34.937  30.384  1.00  0.00     0.031 C 
ATOM     53  C   UNL A   1      44.900  30.578  30.580  1.00  0.00     0.029 A 
ATOM     54  N   UNL A   1      45.909  32.287  29.554  1.00  0.00    -0.354 N 
ATOM     55  C   UNL A   1      43.934  36.123  29.166  1.00  0.00     0.074 A 
ATOM     56  C   UNL A   1      42.612  36.081  29.754  1.00  0.00     0.031 C 
ATOM     57  C   UNL A   1      46.102  30.146  30.167  1.00  0.00     0.029 A 
ATOM     58  C   UNL A   1      46.783  31.228  29.462  1.00  0.00     0.049 A 
ATOM     59  H   UNL A   1      46.100  33.177  29.177  1.00  0.00     0.167 HD
ATOM     60  C   UNL A   1      44.481  37.218  28.581  1.00  0.00     0.034 A 
ATOM     61  C   UNL A   1      47.989  31.135  28.869  1.00  0.00     0.034 A 
ATOM     62  C   UNL A   1      45.802  37.239  27.999  1.00  0.00     0.049 A 
ATOM     63  C   UNL A   1      48.558  32.349  28.180  1.00  0.00     0.074 A 
ATOM     64  C   UNL A   1      46.474  38.304  27.425  1.00  0.00     0.029 A 
ATOM     65  N   UNL A   1      46.649  36.140  27.904  1.00  0.00    -0.354 N 
ATOM     66  N   UNL A   1      48.036  33.548  28.054  1.00  0.00    -0.248 NA
ATOM     67  C   UNL A   1      49.881  32.200  27.562  1.00  0.00     0.031 C 
ATOM     68  C   UNL A   1      47.685  37.831  26.908  1.00  0.00     0.029 A 
ATOM     69  C   UNL A   1      47.816  36.493  27.243  1.00  0.00     0.049 A 
ATOM     70  H   UNL A   1      46.448  35.242  28.255  1.00  0.00     0.167 HD
ATOM     71  C   UNL A   1      48.984  34.305  27.371  1.00  0.00     0.074 A 
ATOM     72  C   UNL A   1      50.112  33.429  27.125  1.00  0.00     0.031 C 
ATOM     73  C   UNL A   1      48.931  35.608  26.988  1.00  0.00     0.034 A 
BRANCH  60  74
ATOM     74  C   UNL A   1      43.631  38.468  28.517  1.00  0.00     0.023 A 
ATOM     75  C   UNL A   1      43.632  39.417  29.555  1.00  0.00     0.031 A 
ATOM     76  C   UNL A   1      42.775  38.694  27.424  1.00  0.00     0.131 A 
ATOM     77  C   UNL A   1      42.731  40.492  29.524  1.00  0.00     0.055 A 
ATOM     78  C   UNL A   1      41.950  39.818  27.355  1.00  0.00     0.041 A 
ATOM     79  F   UNL A   1      42.709  37.814  26.412  1.00  0.00    -0.206 F 
ATOM     80  C   UNL A   1      41.910  40.715  28.418  1.00  0.00     0.022 A 
BRANCH  77  81
ATOM     81  S   UNL A   1      42.521  41.486  31.027  1.00  0.00     0.124 S 
ATOM     82  O   UNL A   1      43.418  40.804  31.958  1.00  0.00    -0.237 OA
ATOM     83  O   UNL A   1      42.940  42.811  30.591  1.00  0.00    -0.237 OA
ATOM     84  O   UNL A   1      41.098  41.349  31.333  1.00  0.00    -0.744 OA
ENDBRANCH  77  81
ENDBRANCH  60  74
BRANCH  61  85
ATOM     85  C   UNL A   1      48.741  29.847  28.891  1.00  0.00     0.023 A 
ATOM     86  C   UNL A   1      48.601  28.908  27.856  1.00  0.00     0.031 A 
ATOM     87  C   UNL A   1      49.590  29.521  29.966  1.00  0.00     0.131 A 
ATOM     88  C   UNL A   1      49.264  27.674  27.936  1.00  0.00     0.055 A 
ATOM     89  C   UNL A   1      50.292  28.316  30.012  1.00  0.00     0.041 A 
ATOM     90  F   UNL A   1      49.762  30.383  30.981  1.00  0.00    -0.206 F 
ATOM     91  C   UNL A   1      50.122  27.378  28.999  1.00  0.00     0.022 A 
BRANCH  88  92
ATOM     92  S   UNL A   1      48.926  26.422  26.669  1.00  0.00     0.124 S 
ATOM     93  O   UNL A   1      47.573  26.776  26.257  1.00  0.00    -0.237 OA
ATOM     94  O   UNL A   1      49.982  26.681  25.697  1.00  0.00    -0.237 OA
ATOM     95  O   UNL A   1      49.047  25.160  27.396  1.00  0.00    -0.744 OA
ENDBRANCH  88  92
ENDBRANCH  61  85
BRANCH  73  96
ATOM     96  C   UNL A   1      50.151  36.176  26.302  1.00  0.00     0.023 A 
ATOM     97  C   UNL A   1      51.176  36.817  27.018  1.00  0.00     0.031 A 
ATOM     98  C   UNL A   1      50.281  36.081  24.904  1.00  0.00     0.131 A 
ATOM     99  C   UNL A   1      52.257  37.389  26.330  1.00  0.00     0.055 A 
ATOM    100  C   UNL A   1      51.394  36.590  24.232  1.00  0.00     0.041 A 
ATOM    101  F   UNL A   1      49.332  35.486  24.167  1.00  0.00    -0.206 F 
ATOM    102  C   UNL A   1      52.383  37.262  24.944  1.00  0.00     0.022 A 
BRANCH  99 103
ATOM    103  S   UNL A   1      53.445  38.397  27.259  1.00  0.00     0.124 S 
ATOM    104  O   UNL A   1      53.684  37.573  28.439  1.00  0.00    -0.237 OA
ATOM    105  O   UNL A   1      54.560  38.510  26.323  1.00  0.00    -0.237 OA
ATOM    106  O   UNL A   1      52.719  39.641  27.509  1.00  0.00    -0.744 OA
ENDBRANCH  99 103
ENDBRANCH  73  96
ENDBRANCH  47  48
ENDBRANCH  39  42
ENDBRANCH  37  38
ENDBRANCH  36  37
ENDBRANCH  35  36
ENDBRANCH   1  35
TORSDOF 21
ENDMDL
MODEL 2
REMARK VINA RESULT:      -8.5      1.722      7.267
REMARK SMILES COc1cc(/C=C/c2nc3sc4c(c3c(=O)[nH]2)CCCC4)ccc1OCC(=O)NCCCCCCNC(=O)c1ccc(-c2c3nc(c(-c4cc(S(=O)(=O)[O-])ccc4F)c4ccc([nH]4)c(-c4cc(S(=O)(=O)[O-])ccc4F)c4nc(c(-c5cc(S(=O)(=O)[O-])ccc5F)c5ccc2[nH]5)C=C4)C=C3)cc1
REMARK SMILES IDX 32 1 31 2 30 3 29 4 27 5 28 6 26 8 25 9 24 10 3 11 4 12 5 13
REMARK SMILES IDX 23 14 22 15 2 16 1 17 6 18 7 19 8 20 9 21 17 22 10 23 15 24
REMARK SMILES IDX 11 26 14 27 16 28 12 29 13 30 21 31 18 32 20 33 19 34 33 35
REMARK SMILES IDX 34 36 35 37 36 38 37 39 38 41 39 42 40 43 101 44 41 45
REMARK SMILES IDX 100 46 42 47 43 48 44 49 94 50 45 51 99 52 93 53 95 54 46 55
REMARK SMILES IDX 98 56 92 57 91 58 47 60 79 61 59 62 78 63 60 64 63 65 77 66
REMARK SMILES IDX 96 67 61 68 62 69 76 71 97 72 64 73 48 74 49 75 57 76 50 77
REMARK SMILES IDX 56 78 58 79 55 80 51 81 52 82 53 83 54 84 80 85 81 86 89 87
REMARK SMILES IDX 82 88 88 89 90 90 87 91 83 92 84 93 85 94 86 95 65 96 66 97
REMARK SMILES IDX 74 98 67 99 73 100 75 101 72 102 68 103 69 104 70 105 71 106
REMARK H PARENT 29 7 17 25 36 40 95 59 63 70
REMARK Flexibility Score: inf
ROOT
ATOM      1  C   UNL A   1      42.290  27.442  29.828  1.00  0.00     0.002 C 
ENDROOT
BRANCH   1   2
ATOM      2  C   UNL A   1      43.610  27.544  29.053  1.00  0.00     0.021 C 
BRANCH   2   3
ATOM      3  C   UNL A   1      44.095  26.246  28.413  1.00  0.00     0.116 C 
BRANCH   3   4
ATOM      4  N   UNL A   1      44.873  26.475  27.215  1.00  0.00    -0.353 N 
ATOM      5  C   UNL A   1      44.542  26.182  25.925  1.00  0.00     0.257 C 
ATOM      6  O   UNL A   1      45.223  26.689  25.029  1.00  0.00    -0.271 OA
ATOM      7  H   UNL A   1      45.754  26.893  27.349  1.00  0.00     0.163 HD
BRANCH   5   8
ATOM      8  C   UNL A   1      43.312  25.317  25.624  1.00  0.00     0.329 C 
BRANCH   8   9
ATOM      9  O   UNL A   1      42.144  25.952  25.134  1.00  0.00    -0.480 OA
BRANCH   9  10
ATOM     10  C   UNL A   1      41.362  26.717  25.951  1.00  0.00     0.161 A 
ATOM     11  C   UNL A   1      40.347  26.312  26.819  1.00  0.00     0.161 A 
ATOM     12  C   UNL A   1      39.604  27.272  27.530  1.00  0.00     0.058 A 
ATOM     13  C   UNL A   1      39.865  28.648  27.403  1.00  0.00    -0.022 A 
ATOM     14  C   UNL A   1      41.629  28.087  25.830  1.00  0.00     0.051 A 
ATOM     15  C   UNL A   1      40.895  29.041  26.544  1.00  0.00     0.012 A 
BRANCH  11  16
ATOM     16  O   UNL A   1      39.948  25.003  26.862  1.00  0.00    -0.493 OA
ATOM     17  C   UNL A   1      40.653  24.236  27.839  1.00  0.00     0.278 C 
ENDBRANCH  11  16
BRANCH  13  18
ATOM     18  C   UNL A   1      39.022  29.687  28.033  1.00  0.00     0.012 C 
ATOM     19  C   UNL A   1      37.866  29.432  28.667  1.00  0.00     0.048 C 
BRANCH  19  20
ATOM     20  C   UNL A   1      36.950  30.449  29.242  1.00  0.00     0.134 A 
ATOM     21  N   UNL A   1      36.433  31.350  28.465  1.00  0.00    -0.220 NA
ATOM     22  N   UNL A   1      36.783  30.424  30.607  1.00  0.00    -0.306 N 
ATOM     23  C   UNL A   1      35.685  32.289  29.099  1.00  0.00     0.131 A 
ATOM     24  C   UNL A   1      36.068  31.380  31.304  1.00  0.00     0.260 A 
ATOM     25  H   UNL A   1      37.193  29.687  31.115  1.00  0.00     0.171 HD
ATOM     26  S   UNL A   1      34.898  33.527  28.229  1.00  0.00    -0.120 S 
ATOM     27  C   UNL A   1      35.471  32.397  30.458  1.00  0.00     0.080 A 
ATOM     28  O   UNL A   1      35.976  31.359  32.524  1.00  0.00    -0.269 OA
ATOM     29  C   UNL A   1      34.289  34.223  29.656  1.00  0.00     0.011 A 
ATOM     30  C   UNL A   1      34.685  33.547  30.796  1.00  0.00    -0.019 A 
ATOM     31  C   UNL A   1      33.448  35.461  29.630  1.00  0.00     0.047 C 
ATOM     32  C   UNL A   1      34.274  34.001  32.168  1.00  0.00     0.037 C 
ATOM     33  C   UNL A   1      32.736  35.647  30.976  1.00  0.00     0.006 C 
ATOM     34  C   UNL A   1      33.696  35.428  32.154  1.00  0.00     0.005 C 
ENDBRANCH  19  20
ENDBRANCH  13  18
ENDBRANCH   9  10
ENDBRANCH   8   9
ENDBRANCH   5   8
ENDBRANCH   3   4
ENDBRANCH   2   3
ENDBRANCH   1   2
BRANCH   1  35
ATOM     35  C   UNL A   1      41.831  28.718  30.540  1.00  0.00     0.002 C 
BRANCH  35  36
ATOM     36  C   UNL A   1      40.523  28.605  31.322  1.00  0.00     0.021 C 
BRANCH  36  37
ATOM     37  C   UNL A   1      40.536  29.272  32.690  1.00  0.00     0.116 C 
BRANCH  37  38
ATOM     38  N   UNL A   1      39.602  30.381  32.768  1.00  0.00    -0.352 N 
ATOM     39  C   UNL A   1      39.807  31.702  32.455  1.00  0.00     0.251 C 
ATOM     40  H   UNL A   1      38.698  30.154  33.087  1.00  0.00     0.163 HD
ATOM     41  O   UNL A   1      38.971  32.543  32.773  1.00  0.00    -0.269 OA
BRANCH  39  42
ATOM     42  C   UNL A   1      41.053  32.106  31.764  1.00  0.00     0.039 A 
ATOM     43  C   UNL A   1      41.070  32.151  30.370  1.00  0.00     0.014 A 
ATOM     44  C   UNL A   1      42.195  32.452  32.493  1.00  0.00     0.014 A 
ATOM     45  C   UNL A   1      42.214  32.604  29.708  1.00  0.00     0.010 A 
ATOM     46  C   UNL A   1      43.301  32.983  31.837  1.00  0.00     0.010 A 
ATOM     47  C   UNL A   1      43.327  33.059  30.437  1.00  0.00    -0.014 A 
BRANCH  47  48
ATOM     48  C   UNL A   1      44.524  33.609  29.748  1.00  0.00     0.031 A 
ATOM     49  C   UNL A   1      45.691  32.713  29.432  1.00  0.00     0.074 A 
ATOM     50  C   UNL A   1      44.583  34.924  29.456  1.00  0.00     0.049 A 
ATOM     51  N   UNL A   1      46.843  33.014  28.890  1.00  0.00    -0.248 NA
ATOM     52  C   UNL A   1      45.553  31.298  29.802  1.00  0.00     0.031 C 
ATOM     53  C   UNL A   1      43.530  35.900  29.747  1.00  0.00     0.029 A 
ATOM     54  N   UNL A   1      45.566  35.668  28.855  1.00  0.00    -0.354 N 
ATOM     55  C   UNL A   1      47.570  31.828  28.861  1.00  0.00     0.074 A 
ATOM     56  C   UNL A   1      46.753  30.824  29.510  1.00  0.00     0.031 C 
ATOM     57  C   UNL A   1      43.909  37.104  29.289  1.00  0.00     0.029 A 
ATOM     58  C   UNL A   1      45.251  37.001  28.725  1.00  0.00     0.049 A 
ATOM     59  H   UNL A   1      46.419  35.284  28.545  1.00  0.00     0.167 HD
ATOM     60  C   UNL A   1      48.792  31.593  28.322  1.00  0.00     0.034 A 
ATOM     61  C   UNL A   1      45.965  38.027  28.220  1.00  0.00     0.034 A 
ATOM     62  C   UNL A   1      49.592  32.609  27.680  1.00  0.00     0.049 A 
ATOM     63  C   UNL A   1      47.343  37.754  27.671  1.00  0.00     0.074 A 
ATOM     64  C   UNL A   1      50.820  32.473  27.057  1.00  0.00     0.029 A 
ATOM     65  N   UNL A   1      49.250  33.953  27.588  1.00  0.00    -0.354 N 
ATOM     66  N   UNL A   1      47.997  36.617  27.608  1.00  0.00    -0.248 NA
ATOM     67  C   UNL A   1      48.073  38.901  27.119  1.00  0.00     0.031 C 
ATOM     68  C   UNL A   1      51.258  33.743  26.669  1.00  0.00     0.029 A 
ATOM     69  C   UNL A   1      50.262  34.662  26.959  1.00  0.00     0.049 A 
ATOM     70  H   UNL A   1      48.410  34.345  27.922  1.00  0.00     0.167 HD
ATOM     71  C   UNL A   1      49.203  36.908  26.976  1.00  0.00     0.074 A 
ATOM     72  C   UNL A   1      49.177  38.324  26.669  1.00  0.00     0.031 C 
ATOM     73  C   UNL A   1      50.235  36.079  26.671  1.00  0.00     0.034 A 
BRANCH  60  74
ATOM     74  C   UNL A   1      49.344  30.189  28.440  1.00  0.00     0.023 A 
ATOM     75  C   UNL A   1      49.097  29.213  27.457  1.00  0.00     0.031 A 
ATOM     76  C   UNL A   1      50.092  29.808  29.568  1.00  0.00     0.131 A 
ATOM     77  C   UNL A   1      49.509  27.888  27.666  1.00  0.00     0.055 A 
ATOM     78  C   UNL A   1      50.581  28.509  29.723  1.00  0.00     0.041 A 
ATOM     79  F   UNL A   1      50.342  30.685  30.553  1.00  0.00    -0.206 F 
ATOM     80  C   UNL A   1      50.274  27.535  28.779  1.00  0.00     0.022 A 
BRANCH  77  81
ATOM     81  S   UNL A   1      48.874  26.603  26.554  1.00  0.00     0.124 S 
ATOM     82  O   UNL A   1      47.858  25.966  27.390  1.00  0.00    -0.237 OA
ATOM     83  O   UNL A   1      48.378  27.379  25.425  1.00  0.00    -0.237 OA
ATOM     84  O   UNL A   1      50.048  25.777  26.278  1.00  0.00    -0.744 OA
ENDBRANCH  77  81
ENDBRANCH  60  74
BRANCH  61  85
ATOM     85  C   UNL A   1      45.398  39.406  28.213  1.00  0.00     0.023 A 
ATOM     86  C   UNL A   1      44.847  39.957  27.044  1.00  0.00     0.031 A 
ATOM     87  C   UNL A   1      45.426  40.209  29.369  1.00  0.00     0.131 A 
ATOM     88  C   UNL A   1      44.386  41.282  27.045  1.00  0.00     0.055 A 
ATOM     89  C   UNL A   1      44.913  41.506  29.379  1.00  0.00     0.041 A 
ATOM     90  F   UNL A   1      45.940  39.731  30.514  1.00  0.00    -0.206 F 
ATOM     91  C   UNL A   1      44.399  42.055  28.208  1.00  0.00     0.022 A 
BRANCH  88  92
ATOM     92  S   UNL A   1      43.840  42.013  25.478  1.00  0.00     0.124 S 
ATOM     93  O   UNL A   1      44.065  43.433  25.720  1.00  0.00    -0.237 OA
ATOM     94  O   UNL A   1      44.734  41.375  24.518  1.00  0.00    -0.237 OA
ATOM     95  O   UNL A   1      42.439  41.610  25.384  1.00  0.00    -0.744 OA
ENDBRANCH  88  92
ENDBRANCH  61  85
BRANCH  73  96
ATOM     96  C   UNL A   1      51.405  36.678  25.926  1.00  0.00     0.023 A 
ATOM     97  C   UNL A   1      52.321  37.543  26.550  1.00  0.00     0.031 A 
ATOM     98  C   UNL A   1      51.597  36.385  24.564  1.00  0.00     0.131 A 
ATOM     99  C   UNL A   1      53.352  38.128  25.800  1.00  0.00     0.055 A 
ATOM    100  C   UNL A   1      52.667  36.916  23.840  1.00  0.00     0.041 A 
ATOM    101  F   UNL A   1      50.752  35.572  23.913  1.00  0.00    -0.206 F 
ATOM    102  C   UNL A   1      53.543  37.805  24.455  1.00  0.00     0.022 A 
BRANCH  99 103
ATOM    103  S   UNL A   1      54.378  39.405  26.580  1.00  0.00     0.124 S 
ATOM    104  O   UNL A   1      53.492  39.912  27.622  1.00  0.00    -0.237 OA
ATOM    105  O   UNL A   1      55.533  38.640  27.040  1.00  0.00    -0.237 OA
ATOM    106  O   UNL A   1      54.650  40.340  25.489  1.00  0.00    -0.744 OA
ENDBRANCH  99 103
ENDBRANCH  73  96
ENDBRANCH  47  48
ENDBRANCH  39  42
ENDBRANCH  37  38
ENDBRANCH  36  37
ENDBRANCH  35  36
ENDBRANCH   1  35
TORSDOF 21
ENDMDL
MODEL 3
REMARK VINA RESULT:      -8.4      5.017     13.107
REMARK SMILES COc1cc(/C=C/c2nc3sc4c(c3c(=O)[nH]2)CCCC4)ccc1OCC(=O)NCCCCCCNC(=O)c1ccc(-c2c3nc(c(-c4cc(S(=O)(=O)[O-])ccc4F)c4ccc([nH]4)c(-c4cc(S(=O)(=O)[O-])ccc4F)c4nc(c(-c5cc(S(=O)(=O)[O-])ccc5F)c5ccc2[nH]5)C=C4)C=C3)cc1
REMARK SMILES IDX 32 1 31 2 30 3 29 4 27 5 28 6 26 8 25 9 24 10 3 11 4 12 5 13
REMARK SMILES IDX 23 14 22 15 2 16 1 17 6 18 7 19 8 20 9 21 17 22 10 23 15 24
REMARK SMILES IDX 11 26 14 27 16 28 12 29 13 30 21 31 18 32 20 33 19 34 33 35
REMARK SMILES IDX 34 36 35 37 36 38 37 39 38 41 39 42 40 43 101 44 41 45
REMARK SMILES IDX 100 46 42 47 43 48 44 49 94 50 45 51 99 52 93 53 95 54 46 55
REMARK SMILES IDX 98 56 92 57 91 58 47 60 79 61 59 62 78 63 60 64 63 65 77 66
REMARK SMILES IDX 96 67 61 68 62 69 76 71 97 72 64 73 48 74 49 75 57 76 50 77
REMARK SMILES IDX 56 78 58 79 55 80 51 81 52 82 53 83 54 84 80 85 81 86 89 87
REMARK SMILES IDX 82 88 88 89 90 90 87 91 83 92 84 93 85 94 86 95 65 96 66 97
REMARK SMILES IDX 74 98 67 99 73 100 75 101 72 102 68 103 69 104 70 105 71 106
REMARK H PARENT 29 7 17 25 36 40 95 59 63 70
REMARK Flexibility Score: inf
ROOT
ATOM      1  C   UNL A   1      44.818  40.292  33.818  1.00  0.00     0.002 C 
ENDROOT
BRANCH   1   2
ATOM      2  C   UNL A   1      43.375  40.690  33.487  1.00  0.00     0.021 C 
BRANCH   2   3
ATOM      3  C   UNL A   1      43.134  41.147  32.052  1.00  0.00     0.116 C 
BRANCH   3   4
ATOM      4  N   UNL A   1      43.569  42.507  31.821  1.00  0.00    -0.353 N 
ATOM      5  C   UNL A   1      44.734  42.936  31.255  1.00  0.00     0.257 C 
ATOM      6  O   UNL A   1      44.803  44.119  30.911  1.00  0.00    -0.271 OA
ATOM      7  H   UNL A   1      42.947  43.212  32.109  1.00  0.00     0.163 HD
BRANCH   5   8
ATOM      8  C   UNL A   1      45.873  41.942  30.991  1.00  0.00     0.329 C 
BRANCH   8   9
ATOM      9  O   UNL A   1      45.621  40.838  30.139  1.00  0.00    -0.480 OA
BRANCH   9  10
ATOM     10  C   UNL A   1      45.400  41.015  28.803  1.00  0.00     0.161 A 
ATOM     11  C   UNL A   1      46.330  41.199  27.780  1.00  0.00     0.161 A 
ATOM     12  C   UNL A   1      45.892  41.436  26.464  1.00  0.00     0.058 A 
ATOM     13  C   UNL A   1      44.525  41.480  26.139  1.00  0.00    -0.022 A 
ATOM     14  C   UNL A   1      44.037  41.050  28.479  1.00  0.00     0.051 A 
ATOM     15  C   UNL A   1      43.602  41.277  27.169  1.00  0.00     0.012 A 
BRANCH  11  16
ATOM     16  O   UNL A   1      47.664  41.322  28.065  1.00  0.00    -0.493 OA
ATOM     17  C   UNL A   1      48.387  40.103  27.890  1.00  0.00     0.278 C 
ENDBRANCH  11  16
BRANCH  13  18
ATOM     18  C   UNL A   1      44.030  41.854  24.797  1.00  0.00     0.012 C 
ATOM     19  C   UNL A   1      44.735  42.577  23.912  1.00  0.00     0.048 C 
BRANCH  19  20
ATOM     20  C   UNL A   1      44.249  43.043  22.590  1.00  0.00     0.134 A 
ATOM     21  N   UNL A   1      45.053  43.701  21.812  1.00  0.00    -0.220 NA
ATOM     22  N   UNL A   1      42.918  42.826  22.312  1.00  0.00    -0.306 N 
ATOM     23  C   UNL A   1      44.489  44.165  20.669  1.00  0.00     0.131 A 
ATOM     24  C   UNL A   1      42.287  43.315  21.183  1.00  0.00     0.260 A 
ATOM     25  H   UNL A   1      42.388  42.295  22.949  1.00  0.00     0.171 HD
ATOM     26  S   UNL A   1      45.409  45.017  19.513  1.00  0.00    -0.120 S 
ATOM     27  C   UNL A   1      43.167  44.048  20.292  1.00  0.00     0.080 A 
ATOM     28  O   UNL A   1      41.091  43.147  20.986  1.00  0.00    -0.269 OA
ATOM     29  C   UNL A   1      44.050  45.252  18.518  1.00  0.00     0.011 A 
ATOM     30  C   UNL A   1      42.892  44.712  19.051  1.00  0.00    -0.019 A 
ATOM     31  C   UNL A   1      44.141  46.004  17.227  1.00  0.00     0.047 C 
ATOM     32  C   UNL A   1      41.571  44.819  18.345  1.00  0.00     0.037 C 
ATOM     33  C   UNL A   1      42.894  45.744  16.372  1.00  0.00     0.006 C 
ATOM     34  C   UNL A   1      41.609  45.854  17.205  1.00  0.00     0.005 C 
ENDBRANCH  19  20
ENDBRANCH  13  18
ENDBRANCH   9  10
ENDBRANCH   8   9
ENDBRANCH   5   8
ENDBRANCH   3   4
ENDBRANCH   2   3
ENDBRANCH   1   2
BRANCH   1  35
ATOM     35  C   UNL A   1      45.249  38.895  33.362  1.00  0.00     0.002 C 
BRANCH  35  36
ATOM     36  C   UNL A   1      44.127  37.987  32.861  1.00  0.00     0.021 C 
BRANCH  36  37
ATOM     37  C   UNL A   1      44.198  37.638  31.381  1.00  0.00     0.116 C 
BRANCH  37  38
ATOM     38  N   UNL A   1      45.511  37.896  30.820  1.00  0.00    -0.352 N 
ATOM     39  C   UNL A   1      46.369  37.022  30.197  1.00  0.00     0.251 C 
ATOM     40  H   UNL A   1      45.831  38.824  30.895  1.00  0.00     0.163 HD
ATOM     41  O   UNL A   1      47.525  37.361  29.965  1.00  0.00    -0.269 OA
BRANCH  39  42
ATOM     42  C   UNL A   1      45.897  35.665  29.839  1.00  0.00     0.039 A 
ATOM     43  C   UNL A   1      46.119  34.614  30.730  1.00  0.00     0.014 A 
ATOM     44  C   UNL A   1      45.224  35.435  28.635  1.00  0.00     0.014 A 
ATOM     45  C   UNL A   1      45.611  33.345  30.441  1.00  0.00     0.010 A 
ATOM     46  C   UNL A   1      44.647  34.193  28.390  1.00  0.00     0.010 A 
ATOM     47  C   UNL A   1      44.839  33.132  29.287  1.00  0.00    -0.014 A 
BRANCH  47  48
ATOM     48  C   UNL A   1      44.234  31.804  29.001  1.00  0.00     0.031 A 
ATOM     49  C   UNL A   1      42.859  31.475  29.515  1.00  0.00     0.074 A 
ATOM     50  C   UNL A   1      44.942  30.878  28.325  1.00  0.00     0.049 A 
ATOM     51  N   UNL A   1      42.185  30.357  29.421  1.00  0.00    -0.248 NA
ATOM     52  C   UNL A   1      42.164  32.534  30.261  1.00  0.00     0.031 C 
ATOM     53  C   UNL A   1      46.299  31.067  27.806  1.00  0.00     0.029 A 
ATOM     54  N   UNL A   1      44.625  29.595  27.958  1.00  0.00    -0.354 N 
ATOM     55  C   UNL A   1      40.991  30.576  30.101  1.00  0.00     0.074 A 
ATOM     56  C   UNL A   1      41.071  31.907  30.664  1.00  0.00     0.031 C 
ATOM     57  C   UNL A   1      46.681  29.955  27.158  1.00  0.00     0.029 A 
ATOM     58  C   UNL A   1      45.624  28.954  27.261  1.00  0.00     0.049 A 
ATOM     59  H   UNL A   1      43.763  29.170  28.175  1.00  0.00     0.167 HD
ATOM     60  C   UNL A   1      39.919  29.754  30.222  1.00  0.00     0.034 A 
ATOM     61  C   UNL A   1      45.687  27.701  26.770  1.00  0.00     0.034 A 
ATOM     62  C   UNL A   1      39.859  28.428  29.652  1.00  0.00     0.049 A 
ATOM     63  C   UNL A   1      44.504  26.785  26.958  1.00  0.00     0.074 A 
ATOM     64  C   UNL A   1      38.807  27.529  29.671  1.00  0.00     0.029 A 
ATOM     65  N   UNL A   1      40.899  27.804  28.973  1.00  0.00    -0.354 N 
ATOM     66  N   UNL A   1      43.362  27.023  27.562  1.00  0.00    -0.248 NA
ATOM     67  C   UNL A   1      44.616  25.435  26.393  1.00  0.00     0.031 C 
ATOM     68  C   UNL A   1      39.240  26.336  29.083  1.00  0.00     0.029 A 
ATOM     69  C   UNL A   1      40.528  26.519  28.607  1.00  0.00     0.049 A 
ATOM     70  H   UNL A   1      41.773  28.216  28.779  1.00  0.00     0.167 HD
ATOM     71  C   UNL A   1      42.607  25.862  27.417  1.00  0.00     0.074 A 
ATOM     72  C   UNL A   1      43.420  24.933  26.659  1.00  0.00     0.031 C 
ATOM     73  C   UNL A   1      41.353  25.592  27.864  1.00  0.00     0.034 A 
BRANCH  60  74
ATOM     74  C   UNL A   1      38.744  30.260  31.029  1.00  0.00     0.023 A 
ATOM     75  C   UNL A   1      37.766  31.099  30.465  1.00  0.00     0.031 A 
ATOM     76  C   UNL A   1      38.620  29.934  32.392  1.00  0.00     0.131 A 
ATOM     77  C   UNL A   1      36.768  31.658  31.277  1.00  0.00     0.055 A 
ATOM     78  C   UNL A   1      37.568  30.418  33.172  1.00  0.00     0.041 A 
ATOM     79  F   UNL A   1      39.533  29.157  32.996  1.00  0.00    -0.206 F 
ATOM     80  C   UNL A   1      36.645  31.301  32.621  1.00  0.00     0.022 A 
BRANCH  77  81
ATOM     81  S   UNL A   1      35.749  32.995  30.595  1.00  0.00     0.124 S 
ATOM     82  O   UNL A   1      36.148  34.125  31.432  1.00  0.00    -0.237 OA
ATOM     83  O   UNL A   1      36.183  33.044  29.205  1.00  0.00    -0.237 OA
ATOM     84  O   UNL A   1      34.381  32.526  30.807  1.00  0.00    -0.744 OA
ENDBRANCH  77  81
ENDBRANCH  60  74
BRANCH  61  85
ATOM     85  C   UNL A   1      46.911  27.232  26.058  1.00  0.00     0.023 A 
ATOM     86  C   UNL A   1      47.957  26.605  26.753  1.00  0.00     0.031 A 
ATOM     87  C   UNL A   1      47.066  27.431  24.673  1.00  0.00     0.131 A 
ATOM     88  C   UNL A   1      49.129  26.238  26.073  1.00  0.00     0.055 A 
ATOM     89  C   UNL A   1      48.209  27.011  23.991  1.00  0.00     0.041 A 
ATOM     90  F   UNL A   1      46.095  28.023  23.959  1.00  0.00    -0.206 F 
ATOM     91  C   UNL A   1      49.255  26.421  24.693  1.00  0.00     0.022 A 
BRANCH  88  92
ATOM     92  S   UNL A   1      50.524  25.589  27.032  1.00  0.00     0.124 S 
ATOM     93  O   UNL A   1      49.997  24.309  27.491  1.00  0.00    -0.237 OA
ATOM     94  O   UNL A   1      51.579  25.526  26.027  1.00  0.00    -0.237 OA
ATOM     95  O   UNL A   1      50.718  26.594  28.074  1.00  0.00    -0.744 OA
ENDBRANCH  88  92
ENDBRANCH  61  85
BRANCH  73  96
ATOM     96  C   UNL A   1      40.766  24.248  27.502  1.00  0.00     0.023 A 
ATOM     97  C   UNL A   1      39.640  24.127  26.668  1.00  0.00     0.031 A 
ATOM     98  C   UNL A   1      41.340  23.068  28.010  1.00  0.00     0.131 A 
ATOM     99  C   UNL A   1      39.090  22.862  26.415  1.00  0.00     0.055 A 
ATOM    100  C   UNL A   1      40.830  21.807  27.696  1.00  0.00     0.041 A 
ATOM    101  F   UNL A   1      42.412  23.120  28.815  1.00  0.00    -0.206 F 
ATOM    102  C   UNL A   1      39.690  21.699  26.906  1.00  0.00     0.022 A 
BRANCH  99 103
ATOM    103  S   UNL A   1      37.515  22.760  25.521  1.00  0.00     0.124 S 
ATOM    104  O   UNL A   1      37.434  21.337  25.211  1.00  0.00    -0.237 OA
ATOM    105  O   UNL A   1      36.561  23.253  26.510  1.00  0.00    -0.237 OA
ATOM    106  O   UNL A   1      37.718  23.635  24.368  1.00  0.00    -0.744 OA
ENDBRANCH  99 103
ENDBRANCH  73  96
ENDBRANCH  47  48
ENDBRANCH  39  42
ENDBRANCH  37  38
ENDBRANCH  36  37
ENDBRANCH  35  36
ENDBRANCH   1  35
TORSDOF 21
ENDMDL
