MODEL 1
REMARK VINA RESULT:     -11.7      0.000      0.000
REMARK SMILES O=C(Cc1ccc(-c2ccn(C(F)F)c(=O)c2)cc1)NCCCCCCNC(=O)c1ccc(-c2c3nc(c(-c4cc(S(=O)(=O)[O-])ccc4F)c4ccc([nH]4)c(-c4cc(S(=O)(=O)[O-])ccc4F)c4nc(c(-c5cc(S(=O)(=O)[O-])ccc5F)c5ccc2[nH]5)C=C4)C=C3)cc1
REMARK SMILES IDX 23 1 22 2 21 3 20 4 1 5 2 6 3 8 4 9 5 10 19 11 6 12 18 13
REMARK SMILES IDX 7 14 8 15 9 16 17 17 10 18 15 19 11 20 16 21 12 22 13 23
REMARK SMILES IDX 14 24 24 25 25 26 26 27 27 28 28 29 29 31 30 32 31 33 92 34
REMARK SMILES IDX 32 35 91 36 33 37 34 38 35 39 85 40 36 41 90 42 84 43 86 44
REMARK SMILES IDX 37 45 89 46 83 47 82 48 38 50 70 51 50 52 69 53 51 54 54 55
REMARK SMILES IDX 68 56 87 57 52 58 53 59 67 61 88 62 55 63 39 64 40 65 48 66
REMARK SMILES IDX 41 67 47 68 49 69 46 70 42 71 43 72 44 73 45 74 71 75 72 76
REMARK SMILES IDX 80 77 73 78 79 79 81 80 78 81 74 82 75 83 76 84 77 85 56 86
REMARK SMILES IDX 57 87 65 88 58 89 64 90 66 91 63 92 59 93 60 94 61 95 62 96
REMARK H PARENT 20 7 27 30 86 49 54 60
REMARK Flexibility Score: inf
ROOT
ATOM      1  C   UNL A   1      34.878  29.243  26.927  1.00  0.00     0.002 C 
ENDROOT
BRANCH   1   2
ATOM      2  C   UNL A   1      33.636  28.707  26.200  1.00  0.00     0.021 C 
BRANCH   2   3
ATOM      3  C   UNL A   1      33.784  28.583  24.686  1.00  0.00     0.116 C 
BRANCH   3   4
ATOM      4  N   UNL A   1      32.702  27.811  24.112  1.00  0.00    -0.356 N 
ATOM      5  O   UNL A   1      33.576  27.653  21.990  1.00  0.00    -0.275 OA
ATOM      6  C   UNL A   1      32.718  27.351  22.812  1.00  0.00     0.224 C 
ATOM      7  H   UNL A   1      31.921  27.604  24.675  1.00  0.00     0.163 HD
BRANCH   6   8
ATOM      8  C   UNL A   1      31.568  26.408  22.498  1.00  0.00     0.135 C 
BRANCH   8   9
ATOM      9  C   UNL A   1      31.859  24.945  22.766  1.00  0.00    -0.039 A 
ATOM     10  C   UNL A   1      31.056  24.242  23.679  1.00  0.00     0.005 A 
ATOM     11  C   UNL A   1      32.943  24.274  22.184  1.00  0.00     0.005 A 
ATOM     12  C   UNL A   1      31.308  22.896  23.969  1.00  0.00     0.009 A 
ATOM     13  C   UNL A   1      33.198  22.934  22.474  1.00  0.00     0.009 A 
ATOM     14  C   UNL A   1      32.376  22.232  23.358  1.00  0.00    -0.018 A 
BRANCH  14  15
ATOM     15  C   UNL A   1      32.646  20.801  23.581  1.00  0.00    -0.011 A 
ATOM     16  C   UNL A   1      33.491  20.320  24.655  1.00  0.00     0.027 A 
ATOM     17  C   UNL A   1      32.180  19.928  22.670  1.00  0.00     0.080 A 
ATOM     18  C   UNL A   1      33.856  19.033  24.706  1.00  0.00     0.095 A 
ATOM     19  C   UNL A   1      32.545  18.487  22.737  1.00  0.00     0.255 A 
ATOM     20  N   UNL A   1      33.409  18.130  23.759  1.00  0.00    -0.258 N 
ATOM     21  O   UNL A   1      32.085  17.727  21.891  1.00  0.00    -0.269 OA
BRANCH  20  22
ATOM     22  C   UNL A   1      33.858  16.763  23.784  1.00  0.00     0.451 C 
ATOM     23  F   UNL A   1      35.005  16.634  24.495  1.00  0.00    -0.185 F 
ATOM     24  F   UNL A   1      32.924  15.956  24.345  1.00  0.00    -0.185 F 
ENDBRANCH  20  22
ENDBRANCH  14  15
ENDBRANCH   8   9
ENDBRANCH   6   8
ENDBRANCH   3   4
ENDBRANCH   2   3
ENDBRANCH   1   2
BRANCH   1  25
ATOM     25  C   UNL A   1      34.625  30.397  27.902  1.00  0.00     0.002 C 
BRANCH  25  26
ATOM     26  C   UNL A   1      34.143  31.697  27.258  1.00  0.00     0.021 C 
BRANCH  26  27
ATOM     27  C   UNL A   1      32.723  32.114  27.629  1.00  0.00     0.116 C 
BRANCH  27  28
ATOM     28  N   UNL A   1      32.574  33.557  27.735  1.00  0.00    -0.352 N 
ATOM     29  C   UNL A   1      33.239  34.436  28.555  1.00  0.00     0.251 C 
ATOM     30  H   UNL A   1      31.904  33.959  27.137  1.00  0.00     0.163 HD
ATOM     31  O   UNL A   1      32.861  35.603  28.633  1.00  0.00    -0.269 OA
BRANCH  29  32
ATOM     32  C   UNL A   1      34.387  33.965  29.363  1.00  0.00     0.039 A 
ATOM     33  C   UNL A   1      34.155  33.075  30.415  1.00  0.00     0.014 A 
ATOM     34  C   UNL A   1      35.688  34.383  29.072  1.00  0.00     0.014 A 
ATOM     35  C   UNL A   1      35.236  32.553  31.131  1.00  0.00     0.010 A 
ATOM     36  C   UNL A   1      36.767  33.802  29.735  1.00  0.00     0.010 A 
ATOM     37  C   UNL A   1      36.554  32.880  30.771  1.00  0.00    -0.014 A 
BRANCH  37  38
ATOM     38  C   UNL A   1      37.718  32.267  31.466  1.00  0.00     0.031 A 
ATOM     39  C   UNL A   1      38.471  31.134  30.824  1.00  0.00     0.074 A 
ATOM     40  C   UNL A   1      38.057  32.689  32.700  1.00  0.00     0.049 A 
ATOM     41  N   UNL A   1      39.466  30.426  31.297  1.00  0.00    -0.248 NA
ATOM     42  C   UNL A   1      38.027  30.725  29.484  1.00  0.00     0.031 C 
ATOM     43  C   UNL A   1      37.378  33.751  33.445  1.00  0.00     0.029 A 
ATOM     44  N   UNL A   1      39.051  32.272  33.550  1.00  0.00    -0.354 N 
ATOM     45  C   UNL A   1      39.758  29.481  30.319  1.00  0.00     0.074 A 
ATOM     46  C   UNL A   1      38.788  29.666  29.259  1.00  0.00     0.031 C 
ATOM     47  C   UNL A   1      37.992  33.921  34.626  1.00  0.00     0.029 A 
ATOM     48  C   UNL A   1      39.073  32.947  34.749  1.00  0.00     0.049 A 
ATOM     49  H   UNL A   1      39.689  31.557  33.324  1.00  0.00     0.167 HD
ATOM     50  C   UNL A   1      40.757  28.563  30.295  1.00  0.00     0.034 A 
ATOM     51  C   UNL A   1      39.862  32.792  35.831  1.00  0.00     0.034 A 
ATOM     52  C   UNL A   1      41.715  28.394  31.363  1.00  0.00     0.049 A 
ATOM     53  C   UNL A   1      40.939  31.739  35.803  1.00  0.00     0.074 A 
ATOM     54  C   UNL A   1      42.797  27.533  31.421  1.00  0.00     0.029 A 
ATOM     55  N   UNL A   1      41.699  29.090  32.566  1.00  0.00    -0.354 N 
ATOM     56  N   UNL A   1      41.239  30.889  34.847  1.00  0.00    -0.248 NA
ATOM     57  C   UNL A   1      41.793  31.632  36.993  1.00  0.00     0.031 C 
ATOM     58  C   UNL A   1      43.382  27.648  32.687  1.00  0.00     0.029 A 
ATOM     59  C   UNL A   1      42.727  28.648  33.387  1.00  0.00     0.049 A 
ATOM     60  H   UNL A   1      41.052  29.794  32.802  1.00  0.00     0.167 HD
ATOM     61  C   UNL A   1      42.336  30.167  35.312  1.00  0.00     0.074 A 
ATOM     62  C   UNL A   1      42.652  30.693  36.624  1.00  0.00     0.031 C 
ATOM     63  C   UNL A   1      43.024  29.167  34.703  1.00  0.00     0.034 A 
BRANCH  50  64
ATOM     64  C   UNL A   1      40.835  27.653  29.089  1.00  0.00     0.023 A 
ATOM     65  C   UNL A   1      41.782  27.856  28.070  1.00  0.00     0.031 A 
ATOM     66  C   UNL A   1      39.924  26.592  28.934  1.00  0.00     0.131 A 
ATOM     67  C   UNL A   1      41.737  27.077  26.903  1.00  0.00     0.055 A 
ATOM     68  C   UNL A   1      39.947  25.759  27.813  1.00  0.00     0.041 A 
ATOM     69  F   UNL A   1      38.982  26.359  29.860  1.00  0.00    -0.206 F 
ATOM     70  C   UNL A   1      40.844  26.011  26.780  1.00  0.00     0.022 A 
BRANCH  67  71
ATOM     71  S   UNL A   1      42.741  27.591  25.482  1.00  0.00     0.124 S 
ATOM     72  O   UNL A   1      44.036  27.839  26.111  1.00  0.00    -0.237 OA
ATOM     73  O   UNL A   1      42.669  26.427  24.607  1.00  0.00    -0.237 OA
ATOM     74  O   UNL A   1      42.056  28.786  24.993  1.00  0.00    -0.744 OA
ENDBRANCH  67  71
ENDBRANCH  50  64
BRANCH  51  75
ATOM     75  C   UNL A   1      39.656  33.645  37.039  1.00  0.00     0.023 A 
ATOM     76  C   UNL A   1      39.150  33.104  38.231  1.00  0.00     0.031 A 
ATOM     77  C   UNL A   1      39.939  35.022  37.008  1.00  0.00     0.131 A 
ATOM     78  C   UNL A   1      38.905  33.942  39.331  1.00  0.00     0.055 A 
ATOM     79  C   UNL A   1      39.747  35.841  38.122  1.00  0.00     0.041 A 
ATOM     80  F   UNL A   1      40.429  35.591  35.894  1.00  0.00    -0.206 F 
ATOM     81  C   UNL A   1      39.216  35.303  39.289  1.00  0.00     0.022 A 
BRANCH  78  82
ATOM     82  S   UNL A   1      38.101  33.240  40.797  1.00  0.00     0.124 S 
ATOM     83  O   UNL A   1      38.250  31.809  40.562  1.00  0.00    -0.237 OA
ATOM     84  O   UNL A   1      38.902  33.800  41.880  1.00  0.00    -0.237 OA
ATOM     85  O   UNL A   1      36.734  33.749  40.711  1.00  0.00    -0.744 OA
ENDBRANCH  78  82
ENDBRANCH  51  75
BRANCH  63  86
ATOM     86  C   UNL A   1      44.222  28.608  35.437  1.00  0.00     0.023 A 
ATOM     87  C   UNL A   1      44.103  27.557  36.363  1.00  0.00     0.031 A 
ATOM     88  C   UNL A   1      45.502  29.144  35.207  1.00  0.00     0.131 A 
ATOM     89  C   UNL A   1      45.234  27.115  37.067  1.00  0.00     0.055 A 
ATOM     90  C   UNL A   1      46.633  28.653  35.860  1.00  0.00     0.041 A 
ATOM     91  F   UNL A   1      45.675  30.152  34.337  1.00  0.00    -0.206 F 
ATOM     92  C   UNL A   1      46.501  27.642  36.807  1.00  0.00     0.022 A 
BRANCH  89  93
ATOM     93  S   UNL A   1      45.013  25.909  38.405  1.00  0.00     0.124 S 
ATOM     94  O   UNL A   1      46.268  26.036  39.138  1.00  0.00    -0.237 OA
ATOM     95  O   UNL A   1      43.823  26.411  39.084  1.00  0.00    -0.237 OA
ATOM     96  O   UNL A   1      44.833  24.642  37.698  1.00  0.00    -0.744 OA
ENDBRANCH  89  93
ENDBRANCH  63  86
ENDBRANCH  37  38
ENDBRANCH  29  32
ENDBRANCH  27  28
ENDBRANCH  26  27
ENDBRANCH  25  26
ENDBRANCH   1  25
TORSDOF 19
ENDMDL
MODEL 2
REMARK VINA RESULT:     -11.7      1.597      7.624
REMARK SMILES O=C(Cc1ccc(-c2ccn(C(F)F)c(=O)c2)cc1)NCCCCCCNC(=O)c1ccc(-c2c3nc(c(-c4cc(S(=O)(=O)[O-])ccc4F)c4ccc([nH]4)c(-c4cc(S(=O)(=O)[O-])ccc4F)c4nc(c(-c5cc(S(=O)(=O)[O-])ccc5F)c5ccc2[nH]5)C=C4)C=C3)cc1
REMARK SMILES IDX 23 1 22 2 21 3 20 4 1 5 2 6 3 8 4 9 5 10 19 11 6 12 18 13
REMARK SMILES IDX 7 14 8 15 9 16 17 17 10 18 15 19 11 20 16 21 12 22 13 23
REMARK SMILES IDX 14 24 24 25 25 26 26 27 27 28 28 29 29 31 30 32 31 33 92 34
REMARK SMILES IDX 32 35 91 36 33 37 34 38 35 39 85 40 36 41 90 42 84 43 86 44
REMARK SMILES IDX 37 45 89 46 83 47 82 48 38 50 70 51 50 52 69 53 51 54 54 55
REMARK SMILES IDX 68 56 87 57 52 58 53 59 67 61 88 62 55 63 39 64 40 65 48 66
REMARK SMILES IDX 41 67 47 68 49 69 46 70 42 71 43 72 44 73 45 74 71 75 72 76
REMARK SMILES IDX 80 77 73 78 79 79 81 80 78 81 74 82 75 83 76 84 77 85 56 86
REMARK SMILES IDX 57 87 65 88 58 89 64 90 66 91 63 92 59 93 60 94 61 95 62 96
REMARK H PARENT 20 7 27 30 86 49 54 60
REMARK Flexibility Score: inf
ROOT
ATOM      1  C   UNL A   1      31.669  29.383  27.325  1.00  0.00     0.002 C 
ENDROOT
BRANCH   1   2
ATOM      2  C   UNL A   1      31.634  27.913  26.881  1.00  0.00     0.021 C 
BRANCH   2   3
ATOM      3  C   UNL A   1      32.684  27.532  25.841  1.00  0.00     0.116 C 
BRANCH   3   4
ATOM      4  N   UNL A   1      32.085  26.860  24.708  1.00  0.00    -0.356 N 
ATOM      5  O   UNL A   1      32.173  28.643  23.256  1.00  0.00    -0.275 OA
ATOM      6  C   UNL A   1      31.935  27.461  23.475  1.00  0.00     0.224 C 
ATOM      7  H   UNL A   1      31.772  25.933  24.822  1.00  0.00     0.163 HD
BRANCH   6   8
ATOM      8  C   UNL A   1      31.459  26.500  22.397  1.00  0.00     0.135 C 
BRANCH   8   9
ATOM      9  C   UNL A   1      31.739  25.038  22.685  1.00  0.00    -0.039 A 
ATOM     10  C   UNL A   1      32.968  24.485  22.291  1.00  0.00     0.005 A 
ATOM     11  C   UNL A   1      30.790  24.192  23.275  1.00  0.00     0.005 A 
ATOM     12  C   UNL A   1      33.254  23.134  22.519  1.00  0.00     0.009 A 
ATOM     13  C   UNL A   1      31.072  22.845  23.500  1.00  0.00     0.009 A 
ATOM     14  C   UNL A   1      32.309  22.309  23.135  1.00  0.00    -0.018 A 
BRANCH  14  15
ATOM     15  C   UNL A   1      32.583  20.897  23.454  1.00  0.00    -0.011 A 
ATOM     16  C   UNL A   1      33.374  20.492  24.600  1.00  0.00     0.027 A 
ATOM     17  C   UNL A   1      32.179  19.967  22.572  1.00  0.00     0.080 A 
ATOM     18  C   UNL A   1      33.751  19.215  24.745  1.00  0.00     0.095 A 
ATOM     19  C   UNL A   1      32.557  18.538  22.742  1.00  0.00     0.255 A 
ATOM     20  N   UNL A   1      33.368  18.253  23.829  1.00  0.00    -0.258 N 
ATOM     21  O   UNL A   1      32.155  17.723  21.918  1.00  0.00    -0.269 OA
BRANCH  20  22
ATOM     22  C   UNL A   1      33.832  16.896  23.958  1.00  0.00     0.451 C 
ATOM     23  F   UNL A   1      32.838  16.073  24.374  1.00  0.00    -0.185 F 
ATOM     24  F   UNL A   1      34.297  16.428  22.774  1.00  0.00    -0.185 F 
ENDBRANCH  20  22
ENDBRANCH  14  15
ENDBRANCH   8   9
ENDBRANCH   6   8
ENDBRANCH   3   4
ENDBRANCH   2   3
ENDBRANCH   1   2
BRANCH   1  25
ATOM     25  C   UNL A   1      31.700  30.414  26.192  1.00  0.00     0.002 C 
BRANCH  25  26
ATOM     26  C   UNL A   1      31.621  31.874  26.641  1.00  0.00     0.021 C 
BRANCH  26  27
ATOM     27  C   UNL A   1      32.900  32.430  27.259  1.00  0.00     0.116 C 
BRANCH  27  28
ATOM     28  N   UNL A   1      32.773  33.827  27.644  1.00  0.00    -0.352 N 
ATOM     29  C   UNL A   1      33.455  34.523  28.612  1.00  0.00     0.251 C 
ATOM     30  H   UNL A   1      32.103  34.345  27.141  1.00  0.00     0.163 HD
ATOM     31  O   UNL A   1      33.094  35.657  28.917  1.00  0.00    -0.269 OA
BRANCH  29  32
ATOM     32  C   UNL A   1      34.601  33.890  29.303  1.00  0.00     0.039 A 
ATOM     33  C   UNL A   1      34.355  32.917  30.274  1.00  0.00     0.014 A 
ATOM     34  C   UNL A   1      35.915  34.241  28.980  1.00  0.00     0.014 A 
ATOM     35  C   UNL A   1      35.426  32.248  30.872  1.00  0.00     0.010 A 
ATOM     36  C   UNL A   1      36.978  33.519  29.519  1.00  0.00     0.010 A 
ATOM     37  C   UNL A   1      36.746  32.514  30.471  1.00  0.00    -0.014 A 
BRANCH  37  38
ATOM     38  C   UNL A   1      37.892  31.751  31.034  1.00  0.00     0.031 A 
ATOM     39  C   UNL A   1      38.410  32.069  32.410  1.00  0.00     0.074 A 
ATOM     40  C   UNL A   1      38.504  30.815  30.282  1.00  0.00     0.049 A 
ATOM     41  N   UNL A   1      39.438  31.565  33.046  1.00  0.00    -0.248 NA
ATOM     42  C   UNL A   1      37.695  33.113  33.157  1.00  0.00     0.031 C 
ATOM     43  C   UNL A   1      38.121  30.445  28.918  1.00  0.00     0.029 A 
ATOM     44  N   UNL A   1      39.583  30.010  30.552  1.00  0.00    -0.354 N 
ATOM     45  C   UNL A   1      39.500  32.238  34.261  1.00  0.00     0.074 A 
ATOM     46  C   UNL A   1      38.447  33.233  34.239  1.00  0.00     0.031 C 
ATOM     47  C   UNL A   1      38.932  29.468  28.483  1.00  0.00     0.029 A 
ATOM     48  C   UNL A   1      39.927  29.178  29.511  1.00  0.00     0.049 A 
ATOM     49  H   UNL A   1      40.066  30.025  31.410  1.00  0.00     0.167 HD
ATOM     50  C   UNL A   1      40.339  32.030  35.307  1.00  0.00     0.034 A 
ATOM     51  C   UNL A   1      40.936  28.292  29.390  1.00  0.00     0.034 A 
ATOM     52  C   UNL A   1      41.382  31.032  35.309  1.00  0.00     0.049 A 
ATOM     53  C   UNL A   1      41.883  28.104  30.547  1.00  0.00     0.074 A 
ATOM     54  C   UNL A   1      42.254  30.700  36.332  1.00  0.00     0.029 A 
ATOM     55  N   UNL A   1      41.707  30.215  34.233  1.00  0.00    -0.354 N 
ATOM     56  N   UNL A   1      41.895  28.710  31.713  1.00  0.00    -0.248 NA
ATOM     57  C   UNL A   1      42.945  27.104  30.378  1.00  0.00     0.031 C 
ATOM     58  C   UNL A   1      43.156  29.746  35.848  1.00  0.00     0.029 A 
ATOM     59  C   UNL A   1      42.791  29.410  34.555  1.00  0.00     0.049 A 
ATOM     60  H   UNL A   1      41.236  30.208  33.368  1.00  0.00     0.167 HD
ATOM     61  C   UNL A   1      42.947  28.141  32.426  1.00  0.00     0.074 A 
ATOM     62  C   UNL A   1      43.535  27.135  31.565  1.00  0.00     0.031 C 
ATOM     63  C   UNL A   1      43.382  28.420  33.682  1.00  0.00     0.034 A 
BRANCH  50  64
ATOM     64  C   UNL A   1      40.175  32.924  36.516  1.00  0.00     0.023 A 
ATOM     65  C   UNL A   1      39.399  32.538  37.623  1.00  0.00     0.031 A 
ATOM     66  C   UNL A   1      40.770  34.199  36.548  1.00  0.00     0.131 A 
ATOM     67  C   UNL A   1      39.159  33.446  38.665  1.00  0.00     0.055 A 
ATOM     68  C   UNL A   1      40.606  35.062  37.633  1.00  0.00     0.041 A 
ATOM     69  F   UNL A   1      41.505  34.636  35.515  1.00  0.00    -0.206 F 
ATOM     70  C   UNL A   1      39.781  34.696  38.692  1.00  0.00     0.022 A 
BRANCH  67  71
ATOM     71  S   UNL A   1      37.886  33.037  39.892  1.00  0.00     0.124 S 
ATOM     72  O   UNL A   1      38.378  31.765  40.415  1.00  0.00    -0.237 OA
ATOM     73  O   UNL A   1      37.951  34.171  40.805  1.00  0.00    -0.237 OA
ATOM     74  O   UNL A   1      36.663  32.943  39.097  1.00  0.00    -0.744 OA
ENDBRANCH  67  71
ENDBRANCH  50  64
BRANCH  51  75
ATOM     75  C   UNL A   1      41.113  27.524  28.123  1.00  0.00     0.023 A 
ATOM     76  C   UNL A   1      40.797  26.159  28.051  1.00  0.00     0.031 A 
ATOM     77  C   UNL A   1      41.629  28.142  26.970  1.00  0.00     0.131 A 
ATOM     78  C   UNL A   1      41.035  25.446  26.865  1.00  0.00     0.055 A 
ATOM     79  C   UNL A   1      41.812  27.443  25.776  1.00  0.00     0.041 A 
ATOM     80  F   UNL A   1      41.946  29.448  26.982  1.00  0.00    -0.206 F 
ATOM     81  C   UNL A   1      41.526  26.083  25.723  1.00  0.00     0.022 A 
BRANCH  78  82
ATOM     82  S   UNL A   1      40.767  23.653  26.858  1.00  0.00     0.124 S 
ATOM     83  O   UNL A   1      39.342  23.566  26.563  1.00  0.00    -0.237 OA
ATOM     84  O   UNL A   1      41.670  23.216  25.799  1.00  0.00    -0.237 OA
ATOM     85  O   UNL A   1      41.153  23.247  28.208  1.00  0.00    -0.744 OA
ENDBRANCH  78  82
ENDBRANCH  51  75
BRANCH  63  86
ATOM     86  C   UNL A   1      44.523  27.587  34.218  1.00  0.00     0.023 A 
ATOM     87  C   UNL A   1      44.306  26.383  34.910  1.00  0.00     0.031 A 
ATOM     88  C   UNL A   1      45.852  28.012  34.036  1.00  0.00     0.131 A 
ATOM     89  C   UNL A   1      45.395  25.676  35.444  1.00  0.00     0.055 A 
ATOM     90  C   UNL A   1      46.934  27.271  34.510  1.00  0.00     0.041 A 
ATOM     91  F   UNL A   1      46.121  29.157  33.388  1.00  0.00    -0.206 F 
ATOM     92  C   UNL A   1      46.709  26.102  35.231  1.00  0.00     0.022 A 
BRANCH  89  93
ATOM     93  S   UNL A   1      45.069  24.245  36.510  1.00  0.00     0.124 S 
ATOM     94  O   UNL A   1      46.412  23.719  36.729  1.00  0.00    -0.237 OA
ATOM     95  O   UNL A   1      44.427  24.858  37.668  1.00  0.00    -0.237 OA
ATOM     96  O   UNL A   1      44.197  23.401  35.694  1.00  0.00    -0.744 OA
ENDBRANCH  89  93
ENDBRANCH  63  86
ENDBRANCH  37  38
ENDBRANCH  29  32
ENDBRANCH  27  28
ENDBRANCH  26  27
ENDBRANCH  25  26
ENDBRANCH   1  25
TORSDOF 19
ENDMDL
MODEL 3
REMARK VINA RESULT:     -11.5      2.245      2.906
REMARK SMILES O=C(Cc1ccc(-c2ccn(C(F)F)c(=O)c2)cc1)NCCCCCCNC(=O)c1ccc(-c2c3nc(c(-c4cc(S(=O)(=O)[O-])ccc4F)c4ccc([nH]4)c(-c4cc(S(=O)(=O)[O-])ccc4F)c4nc(c(-c5cc(S(=O)(=O)[O-])ccc5F)c5ccc2[nH]5)C=C4)C=C3)cc1
REMARK SMILES IDX 23 1 22 2 21 3 20 4 1 5 2 6 3 8 4 9 5 10 19 11 6 12 18 13
REMARK SMILES IDX 7 14 8 15 9 16 17 17 10 18 15 19 11 20 16 21 12 22 13 23
REMARK SMILES IDX 14 24 24 25 25 26 26 27 27 28 28 29 29 31 30 32 31 33 92 34
REMARK SMILES IDX 32 35 91 36 33 37 34 38 35 39 85 40 36 41 90 42 84 43 86 44
REMARK SMILES IDX 37 45 89 46 83 47 82 48 38 50 70 51 50 52 69 53 51 54 54 55
REMARK SMILES IDX 68 56 87 57 52 58 53 59 67 61 88 62 55 63 39 64 40 65 48 66
REMARK SMILES IDX 41 67 47 68 49 69 46 70 42 71 43 72 44 73 45 74 71 75 72 76
REMARK SMILES IDX 80 77 73 78 79 79 81 80 78 81 74 82 75 83 76 84 77 85 56 86
REMARK SMILES IDX 57 87 65 88 58 89 64 90 66 91 63 92 59 93 60 94 61 95 62 96
REMARK H PARENT 20 7 27 30 86 49 54 60
REMARK Flexibility Score: inf
ROOT
ATOM      1  C   UNL A   1      32.401  30.298  26.653  1.00  0.00     0.002 C 
ENDROOT
BRANCH   1   2
ATOM      2  C   UNL A   1      32.217  28.802  26.357  1.00  0.00     0.021 C 
BRANCH   2   3
ATOM      3  C   UNL A   1      31.564  28.491  25.013  1.00  0.00     0.116 C 
BRANCH   3   4
ATOM      4  N   UNL A   1      31.553  27.068  24.749  1.00  0.00    -0.356 N 
ATOM      5  O   UNL A   1      33.387  27.034  23.360  1.00  0.00    -0.275 OA
ATOM      6  C   UNL A   1      32.515  26.440  23.985  1.00  0.00     0.224 C 
ATOM      7  H   UNL A   1      30.827  26.524  25.133  1.00  0.00     0.163 HD
BRANCH   6   8
ATOM      8  C   UNL A   1      32.401  24.925  24.008  1.00  0.00     0.135 C 
BRANCH   8   9
ATOM      9  C   UNL A   1      33.700  24.197  24.291  1.00  0.00    -0.039 A 
ATOM     10  C   UNL A   1      34.356  24.417  25.513  1.00  0.00     0.005 A 
ATOM     11  C   UNL A   1      34.311  23.356  23.352  1.00  0.00     0.005 A 
ATOM     12  C   UNL A   1      35.569  23.780  25.801  1.00  0.00     0.009 A 
ATOM     13  C   UNL A   1      35.521  22.723  23.636  1.00  0.00     0.009 A 
ATOM     14  C   UNL A   1      36.153  22.920  24.866  1.00  0.00    -0.018 A 
BRANCH  14  15
ATOM     15  C   UNL A   1      37.394  22.178  25.144  1.00  0.00    -0.011 A 
ATOM     16  C   UNL A   1      37.617  20.822  24.681  1.00  0.00     0.027 A 
ATOM     17  C   UNL A   1      38.295  22.750  25.962  1.00  0.00     0.080 A 
ATOM     18  C   UNL A   1      38.675  20.125  25.113  1.00  0.00     0.095 A 
ATOM     19  C   UNL A   1      39.496  22.000  26.417  1.00  0.00     0.255 A 
ATOM     20  N   UNL A   1      39.593  20.690  25.978  1.00  0.00    -0.258 N 
ATOM     21  O   UNL A   1      40.297  22.568  27.153  1.00  0.00    -0.269 OA
BRANCH  20  22
ATOM     22  C   UNL A   1      40.692  19.911  26.487  1.00  0.00     0.451 C 
ATOM     23  F   UNL A   1      41.867  20.291  25.927  1.00  0.00    -0.185 F 
ATOM     24  F   UNL A   1      40.803  20.051  27.831  1.00  0.00    -0.185 F 
ENDBRANCH  20  22
ENDBRANCH  14  15
ENDBRANCH   8   9
ENDBRANCH   6   8
ENDBRANCH   3   4
ENDBRANCH   2   3
ENDBRANCH   1   2
BRANCH   1  25
ATOM     25  C   UNL A   1      31.187  31.184  26.357  1.00  0.00     0.002 C 
BRANCH  25  26
ATOM     26  C   UNL A   1      31.434  32.687  26.484  1.00  0.00     0.021 C 
BRANCH  26  27
ATOM     27  C   UNL A   1      32.694  33.072  27.254  1.00  0.00     0.116 C 
BRANCH  27  28
ATOM     28  N   UNL A   1      32.603  34.396  27.848  1.00  0.00    -0.352 N 
ATOM     29  C   UNL A   1      33.313  34.924  28.899  1.00  0.00     0.251 C 
ATOM     30  H   UNL A   1      31.939  34.999  27.441  1.00  0.00     0.163 HD
ATOM     31  O   UNL A   1      32.981  36.005  29.379  1.00  0.00    -0.269 OA
BRANCH  29  32
ATOM     32  C   UNL A   1      34.454  34.170  29.467  1.00  0.00     0.039 A 
ATOM     33  C   UNL A   1      35.751  34.504  29.073  1.00  0.00     0.014 A 
ATOM     34  C   UNL A   1      34.245  33.150  30.400  1.00  0.00     0.014 A 
ATOM     35  C   UNL A   1      36.842  33.862  29.664  1.00  0.00     0.010 A 
ATOM     36  C   UNL A   1      35.334  32.568  31.045  1.00  0.00     0.010 A 
ATOM     37  C   UNL A   1      36.645  32.917  30.685  1.00  0.00    -0.014 A 
BRANCH  37  38
ATOM     38  C   UNL A   1      37.796  32.287  31.387  1.00  0.00     0.031 A 
ATOM     39  C   UNL A   1      38.540  31.146  30.748  1.00  0.00     0.074 A 
ATOM     40  C   UNL A   1      38.131  32.702  32.624  1.00  0.00     0.049 A 
ATOM     41  N   UNL A   1      39.521  30.424  31.227  1.00  0.00    -0.248 NA
ATOM     42  C   UNL A   1      38.101  30.746  29.403  1.00  0.00     0.031 C 
ATOM     43  C   UNL A   1      37.460  33.771  33.367  1.00  0.00     0.029 A 
ATOM     44  N   UNL A   1      39.113  32.270  33.481  1.00  0.00    -0.354 N 
ATOM     45  C   UNL A   1      39.809  29.478  30.248  1.00  0.00     0.074 A 
ATOM     46  C   UNL A   1      38.849  29.678  29.182  1.00  0.00     0.031 C 
ATOM     47  C   UNL A   1      38.067  33.929  34.553  1.00  0.00     0.029 A 
ATOM     48  C   UNL A   1      39.134  32.942  34.682  1.00  0.00     0.049 A 
ATOM     49  H   UNL A   1      39.744  31.548  33.259  1.00  0.00     0.167 HD
ATOM     50  C   UNL A   1      40.796  28.547  30.230  1.00  0.00     0.034 A 
ATOM     51  C   UNL A   1      39.913  32.774  35.770  1.00  0.00     0.034 A 
ATOM     52  C   UNL A   1      41.743  28.363  31.304  1.00  0.00     0.049 A 
ATOM     53  C   UNL A   1      40.977  31.707  35.747  1.00  0.00     0.074 A 
ATOM     54  C   UNL A   1      42.813  27.488  31.369  1.00  0.00     0.029 A 
ATOM     55  N   UNL A   1      41.727  29.056  32.509  1.00  0.00    -0.354 N 
ATOM     56  N   UNL A   1      41.273  30.855  34.792  1.00  0.00    -0.248 NA
ATOM     57  C   UNL A   1      41.820  31.586  36.943  1.00  0.00     0.031 C 
ATOM     58  C   UNL A   1      43.390  27.592  32.639  1.00  0.00     0.029 A 
ATOM     59  C   UNL A   1      42.743  28.599  33.337  1.00  0.00     0.049 A 
ATOM     60  H   UNL A   1      41.087  29.768  32.742  1.00  0.00     0.167 HD
ATOM     61  C   UNL A   1      42.357  30.119  35.262  1.00  0.00     0.074 A 
ATOM     62  C   UNL A   1      42.669  30.637  36.578  1.00  0.00     0.031 C 
ATOM     63  C   UNL A   1      43.037  29.111  34.656  1.00  0.00     0.034 A 
BRANCH  50  64
ATOM     64  C   UNL A   1      40.871  27.639  29.022  1.00  0.00     0.023 A 
ATOM     65  C   UNL A   1      41.858  27.803  28.034  1.00  0.00     0.031 A 
ATOM     66  C   UNL A   1      39.919  26.621  28.833  1.00  0.00     0.131 A 
ATOM     67  C   UNL A   1      41.815  27.032  26.862  1.00  0.00     0.055 A 
ATOM     68  C   UNL A   1      39.940  25.792  27.709  1.00  0.00     0.041 A 
ATOM     69  F   UNL A   1      38.939  26.426  29.727  1.00  0.00    -0.206 F 
ATOM     70  C   UNL A   1      40.880  26.007  26.706  1.00  0.00     0.022 A 
BRANCH  67  71
ATOM     71  S   UNL A   1      42.886  27.506  25.477  1.00  0.00     0.124 S 
ATOM     72  O   UNL A   1      42.086  28.541  24.827  1.00  0.00    -0.237 OA
ATOM     73  O   UNL A   1      44.094  27.962  26.153  1.00  0.00    -0.237 OA
ATOM     74  O   UNL A   1      43.026  26.266  24.714  1.00  0.00    -0.744 OA
ENDBRANCH  67  71
ENDBRANCH  50  64
BRANCH  51  75
ATOM     75  C   UNL A   1      39.709  33.626  36.978  1.00  0.00     0.023 A 
ATOM     76  C   UNL A   1      39.119  33.107  38.141  1.00  0.00     0.031 A 
ATOM     77  C   UNL A   1      40.079  34.983  36.976  1.00  0.00     0.131 A 
ATOM     78  C   UNL A   1      38.880  33.948  39.240  1.00  0.00     0.055 A 
ATOM     79  C   UNL A   1      39.890  35.802  38.091  1.00  0.00     0.041 A 
ATOM     80  F   UNL A   1      40.650  35.530  35.891  1.00  0.00    -0.206 F 
ATOM     81  C   UNL A   1      39.277  35.287  39.228  1.00  0.00     0.022 A 
BRANCH  78  82
ATOM     82  S   UNL A   1      37.971  33.284  40.661  1.00  0.00     0.124 S 
ATOM     83  O   UNL A   1      36.633  33.119  40.107  1.00  0.00    -0.237 OA
ATOM     84  O   UNL A   1      38.705  32.056  40.944  1.00  0.00    -0.237 OA
ATOM     85  O   UNL A   1      38.105  34.332  41.670  1.00  0.00    -0.744 OA
ENDBRANCH  78  82
ENDBRANCH  51  75
BRANCH  63  86
ATOM     86  C   UNL A   1      44.221  28.535  35.398  1.00  0.00     0.023 A 
ATOM     87  C   UNL A   1      44.082  27.483  36.320  1.00  0.00     0.031 A 
ATOM     88  C   UNL A   1      45.510  29.055  35.180  1.00  0.00     0.131 A 
ATOM     89  C   UNL A   1      45.202  27.024  37.031  1.00  0.00     0.055 A 
ATOM     90  C   UNL A   1      46.630  28.549  35.840  1.00  0.00     0.041 A 
ATOM     91  F   UNL A   1      45.703  30.064  34.315  1.00  0.00    -0.206 F 
ATOM     92  C   UNL A   1      46.478  27.536  36.783  1.00  0.00     0.022 A 
BRANCH  89  93
ATOM     93  S   UNL A   1      44.955  25.816  38.363  1.00  0.00     0.124 S 
ATOM     94  O   UNL A   1      44.323  26.630  39.396  1.00  0.00    -0.237 OA
ATOM     95  O   UNL A   1      44.102  24.819  37.726  1.00  0.00    -0.237 OA
ATOM     96  O   UNL A   1      46.311  25.364  38.672  1.00  0.00    -0.744 OA
ENDBRANCH  89  93
ENDBRANCH  63  86
ENDBRANCH  37  38
ENDBRANCH  29  32
ENDBRANCH  27  28
ENDBRANCH  26  27
ENDBRANCH  25  26
ENDBRANCH   1  25
TORSDOF 19
ENDMDL
