MODEL 1
REMARK VINA RESULT:     -11.3      0.000      0.000
REMARK SMILES CC1=C(C(=O)OCC(C)C)[C@@H](c2ccc(C(=O)NCCCCCCNC(=O)c3ccc(-c4c5nc(c(-c6cc(S(=O)(=O)[O-])ccc6F)c6ccc([nH]6)c(-c6cc(S(=O)(=O)[O-])ccc6F)c6nc(c(-c7cc(S(=O)(=O)[O-])ccc7F)c7ccc4[nH]7)C=C6)C=C5)cc3)cc2)c2c(n(C)c(=O)n(C)c2=O)N1
REMARK SMILES IDX 20 1 19 2 18 3 16 4 17 5 15 7 12 8 13 9 92 10 14 11 91 12
REMARK SMILES IDX 11 13 1 14 2 15 3 16 103 17 94 18 93 20 95 21 101 22 96 23
REMARK SMILES IDX 97 24 99 25 102 26 98 27 100 28 4 29 5 30 6 31 7 32 8 33
REMARK SMILES IDX 9 34 10 35 21 36 22 37 23 38 24 39 25 40 26 41 27 43 28 44
REMARK SMILES IDX 29 45 90 46 30 47 89 48 31 49 32 50 33 51 83 52 34 53 88 54
REMARK SMILES IDX 82 55 84 56 35 57 87 58 81 59 80 60 36 62 68 63 48 64 67 65
REMARK SMILES IDX 49 66 52 67 66 68 85 69 50 70 51 71 65 73 86 74 53 75 37 76
REMARK SMILES IDX 38 77 46 78 39 79 45 80 47 81 44 82 40 83 41 84 42 85 43 86
REMARK SMILES IDX 69 87 70 88 78 89 71 90 77 91 79 92 76 93 72 94 73 95 74 96
REMARK SMILES IDX 75 97 54 98 55 99 63 100 56 101 62 102 64 103 61 104 57 105
REMARK SMILES IDX 58 106 59 107 60 108
REMARK H PARENT 18 6 103 19 25 42 84 61 52 72
REMARK Flexibility Score: inf
ROOT
ATOM      1  C   UNL A   1      36.762  29.751  29.033  1.00  0.00     0.021 C 
ENDROOT
BRANCH   1   2
ATOM      2  C   UNL A   1      36.449  30.432  27.698  1.00  0.00     0.116 C 
BRANCH   2   3
ATOM      3  N   UNL A   1      35.289  31.288  27.847  1.00  0.00    -0.352 N 
ATOM      4  C   UNL A   1      33.985  31.157  27.454  1.00  0.00     0.251 C 
ATOM      5  O   UNL A   1      33.231  32.104  27.692  1.00  0.00    -0.269 OA
ATOM      6  H   UNL A   1      35.476  32.129  28.322  1.00  0.00     0.163 HD
BRANCH   4   7
ATOM      7  C   UNL A   1      33.423  29.927  26.825  1.00  0.00     0.039 A 
ATOM      8  C   UNL A   1      32.406  27.712  25.389  1.00  0.00    -0.035 A 
ATOM      9  C   UNL A   1      33.472  28.463  24.876  1.00  0.00     0.005 A 
ATOM     10  C   UNL A   1      31.901  28.041  26.651  1.00  0.00     0.005 A 
ATOM     11  C   UNL A   1      33.962  29.564  25.581  1.00  0.00     0.014 A 
ATOM     12  C   UNL A   1      32.431  29.113  27.376  1.00  0.00     0.014 A 
BRANCH   8  13
ATOM     13  C   UNL A   1      31.813  26.529  24.619  1.00  0.00     0.098 C 
ATOM     14  C   UNL A   1      27.907  26.432  24.202  1.00  0.00     0.065 C 
ATOM     15  C   UNL A   1      29.335  26.190  24.615  1.00  0.00     0.025 C 
ATOM     16  C   UNL A   1      30.404  26.874  24.151  1.00  0.00     0.068 C 
ATOM     17  N   UNL A   1      29.531  25.139  25.503  1.00  0.00    -0.344 N 
ATOM     18  C   UNL A   1      30.763  24.624  25.884  1.00  0.00     0.123 A 
ATOM     19  H   UNL A   1      28.729  24.725  25.895  1.00  0.00     0.168 HD
ATOM     20  C   UNL A   1      31.868  25.256  25.452  1.00  0.00     0.071 A 
ATOM     21  N   UNL A   1      30.888  23.494  26.680  1.00  0.00    -0.282 N 
ATOM     22  C   UNL A   1      33.205  24.716  25.768  1.00  0.00     0.262 A 
ATOM     23  C   UNL A   1      29.694  22.773  27.101  1.00  0.00     0.157 C 
ATOM     24  C   UNL A   1      32.118  23.007  27.122  1.00  0.00     0.332 A 
ATOM     25  N   UNL A   1      33.242  23.682  26.676  1.00  0.00    -0.263 N 
ATOM     26  O   UNL A   1      34.204  25.183  25.225  1.00  0.00    -0.269 OA
ATOM     27  O   UNL A   1      32.207  22.023  27.860  1.00  0.00    -0.247 OA
ATOM     28  C   UNL A   1      34.533  23.188  27.116  1.00  0.00     0.158 C 
BRANCH  16  29
ATOM     29  C   UNL A   1      30.353  27.953  23.133  1.00  0.00     0.336 C 
ATOM     30  O   UNL A   1      30.565  27.750  21.950  1.00  0.00    -0.246 OA
BRANCH  29  31
ATOM     31  O   UNL A   1      30.112  29.158  23.708  1.00  0.00    -0.462 OA
BRANCH  31  32
ATOM     32  C   UNL A   1      29.814  30.241  22.808  1.00  0.00     0.236 C 
BRANCH  32  33
ATOM     33  C   UNL A   1      28.482  30.908  23.181  1.00  0.00     0.021 C 
ATOM     34  C   UNL A   1      28.183  32.114  22.294  1.00  0.00     0.011 C 
ATOM     35  C   UNL A   1      27.339  29.898  23.094  1.00  0.00     0.011 C 
ENDBRANCH  32  33
ENDBRANCH  31  32
ENDBRANCH  29  31
ENDBRANCH  16  29
ENDBRANCH   8  13
ENDBRANCH   4   7
ENDBRANCH   2   3
ENDBRANCH   1   2
BRANCH   1  36
ATOM     36  C   UNL A   1      36.965  30.754  30.177  1.00  0.00     0.002 C 
BRANCH  36  37
ATOM     37  C   UNL A   1      36.499  30.254  31.551  1.00  0.00     0.002 C 
BRANCH  37  38
ATOM     38  C   UNL A   1      36.036  31.357  32.507  1.00  0.00     0.021 C 
BRANCH  38  39
ATOM     39  C   UNL A   1      35.751  32.687  31.818  1.00  0.00     0.116 C 
BRANCH  39  40
ATOM     40  N   UNL A   1      36.205  33.807  32.628  1.00  0.00    -0.352 N 
ATOM     41  C   UNL A   1      37.484  34.140  32.994  1.00  0.00     0.251 C 
ATOM     42  H   UNL A   1      35.498  34.406  32.959  1.00  0.00     0.163 HD
ATOM     43  O   UNL A   1      37.674  34.942  33.903  1.00  0.00    -0.269 OA
BRANCH  41  44
ATOM     44  C   UNL A   1      38.622  33.520  32.285  1.00  0.00     0.039 A 
ATOM     45  C   UNL A   1      39.402  32.571  32.947  1.00  0.00     0.014 A 
ATOM     46  C   UNL A   1      38.913  33.885  30.967  1.00  0.00     0.014 A 
ATOM     47  C   UNL A   1      40.446  31.945  32.264  1.00  0.00     0.010 A 
ATOM     48  C   UNL A   1      39.909  33.212  30.268  1.00  0.00     0.010 A 
ATOM     49  C   UNL A   1      40.689  32.240  30.912  1.00  0.00    -0.014 A 
BRANCH  49  50
ATOM     50  C   UNL A   1      41.764  31.552  30.155  1.00  0.00     0.031 A 
ATOM     51  C   UNL A   1      43.088  32.235  29.954  1.00  0.00     0.074 A 
ATOM     52  C   UNL A   1      41.534  30.336  29.625  1.00  0.00     0.049 A 
ATOM     53  N   UNL A   1      44.124  31.837  29.262  1.00  0.00    -0.248 NA
ATOM     54  C   UNL A   1      43.265  33.546  30.600  1.00  0.00     0.031 C 
ATOM     55  C   UNL A   1      40.284  29.582  29.752  1.00  0.00     0.029 A 
ATOM     56  N   UNL A   1      42.340  29.516  28.878  1.00  0.00    -0.354 N 
ATOM     57  C   UNL A   1      45.075  32.841  29.394  1.00  0.00     0.074 A 
ATOM     58  C   UNL A   1      44.472  33.896  30.178  1.00  0.00     0.031 C 
ATOM     59  C   UNL A   1      40.424  28.394  29.142  1.00  0.00     0.029 A 
ATOM     60  C   UNL A   1      41.750  28.321  28.537  1.00  0.00     0.049 A 
ATOM     61  H   UNL A   1      43.256  29.758  28.612  1.00  0.00     0.167 HD
ATOM     62  C   UNL A   1      46.347  32.866  28.927  1.00  0.00     0.034 A 
ATOM     63  C   UNL A   1      42.224  27.286  27.814  1.00  0.00     0.034 A 
ATOM     64  C   UNL A   1      46.939  31.805  28.155  1.00  0.00     0.049 A 
ATOM     65  C   UNL A   1      43.618  27.369  27.251  1.00  0.00     0.074 A 
ATOM     66  C   UNL A   1      48.221  31.730  27.639  1.00  0.00     0.029 A 
ATOM     67  N   UNL A   1      46.295  30.630  27.793  1.00  0.00    -0.354 N 
ATOM     68  N   UNL A   1      44.498  28.336  27.369  1.00  0.00    -0.248 NA
ATOM     69  C   UNL A   1      44.084  26.222  26.460  1.00  0.00     0.031 C 
ATOM     70  C   UNL A   1      48.334  30.537  26.918  1.00  0.00     0.029 A 
ATOM     71  C   UNL A   1      47.147  29.834  27.045  1.00  0.00     0.049 A 
ATOM     72  H   UNL A   1      45.369  30.397  28.031  1.00  0.00     0.167 HD
ATOM     73  C   UNL A   1      45.634  27.898  26.695  1.00  0.00     0.074 A 
ATOM     74  C   UNL A   1      45.328  26.582  26.174  1.00  0.00     0.031 C 
ATOM     75  C   UNL A   1      46.826  28.525  26.530  1.00  0.00     0.034 A 
BRANCH  62  76
ATOM     76  C   UNL A   1      47.182  34.080  29.240  1.00  0.00     0.023 A 
ATOM     77  C   UNL A   1      47.152  35.218  28.416  1.00  0.00     0.031 A 
ATOM     78  C   UNL A   1      47.993  34.113  30.388  1.00  0.00     0.131 A 
ATOM     79  C   UNL A   1      47.944  36.330  28.733  1.00  0.00     0.055 A 
ATOM     80  C   UNL A   1      48.731  35.247  30.731  1.00  0.00     0.041 A 
ATOM     81  F   UNL A   1      48.074  33.046  31.198  1.00  0.00    -0.206 F 
ATOM     82  C   UNL A   1      48.713  36.362  29.899  1.00  0.00     0.022 A 
BRANCH  79  83
ATOM     83  S   UNL A   1      48.011  37.712  27.562  1.00  0.00     0.124 S 
ATOM     84  O   UNL A   1      48.717  38.725  28.344  1.00  0.00    -0.237 OA
ATOM     85  O   UNL A   1      48.748  37.143  26.440  1.00  0.00    -0.237 OA
ATOM     86  O   UNL A   1      46.604  38.006  27.298  1.00  0.00    -0.744 OA
ENDBRANCH  79  83
ENDBRANCH  62  76
BRANCH  63  87
ATOM     87  C   UNL A   1      41.379  26.080  27.588  1.00  0.00     0.023 A 
ATOM     88  C   UNL A   1      41.872  24.797  27.871  1.00  0.00     0.031 A 
ATOM     89  C   UNL A   1      40.073  26.190  27.078  1.00  0.00     0.131 A 
ATOM     90  C   UNL A   1      41.076  23.671  27.615  1.00  0.00     0.055 A 
ATOM     91  C   UNL A   1      39.269  25.069  26.866  1.00  0.00     0.041 A 
ATOM     92  F   UNL A   1      39.553  27.395  26.798  1.00  0.00    -0.206 F 
ATOM     93  C   UNL A   1      39.773  23.798  27.128  1.00  0.00     0.022 A 
BRANCH  90  94
ATOM     94  S   UNL A   1      41.787  22.024  27.888  1.00  0.00     0.124 S 
ATOM     95  O   UNL A   1      40.606  21.247  28.244  1.00  0.00    -0.237 OA
ATOM     96  O   UNL A   1      42.381  21.731  26.587  1.00  0.00    -0.237 OA
ATOM     97  O   UNL A   1      42.742  22.243  28.970  1.00  0.00    -0.744 OA
ENDBRANCH  90  94
ENDBRANCH  63  87
BRANCH  75  98
ATOM     98  C   UNL A   1      47.906  27.779  25.792  1.00  0.00     0.023 A 
ATOM     99  C   UNL A   1      48.127  27.969  24.418  1.00  0.00     0.031 A 
ATOM    100  C   UNL A   1      48.751  26.897  26.488  1.00  0.00     0.131 A 
ATOM    101  C   UNL A   1      49.150  27.257  23.774  1.00  0.00     0.055 A 
ATOM    102  C   UNL A   1      49.800  26.231  25.853  1.00  0.00     0.041 A 
ATOM    103  F   UNL A   1      48.582  26.683  27.803  1.00  0.00    -0.206 F 
ATOM    104  C   UNL A   1      49.998  26.404  24.486  1.00  0.00     0.022 A 
BRANCH 101 105
ATOM    105  S   UNL A   1      49.330  27.425  21.978  1.00  0.00     0.124 S 
ATOM    106  O   UNL A   1      48.386  28.497  21.679  1.00  0.00    -0.237 OA
ATOM    107  O   UNL A   1      50.743  27.761  21.833  1.00  0.00    -0.237 OA
ATOM    108  O   UNL A   1      48.953  26.107  21.470  1.00  0.00    -0.744 OA
ENDBRANCH 101 105
ENDBRANCH  75  98
ENDBRANCH  49  50
ENDBRANCH  41  44
ENDBRANCH  39  40
ENDBRANCH  38  39
ENDBRANCH  37  38
ENDBRANCH  36  37
ENDBRANCH   1  36
TORSDOF 21
ENDMDL
MODEL 2
REMARK VINA RESULT:     -11.3      5.382     10.698
REMARK SMILES CC1=C(C(=O)OCC(C)C)[C@@H](c2ccc(C(=O)NCCCCCCNC(=O)c3ccc(-c4c5nc(c(-c6cc(S(=O)(=O)[O-])ccc6F)c6ccc([nH]6)c(-c6cc(S(=O)(=O)[O-])ccc6F)c6nc(c(-c7cc(S(=O)(=O)[O-])ccc7F)c7ccc4[nH]7)C=C6)C=C5)cc3)cc2)c2c(n(C)c(=O)n(C)c2=O)N1
REMARK SMILES IDX 20 1 19 2 18 3 16 4 17 5 15 7 12 8 13 9 92 10 14 11 91 12
REMARK SMILES IDX 11 13 1 14 2 15 3 16 103 17 94 18 93 20 95 21 101 22 96 23
REMARK SMILES IDX 97 24 99 25 102 26 98 27 100 28 4 29 5 30 6 31 7 32 8 33
REMARK SMILES IDX 9 34 10 35 21 36 22 37 23 38 24 39 25 40 26 41 27 43 28 44
REMARK SMILES IDX 29 45 90 46 30 47 89 48 31 49 32 50 33 51 83 52 34 53 88 54
REMARK SMILES IDX 82 55 84 56 35 57 87 58 81 59 80 60 36 62 68 63 48 64 67 65
REMARK SMILES IDX 49 66 52 67 66 68 85 69 50 70 51 71 65 73 86 74 53 75 37 76
REMARK SMILES IDX 38 77 46 78 39 79 45 80 47 81 44 82 40 83 41 84 42 85 43 86
REMARK SMILES IDX 69 87 70 88 78 89 71 90 77 91 79 92 76 93 72 94 73 95 74 96
REMARK SMILES IDX 75 97 54 98 55 99 63 100 56 101 62 102 64 103 61 104 57 105
REMARK SMILES IDX 58 106 59 107 60 108
REMARK H PARENT 18 6 103 19 25 42 84 61 52 72
REMARK Flexibility Score: inf
ROOT
ATOM      1  C   UNL A   1      40.316  25.428  26.544  1.00  0.00     0.021 C 
ENDROOT
BRANCH   1   2
ATOM      2  C   UNL A   1      39.423  24.440  27.299  1.00  0.00     0.116 C 
BRANCH   2   3
ATOM      3  N   UNL A   1      39.659  23.097  26.811  1.00  0.00    -0.352 N 
ATOM      4  C   UNL A   1      38.875  22.208  26.126  1.00  0.00     0.251 C 
ATOM      5  O   UNL A   1      39.360  21.098  25.893  1.00  0.00    -0.269 OA
ATOM      6  H   UNL A   1      40.560  22.755  27.012  1.00  0.00     0.163 HD
BRANCH   4   7
ATOM      7  C   UNL A   1      37.517  22.528  25.600  1.00  0.00     0.039 A 
ATOM      8  C   UNL A   1      34.839  23.017  24.829  1.00  0.00    -0.035 A 
ATOM      9  C   UNL A   1      35.208  23.054  26.180  1.00  0.00     0.005 A 
ATOM     10  C   UNL A   1      35.833  22.798  23.868  1.00  0.00     0.005 A 
ATOM     11  C   UNL A   1      36.528  22.798  26.558  1.00  0.00     0.014 A 
ATOM     12  C   UNL A   1      37.163  22.593  24.250  1.00  0.00     0.014 A 
BRANCH   8  13
ATOM     13  C   UNL A   1      33.392  23.245  24.384  1.00  0.00     0.098 C 
ATOM     14  C   UNL A   1      31.952  20.828  21.641  1.00  0.00     0.065 C 
ATOM     15  C   UNL A   1      32.511  22.003  22.401  1.00  0.00     0.025 C 
ATOM     16  C   UNL A   1      32.859  21.988  23.706  1.00  0.00     0.068 C 
ATOM     17  N   UNL A   1      32.612  23.187  21.681  1.00  0.00    -0.344 N 
ATOM     18  C   UNL A   1      32.931  24.430  22.212  1.00  0.00     0.123 A 
ATOM     19  H   UNL A   1      32.445  23.142  20.712  1.00  0.00     0.168 HD
ATOM     20  C   UNL A   1      33.282  24.486  23.510  1.00  0.00     0.071 A 
ATOM     21  N   UNL A   1      32.897  25.596  21.462  1.00  0.00    -0.282 N 
ATOM     22  C   UNL A   1      33.565  25.787  24.148  1.00  0.00     0.262 A 
ATOM     23  C   UNL A   1      32.461  25.547  20.072  1.00  0.00     0.157 C 
ATOM     24  C   UNL A   1      33.278  26.839  21.969  1.00  0.00     0.332 A 
ATOM     25  N   UNL A   1      33.647  26.870  23.303  1.00  0.00    -0.263 N 
ATOM     26  O   UNL A   1      33.704  25.859  25.367  1.00  0.00    -0.269 OA
ATOM     27  O   UNL A   1      33.276  27.859  21.276  1.00  0.00    -0.247 OA
ATOM     28  C   UNL A   1      34.040  28.153  23.854  1.00  0.00     0.158 C 
BRANCH  16  29
ATOM     29  C   UNL A   1      32.715  20.825  24.617  1.00  0.00     0.336 C 
ATOM     30  O   UNL A   1      31.889  20.791  25.513  1.00  0.00    -0.246 OA
BRANCH  29  31
ATOM     31  O   UNL A   1      33.650  19.878  24.353  1.00  0.00    -0.462 OA
BRANCH  31  32
ATOM     32  C   UNL A   1      33.248  18.513  24.571  1.00  0.00     0.236 C 
BRANCH  32  33
ATOM     33  C   UNL A   1      34.355  17.543  24.134  1.00  0.00     0.021 C 
ATOM     34  C   UNL A   1      34.564  16.424  25.151  1.00  0.00     0.011 C 
ATOM     35  C   UNL A   1      34.031  16.951  22.763  1.00  0.00     0.011 C 
ENDBRANCH  32  33
ENDBRANCH  31  32
ENDBRANCH  29  31
ENDBRANCH  16  29
ENDBRANCH   8  13
ENDBRANCH   4   7
ENDBRANCH   2   3
ENDBRANCH   1   2
BRANCH   1  36
ATOM     36  C   UNL A   1      41.811  25.145  26.740  1.00  0.00     0.002 C 
BRANCH  36  37
ATOM     37  C   UNL A   1      42.590  24.911  25.439  1.00  0.00     0.002 C 
BRANCH  37  38
ATOM     38  C   UNL A   1      43.018  23.460  25.205  1.00  0.00     0.021 C 
BRANCH  38  39
ATOM     39  C   UNL A   1      43.547  22.766  26.455  1.00  0.00     0.116 C 
BRANCH  39  40
ATOM     40  N   UNL A   1      45.001  22.774  26.485  1.00  0.00    -0.352 N 
ATOM     41  C   UNL A   1      45.844  23.673  27.086  1.00  0.00     0.251 C 
ATOM     42  H   UNL A   1      45.441  22.033  26.007  1.00  0.00     0.163 HD
ATOM     43  O   UNL A   1      47.033  23.699  26.785  1.00  0.00    -0.269 OA
BRANCH  41  44
ATOM     44  C   UNL A   1      45.301  24.608  28.093  1.00  0.00     0.039 A 
ATOM     45  C   UNL A   1      45.427  25.983  27.885  1.00  0.00     0.014 A 
ATOM     46  C   UNL A   1      44.672  24.119  29.242  1.00  0.00     0.014 A 
ATOM     47  C   UNL A   1      44.870  26.869  28.808  1.00  0.00     0.010 A 
ATOM     48  C   UNL A   1      44.060  25.001  30.124  1.00  0.00     0.010 A 
ATOM     49  C   UNL A   1      44.158  26.386  29.918  1.00  0.00    -0.014 A 
BRANCH  49  50
ATOM     50  C   UNL A   1      43.519  27.311  30.886  1.00  0.00     0.031 A 
ATOM     51  C   UNL A   1      44.187  27.590  32.204  1.00  0.00     0.074 A 
ATOM     52  C   UNL A   1      42.329  27.868  30.591  1.00  0.00     0.049 A 
ATOM     53  N   UNL A   1      43.757  28.305  33.210  1.00  0.00    -0.248 NA
ATOM     54  C   UNL A   1      45.504  26.969  32.426  1.00  0.00     0.031 C 
ATOM     55  C   UNL A   1      41.586  27.663  29.344  1.00  0.00     0.029 A 
ATOM     56  N   UNL A   1      41.535  28.723  31.312  1.00  0.00    -0.354 N 
ATOM     57  C   UNL A   1      44.749  28.227  34.181  1.00  0.00     0.074 A 
ATOM     58  C   UNL A   1      45.774  27.343  33.669  1.00  0.00     0.031 C 
ATOM     59  C   UNL A   1      40.468  28.407  29.373  1.00  0.00     0.029 A 
ATOM     60  C   UNL A   1      40.386  29.098  30.655  1.00  0.00     0.049 A 
ATOM     61  H   UNL A   1      41.766  29.040  32.215  1.00  0.00     0.167 HD
ATOM     62  C   UNL A   1      44.811  28.858  35.377  1.00  0.00     0.034 A 
ATOM     63  C   UNL A   1      39.379  29.905  31.045  1.00  0.00     0.034 A 
ATOM     64  C   UNL A   1      43.789  29.743  35.872  1.00  0.00     0.049 A 
ATOM     65  C   UNL A   1      39.443  30.542  32.408  1.00  0.00     0.074 A 
ATOM     66  C   UNL A   1      43.758  30.437  37.069  1.00  0.00     0.029 A 
ATOM     67  N   UNL A   1      42.620  30.064  35.196  1.00  0.00    -0.354 N 
ATOM     68  N   UNL A   1      40.380  30.441  33.322  1.00  0.00    -0.248 NA
ATOM     69  C   UNL A   1      38.316  31.403  32.792  1.00  0.00     0.031 C 
ATOM     70  C   UNL A   1      42.547  31.132  37.142  1.00  0.00     0.029 A 
ATOM     71  C   UNL A   1      41.854  30.930  35.959  1.00  0.00     0.049 A 
ATOM     72  H   UNL A   1      42.371  29.724  34.306  1.00  0.00     0.167 HD
ATOM     73  C   UNL A   1      39.971  31.253  34.376  1.00  0.00     0.074 A 
ATOM     74  C   UNL A   1      38.704  31.836  33.984  1.00  0.00     0.031 C 
ATOM     75  C   UNL A   1      40.591  31.500  35.556  1.00  0.00     0.034 A 
BRANCH  62  76
ATOM     76  C   UNL A   1      46.026  28.614  36.234  1.00  0.00     0.023 A 
ATOM     77  C   UNL A   1      47.161  29.438  36.142  1.00  0.00     0.031 A 
ATOM     78  C   UNL A   1      46.039  27.569  37.174  1.00  0.00     0.131 A 
ATOM     79  C   UNL A   1      48.277  29.182  36.952  1.00  0.00     0.055 A 
ATOM     80  C   UNL A   1      47.128  27.359  38.021  1.00  0.00     0.041 A 
ATOM     81  F   UNL A   1      44.989  26.741  37.290  1.00  0.00    -0.206 F 
ATOM     82  C   UNL A   1      48.258  28.164  37.909  1.00  0.00     0.022 A 
BRANCH  79  83
ATOM     83  S   UNL A   1      49.783  30.155  36.689  1.00  0.00     0.124 S 
ATOM     84  O   UNL A   1      49.398  30.991  35.554  1.00  0.00    -0.237 OA
ATOM     85  O   UNL A   1      49.943  30.843  37.964  1.00  0.00    -0.237 OA
ATOM     86  O   UNL A   1      50.797  29.144  36.395  1.00  0.00    -0.744 OA
ENDBRANCH  79  83
ENDBRANCH  62  76
BRANCH  63  87
ATOM     87  C   UNL A   1      38.231  30.165  30.133  1.00  0.00     0.023 A 
ATOM     88  C   UNL A   1      37.867  31.478  29.796  1.00  0.00     0.031 A 
ATOM     89  C   UNL A   1      37.474  29.109  29.594  1.00  0.00     0.131 A 
ATOM     90  C   UNL A   1      36.758  31.704  28.966  1.00  0.00     0.055 A 
ATOM     91  C   UNL A   1      36.398  29.339  28.734  1.00  0.00     0.041 A 
ATOM     92  F   UNL A   1      37.786  27.836  29.880  1.00  0.00    -0.206 F 
ATOM     93  C   UNL A   1      36.030  30.644  28.422  1.00  0.00     0.022 A 
BRANCH  90  94
ATOM     94  S   UNL A   1      36.250  33.416  28.643  1.00  0.00     0.124 S 
ATOM     95  O   UNL A   1      37.523  34.123  28.724  1.00  0.00    -0.237 OA
ATOM     96  O   UNL A   1      35.658  33.310  27.313  1.00  0.00    -0.237 OA
ATOM     97  O   UNL A   1      35.307  33.699  29.721  1.00  0.00    -0.744 OA
ENDBRANCH  90  94
ENDBRANCH  63  87
BRANCH  75  98
ATOM     98  C   UNL A   1      39.933  32.476  36.495  1.00  0.00     0.023 A 
ATOM     99  C   UNL A   1      38.974  32.065  37.434  1.00  0.00     0.031 A 
ATOM    100  C   UNL A   1      40.306  33.832  36.473  1.00  0.00     0.131 A 
ATOM    101  C   UNL A   1      38.392  33.009  38.293  1.00  0.00     0.055 A 
ATOM    102  C   UNL A   1      39.763  34.757  37.364  1.00  0.00     0.041 A 
ATOM    103  F   UNL A   1      41.221  34.275  35.596  1.00  0.00    -0.206 F 
ATOM    104  C   UNL A   1      38.794  34.348  38.277  1.00  0.00     0.022 A 
BRANCH 101 105
ATOM    105  S   UNL A   1      37.066  32.473  39.406  1.00  0.00     0.124 S 
ATOM    106  O   UNL A   1      37.405  31.071  39.628  1.00  0.00    -0.237 OA
ATOM    107  O   UNL A   1      37.238  33.360  40.553  1.00  0.00    -0.237 OA
ATOM    108  O   UNL A   1      35.850  32.701  38.627  1.00  0.00    -0.744 OA
ENDBRANCH 101 105
ENDBRANCH  75  98
ENDBRANCH  49  50
ENDBRANCH  41  44
ENDBRANCH  39  40
ENDBRANCH  38  39
ENDBRANCH  37  38
ENDBRANCH  36  37
ENDBRANCH   1  36
TORSDOF 21
ENDMDL
MODEL 3
REMARK VINA RESULT:     -11.3      3.491      9.196
REMARK SMILES CC1=C(C(=O)OCC(C)C)[C@@H](c2ccc(C(=O)NCCCCCCNC(=O)c3ccc(-c4c5nc(c(-c6cc(S(=O)(=O)[O-])ccc6F)c6ccc([nH]6)c(-c6cc(S(=O)(=O)[O-])ccc6F)c6nc(c(-c7cc(S(=O)(=O)[O-])ccc7F)c7ccc4[nH]7)C=C6)C=C5)cc3)cc2)c2c(n(C)c(=O)n(C)c2=O)N1
REMARK SMILES IDX 20 1 19 2 18 3 16 4 17 5 15 7 12 8 13 9 92 10 14 11 91 12
REMARK SMILES IDX 11 13 1 14 2 15 3 16 103 17 94 18 93 20 95 21 101 22 96 23
REMARK SMILES IDX 97 24 99 25 102 26 98 27 100 28 4 29 5 30 6 31 7 32 8 33
REMARK SMILES IDX 9 34 10 35 21 36 22 37 23 38 24 39 25 40 26 41 27 43 28 44
REMARK SMILES IDX 29 45 90 46 30 47 89 48 31 49 32 50 33 51 83 52 34 53 88 54
REMARK SMILES IDX 82 55 84 56 35 57 87 58 81 59 80 60 36 62 68 63 48 64 67 65
REMARK SMILES IDX 49 66 52 67 66 68 85 69 50 70 51 71 65 73 86 74 53 75 37 76
REMARK SMILES IDX 38 77 46 78 39 79 45 80 47 81 44 82 40 83 41 84 42 85 43 86
REMARK SMILES IDX 69 87 70 88 78 89 71 90 77 91 79 92 76 93 72 94 73 95 74 96
REMARK SMILES IDX 75 97 54 98 55 99 63 100 56 101 62 102 64 103 61 104 57 105
REMARK SMILES IDX 58 106 59 107 60 108
REMARK H PARENT 18 6 103 19 25 42 84 61 52 72
REMARK Flexibility Score: inf
ROOT
ATOM      1  C   UNL A   1      40.859  20.582  26.143  1.00  0.00     0.021 C 
ENDROOT
BRANCH   1   2
ATOM      2  C   UNL A   1      39.488  21.260  26.096  1.00  0.00     0.116 C 
BRANCH   2   3
ATOM      3  N   UNL A   1      39.638  22.682  26.325  1.00  0.00    -0.352 N 
ATOM      4  C   UNL A   1      38.764  23.732  26.241  1.00  0.00     0.251 C 
ATOM      5  O   UNL A   1      39.220  24.858  26.457  1.00  0.00    -0.269 OA
ATOM      6  H   UNL A   1      40.548  22.946  26.593  1.00  0.00     0.163 HD
BRANCH   4   7
ATOM      7  C   UNL A   1      37.305  23.583  25.971  1.00  0.00     0.039 A 
ATOM      8  C   UNL A   1      34.572  23.471  25.250  1.00  0.00    -0.035 A 
ATOM      9  C   UNL A   1      35.563  23.603  24.267  1.00  0.00     0.005 A 
ATOM     10  C   UNL A   1      34.967  23.330  26.584  1.00  0.00     0.005 A 
ATOM     11  C   UNL A   1      36.909  23.673  24.628  1.00  0.00     0.014 A 
ATOM     12  C   UNL A   1      36.321  23.348  26.934  1.00  0.00     0.014 A 
BRANCH   8  13
ATOM     13  C   UNL A   1      33.084  23.441  24.892  1.00  0.00     0.098 C 
ATOM     14  C   UNL A   1      32.004  21.149  21.888  1.00  0.00     0.065 C 
ATOM     15  C   UNL A   1      32.355  22.308  22.785  1.00  0.00     0.025 C 
ATOM     16  C   UNL A   1      32.780  22.198  24.063  1.00  0.00     0.068 C 
ATOM     17  N   UNL A   1      32.164  23.570  22.236  1.00  0.00    -0.344 N 
ATOM     18  C   UNL A   1      32.252  24.772  22.925  1.00  0.00     0.123 A 
ATOM     19  H   UNL A   1      31.948  23.615  21.276  1.00  0.00     0.168 HD
ATOM     20  C   UNL A   1      32.665  24.733  24.204  1.00  0.00     0.071 A 
ATOM     21  N   UNL A   1      31.930  25.991  22.346  1.00  0.00    -0.282 N 
ATOM     22  C   UNL A   1      32.713  25.970  25.008  1.00  0.00     0.262 A 
ATOM     23  C   UNL A   1      31.427  26.031  20.980  1.00  0.00     0.157 C 
ATOM     24  C   UNL A   1      32.078  27.210  23.009  1.00  0.00     0.332 A 
ATOM     25  N   UNL A   1      32.517  27.146  24.321  1.00  0.00    -0.263 N 
ATOM     26  O   UNL A   1      32.911  25.911  26.220  1.00  0.00    -0.269 OA
ATOM     27  O   UNL A   1      31.822  28.288  22.466  1.00  0.00    -0.247 OA
ATOM     28  C   UNL A   1      32.670  28.401  25.032  1.00  0.00     0.158 C 
BRANCH  16  29
ATOM     29  C   UNL A   1      32.937  20.924  24.806  1.00  0.00     0.336 C 
ATOM     30  O   UNL A   1      32.319  20.679  25.828  1.00  0.00    -0.246 OA
BRANCH  29  31
ATOM     31  O   UNL A   1      33.884  20.137  24.234  1.00  0.00    -0.462 OA
BRANCH  31  32
ATOM     32  C   UNL A   1      34.017  18.811  24.778  1.00  0.00     0.236 C 
BRANCH  32  33
ATOM     33  C   UNL A   1      34.032  17.763  23.656  1.00  0.00     0.021 C 
ATOM     34  C   UNL A   1      34.324  16.362  24.191  1.00  0.00     0.011 C 
ATOM     35  C   UNL A   1      32.702  17.770  22.904  1.00  0.00     0.011 C 
ENDBRANCH  32  33
ENDBRANCH  31  32
ENDBRANCH  29  31
ENDBRANCH  16  29
ENDBRANCH   8  13
ENDBRANCH   4   7
ENDBRANCH   2   3
ENDBRANCH   1   2
BRANCH   1  36
ATOM     36  C   UNL A   1      41.280  20.192  27.566  1.00  0.00     0.002 C 
BRANCH  36  37
ATOM     37  C   UNL A   1      42.170  18.945  27.647  1.00  0.00     0.002 C 
BRANCH  37  38
ATOM     38  C   UNL A   1      42.676  18.435  26.294  1.00  0.00     0.021 C 
BRANCH  38  39
ATOM     39  C   UNL A   1      44.181  18.589  26.104  1.00  0.00     0.116 C 
BRANCH  39  40
ATOM     40  N   UNL A   1      44.539  18.557  24.695  1.00  0.00    -0.352 N 
ATOM     41  C   UNL A   1      44.702  19.604  23.824  1.00  0.00     0.251 C 
ATOM     42  H   UNL A   1      44.683  17.661  24.313  1.00  0.00     0.163 HD
ATOM     43  O   UNL A   1      44.726  19.401  22.615  1.00  0.00    -0.269 OA
BRANCH  41  44
ATOM     44  C   UNL A   1      44.842  20.973  24.361  1.00  0.00     0.039 A 
ATOM     45  C   UNL A   1      45.420  21.157  25.618  1.00  0.00     0.014 A 
ATOM     46  C   UNL A   1      44.399  22.070  23.616  1.00  0.00     0.014 A 
ATOM     47  C   UNL A   1      45.602  22.452  26.106  1.00  0.00     0.010 A 
ATOM     48  C   UNL A   1      44.642  23.360  24.073  1.00  0.00     0.010 A 
ATOM     49  C   UNL A   1      45.241  23.563  25.326  1.00  0.00    -0.014 A 
BRANCH  49  50
ATOM     50  C   UNL A   1      45.467  24.948  25.807  1.00  0.00     0.031 A 
ATOM     51  C   UNL A   1      46.848  25.541  25.752  1.00  0.00     0.074 A 
ATOM     52  C   UNL A   1      44.441  25.652  26.321  1.00  0.00     0.049 A 
ATOM     53  N   UNL A   1      47.265  26.700  26.190  1.00  0.00    -0.248 NA
ATOM     54  C   UNL A   1      47.901  24.715  25.139  1.00  0.00     0.031 C 
ATOM     55  C   UNL A   1      43.060  25.175  26.430  1.00  0.00     0.029 A 
ATOM     56  N   UNL A   1      44.395  26.919  26.844  1.00  0.00    -0.354 N 
ATOM     57  C   UNL A   1      48.624  26.746  25.902  1.00  0.00     0.074 A 
ATOM     58  C   UNL A   1      48.975  25.474  25.309  1.00  0.00     0.031 C 
ATOM     59  C   UNL A   1      42.297  26.153  26.945  1.00  0.00     0.029 A 
ATOM     60  C   UNL A   1      43.139  27.305  27.252  1.00  0.00     0.049 A 
ATOM     61  H   UNL A   1      45.186  27.499  26.920  1.00  0.00     0.167 HD
ATOM     62  C   UNL A   1      49.492  27.768  26.088  1.00  0.00     0.034 A 
ATOM     63  C   UNL A   1      42.716  28.455  27.813  1.00  0.00     0.034 A 
ATOM     64  C   UNL A   1      49.129  29.034  26.671  1.00  0.00     0.049 A 
ATOM     65  C   UNL A   1      43.717  29.551  28.070  1.00  0.00     0.074 A 
ATOM     66  C   UNL A   1      49.932  30.137  26.900  1.00  0.00     0.029 A 
ATOM     67  N   UNL A   1      47.856  29.370  27.112  1.00  0.00    -0.354 N 
ATOM     68  N   UNL A   1      45.002  29.570  27.809  1.00  0.00    -0.248 NA
ATOM     69  C   UNL A   1      43.209  30.780  28.695  1.00  0.00     0.031 C 
ATOM     70  C   UNL A   1      49.160  31.119  27.528  1.00  0.00     0.029 A 
ATOM     71  C   UNL A   1      47.858  30.656  27.627  1.00  0.00     0.049 A 
ATOM     72  H   UNL A   1      47.069  28.781  27.066  1.00  0.00     0.167 HD
ATOM     73  C   UNL A   1      45.451  30.825  28.207  1.00  0.00     0.074 A 
ATOM     74  C   UNL A   1      44.299  31.535  28.724  1.00  0.00     0.031 C 
ATOM     75  C   UNL A   1      46.701  31.348  28.142  1.00  0.00     0.034 A 
BRANCH  62  76
ATOM     76  C   UNL A   1      50.921  27.560  25.658  1.00  0.00     0.023 A 
ATOM     77  C   UNL A   1      51.303  27.687  24.311  1.00  0.00     0.031 A 
ATOM     78  C   UNL A   1      51.917  27.262  26.605  1.00  0.00     0.131 A 
ATOM     79  C   UNL A   1      52.640  27.483  23.943  1.00  0.00     0.055 A 
ATOM     80  C   UNL A   1      53.257  27.123  26.240  1.00  0.00     0.041 A 
ATOM     81  F   UNL A   1      51.603  27.111  27.901  1.00  0.00    -0.206 F 
ATOM     82  C   UNL A   1      53.624  27.228  24.902  1.00  0.00     0.022 A 
BRANCH  79  83
ATOM     83  S   UNL A   1      53.067  27.487  22.181  1.00  0.00     0.124 S 
ATOM     84  O   UNL A   1      51.846  26.952  21.582  1.00  0.00    -0.237 OA
ATOM     85  O   UNL A   1      53.340  28.896  21.924  1.00  0.00    -0.237 OA
ATOM     86  O   UNL A   1      54.229  26.604  22.108  1.00  0.00    -0.744 OA
ENDBRANCH  79  83
ENDBRANCH  62  76
BRANCH  63  87
ATOM     87  C   UNL A   1      41.279  28.635  28.161  1.00  0.00     0.023 A 
ATOM     88  C   UNL A   1      40.831  28.443  29.477  1.00  0.00     0.031 A 
ATOM     89  C   UNL A   1      40.331  28.993  27.185  1.00  0.00     0.131 A 
ATOM     90  C   UNL A   1      39.467  28.579  29.778  1.00  0.00     0.055 A 
ATOM     91  C   UNL A   1      38.983  29.170  27.499  1.00  0.00     0.041 A 
ATOM     92  F   UNL A   1      40.711  29.195  25.914  1.00  0.00    -0.206 F 
ATOM     93  C   UNL A   1      38.543  28.955  28.801  1.00  0.00     0.022 A 
BRANCH  90  94
ATOM     94  S   UNL A   1      38.909  28.214  31.465  1.00  0.00     0.124 S 
ATOM     95  O   UNL A   1      37.855  29.205  31.650  1.00  0.00    -0.237 OA
ATOM     96  O   UNL A   1      38.472  26.827  31.347  1.00  0.00    -0.237 OA
ATOM     97  O   UNL A   1      40.109  28.419  32.271  1.00  0.00    -0.744 OA
ENDBRANCH  90  94
ENDBRANCH  63  87
BRANCH  75  98
ATOM     98  C   UNL A   1      46.884  32.770  28.601  1.00  0.00     0.023 A 
ATOM     99  C   UNL A   1      46.706  33.856  27.729  1.00  0.00     0.031 A 
ATOM    100  C   UNL A   1      47.202  33.039  29.945  1.00  0.00     0.131 A 
ATOM    101  C   UNL A   1      46.880  35.164  28.203  1.00  0.00     0.055 A 
ATOM    102  C   UNL A   1      47.324  34.344  30.423  1.00  0.00     0.041 A 
ATOM    103  F   UNL A   1      47.380  32.036  30.819  1.00  0.00    -0.206 F 
ATOM    104  C   UNL A   1      47.170  35.416  29.548  1.00  0.00     0.022 A 
BRANCH 101 105
ATOM    105  S   UNL A   1      46.770  36.539  27.026  1.00  0.00     0.124 S 
ATOM    106  O   UNL A   1      45.590  37.252  27.504  1.00  0.00    -0.237 OA
ATOM    107  O   UNL A   1      48.047  37.220  27.216  1.00  0.00    -0.237 OA
ATOM    108  O   UNL A   1      46.611  35.873  25.734  1.00  0.00    -0.744 OA
ENDBRANCH 101 105
ENDBRANCH  75  98
ENDBRANCH  49  50
ENDBRANCH  41  44
ENDBRANCH  39  40
ENDBRANCH  38  39
ENDBRANCH  37  38
ENDBRANCH  36  37
ENDBRANCH   1  36
TORSDOF 21
ENDMDL
