MODEL 1
REMARK VINA RESULT:     -11.9      0.000      0.000
REMARK SMILES O=C(NCCCCCCNC(=O)[C@H]1CC=CC[C@@H]1C(=O)NC1CCCCC1)c1ccc(-c2c3nc(c(-c4cc(S(=O)(=O)[O-])ccc4F)c4ccc([nH]4)c(-c4cc(S(=O)(=O)[O-])ccc4F)c4nc(c(-c5cc(S(=O)(=O)[O-])ccc5F)c5ccc2[nH]5)C=C4)C=C3)cc1
REMARK SMILES IDX 6 1 5 2 4 3 3 4 1 5 2 6 28 8 29 9 90 10 30 11 89 12 31 13
REMARK SMILES IDX 32 14 33 15 83 16 34 17 88 18 82 19 84 20 35 21 87 22 81 23
REMARK SMILES IDX 80 24 36 26 68 27 48 28 67 29 49 30 52 31 66 32 85 33 50 34
REMARK SMILES IDX 51 35 65 37 86 38 53 39 37 40 38 41 46 42 39 43 45 44 47 45
REMARK SMILES IDX 44 46 40 47 41 48 42 49 43 50 69 51 70 52 78 53 71 54 77 55
REMARK SMILES IDX 79 56 76 57 72 58 73 59 74 60 75 61 54 62 55 63 63 64 56 65
REMARK SMILES IDX 62 66 64 67 61 68 57 69 58 70 59 71 60 72 7 73 8 74 9 75
REMARK SMILES IDX 10 76 11 77 12 79 13 80 14 81 18 82 15 83 17 84 16 85 19 86
REMARK SMILES IDX 20 87 21 88 22 90 23 91 27 92 24 93 26 94 25 95
REMARK H PARENT 3 7 84 25 52 36 10 78 21 89
REMARK Flexibility Score: inf
ROOT
ATOM      1  C   UNL A   1      32.012  30.318  26.195  1.00  0.00     0.002 C 
ENDROOT
BRANCH   1   2
ATOM      2  C   UNL A   1      31.722  31.720  26.727  1.00  0.00     0.021 C 
BRANCH   2   3
ATOM      3  C   UNL A   1      32.932  32.458  27.277  1.00  0.00     0.116 C 
BRANCH   3   4
ATOM      4  N   UNL A   1      32.637  33.831  27.656  1.00  0.00    -0.352 N 
ATOM      5  O   UNL A   1      32.777  35.684  28.946  1.00  0.00    -0.269 OA
ATOM      6  C   UNL A   1      33.222  34.578  28.652  1.00  0.00     0.251 C 
ATOM      7  H   UNL A   1      31.932  34.280  27.137  1.00  0.00     0.163 HD
BRANCH   6   8
ATOM      8  C   UNL A   1      34.382  34.019  29.384  1.00  0.00     0.039 A 
ATOM      9  C   UNL A   1      35.679  34.406  29.042  1.00  0.00     0.014 A 
ATOM     10  C   UNL A   1      34.173  33.074  30.394  1.00  0.00     0.014 A 
ATOM     11  C   UNL A   1      36.764  33.746  29.601  1.00  0.00     0.010 A 
ATOM     12  C   UNL A   1      35.271  32.478  31.025  1.00  0.00     0.010 A 
ATOM     13  C   UNL A   1      36.576  32.790  30.614  1.00  0.00    -0.014 A 
BRANCH  13  14
ATOM     14  C   UNL A   1      37.777  32.199  31.263  1.00  0.00     0.031 A 
ATOM     15  C   UNL A   1      38.210  32.610  32.643  1.00  0.00     0.074 A 
ATOM     16  C   UNL A   1      38.436  31.225  30.604  1.00  0.00     0.049 A 
ATOM     17  N   UNL A   1      39.192  32.140  33.370  1.00  0.00    -0.248 NA
ATOM     18  C   UNL A   1      37.453  33.693  33.287  1.00  0.00     0.031 C 
ATOM     19  C   UNL A   1      38.111  30.763  29.250  1.00  0.00     0.029 A 
ATOM     20  N   UNL A   1      39.483  30.425  30.982  1.00  0.00    -0.354 N 
ATOM     21  C   UNL A   1      39.180  32.870  34.553  1.00  0.00     0.074 A 
ATOM     22  C   UNL A   1      38.111  33.841  34.430  1.00  0.00     0.031 C 
ATOM     23  C   UNL A   1      38.897  29.723  28.939  1.00  0.00     0.029 A 
ATOM     24  C   UNL A   1      39.827  29.488  30.036  1.00  0.00     0.049 A 
ATOM     25  H   UNL A   1      39.944  30.513  31.848  1.00  0.00     0.167 HD
ATOM     26  C   UNL A   1      39.980  32.734  35.642  1.00  0.00     0.034 A 
ATOM     27  C   UNL A   1      40.792  28.549  30.042  1.00  0.00     0.034 A 
ATOM     28  C   UNL A   1      41.043  31.762  35.744  1.00  0.00     0.049 A 
ATOM     29  C   UNL A   1      41.663  28.424  31.259  1.00  0.00     0.074 A 
ATOM     30  C   UNL A   1      41.915  31.540  36.796  1.00  0.00     0.029 A 
ATOM     31  N   UNL A   1      41.384  30.846  34.754  1.00  0.00    -0.354 N 
ATOM     32  N   UNL A   1      41.632  29.124  32.370  1.00  0.00    -0.248 NA
ATOM     33  C   UNL A   1      42.691  27.378  31.229  1.00  0.00     0.031 C 
ATOM     34  C   UNL A   1      42.813  30.532  36.423  1.00  0.00     0.029 A 
ATOM     35  C   UNL A   1      42.462  30.074  35.165  1.00  0.00     0.049 A 
ATOM     36  H   UNL A   1      40.926  30.758  33.887  1.00  0.00     0.167 HD
ATOM     37  C   UNL A   1      42.641  28.602  33.172  1.00  0.00     0.074 A 
ATOM     38  C   UNL A   1      43.227  27.500  32.434  1.00  0.00     0.031 C 
ATOM     39  C   UNL A   1      43.055  29.001  34.401  1.00  0.00     0.034 A 
BRANCH  26  40
ATOM     40  C   UNL A   1      39.756  33.686  36.794  1.00  0.00     0.023 A 
ATOM     41  C   UNL A   1      40.630  34.758  37.048  1.00  0.00     0.031 A 
ATOM     42  C   UNL A   1      38.656  33.517  37.655  1.00  0.00     0.131 A 
ATOM     43  C   UNL A   1      40.422  35.585  38.164  1.00  0.00     0.055 A 
ATOM     44  C   UNL A   1      38.415  34.384  38.723  1.00  0.00     0.041 A 
ATOM     45  F   UNL A   1      37.798  32.501  37.474  1.00  0.00    -0.206 F 
ATOM     46  C   UNL A   1      39.307  35.419  38.988  1.00  0.00     0.022 A 
BRANCH  43  47
ATOM     47  S   UNL A   1      41.691  36.809  38.588  1.00  0.00     0.124 S 
ATOM     48  O   UNL A   1      42.248  37.124  37.276  1.00  0.00    -0.237 OA
ATOM     49  O   UNL A   1      40.911  37.866  39.221  1.00  0.00    -0.237 OA
ATOM     50  O   UNL A   1      42.589  36.078  39.480  1.00  0.00    -0.744 OA
ENDBRANCH  43  47
ENDBRANCH  26  40
BRANCH  27  51
ATOM     51  C   UNL A   1      41.005  27.687  28.845  1.00  0.00     0.023 A 
ATOM     52  C   UNL A   1      42.040  27.944  27.933  1.00  0.00     0.031 A 
ATOM     53  C   UNL A   1      40.151  26.599  28.586  1.00  0.00     0.131 A 
ATOM     54  C   UNL A   1      42.169  27.150  26.784  1.00  0.00     0.055 A 
ATOM     55  C   UNL A   1      40.319  25.777  27.472  1.00  0.00     0.041 A 
ATOM     56  F   UNL A   1      39.149  26.305  29.430  1.00  0.00    -0.206 F 
ATOM     57  C   UNL A   1      41.326  26.060  26.554  1.00  0.00     0.022 A 
BRANCH  54  58
ATOM     58  S   UNL A   1      43.405  27.616  25.541  1.00  0.00     0.124 S 
ATOM     59  O   UNL A   1      43.982  28.819  26.128  1.00  0.00    -0.237 OA
ATOM     60  O   UNL A   1      44.266  26.438  25.517  1.00  0.00    -0.237 OA
ATOM     61  O   UNL A   1      42.610  27.830  24.334  1.00  0.00    -0.744 OA
ENDBRANCH  54  58
ENDBRANCH  27  51
BRANCH  39  62
ATOM     62  C   UNL A   1      44.194  28.221  35.009  1.00  0.00     0.023 A 
ATOM     63  C   UNL A   1      43.976  27.302  36.051  1.00  0.00     0.031 A 
ATOM     64  C   UNL A   1      45.514  28.441  34.582  1.00  0.00     0.131 A 
ATOM     65  C   UNL A   1      45.069  26.693  36.684  1.00  0.00     0.055 A 
ATOM     66  C   UNL A   1      46.594  27.784  35.175  1.00  0.00     0.041 A 
ATOM     67  F   UNL A   1      45.778  29.309  33.593  1.00  0.00    -0.206 F 
ATOM     68  C   UNL A   1      46.376  26.918  36.243  1.00  0.00     0.022 A 
BRANCH  65  69
ATOM     69  S   UNL A   1      44.767  25.694  38.166  1.00  0.00     0.124 S 
ATOM     70  O   UNL A   1      44.713  24.343  37.617  1.00  0.00    -0.237 OA
ATOM     71  O   UNL A   1      45.930  26.001  38.992  1.00  0.00    -0.237 OA
ATOM     72  O   UNL A   1      43.496  26.209  38.673  1.00  0.00    -0.744 OA
ENDBRANCH  65  69
ENDBRANCH  39  62
ENDBRANCH  13  14
ENDBRANCH   6   8
ENDBRANCH   3   4
ENDBRANCH   2   3
ENDBRANCH   1   2
BRANCH   1  73
ATOM     73  C   UNL A   1      32.604  29.337  27.212  1.00  0.00     0.002 C 
BRANCH  73  74
ATOM     74  C   UNL A   1      31.715  28.141  27.586  1.00  0.00     0.021 C 
BRANCH  74  75
ATOM     75  C   UNL A   1      31.291  27.255  26.413  1.00  0.00     0.116 C 
BRANCH  75  76
ATOM     76  N   UNL A   1      31.660  25.873  26.648  1.00  0.00    -0.356 N 
ATOM     77  C   UNL A   1      32.447  25.036  25.923  1.00  0.00     0.224 C 
ATOM     78  H   UNL A   1      31.277  25.476  27.463  1.00  0.00     0.163 HD
ATOM     79  O   UNL A   1      32.477  23.852  26.267  1.00  0.00    -0.275 OA
BRANCH  77  80
ATOM     80  C   UNL A   1      33.253  25.579  24.746  1.00  0.00     0.095 C 
ATOM     81  C   UNL A   1      34.667  24.980  24.743  1.00  0.00     0.041 C 
ATOM     82  C   UNL A   1      32.479  25.326  23.434  1.00  0.00     0.095 C 
ATOM     83  C   UNL A   1      34.752  23.630  24.098  1.00  0.00    -0.030 C 
ATOM     84  C   UNL A   1      32.557  23.883  22.918  1.00  0.00     0.041 C 
ATOM     85  C   UNL A   1      33.801  23.136  23.295  1.00  0.00    -0.030 C 
BRANCH  82  86
ATOM     86  C   UNL A   1      32.879  26.329  22.365  1.00  0.00     0.224 C 
ATOM     87  O   UNL A   1      33.780  26.103  21.554  1.00  0.00    -0.275 OA
ATOM     88  N   UNL A   1      32.255  27.535  22.275  1.00  0.00    -0.353 N 
ATOM     89  H   UNL A   1      32.637  28.122  21.582  1.00  0.00     0.163 HD
BRANCH  88  90
ATOM     90  C   UNL A   1      31.128  28.142  22.996  1.00  0.00     0.082 C 
ATOM     91  C   UNL A   1      30.689  29.494  22.407  1.00  0.00     0.025 C 
ATOM     92  C   UNL A   1      29.960  27.135  22.968  1.00  0.00     0.025 C 
ATOM     93  C   UNL A   1      29.385  30.013  23.006  1.00  0.00     0.002 C 
ATOM     94  C   UNL A   1      28.662  27.686  23.549  1.00  0.00     0.002 C 
ATOM     95  C   UNL A   1      28.267  28.993  22.878  1.00  0.00     0.000 C 
ENDBRANCH  88  90
ENDBRANCH  82  86
ENDBRANCH  77  80
ENDBRANCH  75  76
ENDBRANCH  74  75
ENDBRANCH  73  74
ENDBRANCH   1  73
TORSDOF 18
ENDMDL
MODEL 2
REMARK VINA RESULT:     -11.8      1.941      2.195
REMARK SMILES O=C(NCCCCCCNC(=O)[C@H]1CC=CC[C@@H]1C(=O)NC1CCCCC1)c1ccc(-c2c3nc(c(-c4cc(S(=O)(=O)[O-])ccc4F)c4ccc([nH]4)c(-c4cc(S(=O)(=O)[O-])ccc4F)c4nc(c(-c5cc(S(=O)(=O)[O-])ccc5F)c5ccc2[nH]5)C=C4)C=C3)cc1
REMARK SMILES IDX 6 1 5 2 4 3 3 4 1 5 2 6 28 8 29 9 90 10 30 11 89 12 31 13
REMARK SMILES IDX 32 14 33 15 83 16 34 17 88 18 82 19 84 20 35 21 87 22 81 23
REMARK SMILES IDX 80 24 36 26 68 27 48 28 67 29 49 30 52 31 66 32 85 33 50 34
REMARK SMILES IDX 51 35 65 37 86 38 53 39 37 40 38 41 46 42 39 43 45 44 47 45
REMARK SMILES IDX 44 46 40 47 41 48 42 49 43 50 69 51 70 52 78 53 71 54 77 55
REMARK SMILES IDX 79 56 76 57 72 58 73 59 74 60 75 61 54 62 55 63 63 64 56 65
REMARK SMILES IDX 62 66 64 67 61 68 57 69 58 70 59 71 60 72 7 73 8 74 9 75
REMARK SMILES IDX 10 76 11 77 12 79 13 80 14 81 18 82 15 83 17 84 16 85 19 86
REMARK SMILES IDX 20 87 21 88 22 90 23 91 27 92 24 93 26 94 25 95
REMARK H PARENT 3 7 84 25 52 36 10 78 21 89
REMARK Flexibility Score: inf
ROOT
ATOM      1  C   UNL A   1      31.774  30.284  25.729  1.00  0.00     0.002 C 
ENDROOT
BRANCH   1   2
ATOM      2  C   UNL A   1      31.659  31.394  26.771  1.00  0.00     0.021 C 
BRANCH   2   3
ATOM      3  C   UNL A   1      32.880  32.292  26.886  1.00  0.00     0.116 C 
BRANCH   3   4
ATOM      4  N   UNL A   1      32.559  33.634  27.345  1.00  0.00    -0.352 N 
ATOM      5  O   UNL A   1      32.664  35.411  28.742  1.00  0.00    -0.269 OA
ATOM      6  C   UNL A   1      33.131  34.333  28.383  1.00  0.00     0.251 C 
ATOM      7  H   UNL A   1      31.843  34.099  26.854  1.00  0.00     0.163 HD
BRANCH   6   8
ATOM      8  C   UNL A   1      34.303  33.756  29.080  1.00  0.00     0.039 A 
ATOM      9  C   UNL A   1      35.590  34.209  28.780  1.00  0.00     0.014 A 
ATOM     10  C   UNL A   1      34.118  32.729  30.011  1.00  0.00     0.014 A 
ATOM     11  C   UNL A   1      36.692  33.542  29.296  1.00  0.00     0.010 A 
ATOM     12  C   UNL A   1      35.230  32.121  30.604  1.00  0.00     0.010 A 
ATOM     13  C   UNL A   1      36.528  32.504  30.230  1.00  0.00    -0.014 A 
BRANCH  13  14
ATOM     14  C   UNL A   1      37.743  31.903  30.842  1.00  0.00     0.031 A 
ATOM     15  C   UNL A   1      38.149  32.213  32.256  1.00  0.00     0.074 A 
ATOM     16  C   UNL A   1      38.441  31.010  30.113  1.00  0.00     0.049 A 
ATOM     17  N   UNL A   1      39.141  31.718  32.953  1.00  0.00    -0.248 NA
ATOM     18  C   UNL A   1      37.350  33.213  32.978  1.00  0.00     0.031 C 
ATOM     19  C   UNL A   1      38.144  30.651  28.721  1.00  0.00     0.029 A 
ATOM     20  N   UNL A   1      39.511  30.217  30.436  1.00  0.00    -0.354 N 
ATOM     21  C   UNL A   1      39.092  32.346  34.192  1.00  0.00     0.074 A 
ATOM     22  C   UNL A   1      37.992  33.288  34.137  1.00  0.00     0.031 C 
ATOM     23  C   UNL A   1      38.969  29.667  28.335  1.00  0.00     0.029 A 
ATOM     24  C   UNL A   1      39.896  29.374  29.419  1.00  0.00     0.049 A 
ATOM     25  H   UNL A   1      39.961  30.249  31.311  1.00  0.00     0.167 HD
ATOM     26  C   UNL A   1      39.887  32.149  35.275  1.00  0.00     0.034 A 
ATOM     27  C   UNL A   1      40.894  28.471  29.359  1.00  0.00     0.034 A 
ATOM     28  C   UNL A   1      40.983  31.208  35.309  1.00  0.00     0.049 A 
ATOM     29  C   UNL A   1      41.757  28.275  30.572  1.00  0.00     0.074 A 
ATOM     30  C   UNL A   1      41.853  30.930  36.350  1.00  0.00     0.029 A 
ATOM     31  N   UNL A   1      41.363  30.389  34.252  1.00  0.00    -0.354 N 
ATOM     32  N   UNL A   1      41.693  28.880  31.737  1.00  0.00    -0.248 NA
ATOM     33  C   UNL A   1      42.821  27.271  30.468  1.00  0.00     0.031 C 
ATOM     34  C   UNL A   1      42.789  29.987  35.905  1.00  0.00     0.029 A 
ATOM     35  C   UNL A   1      42.464  29.623  34.610  1.00  0.00     0.049 A 
ATOM     36  H   UNL A   1      40.917  30.357  33.374  1.00  0.00     0.167 HD
ATOM     37  C   UNL A   1      42.712  28.328  32.504  1.00  0.00     0.074 A 
ATOM     38  C   UNL A   1      43.342  27.311  31.685  1.00  0.00     0.031 C 
ATOM     39  C   UNL A   1      43.101  28.637  33.767  1.00  0.00     0.034 A 
BRANCH  26  40
ATOM     40  C   UNL A   1      39.620  32.993  36.499  1.00  0.00     0.023 A 
ATOM     41  C   UNL A   1      38.845  32.516  37.572  1.00  0.00     0.031 A 
ATOM     42  C   UNL A   1      40.145  34.295  36.595  1.00  0.00     0.131 A 
ATOM     43  C   UNL A   1      38.570  33.354  38.666  1.00  0.00     0.055 A 
ATOM     44  C   UNL A   1      39.926  35.098  37.717  1.00  0.00     0.041 A 
ATOM     45  F   UNL A   1      40.876  34.811  35.596  1.00  0.00    -0.206 F 
ATOM     46  C   UNL A   1      39.126  34.632  38.756  1.00  0.00     0.022 A 
BRANCH  43  47
ATOM     47  S   UNL A   1      37.384  32.789  39.916  1.00  0.00     0.124 S 
ATOM     48  O   UNL A   1      38.042  31.589  40.427  1.00  0.00    -0.237 OA
ATOM     49  O   UNL A   1      37.326  33.923  40.832  1.00  0.00    -0.237 OA
ATOM     50  O   UNL A   1      36.165  32.545  39.148  1.00  0.00    -0.744 OA
ENDBRANCH  43  47
ENDBRANCH  26  40
BRANCH  27  51
ATOM     51  C   UNL A   1      41.147  27.719  28.098  1.00  0.00     0.023 A 
ATOM     52  C   UNL A   1      40.847  26.352  27.989  1.00  0.00     0.031 A 
ATOM     53  C   UNL A   1      41.719  28.360  26.984  1.00  0.00     0.131 A 
ATOM     54  C   UNL A   1      41.160  25.662  26.809  1.00  0.00     0.055 A 
ATOM     55  C   UNL A   1      41.975  27.683  25.792  1.00  0.00     0.041 A 
ATOM     56  F   UNL A   1      42.019  29.668  27.033  1.00  0.00    -0.206 F 
ATOM     57  C   UNL A   1      41.708  26.320  25.705  1.00  0.00     0.022 A 
BRANCH  54  58
ATOM     58  S   UNL A   1      40.922  23.865  26.765  1.00  0.00     0.124 S 
ATOM     59  O   UNL A   1      41.261  23.483  28.131  1.00  0.00    -0.237 OA
ATOM     60  O   UNL A   1      39.512  23.757  26.400  1.00  0.00    -0.237 OA
ATOM     61  O   UNL A   1      41.865  23.422  25.740  1.00  0.00    -0.744 OA
ENDBRANCH  54  58
ENDBRANCH  27  51
BRANCH  39  62
ATOM     62  C   UNL A   1      44.261  27.849  34.321  1.00  0.00     0.023 A 
ATOM     63  C   UNL A   1      44.071  26.586  34.911  1.00  0.00     0.031 A 
ATOM     64  C   UNL A   1      45.558  28.389  34.312  1.00  0.00     0.131 A 
ATOM     65  C   UNL A   1      45.146  25.939  35.536  1.00  0.00     0.055 A 
ATOM     66  C   UNL A   1      46.637  27.711  34.881  1.00  0.00     0.041 A 
ATOM     67  F   UNL A   1      45.794  29.591  33.764  1.00  0.00    -0.206 F 
ATOM     68  C   UNL A   1      46.431  26.487  35.513  1.00  0.00     0.022 A 
BRANCH  65  69
ATOM     69  S   UNL A   1      44.818  24.427  36.481  1.00  0.00     0.124 S 
ATOM     70  O   UNL A   1      45.805  23.503  35.931  1.00  0.00    -0.237 OA
ATOM     71  O   UNL A   1      45.048  24.862  37.855  1.00  0.00    -0.237 OA
ATOM     72  O   UNL A   1      43.428  24.114  36.156  1.00  0.00    -0.744 OA
ENDBRANCH  65  69
ENDBRANCH  39  62
ENDBRANCH  13  14
ENDBRANCH   6   8
ENDBRANCH   3   4
ENDBRANCH   2   3
ENDBRANCH   1   2
BRANCH   1  73
ATOM     73  C   UNL A   1      32.709  29.128  26.097  1.00  0.00     0.002 C 
BRANCH  73  74
ATOM     74  C   UNL A   1      32.120  28.062  27.034  1.00  0.00     0.021 C 
BRANCH  74  75
ATOM     75  C   UNL A   1      31.209  27.035  26.358  1.00  0.00     0.116 C 
BRANCH  75  76
ATOM     76  N   UNL A   1      31.664  25.685  26.622  1.00  0.00    -0.356 N 
ATOM     77  C   UNL A   1      32.506  24.885  25.915  1.00  0.00     0.224 C 
ATOM     78  H   UNL A   1      31.305  25.281  27.444  1.00  0.00     0.163 HD
ATOM     79  O   UNL A   1      32.610  23.713  26.283  1.00  0.00    -0.275 OA
BRANCH  77  80
ATOM     80  C   UNL A   1      33.279  25.454  24.729  1.00  0.00     0.095 C 
ATOM     81  C   UNL A   1      34.667  24.805  24.634  1.00  0.00     0.041 C 
ATOM     82  C   UNL A   1      32.439  25.292  23.443  1.00  0.00     0.095 C 
ATOM     83  C   UNL A   1      34.673  23.486  23.924  1.00  0.00    -0.030 C 
ATOM     84  C   UNL A   1      32.440  23.873  22.859  1.00  0.00     0.041 C 
ATOM     85  C   UNL A   1      33.669  23.065  23.144  1.00  0.00    -0.030 C 
BRANCH  82  86
ATOM     86  C   UNL A   1      32.830  26.330  22.404  1.00  0.00     0.224 C 
ATOM     87  O   UNL A   1      33.764  26.156  21.619  1.00  0.00    -0.275 OA
ATOM     88  N   UNL A   1      32.158  27.511  22.314  1.00  0.00    -0.353 N 
ATOM     89  H   UNL A   1      32.537  28.125  21.644  1.00  0.00     0.163 HD
BRANCH  88  90
ATOM     90  C   UNL A   1      30.985  28.056  23.010  1.00  0.00     0.082 C 
ATOM     91  C   UNL A   1      30.469  29.367  22.389  1.00  0.00     0.025 C 
ATOM     92  C   UNL A   1      29.884  26.977  22.984  1.00  0.00     0.025 C 
ATOM     93  C   UNL A   1      29.126  29.812  22.961  1.00  0.00     0.002 C 
ATOM     94  C   UNL A   1      28.545  27.454  23.538  1.00  0.00     0.002 C 
ATOM     95  C   UNL A   1      28.077  28.721  22.838  1.00  0.00     0.000 C 
ENDBRANCH  88  90
ENDBRANCH  82  86
ENDBRANCH  77  80
ENDBRANCH  75  76
ENDBRANCH  74  75
ENDBRANCH  73  74
ENDBRANCH   1  73
TORSDOF 18
ENDMDL
MODEL 3
REMARK VINA RESULT:     -11.7      6.115     10.413
REMARK SMILES O=C(NCCCCCCNC(=O)[C@H]1CC=CC[C@@H]1C(=O)NC1CCCCC1)c1ccc(-c2c3nc(c(-c4cc(S(=O)(=O)[O-])ccc4F)c4ccc([nH]4)c(-c4cc(S(=O)(=O)[O-])ccc4F)c4nc(c(-c5cc(S(=O)(=O)[O-])ccc5F)c5ccc2[nH]5)C=C4)C=C3)cc1
REMARK SMILES IDX 6 1 5 2 4 3 3 4 1 5 2 6 28 8 29 9 90 10 30 11 89 12 31 13
REMARK SMILES IDX 32 14 33 15 83 16 34 17 88 18 82 19 84 20 35 21 87 22 81 23
REMARK SMILES IDX 80 24 36 26 68 27 48 28 67 29 49 30 52 31 66 32 85 33 50 34
REMARK SMILES IDX 51 35 65 37 86 38 53 39 37 40 38 41 46 42 39 43 45 44 47 45
REMARK SMILES IDX 44 46 40 47 41 48 42 49 43 50 69 51 70 52 78 53 71 54 77 55
REMARK SMILES IDX 79 56 76 57 72 58 73 59 74 60 75 61 54 62 55 63 63 64 56 65
REMARK SMILES IDX 62 66 64 67 61 68 57 69 58 70 59 71 60 72 7 73 8 74 9 75
REMARK SMILES IDX 10 76 11 77 12 79 13 80 14 81 18 82 15 83 17 84 16 85 19 86
REMARK SMILES IDX 20 87 21 88 22 90 23 91 27 92 24 93 26 94 25 95
REMARK H PARENT 3 7 84 25 52 36 10 78 21 89
REMARK Flexibility Score: inf
ROOT
ATOM      1  C   UNL A   1      40.414  22.182  27.614  1.00  0.00     0.002 C 
ENDROOT
BRANCH   1   2
ATOM      2  C   UNL A   1      40.867  20.727  27.512  1.00  0.00     0.021 C 
BRANCH   2   3
ATOM      3  C   UNL A   1      40.740  20.113  26.127  1.00  0.00     0.116 C 
BRANCH   3   4
ATOM      4  N   UNL A   1      41.894  19.312  25.751  1.00  0.00    -0.352 N 
ATOM      5  O   UNL A   1      44.019  18.965  25.059  1.00  0.00    -0.269 OA
ATOM      6  C   UNL A   1      43.176  19.742  25.498  1.00  0.00     0.251 C 
ATOM      7  H   UNL A   1      41.738  18.343  25.667  1.00  0.00     0.163 HD
BRANCH   6   8
ATOM      8  C   UNL A   1      43.519  21.163  25.738  1.00  0.00     0.039 A 
ATOM      9  C   UNL A   1      44.091  21.550  26.951  1.00  0.00     0.014 A 
ATOM     10  C   UNL A   1      43.232  22.119  24.758  1.00  0.00     0.014 A 
ATOM     11  C   UNL A   1      44.239  22.899  27.242  1.00  0.00     0.010 A 
ATOM     12  C   UNL A   1      43.472  23.473  25.018  1.00  0.00     0.010 A 
ATOM     13  C   UNL A   1      43.953  23.877  26.273  1.00  0.00    -0.014 A 
BRANCH  13  14
ATOM     14  C   UNL A   1      44.241  25.300  26.595  1.00  0.00     0.031 A 
ATOM     15  C   UNL A   1      43.204  26.193  27.216  1.00  0.00     0.074 A 
ATOM     16  C   UNL A   1      45.491  25.755  26.377  1.00  0.00     0.049 A 
ATOM     17  N   UNL A   1      43.323  27.434  27.616  1.00  0.00    -0.248 NA
ATOM     18  C   UNL A   1      41.860  25.630  27.402  1.00  0.00     0.031 C 
ATOM     19  C   UNL A   1      46.570  24.976  25.760  1.00  0.00     0.029 A 
ATOM     20  N   UNL A   1      46.081  26.956  26.675  1.00  0.00    -0.354 N 
ATOM     21  C   UNL A   1      42.071  27.806  28.096  1.00  0.00     0.074 A 
ATOM     22  C   UNL A   1      41.198  26.666  27.901  1.00  0.00     0.031 C 
ATOM     23  C   UNL A   1      47.701  25.694  25.784  1.00  0.00     0.029 A 
ATOM     24  C   UNL A   1      47.417  27.006  26.350  1.00  0.00     0.049 A 
ATOM     25  H   UNL A   1      45.595  27.710  27.081  1.00  0.00     0.167 HD
ATOM     26  C   UNL A   1      41.692  28.984  28.653  1.00  0.00     0.034 A 
ATOM     27  C   UNL A   1      48.314  28.001  26.481  1.00  0.00     0.034 A 
ATOM     28  C   UNL A   1      42.578  30.111  28.834  1.00  0.00     0.049 A 
ATOM     29  C   UNL A   1      47.866  29.294  27.100  1.00  0.00     0.074 A 
ATOM     30  C   UNL A   1      42.299  31.352  29.384  1.00  0.00     0.029 A 
ATOM     31  N   UNL A   1      43.919  30.138  28.468  1.00  0.00    -0.354 N 
ATOM     32  N   UNL A   1      46.676  29.624  27.550  1.00  0.00    -0.248 NA
ATOM     33  C   UNL A   1      48.879  30.346  27.238  1.00  0.00     0.031 C 
ATOM     34  C   UNL A   1      43.452  32.143  29.300  1.00  0.00     0.029 A 
ATOM     35  C   UNL A   1      44.472  31.377  28.762  1.00  0.00     0.049 A 
ATOM     36  H   UNL A   1      44.407  29.387  28.059  1.00  0.00     0.167 HD
ATOM     37  C   UNL A   1      46.801  30.925  28.023  1.00  0.00     0.074 A 
ATOM     38  C   UNL A   1      48.190  31.299  27.846  1.00  0.00     0.031 C 
ATOM     39  C   UNL A   1      45.853  31.743  28.547  1.00  0.00     0.034 A 
BRANCH  26  40
ATOM     40  C   UNL A   1      40.248  29.124  29.074  1.00  0.00     0.023 A 
ATOM     41  C   UNL A   1      39.865  29.089  30.427  1.00  0.00     0.031 A 
ATOM     42  C   UNL A   1      39.238  29.291  28.109  1.00  0.00     0.131 A 
ATOM     43  C   UNL A   1      38.506  29.163  30.774  1.00  0.00     0.055 A 
ATOM     44  C   UNL A   1      37.895  29.433  28.465  1.00  0.00     0.041 A 
ATOM     45  F   UNL A   1      39.540  29.313  26.802  1.00  0.00    -0.206 F 
ATOM     46  C   UNL A   1      37.521  29.359  29.803  1.00  0.00     0.022 A 
BRANCH  43  47
ATOM     47  S   UNL A   1      38.034  28.885  32.503  1.00  0.00     0.124 S 
ATOM     48  O   UNL A   1      36.652  29.357  32.511  1.00  0.00    -0.237 OA
ATOM     49  O   UNL A   1      38.218  27.447  32.654  1.00  0.00    -0.237 OA
ATOM     50  O   UNL A   1      38.973  29.716  33.253  1.00  0.00    -0.744 OA
ENDBRANCH  43  47
ENDBRANCH  26  40
BRANCH  27  51
ATOM     51  C   UNL A   1      49.708  27.823  25.984  1.00  0.00     0.023 A 
ATOM     52  C   UNL A   1      50.062  28.151  24.667  1.00  0.00     0.031 A 
ATOM     53  C   UNL A   1      50.705  27.294  26.824  1.00  0.00     0.131 A 
ATOM     54  C   UNL A   1      51.368  27.908  24.215  1.00  0.00     0.055 A 
ATOM     55  C   UNL A   1      52.017  27.108  26.387  1.00  0.00     0.041 A 
ATOM     56  F   UNL A   1      50.421  26.969  28.095  1.00  0.00    -0.206 F 
ATOM     57  C   UNL A   1      52.351  27.403  25.069  1.00  0.00     0.022 A 
BRANCH  54  58
ATOM     58  S   UNL A   1      51.745  28.181  22.462  1.00  0.00     0.124 S 
ATOM     59  O   UNL A   1      51.162  29.497  22.231  1.00  0.00    -0.237 OA
ATOM     60  O   UNL A   1      53.203  28.114  22.454  1.00  0.00    -0.237 OA
ATOM     61  O   UNL A   1      51.068  27.072  21.793  1.00  0.00    -0.744 OA
ENDBRANCH  54  58
ENDBRANCH  27  51
BRANCH  39  62
ATOM     62  C   UNL A   1      46.313  33.117  28.966  1.00  0.00     0.023 A 
ATOM     63  C   UNL A   1      46.290  34.200  28.070  1.00  0.00     0.031 A 
ATOM     64  C   UNL A   1      46.834  33.331  30.254  1.00  0.00     0.131 A 
ATOM     65  C   UNL A   1      46.849  35.430  28.447  1.00  0.00     0.055 A 
ATOM     66  C   UNL A   1      47.332  34.575  30.644  1.00  0.00     0.041 A 
ATOM     67  F   UNL A   1      46.882  32.331  31.147  1.00  0.00    -0.206 F 
ATOM     68  C   UNL A   1      47.357  35.628  29.733  1.00  0.00     0.022 A 
BRANCH  65  69
ATOM     69  S   UNL A   1      47.008  36.731  27.194  1.00  0.00     0.124 S 
ATOM     70  O   UNL A   1      46.118  36.250  26.141  1.00  0.00    -0.237 OA
ATOM     71  O   UNL A   1      46.559  37.916  27.916  1.00  0.00    -0.237 OA
ATOM     72  O   UNL A   1      48.430  36.712  26.859  1.00  0.00    -0.744 OA
ENDBRANCH  65  69
ENDBRANCH  39  62
ENDBRANCH  13  14
ENDBRANCH   6   8
ENDBRANCH   3   4
ENDBRANCH   2   3
ENDBRANCH   1   2
BRANCH   1  73
ATOM     73  C   UNL A   1      39.742  22.751  26.361  1.00  0.00     0.002 C 
BRANCH  73  74
ATOM     74  C   UNL A   1      38.811  23.954  26.587  1.00  0.00     0.021 C 
BRANCH  74  75
ATOM     75  C   UNL A   1      37.362  23.746  26.142  1.00  0.00     0.116 C 
BRANCH  75  76
ATOM     76  N   UNL A   1      37.284  23.545  24.709  1.00  0.00    -0.356 N 
ATOM     77  C   UNL A   1      36.221  23.236  23.920  1.00  0.00     0.224 C 
ATOM     78  H   UNL A   1      38.137  23.647  24.230  1.00  0.00     0.163 HD
ATOM     79  O   UNL A   1      36.456  22.971  22.739  1.00  0.00    -0.275 OA
BRANCH  77  80
ATOM     80  C   UNL A   1      34.812  23.239  24.505  1.00  0.00     0.095 C 
ATOM     81  C   UNL A   1      34.480  24.617  25.095  1.00  0.00     0.041 C 
ATOM     82  C   UNL A   1      33.807  22.777  23.428  1.00  0.00     0.095 C 
ATOM     83  C   UNL A   1      33.993  25.609  24.083  1.00  0.00    -0.030 C 
ATOM     84  C   UNL A   1      33.457  23.847  22.386  1.00  0.00     0.041 C 
ATOM     85  C   UNL A   1      33.551  25.263  22.867  1.00  0.00    -0.030 C 
BRANCH  82  86
ATOM     86  C   UNL A   1      32.563  22.181  24.065  1.00  0.00     0.224 C 
ATOM     87  O   UNL A   1      31.658  22.881  24.522  1.00  0.00    -0.275 OA
ATOM     88  N   UNL A   1      32.411  20.832  24.165  1.00  0.00    -0.353 N 
ATOM     89  H   UNL A   1      31.594  20.565  24.646  1.00  0.00     0.163 HD
BRANCH  88  90
ATOM     90  C   UNL A   1      33.214  19.692  23.702  1.00  0.00     0.082 C 
ATOM     91  C   UNL A   1      34.087  19.076  24.809  1.00  0.00     0.025 C 
ATOM     92  C   UNL A   1      32.242  18.638  23.132  1.00  0.00     0.025 C 
ATOM     93  C   UNL A   1      34.743  17.762  24.395  1.00  0.00     0.002 C 
ATOM     94  C   UNL A   1      32.918  17.326  22.748  1.00  0.00     0.002 C 
ATOM     95  C   UNL A   1      33.716  16.754  23.911  1.00  0.00     0.000 C 
ENDBRANCH  88  90
ENDBRANCH  82  86
ENDBRANCH  77  80
ENDBRANCH  75  76
ENDBRANCH  74  75
ENDBRANCH  73  74
ENDBRANCH   1  73
TORSDOF 18
ENDMDL
