MODEL 1
REMARK VINA RESULT:      -9.4      0.000      0.000
REMARK SMILES CCCC[C@H](C(=O)OC)[C@H](O)C(=O)NCCCCCCNC(=O)c1ccc(-c2c3nc(c(-c4cc(S(=O)(=O)[O-])ccc4F)c4ccc([nH]4)c(-c4cc(S(=O)(=O)[O-])ccc4F)c4nc(c(-c5cc(S(=O)(=O)[O-])ccc5F)c5ccc2[nH]5)C=C4)C=C3)cc1
REMARK SMILES IDX 17 1 16 2 15 3 14 4 12 5 13 6 10 8 5 9 4 10 3 11 2 12 1 13
REMARK SMILES IDX 6 14 7 15 8 16 9 17 11 18 18 20 19 21 20 22 21 23 22 24
REMARK SMILES IDX 23 26 24 27 25 28 86 29 26 30 85 31 27 32 28 33 29 34 79 35
REMARK SMILES IDX 30 36 84 37 78 38 80 39 31 40 83 41 77 42 76 43 32 45 64 46
REMARK SMILES IDX 44 47 63 48 45 49 48 50 62 51 81 52 46 53 47 54 61 56 82 57
REMARK SMILES IDX 49 58 33 59 34 60 42 61 35 62 41 63 43 64 40 65 36 66 37 67
REMARK SMILES IDX 38 68 39 69 65 70 66 71 74 72 67 73 73 74 75 75 72 76 68 77
REMARK SMILES IDX 69 78 70 79 71 80 50 81 51 82 59 83 52 84 58 85 60 86 57 87
REMARK SMILES IDX 53 88 54 89 55 90 56 91
REMARK H PARENT 14 7 11 19 21 25 80 44 48 55
REMARK Flexibility Score: inf
ROOT
ATOM      1  C   UNL A   1      34.327  23.877  23.544  1.00  0.00     0.002 C 
ENDROOT
BRANCH   1   2
ATOM      2  C   UNL A   1      33.220  23.952  22.490  1.00  0.00     0.021 C 
BRANCH   2   3
ATOM      3  C   UNL A   1      33.060  25.333  21.863  1.00  0.00     0.116 C 
BRANCH   3   4
ATOM      4  N   UNL A   1      31.886  26.032  22.370  1.00  0.00    -0.354 N 
ATOM      5  C   UNL A   1      31.801  26.944  23.385  1.00  0.00     0.249 C 
ATOM      6  O   UNL A   1      30.705  27.421  23.678  1.00  0.00    -0.272 OA
ATOM      7  H   UNL A   1      31.037  25.819  21.918  1.00  0.00     0.163 HD
BRANCH   5   8
ATOM      8  C   UNL A   1      33.080  27.349  24.138  1.00  0.00     0.217 C 
BRANCH   8   9
ATOM      9  C   UNL A   1      32.963  26.942  25.616  1.00  0.00     0.137 C 
BRANCH   9  10
ATOM     10  C   UNL A   1      31.817  26.009  26.053  1.00  0.00     0.018 C 
BRANCH  10  11
ATOM     11  C   UNL A   1      32.059  24.498  26.135  1.00  0.00     0.001 C 
BRANCH  11  12
ATOM     12  C   UNL A   1      30.970  23.555  25.606  1.00  0.00    -0.003 C 
ATOM     13  C   UNL A   1      31.268  22.066  25.729  1.00  0.00     0.004 C 
ENDBRANCH  11  12
ENDBRANCH  10  11
ENDBRANCH   9  10
BRANCH   9  14
ATOM     14  C   UNL A   1      33.078  28.138  26.546  1.00  0.00     0.311 C 
ATOM     15  O   UNL A   1      34.112  28.409  27.149  1.00  0.00    -0.252 OA
BRANCH  14  16
ATOM     16  O   UNL A   1      31.931  28.855  26.643  1.00  0.00    -0.469 OA
ATOM     17  C   UNL A   1      32.141  30.268  26.627  1.00  0.00     0.282 C 
ENDBRANCH  14  16
ENDBRANCH   9  14
ENDBRANCH   8   9
BRANCH   8  18
ATOM     18  O   UNL A   1      33.247  28.753  23.947  1.00  0.00    -0.382 OA
ATOM     19  H   UNL A   1      33.959  29.075  24.521  1.00  0.00     0.211 HD
ENDBRANCH   8  18
ENDBRANCH   5   8
ENDBRANCH   3   4
ENDBRANCH   2   3
ENDBRANCH   1   2
BRANCH   1  20
ATOM     20  C   UNL A   1      34.555  22.484  24.138  1.00  0.00     0.002 C 
BRANCH  20  21
ATOM     21  C   UNL A   1      36.020  22.037  24.192  1.00  0.00     0.021 C 
BRANCH  21  22
ATOM     22  C   UNL A   1      36.565  21.834  25.601  1.00  0.00     0.116 C 
BRANCH  22  23
ATOM     23  N   UNL A   1      37.561  20.775  25.646  1.00  0.00    -0.352 N 
ATOM     24  C   UNL A   1      38.908  20.857  25.896  1.00  0.00     0.251 C 
ATOM     25  H   UNL A   1      37.219  19.868  25.473  1.00  0.00     0.163 HD
ATOM     26  O   UNL A   1      39.632  19.897  25.666  1.00  0.00    -0.269 OA
BRANCH  24  27
ATOM     27  C   UNL A   1      39.476  22.118  26.421  1.00  0.00     0.039 A 
ATOM     28  C   UNL A   1      40.550  22.056  27.312  1.00  0.00     0.014 A 
ATOM     29  C   UNL A   1      38.959  23.353  26.024  1.00  0.00     0.014 A 
ATOM     30  C   UNL A   1      41.152  23.239  27.745  1.00  0.00     0.010 A 
ATOM     31  C   UNL A   1      39.608  24.527  26.396  1.00  0.00     0.010 A 
ATOM     32  C   UNL A   1      40.716  24.481  27.256  1.00  0.00    -0.014 A 
BRANCH  32  33
ATOM     33  C   UNL A   1      41.422  25.739  27.612  1.00  0.00     0.031 A 
ATOM     34  C   UNL A   1      40.714  26.815  28.386  1.00  0.00     0.074 A 
ATOM     35  C   UNL A   1      42.680  25.939  27.173  1.00  0.00     0.049 A 
ATOM     36  N   UNL A   1      41.131  28.010  28.716  1.00  0.00    -0.248 NA
ATOM     37  C   UNL A   1      39.342  26.515  28.820  1.00  0.00     0.031 C 
ATOM     38  C   UNL A   1      43.454  24.986  26.374  1.00  0.00     0.029 A 
ATOM     39  N   UNL A   1      43.526  27.010  27.319  1.00  0.00    -0.354 N 
ATOM     40  C   UNL A   1      40.075  28.607  29.395  1.00  0.00     0.074 A 
ATOM     41  C   UNL A   1      38.974  27.666  29.361  1.00  0.00     0.031 C 
ATOM     42  C   UNL A   1      44.662  25.509  26.115  1.00  0.00     0.029 A 
ATOM     43  C   UNL A   1      44.732  26.853  26.678  1.00  0.00     0.049 A 
ATOM     44  H   UNL A   1      43.289  27.815  27.835  1.00  0.00     0.167 HD
ATOM     45  C   UNL A   1      40.036  29.817  30.010  1.00  0.00     0.034 A 
ATOM     46  C   UNL A   1      45.768  27.703  26.534  1.00  0.00     0.034 A 
ATOM     47  C   UNL A   1      41.142  30.744  30.019  1.00  0.00     0.049 A 
ATOM     48  C   UNL A   1      45.688  29.064  27.177  1.00  0.00     0.074 A 
ATOM     49  C   UNL A   1      41.232  31.973  30.649  1.00  0.00     0.029 A 
ATOM     50  N   UNL A   1      42.349  30.555  29.352  1.00  0.00    -0.354 N 
ATOM     51  N   UNL A   1      44.703  29.592  27.868  1.00  0.00    -0.248 NA
ATOM     52  C   UNL A   1      46.857  29.937  27.028  1.00  0.00     0.031 C 
ATOM     53  C   UNL A   1      42.451  32.562  30.295  1.00  0.00     0.029 A 
ATOM     54  C   UNL A   1      43.166  31.663  29.519  1.00  0.00     0.049 A 
ATOM     55  H   UNL A   1      42.586  29.751  28.837  1.00  0.00     0.167 HD
ATOM     56  C   UNL A   1      45.146  30.854  28.254  1.00  0.00     0.074 A 
ATOM     57  C   UNL A   1      46.491  30.997  27.736  1.00  0.00     0.031 C 
ATOM     58  C   UNL A   1      44.498  31.806  28.975  1.00  0.00     0.034 A 
BRANCH  45  59
ATOM     59  C   UNL A   1      38.742  30.206  30.688  1.00  0.00     0.023 A 
ATOM     60  C   UNL A   1      37.781  31.003  30.039  1.00  0.00     0.031 A 
ATOM     61  C   UNL A   1      38.482  29.818  32.015  1.00  0.00     0.131 A 
ATOM     62  C   UNL A   1      36.662  31.467  30.745  1.00  0.00     0.055 A 
ATOM     63  C   UNL A   1      37.316  30.204  32.680  1.00  0.00     0.041 A 
ATOM     64  F   UNL A   1      39.367  29.076  32.697  1.00  0.00    -0.206 F 
ATOM     65  C   UNL A   1      36.407  31.051  32.054  1.00  0.00     0.022 A 
BRANCH  62  66
ATOM     66  S   UNL A   1      35.646  32.768  29.992  1.00  0.00     0.124 S 
ATOM     67  O   UNL A   1      36.360  33.975  30.404  1.00  0.00    -0.237 OA
ATOM     68  O   UNL A   1      35.714  32.439  28.573  1.00  0.00    -0.237 OA
ATOM     69  O   UNL A   1      34.337  32.585  30.614  1.00  0.00    -0.744 OA
ENDBRANCH  62  66
ENDBRANCH  45  59
BRANCH  46  70
ATOM     70  C   UNL A   1      46.952  27.305  25.717  1.00  0.00     0.023 A 
ATOM     71  C   UNL A   1      47.102  27.734  24.390  1.00  0.00     0.031 A 
ATOM     72  C   UNL A   1      47.948  26.472  26.258  1.00  0.00     0.131 A 
ATOM     73  C   UNL A   1      48.204  27.301  23.636  1.00  0.00     0.055 A 
ATOM     74  C   UNL A   1      49.070  26.089  25.523  1.00  0.00     0.041 A 
ATOM     75  F   UNL A   1      47.855  26.034  27.524  1.00  0.00    -0.206 F 
ATOM     76  C   UNL A   1      49.197  26.495  24.198  1.00  0.00     0.022 A 
BRANCH  73  77
ATOM     77  S   UNL A   1      48.286  27.743  21.878  1.00  0.00     0.124 S 
ATOM     78  O   UNL A   1      48.455  26.437  21.251  1.00  0.00    -0.237 OA
ATOM     79  O   UNL A   1      46.996  28.394  21.670  1.00  0.00    -0.237 OA
ATOM     80  O   UNL A   1      49.447  28.628  21.803  1.00  0.00    -0.744 OA
ENDBRANCH  73  77
ENDBRANCH  46  70
BRANCH  58  81
ATOM     81  C   UNL A   1      45.257  33.079  29.270  1.00  0.00     0.023 A 
ATOM     82  C   UNL A   1      45.267  34.161  28.373  1.00  0.00     0.031 A 
ATOM     83  C   UNL A   1      45.981  33.211  30.469  1.00  0.00     0.131 A 
ATOM     84  C   UNL A   1      46.026  35.305  28.663  1.00  0.00     0.055 A 
ATOM     85  C   UNL A   1      46.680  34.376  30.784  1.00  0.00     0.041 A 
ATOM     86  F   UNL A   1      46.013  32.207  31.362  1.00  0.00    -0.206 F 
ATOM     87  C   UNL A   1      46.717  35.428  29.872  1.00  0.00     0.022 A 
BRANCH  84  88
ATOM     88  S   UNL A   1      46.178  36.596  27.399  1.00  0.00     0.124 S 
ATOM     89  O   UNL A   1      47.117  37.521  28.023  1.00  0.00    -0.237 OA
ATOM     90  O   UNL A   1      46.684  35.851  26.250  1.00  0.00    -0.237 OA
ATOM     91  O   UNL A   1      44.813  37.101  27.257  1.00  0.00    -0.744 OA
ENDBRANCH  84  88
ENDBRANCH  58  81
ENDBRANCH  32  33
ENDBRANCH  24  27
ENDBRANCH  22  23
ENDBRANCH  21  22
ENDBRANCH  20  21
ENDBRANCH   1  20
TORSDOF 23
ENDMDL
MODEL 2
REMARK VINA RESULT:      -9.4      1.762      7.996
REMARK SMILES CCCC[C@H](C(=O)OC)[C@H](O)C(=O)NCCCCCCNC(=O)c1ccc(-c2c3nc(c(-c4cc(S(=O)(=O)[O-])ccc4F)c4ccc([nH]4)c(-c4cc(S(=O)(=O)[O-])ccc4F)c4nc(c(-c5cc(S(=O)(=O)[O-])ccc5F)c5ccc2[nH]5)C=C4)C=C3)cc1
REMARK SMILES IDX 17 1 16 2 15 3 14 4 12 5 13 6 10 8 5 9 4 10 3 11 2 12 1 13
REMARK SMILES IDX 6 14 7 15 8 16 9 17 11 18 18 20 19 21 20 22 21 23 22 24
REMARK SMILES IDX 23 26 24 27 25 28 86 29 26 30 85 31 27 32 28 33 29 34 79 35
REMARK SMILES IDX 30 36 84 37 78 38 80 39 31 40 83 41 77 42 76 43 32 45 64 46
REMARK SMILES IDX 44 47 63 48 45 49 48 50 62 51 81 52 46 53 47 54 61 56 82 57
REMARK SMILES IDX 49 58 33 59 34 60 42 61 35 62 41 63 43 64 40 65 36 66 37 67
REMARK SMILES IDX 38 68 39 69 65 70 66 71 74 72 67 73 73 74 75 75 72 76 68 77
REMARK SMILES IDX 69 78 70 79 71 80 50 81 51 82 59 83 52 84 58 85 60 86 57 87
REMARK SMILES IDX 53 88 54 89 55 90 56 91
REMARK H PARENT 14 7 11 19 21 25 80 44 48 55
REMARK Flexibility Score: inf
ROOT
ATOM      1  C   UNL A   1      34.522  23.362  23.390  1.00  0.00     0.002 C 
ENDROOT
BRANCH   1   2
ATOM      2  C   UNL A   1      33.284  22.586  22.937  1.00  0.00     0.021 C 
BRANCH   2   3
ATOM      3  C   UNL A   1      32.746  21.619  23.985  1.00  0.00     0.116 C 
BRANCH   3   4
ATOM      4  N   UNL A   1      33.370  21.820  25.287  1.00  0.00    -0.354 N 
ATOM      5  C   UNL A   1      32.900  22.517  26.366  1.00  0.00     0.249 C 
ATOM      6  O   UNL A   1      33.585  22.585  27.386  1.00  0.00    -0.272 OA
ATOM      7  H   UNL A   1      34.250  21.395  25.407  1.00  0.00     0.163 HD
BRANCH   5   8
ATOM      8  C   UNL A   1      31.525  23.202  26.275  1.00  0.00     0.217 C 
BRANCH   8   9
ATOM      9  C   UNL A   1      31.686  24.611  25.681  1.00  0.00     0.137 C 
BRANCH   9  10
ATOM     10  C   UNL A   1      32.724  25.573  26.291  1.00  0.00     0.018 C 
BRANCH  10  11
ATOM     11  C   UNL A   1      33.765  26.239  25.384  1.00  0.00     0.001 C 
BRANCH  11  12
ATOM     12  C   UNL A   1      33.398  27.564  24.703  1.00  0.00    -0.003 C 
ATOM     13  C   UNL A   1      33.721  27.655  23.217  1.00  0.00     0.004 C 
ENDBRANCH  11  12
ENDBRANCH  10  11
ENDBRANCH   9  10
BRANCH   9  14
ATOM     14  C   UNL A   1      30.347  25.303  25.488  1.00  0.00     0.311 C 
ATOM     15  O   UNL A   1      29.624  25.616  26.429  1.00  0.00    -0.252 OA
BRANCH  14  16
ATOM     16  O   UNL A   1      30.040  25.524  24.185  1.00  0.00    -0.469 OA
ATOM     17  C   UNL A   1      29.173  26.642  23.988  1.00  0.00     0.282 C 
ENDBRANCH  14  16
ENDBRANCH   9  14
ENDBRANCH   8   9
BRANCH   8  18
ATOM     18  O   UNL A   1      30.973  23.200  27.591  1.00  0.00    -0.382 OA
ATOM     19  H   UNL A   1      31.340  22.457  28.094  1.00  0.00     0.211 HD
ENDBRANCH   8  18
ENDBRANCH   5   8
ENDBRANCH   3   4
ENDBRANCH   2   3
ENDBRANCH   1   2
BRANCH   1  20
ATOM     20  C   UNL A   1      35.814  22.541  23.440  1.00  0.00     0.002 C 
BRANCH  20  21
ATOM     21  C   UNL A   1      36.896  23.092  24.375  1.00  0.00     0.021 C 
BRANCH  21  22
ATOM     22  C   UNL A   1      36.887  22.487  25.774  1.00  0.00     0.116 C 
BRANCH  22  23
ATOM     23  N   UNL A   1      37.991  21.560  25.966  1.00  0.00    -0.352 N 
ATOM     24  C   UNL A   1      39.295  21.819  26.311  1.00  0.00     0.251 C 
ATOM     25  H   UNL A   1      37.771  20.610  25.831  1.00  0.00     0.163 HD
ATOM     26  O   UNL A   1      40.141  20.940  26.202  1.00  0.00    -0.269 OA
BRANCH  24  27
ATOM     27  C   UNL A   1      39.668  23.168  26.788  1.00  0.00     0.039 A 
ATOM     28  C   UNL A   1      40.484  23.284  27.916  1.00  0.00     0.014 A 
ATOM     29  C   UNL A   1      39.227  24.310  26.116  1.00  0.00     0.014 A 
ATOM     30  C   UNL A   1      40.916  24.547  28.325  1.00  0.00     0.010 A 
ATOM     31  C   UNL A   1      39.721  25.560  26.479  1.00  0.00     0.010 A 
ATOM     32  C   UNL A   1      40.576  25.691  27.583  1.00  0.00    -0.014 A 
BRANCH  32  33
ATOM     33  C   UNL A   1      41.127  27.026  27.933  1.00  0.00     0.031 A 
ATOM     34  C   UNL A   1      42.573  27.342  27.672  1.00  0.00     0.074 A 
ATOM     35  C   UNL A   1      40.339  27.926  28.551  1.00  0.00     0.049 A 
ATOM     36  N   UNL A   1      43.256  28.414  27.983  1.00  0.00    -0.248 NA
ATOM     37  C   UNL A   1      43.362  26.300  26.999  1.00  0.00     0.031 C 
ATOM     38  C   UNL A   1      38.931  27.715  28.898  1.00  0.00     0.029 A 
ATOM     39  N   UNL A   1      40.606  29.190  29.014  1.00  0.00    -0.354 N 
ATOM     40  C   UNL A   1      44.554  28.177  27.546  1.00  0.00     0.074 A 
ATOM     41  C   UNL A   1      44.575  26.829  27.017  1.00  0.00     0.031 C 
ATOM     42  C   UNL A   1      38.458  28.814  29.502  1.00  0.00     0.029 A 
ATOM     43  C   UNL A   1      39.537  29.787  29.639  1.00  0.00     0.049 A 
ATOM     44  H   UNL A   1      41.482  29.627  28.908  1.00  0.00     0.167 HD
ATOM     45  C   UNL A   1      45.622  29.015  27.563  1.00  0.00     0.034 A 
ATOM     46  C   UNL A   1      39.440  30.971  30.276  1.00  0.00     0.034 A 
ATOM     47  C   UNL A   1      45.581  30.351  28.108  1.00  0.00     0.049 A 
ATOM     48  C   UNL A   1      40.650  31.868  30.333  1.00  0.00     0.074 A 
ATOM     49  C   UNL A   1      46.584  31.303  28.135  1.00  0.00     0.029 A 
ATOM     50  N   UNL A   1      44.481  30.922  28.741  1.00  0.00    -0.354 N 
ATOM     51  N   UNL A   1      41.857  31.654  29.861  1.00  0.00    -0.248 NA
ATOM     52  C   UNL A   1      40.483  33.164  30.999  1.00  0.00     0.031 C 
ATOM     53  C   UNL A   1      46.123  32.410  28.855  1.00  0.00     0.029 A 
ATOM     54  C   UNL A   1      44.798  32.192  29.200  1.00  0.00     0.049 A 
ATOM     55  H   UNL A   1      43.605  30.486  28.847  1.00  0.00     0.167 HD
ATOM     56  C   UNL A   1      42.588  32.802  30.157  1.00  0.00     0.074 A 
ATOM     57  C   UNL A   1      41.680  33.709  30.828  1.00  0.00     0.031 C 
ATOM     58  C   UNL A   1      43.891  33.079  29.893  1.00  0.00     0.034 A 
BRANCH  45  59
ATOM     59  C   UNL A   1      46.923  28.487  27.003  1.00  0.00     0.023 A 
ATOM     60  C   UNL A   1      47.146  28.397  25.616  1.00  0.00     0.031 A 
ATOM     61  C   UNL A   1      47.938  28.023  27.859  1.00  0.00     0.131 A 
ATOM     62  C   UNL A   1      48.301  27.767  25.130  1.00  0.00     0.055 A 
ATOM     63  C   UNL A   1      49.129  27.487  27.367  1.00  0.00     0.041 A 
ATOM     64  F   UNL A   1      47.779  28.062  29.191  1.00  0.00    -0.206 F 
ATOM     65  C   UNL A   1      49.309  27.336  25.995  1.00  0.00     0.022 A 
BRANCH  62  66
ATOM     66  S   UNL A   1      48.380  27.355  23.366  1.00  0.00     0.124 S 
ATOM     67  O   UNL A   1      49.685  27.898  22.994  1.00  0.00    -0.237 OA
ATOM     68  O   UNL A   1      48.273  25.901  23.377  1.00  0.00    -0.237 OA
ATOM     69  O   UNL A   1      47.235  28.062  22.796  1.00  0.00    -0.744 OA
ENDBRANCH  62  66
ENDBRANCH  45  59
BRANCH  46  70
ATOM     70  C   UNL A   1      38.161  31.358  30.941  1.00  0.00     0.023 A 
ATOM     71  C   UNL A   1      37.150  32.035  30.244  1.00  0.00     0.031 A 
ATOM     72  C   UNL A   1      37.942  31.063  32.299  1.00  0.00     0.131 A 
ATOM     73  C   UNL A   1      35.980  32.426  30.915  1.00  0.00     0.055 A 
ATOM     74  C   UNL A   1      36.755  31.404  32.948  1.00  0.00     0.041 A 
ATOM     75  F   UNL A   1      38.877  30.414  33.013  1.00  0.00    -0.206 F 
ATOM     76  C   UNL A   1      35.769  32.101  32.256  1.00  0.00     0.022 A 
BRANCH  73  77
ATOM     77  S   UNL A   1      34.764  33.438  30.027  1.00  0.00     0.124 S 
ATOM     78  O   UNL A   1      33.963  33.970  31.124  1.00  0.00    -0.237 OA
ATOM     79  O   UNL A   1      35.617  34.395  29.330  1.00  0.00    -0.237 OA
ATOM     80  O   UNL A   1      34.081  32.473  29.166  1.00  0.00    -0.744 OA
ENDBRANCH  73  77
ENDBRANCH  46  70
BRANCH  58  81
ATOM     81  C   UNL A   1      44.402  34.440  30.309  1.00  0.00     0.023 A 
ATOM     82  C   UNL A   1      44.234  35.574  29.497  1.00  0.00     0.031 A 
ATOM     83  C   UNL A   1      45.066  34.601  31.539  1.00  0.00     0.131 A 
ATOM     84  C   UNL A   1      44.769  36.808  29.898  1.00  0.00     0.055 A 
ATOM     85  C   UNL A   1      45.537  35.843  31.964  1.00  0.00     0.041 A 
ATOM     86  F   UNL A   1      45.261  33.550  32.354  1.00  0.00    -0.206 F 
ATOM     87  C   UNL A   1      45.401  36.954  31.136  1.00  0.00     0.022 A 
BRANCH  84  88
ATOM     88  S   UNL A   1      44.710  38.203  28.742  1.00  0.00     0.124 S 
ATOM     89  O   UNL A   1      46.088  38.682  28.775  1.00  0.00    -0.237 OA
ATOM     90  O   UNL A   1      44.287  37.563  27.501  1.00  0.00    -0.237 OA
ATOM     91  O   UNL A   1      43.726  39.105  29.340  1.00  0.00    -0.744 OA
ENDBRANCH  84  88
ENDBRANCH  58  81
ENDBRANCH  32  33
ENDBRANCH  24  27
ENDBRANCH  22  23
ENDBRANCH  21  22
ENDBRANCH  20  21
ENDBRANCH   1  20
TORSDOF 23
ENDMDL
MODEL 3
REMARK VINA RESULT:      -9.3      2.440      8.104
REMARK SMILES CCCC[C@H](C(=O)OC)[C@H](O)C(=O)NCCCCCCNC(=O)c1ccc(-c2c3nc(c(-c4cc(S(=O)(=O)[O-])ccc4F)c4ccc([nH]4)c(-c4cc(S(=O)(=O)[O-])ccc4F)c4nc(c(-c5cc(S(=O)(=O)[O-])ccc5F)c5ccc2[nH]5)C=C4)C=C3)cc1
REMARK SMILES IDX 17 1 16 2 15 3 14 4 12 5 13 6 10 8 5 9 4 10 3 11 2 12 1 13
REMARK SMILES IDX 6 14 7 15 8 16 9 17 11 18 18 20 19 21 20 22 21 23 22 24
REMARK SMILES IDX 23 26 24 27 25 28 86 29 26 30 85 31 27 32 28 33 29 34 79 35
REMARK SMILES IDX 30 36 84 37 78 38 80 39 31 40 83 41 77 42 76 43 32 45 64 46
REMARK SMILES IDX 44 47 63 48 45 49 48 50 62 51 81 52 46 53 47 54 61 56 82 57
REMARK SMILES IDX 49 58 33 59 34 60 42 61 35 62 41 63 43 64 40 65 36 66 37 67
REMARK SMILES IDX 38 68 39 69 65 70 66 71 74 72 67 73 73 74 75 75 72 76 68 77
REMARK SMILES IDX 69 78 70 79 71 80 50 81 51 82 59 83 52 84 58 85 60 86 57 87
REMARK SMILES IDX 53 88 54 89 55 90 56 91
REMARK H PARENT 14 7 11 19 21 25 80 44 48 55
REMARK Flexibility Score: inf
ROOT
ATOM      1  C   UNL A   1      34.795  24.404  23.844  1.00  0.00     0.002 C 
ENDROOT
BRANCH   1   2
ATOM      2  C   UNL A   1      34.041  25.271  22.834  1.00  0.00     0.021 C 
BRANCH   2   3
ATOM      3  C   UNL A   1      33.389  26.504  23.447  1.00  0.00     0.116 C 
BRANCH   3   4
ATOM      4  N   UNL A   1      31.933  26.422  23.427  1.00  0.00    -0.354 N 
ATOM      5  C   UNL A   1      31.084  25.991  24.408  1.00  0.00     0.249 C 
ATOM      6  O   UNL A   1      29.872  25.983  24.196  1.00  0.00    -0.272 OA
ATOM      7  H   UNL A   1      31.502  26.718  22.592  1.00  0.00     0.163 HD
BRANCH   5   8
ATOM      8  C   UNL A   1      31.667  25.524  25.753  1.00  0.00     0.217 C 
BRANCH   8   9
ATOM      9  C   UNL A   1      31.727  23.987  25.786  1.00  0.00     0.137 C 
BRANCH   9  10
ATOM     10  C   UNL A   1      31.267  23.188  24.552  1.00  0.00     0.018 C 
BRANCH  10  11
ATOM     11  C   UNL A   1      32.129  22.033  24.032  1.00  0.00     0.001 C 
BRANCH  11  12
ATOM     12  C   UNL A   1      32.346  20.817  24.942  1.00  0.00    -0.003 C 
ATOM     13  C   UNL A   1      33.698  20.747  25.642  1.00  0.00     0.004 C 
ENDBRANCH  11  12
ENDBRANCH  10  11
ENDBRANCH   9  10
BRANCH   9  14
ATOM     14  C   UNL A   1      31.123  23.422  27.061  1.00  0.00     0.311 C 
ATOM     15  O   UNL A   1      31.784  22.795  27.883  1.00  0.00    -0.252 OA
BRANCH  14  16
ATOM     16  O   UNL A   1      29.796  23.674  27.183  1.00  0.00    -0.469 OA
ATOM     17  C   UNL A   1      29.032  22.527  27.558  1.00  0.00     0.282 C 
ENDBRANCH  14  16
ENDBRANCH   9  14
ENDBRANCH   8   9
BRANCH   8  18
ATOM     18  O   UNL A   1      30.847  26.082  26.778  1.00  0.00    -0.382 OA
ATOM     19  H   UNL A   1      29.942  26.191  26.445  1.00  0.00     0.211 HD
ENDBRANCH   8  18
ENDBRANCH   5   8
ENDBRANCH   3   4
ENDBRANCH   2   3
ENDBRANCH   1   2
BRANCH   1  20
ATOM     20  C   UNL A   1      35.361  23.099  23.276  1.00  0.00     0.002 C 
BRANCH  20  21
ATOM     21  C   UNL A   1      36.756  22.723  23.787  1.00  0.00     0.021 C 
BRANCH  21  22
ATOM     22  C   UNL A   1      36.902  22.759  25.304  1.00  0.00     0.116 C 
BRANCH  22  23
ATOM     23  N   UNL A   1      37.712  21.654  25.792  1.00  0.00    -0.352 N 
ATOM     24  C   UNL A   1      38.963  21.675  26.358  1.00  0.00     0.251 C 
ATOM     25  H   UNL A   1      37.303  20.762  25.706  1.00  0.00     0.163 HD
ATOM     26  O   UNL A   1      39.588  20.631  26.498  1.00  0.00    -0.269 OA
BRANCH  24  27
ATOM     27  C   UNL A   1      39.554  22.966  26.771  1.00  0.00     0.039 A 
ATOM     28  C   UNL A   1      40.566  22.970  27.733  1.00  0.00     0.014 A 
ATOM     29  C   UNL A   1      39.120  24.165  26.198  1.00  0.00     0.014 A 
ATOM     30  C   UNL A   1      41.193  24.172  28.067  1.00  0.00     0.010 A 
ATOM     31  C   UNL A   1      39.798  25.348  26.476  1.00  0.00     0.010 A 
ATOM     32  C   UNL A   1      40.846  25.363  27.408  1.00  0.00    -0.014 A 
BRANCH  32  33
ATOM     33  C   UNL A   1      41.586  26.626  27.663  1.00  0.00     0.031 A 
ATOM     34  C   UNL A   1      43.016  26.770  27.223  1.00  0.00     0.074 A 
ATOM     35  C   UNL A   1      40.989  27.615  28.355  1.00  0.00     0.049 A 
ATOM     36  N   UNL A   1      43.851  27.756  27.429  1.00  0.00    -0.248 NA
ATOM     37  C   UNL A   1      43.590  25.640  26.479  1.00  0.00     0.031 C 
ATOM     38  C   UNL A   1      39.619  27.572  28.874  1.00  0.00     0.029 A 
ATOM     39  N   UNL A   1      41.455  28.842  28.758  1.00  0.00    -0.354 N 
ATOM     40  C   UNL A   1      45.050  27.367  26.842  1.00  0.00     0.074 A 
ATOM     41  C   UNL A   1      44.850  26.023  26.340  1.00  0.00     0.031 C 
ATOM     42  C   UNL A   1      39.354  28.722  29.511  1.00  0.00     0.029 A 
ATOM     43  C   UNL A   1      40.547  29.562  29.497  1.00  0.00     0.049 A 
ATOM     44  H   UNL A   1      42.356  29.173  28.539  1.00  0.00     0.167 HD
ATOM     45  C   UNL A   1      46.201  28.075  26.713  1.00  0.00     0.034 A 
ATOM     46  C   UNL A   1      40.666  30.753  30.118  1.00  0.00     0.034 A 
ATOM     47  C   UNL A   1      46.381  29.409  27.234  1.00  0.00     0.049 A 
ATOM     48  C   UNL A   1      41.969  31.502  30.012  1.00  0.00     0.074 A 
ATOM     49  C   UNL A   1      47.484  30.237  27.121  1.00  0.00     0.029 A 
ATOM     50  N   UNL A   1      45.441  30.107  27.985  1.00  0.00    -0.354 N 
ATOM     51  N   UNL A   1      43.077  31.147  29.401  1.00  0.00    -0.248 NA
ATOM     52  C   UNL A   1      42.036  32.812  30.668  1.00  0.00     0.031 C 
ATOM     53  C   UNL A   1      47.245  31.394  27.871  1.00  0.00     0.029 A 
ATOM     54  C   UNL A   1      45.957  31.333  28.378  1.00  0.00     0.049 A 
ATOM     55  H   UNL A   1      44.540  29.777  28.205  1.00  0.00     0.167 HD
ATOM     56  C   UNL A   1      43.966  32.202  29.584  1.00  0.00     0.074 A 
ATOM     57  C   UNL A   1      43.258  33.212  30.343  1.00  0.00     0.031 C 
ATOM     58  C   UNL A   1      45.250  32.324  29.158  1.00  0.00     0.034 A 
BRANCH  45  59
ATOM     59  C   UNL A   1      47.354  27.396  26.010  1.00  0.00     0.023 A 
ATOM     60  C   UNL A   1      48.276  26.596  26.710  1.00  0.00     0.031 A 
ATOM     61  C   UNL A   1      47.567  27.585  24.633  1.00  0.00     0.131 A 
ATOM     62  C   UNL A   1      49.415  26.102  26.058  1.00  0.00     0.055 A 
ATOM     63  C   UNL A   1      48.651  27.008  23.968  1.00  0.00     0.041 A 
ATOM     64  F   UNL A   1      46.737  28.353  23.911  1.00  0.00    -0.206 F 
ATOM     65  C   UNL A   1      49.596  26.278  24.684  1.00  0.00     0.022 A 
BRANCH  62  66
ATOM     66  S   UNL A   1      50.744  25.388  27.065  1.00  0.00     0.124 S 
ATOM     67  O   UNL A   1      51.218  26.559  27.801  1.00  0.00    -0.237 OA
ATOM     68  O   UNL A   1      50.039  24.382  27.850  1.00  0.00    -0.237 OA
ATOM     69  O   UNL A   1      51.682  24.864  26.074  1.00  0.00    -0.744 OA
ENDBRANCH  62  66
ENDBRANCH  45  59
BRANCH  46  70
ATOM     70  C   UNL A   1      39.532  31.290  30.926  1.00  0.00     0.023 A 
ATOM     71  C   UNL A   1      39.538  31.226  32.327  1.00  0.00     0.031 A 
ATOM     72  C   UNL A   1      38.414  31.866  30.297  1.00  0.00     0.131 A 
ATOM     73  C   UNL A   1      38.432  31.698  33.053  1.00  0.00     0.055 A 
ATOM     74  C   UNL A   1      37.341  32.384  31.024  1.00  0.00     0.041 A 
ATOM     75  F   UNL A   1      38.357  31.954  28.958  1.00  0.00    -0.206 F 
ATOM     76  C   UNL A   1      37.342  32.291  32.412  1.00  0.00     0.022 A 
BRANCH  73  77
ATOM     77  S   UNL A   1      38.402  31.456  34.851  1.00  0.00     0.124 S 
ATOM     78  O   UNL A   1      37.197  32.184  35.229  1.00  0.00    -0.237 OA
ATOM     79  O   UNL A   1      38.335  30.002  34.959  1.00  0.00    -0.237 OA
ATOM     80  O   UNL A   1      39.659  32.054  35.296  1.00  0.00    -0.744 OA
ENDBRANCH  73  77
ENDBRANCH  46  70
BRANCH  58  81
ATOM     81  C   UNL A   1      45.961  33.617  29.484  1.00  0.00     0.023 A 
ATOM     82  C   UNL A   1      45.886  34.738  28.638  1.00  0.00     0.031 A 
ATOM     83  C   UNL A   1      46.726  33.729  30.659  1.00  0.00     0.131 A 
ATOM     84  C   UNL A   1      46.603  35.902  28.953  1.00  0.00     0.055 A 
ATOM     85  C   UNL A   1      47.383  34.910  31.002  1.00  0.00     0.041 A 
ATOM     86  F   UNL A   1      46.840  32.688  31.502  1.00  0.00    -0.206 F 
ATOM     87  C   UNL A   1      47.336  36.003  30.139  1.00  0.00     0.022 A 
BRANCH  84  88
ATOM     88  S   UNL A   1      46.645  37.254  27.746  1.00  0.00     0.124 S 
ATOM     89  O   UNL A   1      45.517  36.924  26.882  1.00  0.00    -0.237 OA
ATOM     90  O   UNL A   1      46.479  38.433  28.590  1.00  0.00    -0.237 OA
ATOM     91  O   UNL A   1      47.962  37.119  27.124  1.00  0.00    -0.744 OA
ENDBRANCH  84  88
ENDBRANCH  58  81
ENDBRANCH  32  33
ENDBRANCH  24  27
ENDBRANCH  22  23
ENDBRANCH  21  22
ENDBRANCH  20  21
ENDBRANCH   1  20
TORSDOF 23
ENDMDL
