MODEL 1
REMARK VINA RESULT:     -11.2      0.000      0.000
REMARK SMILES NS(=O)(=O)c1ccc(C#Cc2cc(Cl)cc3c2O[C@H](C(F)(F)F)C(C(=O)NCCCCCCNC(=O)c2ccc(-c4c5nc(c(-c6cc(S(=O)(=O)[O-])ccc6F)c6ccc([nH]6)c(-c6cc(S(=O)(=O)[O-])ccc6F)c6nc(c(-c7cc(S(=O)(=O)[O-])ccc7F)c7ccc4[nH]7)C=C6)C=C5)cc2)=C3)cc1
REMARK SMILES IDX 30 1 29 2 28 3 27 4 25 5 26 6 24 8 11 9 12 10 17 11 13 12
REMARK SMILES IDX 16 13 18 14 14 15 15 16 100 17 19 18 10 19 9 20 8 21 5 22
REMARK SMILES IDX 6 23 102 24 7 25 101 26 2 27 3 28 4 29 1 30 20 33 21 34
REMARK SMILES IDX 22 35 23 36 31 37 32 38 33 39 34 40 35 41 36 43 37 44 38 45
REMARK SMILES IDX 99 46 39 47 98 48 40 49 41 50 42 51 92 52 43 53 97 54 91 55
REMARK SMILES IDX 93 56 44 57 96 58 90 59 89 60 45 62 77 63 57 64 76 65 58 66
REMARK SMILES IDX 61 67 75 68 94 69 59 70 60 71 74 73 95 74 62 75 46 76 47 77
REMARK SMILES IDX 55 78 48 79 54 80 56 81 53 82 49 83 50 84 51 85 52 86 78 87
REMARK SMILES IDX 79 88 87 89 80 90 86 91 88 92 85 93 81 94 82 95 83 96 84 97
REMARK SMILES IDX 63 98 64 99 72 100 65 101 71 102 73 103 70 104 66 105 67 106
REMARK SMILES IDX 68 107 69 108
REMARK H PARENT 27 7 1 31 1 32 34 42 93 61 61 72
REMARK Flexibility Score: inf
ROOT
ATOM      1  C   UNL A   1      40.679  23.845  28.142  1.00  0.00     0.002 C 
ENDROOT
BRANCH   1   2
ATOM      2  C   UNL A   1      39.879  24.721  27.175  1.00  0.00     0.021 C 
BRANCH   2   3
ATOM      3  C   UNL A   1      38.673  23.998  26.588  1.00  0.00     0.116 C 
BRANCH   3   4
ATOM      4  N   UNL A   1      38.983  22.615  26.264  1.00  0.00    -0.352 N 
ATOM      5  C   UNL A   1      38.344  21.561  25.703  1.00  0.00     0.251 C 
ATOM      6  O   UNL A   1      39.012  20.529  25.586  1.00  0.00    -0.270 OA
ATOM      7  H   UNL A   1      39.904  22.382  26.520  1.00  0.00     0.163 HD
BRANCH   5   8
ATOM      8  C   UNL A   1      36.924  21.576  25.244  1.00  0.00     0.067 C 
ATOM      9  C   UNL A   1      32.826  21.586  24.303  1.00  0.00     0.069 A 
ATOM     10  C   UNL A   1      32.146  20.380  24.151  1.00  0.00     0.041 A 
ATOM     11  C   UNL A   1      34.189  21.571  24.627  1.00  0.00     0.143 A 
ATOM     12  C   UNL A   1      32.828  19.178  24.347  1.00  0.00     0.043 A 
ATOM     13  C   UNL A   1      34.870  20.369  24.843  1.00  0.00     0.020 A 
ATOM     14  O   UNL A   1      34.799  22.782  24.772  1.00  0.00    -0.474 OA
ATOM     15  Cl  UNL A   1      31.985  17.686  24.172  1.00  0.00    -0.084 Cl
ATOM     16  C   UNL A   1      34.180  19.163  24.698  1.00  0.00     0.032 A 
ATOM     17  C   UNL A   1      36.265  20.402  25.275  1.00  0.00     0.025 C 
ATOM     18  C   UNL A   1      36.240  22.807  24.731  1.00  0.00     0.314 C 
BRANCH   9  19
ATOM     19  C   UNL A   1      32.142  22.837  24.145  1.00  0.00    -0.058 C 
ATOM     20  C   UNL A   1      31.640  23.915  23.961  1.00  0.00    -0.062 C 
BRANCH  20  21
ATOM     21  C   UNL A   1      31.063  25.198  23.699  1.00  0.00     0.025 A 
ATOM     22  C   UNL A   1      29.848  27.645  23.127  1.00  0.00     0.082 A 
ATOM     23  C   UNL A   1      30.994  27.256  22.423  1.00  0.00     0.023 A 
ATOM     24  C   UNL A   1      29.322  26.831  24.132  1.00  0.00     0.023 A 
ATOM     25  C   UNL A   1      31.601  26.030  22.711  1.00  0.00     0.018 A 
ATOM     26  C   UNL A   1      29.934  25.606  24.414  1.00  0.00     0.018 A 
BRANCH  22  27
ATOM     27  S   UNL A   1      29.063  29.158  22.651  1.00  0.00     0.238 S 
ATOM     28  O   UNL A   1      27.661  29.043  22.963  1.00  0.00    -0.207 OA
ATOM     29  O   UNL A   1      29.571  29.533  21.354  1.00  0.00    -0.207 OA
BRANCH  27  30
ATOM     30  N   UNL A   1      29.662  30.317  23.719  1.00  0.00    -0.225 NA
ATOM     31  H   UNL A   1      29.326  30.116  24.661  1.00  0.00     0.137 HD
ATOM     32  H   UNL A   1      29.340  31.242  23.433  1.00  0.00     0.137 HD
ENDBRANCH  27  30
ENDBRANCH  22  27
ENDBRANCH  20  21
ENDBRANCH   9  19
BRANCH  18  33
ATOM     33  C   UNL A   1      36.720  23.195  23.319  1.00  0.00     0.429 C 
ATOM     34  F   UNL A   1      35.740  23.838  22.641  1.00  0.00    -0.167 F 
ATOM     35  F   UNL A   1      37.784  24.032  23.344  1.00  0.00    -0.167 F 
ATOM     36  F   UNL A   1      37.089  22.117  22.589  1.00  0.00    -0.167 F 
ENDBRANCH  18  33
ENDBRANCH   5   8
ENDBRANCH   3   4
ENDBRANCH   2   3
ENDBRANCH   1   2
BRANCH   1  37
ATOM     37  C   UNL A   1      42.136  23.598  27.724  1.00  0.00     0.002 C 
BRANCH  37  38
ATOM     38  C   UNL A   1      42.426  22.182  27.223  1.00  0.00     0.021 C 
BRANCH  38  39
ATOM     39  C   UNL A   1      42.891  22.131  25.776  1.00  0.00     0.116 C 
BRANCH  39  40
ATOM     40  N   UNL A   1      44.143  21.402  25.634  1.00  0.00    -0.352 N 
ATOM     41  C   UNL A   1      45.429  21.888  25.655  1.00  0.00     0.251 C 
ATOM     42  H   UNL A   1      44.057  20.430  25.503  1.00  0.00     0.163 HD
ATOM     43  O   UNL A   1      46.368  21.182  25.308  1.00  0.00    -0.269 OA
BRANCH  41  44
ATOM     44  C   UNL A   1      45.638  23.289  26.069  1.00  0.00     0.039 A 
ATOM     45  C   UNL A   1      45.955  23.574  27.398  1.00  0.00     0.014 A 
ATOM     46  C   UNL A   1      45.411  24.315  25.152  1.00  0.00     0.014 A 
ATOM     47  C   UNL A   1      45.844  24.878  27.857  1.00  0.00     0.010 A 
ATOM     48  C   UNL A   1      45.409  25.637  25.597  1.00  0.00     0.010 A 
ATOM     49  C   UNL A   1      45.569  25.925  26.963  1.00  0.00    -0.014 A 
BRANCH  49  50
ATOM     50  C   UNL A   1      45.458  27.318  27.467  1.00  0.00     0.031 A 
ATOM     51  C   UNL A   1      44.146  27.849  27.975  1.00  0.00     0.074 A 
ATOM     52  C   UNL A   1      46.558  28.095  27.476  1.00  0.00     0.049 A 
ATOM     53  N   UNL A   1      43.855  29.055  28.388  1.00  0.00    -0.248 NA
ATOM     54  C   UNL A   1      43.011  26.912  28.024  1.00  0.00     0.031 C 
ATOM     55  C   UNL A   1      47.885  27.669  27.031  1.00  0.00     0.029 A 
ATOM     56  N   UNL A   1      46.742  29.396  27.872  1.00  0.00    -0.354 N 
ATOM     57  C   UNL A   1      42.505  29.032  28.721  1.00  0.00     0.074 A 
ATOM     58  C   UNL A   1      42.024  27.699  28.432  1.00  0.00     0.031 C 
ATOM     59  C   UNL A   1      48.752  28.673  27.208  1.00  0.00     0.029 A 
ATOM     60  C   UNL A   1      48.029  29.847  27.688  1.00  0.00     0.049 A 
ATOM     61  H   UNL A   1      46.024  29.953  28.250  1.00  0.00     0.167 HD
ATOM     62  C   UNL A   1      41.747  30.032  29.231  1.00  0.00     0.034 A 
ATOM     63  C   UNL A   1      48.565  31.074  27.846  1.00  0.00     0.034 A 
ATOM     64  C   UNL A   1      42.261  31.345  29.531  1.00  0.00     0.049 A 
ATOM     65  C   UNL A   1      47.688  32.184  28.360  1.00  0.00     0.074 A 
ATOM     66  C   UNL A   1      41.583  32.417  30.084  1.00  0.00     0.029 A 
ATOM     67  N   UNL A   1      43.564  31.770  29.311  1.00  0.00    -0.354 N 
ATOM     68  N   UNL A   1      46.424  32.136  28.707  1.00  0.00    -0.248 NA
ATOM     69  C   UNL A   1      48.301  33.510  28.513  1.00  0.00     0.031 C 
ATOM     70  C   UNL A   1      42.444  33.511  30.109  1.00  0.00     0.029 A 
ATOM     71  C   UNL A   1      43.695  33.099  29.680  1.00  0.00     0.049 A 
ATOM     72  H   UNL A   1      44.288  31.210  28.948  1.00  0.00     0.167 HD
ATOM     73  C   UNL A   1      46.099  33.414  29.152  1.00  0.00     0.074 A 
ATOM     74  C   UNL A   1      47.305  34.208  29.044  1.00  0.00     0.031 C 
ATOM     75  C   UNL A   1      44.909  33.880  29.606  1.00  0.00     0.034 A 
BRANCH  62  76
ATOM     76  C   UNL A   1      40.283  29.783  29.514  1.00  0.00     0.023 A 
ATOM     77  C   UNL A   1      39.848  29.632  30.846  1.00  0.00     0.031 A 
ATOM     78  C   UNL A   1      39.363  29.525  28.484  1.00  0.00     0.131 A 
ATOM     79  C   UNL A   1      38.551  29.175  31.110  1.00  0.00     0.055 A 
ATOM     80  C   UNL A   1      38.053  29.123  28.753  1.00  0.00     0.041 A 
ATOM     81  F   UNL A   1      39.724  29.651  27.197  1.00  0.00    -0.206 F 
ATOM     82  C   UNL A   1      37.648  28.928  30.071  1.00  0.00     0.022 A 
BRANCH  79  83
ATOM     83  S   UNL A   1      38.018  28.789  32.800  1.00  0.00     0.124 S 
ATOM     84  O   UNL A   1      36.645  29.290  32.804  1.00  0.00    -0.237 OA
ATOM     85  O   UNL A   1      38.152  27.336  32.838  1.00  0.00    -0.237 OA
ATOM     86  O   UNL A   1      38.951  29.532  33.642  1.00  0.00    -0.744 OA
ENDBRANCH  79  83
ENDBRANCH  62  76
BRANCH  63  87
ATOM     87  C   UNL A   1      50.011  31.274  27.534  1.00  0.00     0.023 A 
ATOM     88  C   UNL A   1      50.414  31.789  26.286  1.00  0.00     0.031 A 
ATOM     89  C   UNL A   1      51.008  30.829  28.417  1.00  0.00     0.131 A 
ATOM     90  C   UNL A   1      51.766  31.760  25.923  1.00  0.00     0.055 A 
ATOM     91  C   UNL A   1      52.363  30.884  28.083  1.00  0.00     0.041 A 
ATOM     92  F   UNL A   1      50.675  30.316  29.610  1.00  0.00    -0.206 F 
ATOM     93  C   UNL A   1      52.746  31.331  26.822  1.00  0.00     0.022 A 
BRANCH  90  94
ATOM     94  S   UNL A   1      52.275  32.125  24.220  1.00  0.00     0.124 S 
ATOM     95  O   UNL A   1      51.703  33.451  24.006  1.00  0.00    -0.237 OA
ATOM     96  O   UNL A   1      53.732  32.077  24.330  1.00  0.00    -0.237 OA
ATOM     97  O   UNL A   1      51.677  31.046  23.441  1.00  0.00    -0.744 OA
ENDBRANCH  90  94
ENDBRANCH  63  87
BRANCH  75  98
ATOM     98  C   UNL A   1      44.810  35.314  30.069  1.00  0.00     0.023 A 
ATOM     99  C   UNL A   1      44.454  36.317  29.145  1.00  0.00     0.031 A 
ATOM    100  C   UNL A   1      45.260  35.711  31.340  1.00  0.00     0.131 A 
ATOM    101  C   UNL A   1      44.627  37.666  29.478  1.00  0.00     0.055 A 
ATOM    102  C   UNL A   1      45.367  37.057  31.689  1.00  0.00     0.041 A 
ATOM    103  F   UNL A   1      45.621  34.795  32.253  1.00  0.00    -0.206 F 
ATOM    104  C   UNL A   1      45.072  38.042  30.748  1.00  0.00     0.022 A 
BRANCH 101 105
ATOM    105  S   UNL A   1      44.402  38.970  28.236  1.00  0.00     0.124 S 
ATOM    106  O   UNL A   1      43.087  38.644  27.689  1.00  0.00    -0.237 OA
ATOM    107  O   UNL A   1      44.455  40.180  29.052  1.00  0.00    -0.237 OA
ATOM    108  O   UNL A   1      45.520  38.781  27.317  1.00  0.00    -0.744 OA
ENDBRANCH 101 105
ENDBRANCH  75  98
ENDBRANCH  49  50
ENDBRANCH  41  44
ENDBRANCH  39  40
ENDBRANCH  38  39
ENDBRANCH  37  38
ENDBRANCH   1  37
TORSDOF 21
ENDMDL
MODEL 2
REMARK VINA RESULT:     -11.1      5.200      8.536
REMARK SMILES NS(=O)(=O)c1ccc(C#Cc2cc(Cl)cc3c2O[C@H](C(F)(F)F)C(C(=O)NCCCCCCNC(=O)c2ccc(-c4c5nc(c(-c6cc(S(=O)(=O)[O-])ccc6F)c6ccc([nH]6)c(-c6cc(S(=O)(=O)[O-])ccc6F)c6nc(c(-c7cc(S(=O)(=O)[O-])ccc7F)c7ccc4[nH]7)C=C6)C=C5)cc2)=C3)cc1
REMARK SMILES IDX 30 1 29 2 28 3 27 4 25 5 26 6 24 8 11 9 12 10 17 11 13 12
REMARK SMILES IDX 16 13 18 14 14 15 15 16 100 17 19 18 10 19 9 20 8 21 5 22
REMARK SMILES IDX 6 23 102 24 7 25 101 26 2 27 3 28 4 29 1 30 20 33 21 34
REMARK SMILES IDX 22 35 23 36 31 37 32 38 33 39 34 40 35 41 36 43 37 44 38 45
REMARK SMILES IDX 99 46 39 47 98 48 40 49 41 50 42 51 92 52 43 53 97 54 91 55
REMARK SMILES IDX 93 56 44 57 96 58 90 59 89 60 45 62 77 63 57 64 76 65 58 66
REMARK SMILES IDX 61 67 75 68 94 69 59 70 60 71 74 73 95 74 62 75 46 76 47 77
REMARK SMILES IDX 55 78 48 79 54 80 56 81 53 82 49 83 50 84 51 85 52 86 78 87
REMARK SMILES IDX 79 88 87 89 80 90 86 91 88 92 85 93 81 94 82 95 83 96 84 97
REMARK SMILES IDX 63 98 64 99 72 100 65 101 71 102 73 103 70 104 66 105 67 106
REMARK SMILES IDX 68 107 69 108
REMARK H PARENT 27 7 1 31 1 32 34 42 93 61 61 72
REMARK Flexibility Score: inf
ROOT
ATOM      1  C   UNL A   1      48.504  26.427  24.501  1.00  0.00     0.002 C 
ENDROOT
BRANCH   1   2
ATOM      2  C   UNL A   1      47.595  25.201  24.624  1.00  0.00     0.021 C 
BRANCH   2   3
ATOM      3  C   UNL A   1      46.264  25.522  25.291  1.00  0.00     0.116 C 
BRANCH   3   4
ATOM      4  N   UNL A   1      46.306  25.262  26.721  1.00  0.00    -0.352 N 
ATOM      5  C   UNL A   1      45.420  25.199  27.743  1.00  0.00     0.251 C 
ATOM      6  O   UNL A   1      45.894  24.910  28.847  1.00  0.00    -0.270 OA
ATOM      7  H   UNL A   1      47.224  25.085  27.029  1.00  0.00     0.163 HD
BRANCH   5   8
ATOM      8  C   UNL A   1      43.956  25.457  27.616  1.00  0.00     0.067 C 
ATOM      9  C   UNL A   1      39.788  26.010  27.580  1.00  0.00     0.069 A 
ATOM     10  C   UNL A   1      38.959  25.008  27.082  1.00  0.00     0.041 A 
ATOM     11  C   UNL A   1      41.175  25.811  27.597  1.00  0.00     0.143 A 
ATOM     12  C   UNL A   1      39.522  23.813  26.631  1.00  0.00     0.043 A 
ATOM     13  C   UNL A   1      41.740  24.607  27.164  1.00  0.00     0.020 A 
ATOM     14  O   UNL A   1      41.934  26.825  28.104  1.00  0.00    -0.474 OA
ATOM     15  Cl  UNL A   1      38.497  22.567  26.028  1.00  0.00    -0.084 Cl
ATOM     16  C   UNL A   1      40.903  23.602  26.676  1.00  0.00     0.032 A 
ATOM     17  C   UNL A   1      43.181  24.405  27.291  1.00  0.00     0.025 C 
ATOM     18  C   UNL A   1      43.344  26.813  27.797  1.00  0.00     0.314 C 
BRANCH   9  19
ATOM     19  C   UNL A   1      39.235  27.234  28.085  1.00  0.00    -0.058 C 
ATOM     20  C   UNL A   1      38.698  28.246  28.453  1.00  0.00    -0.062 C 
BRANCH  20  21
ATOM     21  C   UNL A   1      38.018  29.428  28.886  1.00  0.00     0.025 A 
ATOM     22  C   UNL A   1      36.741  31.719  29.841  1.00  0.00     0.082 A 
ATOM     23  C   UNL A   1      36.014  30.533  29.683  1.00  0.00     0.023 A 
ATOM     24  C   UNL A   1      38.093  31.773  29.500  1.00  0.00     0.023 A 
ATOM     25  C   UNL A   1      36.656  29.387  29.204  1.00  0.00     0.018 A 
ATOM     26  C   UNL A   1      38.729  30.623  29.023  1.00  0.00     0.018 A 
BRANCH  22  27
ATOM     27  S   UNL A   1      35.904  33.110  30.545  1.00  0.00     0.238 S 
ATOM     28  O   UNL A   1      35.474  33.959  29.464  1.00  0.00    -0.207 OA
ATOM     29  O   UNL A   1      36.679  33.571  31.672  1.00  0.00    -0.207 OA
BRANCH  27  30
ATOM     30  N   UNL A   1      34.486  32.480  31.206  1.00  0.00    -0.225 NA
ATOM     31  H   UNL A   1      34.683  31.573  31.631  1.00  0.00     0.137 HD
ATOM     32  H   UNL A   1      33.789  32.365  30.470  1.00  0.00     0.137 HD
ENDBRANCH  27  30
ENDBRANCH  22  27
ENDBRANCH  20  21
ENDBRANCH   9  19
BRANCH  18  33
ATOM     33  C   UNL A   1      43.630  27.745  26.604  1.00  0.00     0.429 C 
ATOM     34  F   UNL A   1      42.769  28.791  26.597  1.00  0.00    -0.167 F 
ATOM     35  F   UNL A   1      44.876  28.274  26.645  1.00  0.00    -0.167 F 
ATOM     36  F   UNL A   1      43.515  27.108  25.416  1.00  0.00    -0.167 F 
ENDBRANCH  18  33
ENDBRANCH   5   8
ENDBRANCH   3   4
ENDBRANCH   2   3
ENDBRANCH   1   2
BRANCH   1  37
ATOM     37  C   UNL A   1      49.988  26.152  24.783  1.00  0.00     0.002 C 
BRANCH  37  38
ATOM     38  C   UNL A   1      50.935  27.285  24.385  1.00  0.00     0.021 C 
BRANCH  38  39
ATOM     39  C   UNL A   1      51.665  27.911  25.564  1.00  0.00     0.116 C 
BRANCH  39  40
ATOM     40  N   UNL A   1      52.575  26.968  26.200  1.00  0.00    -0.352 N 
ATOM     41  C   UNL A   1      52.533  26.459  27.476  1.00  0.00     0.251 C 
ATOM     42  H   UNL A   1      53.322  26.655  25.640  1.00  0.00     0.163 HD
ATOM     43  O   UNL A   1      53.488  25.843  27.932  1.00  0.00    -0.269 OA
BRANCH  41  44
ATOM     44  C   UNL A   1      51.326  26.709  28.286  1.00  0.00     0.039 A 
ATOM     45  C   UNL A   1      50.178  25.945  28.065  1.00  0.00     0.014 A 
ATOM     46  C   UNL A   1      51.313  27.774  29.187  1.00  0.00     0.014 A 
ATOM     47  C   UNL A   1      48.967  26.373  28.589  1.00  0.00     0.010 A 
ATOM     48  C   UNL A   1      50.112  28.133  29.799  1.00  0.00     0.010 A 
ATOM     49  C   UNL A   1      48.919  27.472  29.461  1.00  0.00    -0.014 A 
BRANCH  49  50
ATOM     50  C   UNL A   1      47.617  27.916  30.020  1.00  0.00     0.031 A 
ATOM     51  C   UNL A   1      46.940  27.130  31.109  1.00  0.00     0.074 A 
ATOM     52  C   UNL A   1      47.055  29.044  29.545  1.00  0.00     0.049 A 
ATOM     53  N   UNL A   1      45.775  27.334  31.665  1.00  0.00    -0.248 NA
ATOM     54  C   UNL A   1      47.659  25.961  31.645  1.00  0.00     0.031 C 
ATOM     55  C   UNL A   1      47.641  29.896  28.508  1.00  0.00     0.029 A 
ATOM     56  N   UNL A   1      45.879  29.673  29.865  1.00  0.00    -0.354 N 
ATOM     57  C   UNL A   1      45.606  26.313  32.593  1.00  0.00     0.074 A 
ATOM     58  C   UNL A   1      46.777  25.469  32.505  1.00  0.00     0.031 C 
ATOM     59  C   UNL A   1      46.843  30.949  28.302  1.00  0.00     0.029 A 
ATOM     60  C   UNL A   1      45.642  30.803  29.117  1.00  0.00     0.049 A 
ATOM     61  H   UNL A   1      45.265  29.348  30.562  1.00  0.00     0.167 HD
ATOM     62  C   UNL A   1      44.572  26.112  33.444  1.00  0.00     0.034 A 
ATOM     63  C   UNL A   1      44.564  31.613  29.060  1.00  0.00     0.034 A 
ATOM     64  C   UNL A   1      43.428  26.985  33.526  1.00  0.00     0.049 A 
ATOM     65  C   UNL A   1      43.403  31.335  29.976  1.00  0.00     0.074 A 
ATOM     66  C   UNL A   1      42.345  26.888  34.381  1.00  0.00     0.029 A 
ATOM     67  N   UNL A   1      43.214  28.107  32.737  1.00  0.00    -0.354 N 
ATOM     68  N   UNL A   1      43.276  30.389  30.875  1.00  0.00    -0.248 NA
ATOM     69  C   UNL A   1      42.243  32.231  29.882  1.00  0.00     0.031 C 
ATOM     70  C   UNL A   1      41.435  27.889  34.046  1.00  0.00     0.029 A 
ATOM     71  C   UNL A   1      41.996  28.685  33.060  1.00  0.00     0.049 A 
ATOM     72  H   UNL A   1      43.835  28.444  32.051  1.00  0.00     0.167 HD
ATOM     73  C   UNL A   1      42.039  30.595  31.478  1.00  0.00     0.074 A 
ATOM     74  C   UNL A   1      41.464  31.766  30.850  1.00  0.00     0.031 C 
ATOM     75  C   UNL A   1      41.440  29.875  32.459  1.00  0.00     0.034 A 
BRANCH  62  76
ATOM     76  C   UNL A   1      44.597  24.918  34.372  1.00  0.00     0.023 A 
ATOM     77  C   UNL A   1      45.157  25.048  35.658  1.00  0.00     0.031 A 
ATOM     78  C   UNL A   1      44.234  23.633  33.936  1.00  0.00     0.131 A 
ATOM     79  C   UNL A   1      45.396  23.908  36.436  1.00  0.00     0.055 A 
ATOM     80  C   UNL A   1      44.422  22.505  34.737  1.00  0.00     0.041 A 
ATOM     81  F   UNL A   1      43.697  23.451  32.718  1.00  0.00    -0.206 F 
ATOM     82  C   UNL A   1      45.023  22.638  35.986  1.00  0.00     0.022 A 
BRANCH  79  83
ATOM     83  S   UNL A   1      46.285  24.017  38.013  1.00  0.00     0.124 S 
ATOM     84  O   UNL A   1      45.203  23.847  38.980  1.00  0.00    -0.237 OA
ATOM     85  O   UNL A   1      47.217  22.898  37.916  1.00  0.00    -0.237 OA
ATOM     86  O   UNL A   1      46.888  25.346  37.986  1.00  0.00    -0.744 OA
ENDBRANCH  79  83
ENDBRANCH  62  76
BRANCH  63  87
ATOM     87  C   UNL A   1      44.581  32.767  28.113  1.00  0.00     0.023 A 
ATOM     88  C   UNL A   1      44.884  34.066  28.566  1.00  0.00     0.031 A 
ATOM     89  C   UNL A   1      44.164  32.614  26.781  1.00  0.00     0.131 A 
ATOM     90  C   UNL A   1      44.678  35.165  27.723  1.00  0.00     0.055 A 
ATOM     91  C   UNL A   1      44.044  33.705  25.918  1.00  0.00     0.041 A 
ATOM     92  F   UNL A   1      43.850  31.399  26.306  1.00  0.00    -0.206 F 
ATOM     93  C   UNL A   1      44.280  34.991  26.395  1.00  0.00     0.022 A 
BRANCH  90  94
ATOM     94  S   UNL A   1      44.761  36.858  28.371  1.00  0.00     0.124 S 
ATOM     95  O   UNL A   1      45.925  37.395  27.673  1.00  0.00    -0.237 OA
ATOM     96  O   UNL A   1      43.470  37.399  27.954  1.00  0.00    -0.237 OA
ATOM     97  O   UNL A   1      44.918  36.671  29.810  1.00  0.00    -0.744 OA
ENDBRANCH  90  94
ENDBRANCH  63  87
BRANCH  75  98
ATOM     98  C   UNL A   1      40.093  30.319  32.978  1.00  0.00     0.023 A 
ATOM     99  C   UNL A   1      40.031  31.295  33.994  1.00  0.00     0.031 A 
ATOM    100  C   UNL A   1      38.909  29.647  32.630  1.00  0.00     0.131 A 
ATOM    101  C   UNL A   1      38.829  31.515  34.677  1.00  0.00     0.055 A 
ATOM    102  C   UNL A   1      37.700  29.917  33.270  1.00  0.00     0.041 A 
ATOM    103  F   UNL A   1      38.917  28.701  31.677  1.00  0.00    -0.206 F 
ATOM    104  C   UNL A   1      37.661  30.839  34.315  1.00  0.00     0.022 A 
BRANCH 101 105
ATOM    105  S   UNL A   1      38.769  32.590  36.139  1.00  0.00     0.124 S 
ATOM    106  O   UNL A   1      39.713  31.930  37.039  1.00  0.00    -0.237 OA
ATOM    107  O   UNL A   1      39.217  33.869  35.596  1.00  0.00    -0.237 OA
ATOM    108  O   UNL A   1      37.373  32.538  36.559  1.00  0.00    -0.744 OA
ENDBRANCH 101 105
ENDBRANCH  75  98
ENDBRANCH  49  50
ENDBRANCH  41  44
ENDBRANCH  39  40
ENDBRANCH  38  39
ENDBRANCH  37  38
ENDBRANCH   1  37
TORSDOF 21
ENDMDL
MODEL 3
REMARK VINA RESULT:     -10.9      7.189     11.650
REMARK SMILES NS(=O)(=O)c1ccc(C#Cc2cc(Cl)cc3c2O[C@H](C(F)(F)F)C(C(=O)NCCCCCCNC(=O)c2ccc(-c4c5nc(c(-c6cc(S(=O)(=O)[O-])ccc6F)c6ccc([nH]6)c(-c6cc(S(=O)(=O)[O-])ccc6F)c6nc(c(-c7cc(S(=O)(=O)[O-])ccc7F)c7ccc4[nH]7)C=C6)C=C5)cc2)=C3)cc1
REMARK SMILES IDX 30 1 29 2 28 3 27 4 25 5 26 6 24 8 11 9 12 10 17 11 13 12
REMARK SMILES IDX 16 13 18 14 14 15 15 16 100 17 19 18 10 19 9 20 8 21 5 22
REMARK SMILES IDX 6 23 102 24 7 25 101 26 2 27 3 28 4 29 1 30 20 33 21 34
REMARK SMILES IDX 22 35 23 36 31 37 32 38 33 39 34 40 35 41 36 43 37 44 38 45
REMARK SMILES IDX 99 46 39 47 98 48 40 49 41 50 42 51 92 52 43 53 97 54 91 55
REMARK SMILES IDX 93 56 44 57 96 58 90 59 89 60 45 62 77 63 57 64 76 65 58 66
REMARK SMILES IDX 61 67 75 68 94 69 59 70 60 71 74 73 95 74 62 75 46 76 47 77
REMARK SMILES IDX 55 78 48 79 54 80 56 81 53 82 49 83 50 84 51 85 52 86 78 87
REMARK SMILES IDX 79 88 87 89 80 90 86 91 88 92 85 93 81 94 82 95 83 96 84 97
REMARK SMILES IDX 63 98 64 99 72 100 65 101 71 102 73 103 70 104 66 105 67 106
REMARK SMILES IDX 68 107 69 108
REMARK H PARENT 27 7 1 31 1 32 34 42 93 61 61 72
REMARK Flexibility Score: inf
ROOT
ATOM      1  C   UNL A   1      43.173  31.960  39.620  1.00  0.00     0.002 C 
ENDROOT
BRANCH   1   2
ATOM      2  C   UNL A   1      44.154  31.301  38.648  1.00  0.00     0.021 C 
BRANCH   2   3
ATOM      3  C   UNL A   1      43.577  31.144  37.246  1.00  0.00     0.116 C 
BRANCH   3   4
ATOM      4  N   UNL A   1      43.229  29.762  36.962  1.00  0.00    -0.352 N 
ATOM      5  C   UNL A   1      42.784  29.050  35.900  1.00  0.00     0.251 C 
ATOM      6  O   UNL A   1      42.635  27.839  36.090  1.00  0.00    -0.270 OA
ATOM      7  H   UNL A   1      43.348  29.190  37.754  1.00  0.00     0.163 HD
BRANCH   5   8
ATOM      8  C   UNL A   1      42.466  29.630  34.562  1.00  0.00     0.067 C 
ATOM      9  C   UNL A   1      41.675  30.941  30.646  1.00  0.00     0.069 A 
ATOM     10  C   UNL A   1      42.703  31.474  29.872  1.00  0.00     0.041 A 
ATOM     11  C   UNL A   1      41.952  30.497  31.946  1.00  0.00     0.143 A 
ATOM     12  C   UNL A   1      43.995  31.537  30.396  1.00  0.00     0.043 A 
ATOM     13  C   UNL A   1      43.249  30.540  32.465  1.00  0.00     0.020 A 
ATOM     14  O   UNL A   1      40.907  29.976  32.652  1.00  0.00    -0.474 OA
ATOM     15  Cl  UNL A   1      45.269  32.184  29.434  1.00  0.00    -0.084 Cl
ATOM     16  C   UNL A   1      44.277  31.067  31.681  1.00  0.00     0.032 A 
ATOM     17  C   UNL A   1      43.511  29.977  33.788  1.00  0.00     0.025 C 
ATOM     18  C   UNL A   1      41.065  29.864  34.081  1.00  0.00     0.314 C 
BRANCH   9  19
ATOM     19  C   UNL A   1      40.345  30.830  30.120  1.00  0.00    -0.058 C 
ATOM     20  C   UNL A   1      39.266  30.705  29.601  1.00  0.00    -0.062 C 
BRANCH  20  21
ATOM     21  C   UNL A   1      38.001  30.517  28.961  1.00  0.00     0.025 A 
ATOM     22  C   UNL A   1      35.477  30.178  27.818  1.00  0.00     0.082 A 
ATOM     23  C   UNL A   1      36.245  29.056  28.152  1.00  0.00     0.023 A 
ATOM     24  C   UNL A   1      35.972  31.466  28.029  1.00  0.00     0.023 A 
ATOM     25  C   UNL A   1      37.509  29.229  28.724  1.00  0.00     0.018 A 
ATOM     26  C   UNL A   1      37.237  31.631  28.602  1.00  0.00     0.018 A 
BRANCH  22  27
ATOM     27  S   UNL A   1      33.845  29.901  27.192  1.00  0.00     0.238 S 
ATOM     28  O   UNL A   1      33.119  31.142  27.292  1.00  0.00    -0.207 OA
ATOM     29  O   UNL A   1      33.371  28.646  27.725  1.00  0.00    -0.207 OA
BRANCH  27  30
ATOM     30  N   UNL A   1      34.048  29.638  25.540  1.00  0.00    -0.225 NA
ATOM     31  H   UNL A   1      34.659  28.834  25.397  1.00  0.00     0.137 HD
ATOM     32  H   UNL A   1      34.467  30.463  25.112  1.00  0.00     0.137 HD
ENDBRANCH  27  30
ENDBRANCH  22  27
ENDBRANCH  20  21
ENDBRANCH   9  19
BRANCH  18  33
ATOM     33  C   UNL A   1      40.403  31.068  34.780  1.00  0.00     0.429 C 
ATOM     34  F   UNL A   1      40.213  30.812  36.096  1.00  0.00    -0.167 F 
ATOM     35  F   UNL A   1      41.161  32.188  34.712  1.00  0.00    -0.167 F 
ATOM     36  F   UNL A   1      39.202  31.376  34.240  1.00  0.00    -0.167 F 
ENDBRANCH  18  33
ENDBRANCH   5   8
ENDBRANCH   3   4
ENDBRANCH   2   3
ENDBRANCH   1   2
BRANCH   1  37
ATOM     37  C   UNL A   1      43.436  31.651  41.100  1.00  0.00     0.002 C 
BRANCH  37  38
ATOM     38  C   UNL A   1      42.235  31.867  42.022  1.00  0.00     0.021 C 
BRANCH  38  39
ATOM     39  C   UNL A   1      41.897  33.333  42.248  1.00  0.00     0.116 C 
BRANCH  39  40
ATOM     40  N   UNL A   1      40.555  33.503  42.787  1.00  0.00    -0.352 N 
ATOM     41  C   UNL A   1      39.426  33.971  42.157  1.00  0.00     0.251 C 
ATOM     42  H   UNL A   1      40.441  33.250  43.732  1.00  0.00     0.163 HD
ATOM     43  O   UNL A   1      38.426  34.257  42.802  1.00  0.00    -0.269 OA
BRANCH  41  44
ATOM     44  C   UNL A   1      39.471  34.153  40.694  1.00  0.00     0.039 A 
ATOM     45  C   UNL A   1      39.522  33.033  39.861  1.00  0.00     0.014 A 
ATOM     46  C   UNL A   1      39.570  35.441  40.166  1.00  0.00     0.014 A 
ATOM     47  C   UNL A   1      39.876  33.193  38.530  1.00  0.00     0.010 A 
ATOM     48  C   UNL A   1      39.817  35.600  38.802  1.00  0.00     0.010 A 
ATOM     49  C   UNL A   1      40.029  34.477  37.984  1.00  0.00    -0.014 A 
BRANCH  49  50
ATOM     50  C   UNL A   1      40.402  34.634  36.556  1.00  0.00     0.031 A 
ATOM     51  C   UNL A   1      39.368  34.499  35.472  1.00  0.00     0.074 A 
ATOM     52  C   UNL A   1      41.682  34.914  36.245  1.00  0.00     0.049 A 
ATOM     53  N   UNL A   1      39.529  34.539  34.175  1.00  0.00    -0.248 NA
ATOM     54  C   UNL A   1      37.973  34.287  35.892  1.00  0.00     0.031 C 
ATOM     55  C   UNL A   1      42.759  35.093  37.220  1.00  0.00     0.029 A 
ATOM     56  N   UNL A   1      42.298  35.101  35.033  1.00  0.00    -0.354 N 
ATOM     57  C   UNL A   1      38.269  34.334  33.624  1.00  0.00     0.074 A 
ATOM     58  C   UNL A   1      37.356  34.138  34.728  1.00  0.00     0.031 C 
ATOM     59  C   UNL A   1      43.891  35.395  36.575  1.00  0.00     0.029 A 
ATOM     60  C   UNL A   1      43.650  35.338  35.137  1.00  0.00     0.049 A 
ATOM     61  H   UNL A   1      41.820  35.069  34.173  1.00  0.00     0.167 HD
ATOM     62  C   UNL A   1      37.915  34.323  32.317  1.00  0.00     0.034 A 
ATOM     63  C   UNL A   1      44.601  35.457  34.188  1.00  0.00     0.034 A 
ATOM     64  C   UNL A   1      38.845  34.546  31.239  1.00  0.00     0.049 A 
ATOM     65  C   UNL A   1      44.189  35.384  32.742  1.00  0.00     0.074 A 
ATOM     66  C   UNL A   1      38.578  34.592  29.882  1.00  0.00     0.029 A 
ATOM     67  N   UNL A   1      40.209  34.762  31.383  1.00  0.00    -0.354 N 
ATOM     68  N   UNL A   1      42.989  35.229  32.238  1.00  0.00    -0.248 NA
ATOM     69  C   UNL A   1      45.251  35.509  31.734  1.00  0.00     0.031 C 
ATOM     70  C   UNL A   1      39.786  34.737  29.205  1.00  0.00     0.029 A 
ATOM     71  C   UNL A   1      40.799  34.899  30.137  1.00  0.00     0.049 A 
ATOM     72  H   UNL A   1      40.686  34.811  32.243  1.00  0.00     0.167 HD
ATOM     73  C   UNL A   1      43.144  35.273  30.856  1.00  0.00     0.074 A 
ATOM     74  C   UNL A   1      44.554  35.484  30.605  1.00  0.00     0.031 C 
ATOM     75  C   UNL A   1      42.201  35.146  29.889  1.00  0.00     0.034 A 
BRANCH  62  76
ATOM     76  C   UNL A   1      36.472  34.072  31.943  1.00  0.00     0.023 A 
ATOM     77  C   UNL A   1      35.554  35.142  31.950  1.00  0.00     0.031 A 
ATOM     78  C   UNL A   1      35.971  32.773  31.751  1.00  0.00     0.131 A 
ATOM     79  C   UNL A   1      34.182  34.887  31.833  1.00  0.00     0.055 A 
ATOM     80  C   UNL A   1      34.607  32.529  31.579  1.00  0.00     0.041 A 
ATOM     81  F   UNL A   1      36.800  31.717  31.737  1.00  0.00    -0.206 F 
ATOM     82  C   UNL A   1      33.704  33.588  31.638  1.00  0.00     0.022 A 
BRANCH  79  83
ATOM     83  S   UNL A   1      32.962  36.215  32.027  1.00  0.00     0.124 S 
ATOM     84  O   UNL A   1      31.789  35.478  32.495  1.00  0.00    -0.237 OA
ATOM     85  O   UNL A   1      33.598  37.072  33.023  1.00  0.00    -0.237 OA
ATOM     86  O   UNL A   1      32.842  36.782  30.688  1.00  0.00    -0.744 OA
ENDBRANCH  79  83
ENDBRANCH  62  76
BRANCH  63  87
ATOM     87  C   UNL A   1      46.014  35.684  34.610  1.00  0.00     0.023 A 
ATOM     88  C   UNL A   1      46.564  36.981  34.615  1.00  0.00     0.031 A 
ATOM     89  C   UNL A   1      46.870  34.604  34.879  1.00  0.00     0.131 A 
ATOM     90  C   UNL A   1      47.942  37.154  34.793  1.00  0.00     0.055 A 
ATOM     91  C   UNL A   1      48.228  34.791  35.143  1.00  0.00     0.041 A 
ATOM     92  F   UNL A   1      46.398  33.349  34.870  1.00  0.00    -0.206 F 
ATOM     93  C   UNL A   1      48.775  36.070  35.079  1.00  0.00     0.022 A 
BRANCH  90  94
ATOM     94  S   UNL A   1      48.718  38.768  34.500  1.00  0.00     0.124 S 
ATOM     95  O   UNL A   1      47.716  39.447  33.685  1.00  0.00    -0.237 OA
ATOM     96  O   UNL A   1      48.874  39.275  35.862  1.00  0.00    -0.237 OA
ATOM     97  O   UNL A   1      49.965  38.434  33.818  1.00  0.00    -0.744 OA
ENDBRANCH  90  94
ENDBRANCH  63  87
BRANCH  75  98
ATOM     98  C   UNL A   1      42.613  35.262  28.441  1.00  0.00     0.023 A 
ATOM     99  C   UNL A   1      43.117  34.129  27.771  1.00  0.00     0.031 A 
ATOM    100  C   UNL A   1      42.705  36.508  27.798  1.00  0.00     0.131 A 
ATOM    101  C   UNL A   1      43.757  34.276  26.536  1.00  0.00     0.055 A 
ATOM    102  C   UNL A   1      43.285  36.639  26.536  1.00  0.00     0.041 A 
ATOM    103  F   UNL A   1      42.250  37.621  28.397  1.00  0.00    -0.206 F 
ATOM    104  C   UNL A   1      43.836  35.523  25.909  1.00  0.00     0.022 A 
BRANCH 101 105
ATOM    105  S   UNL A   1      44.620  32.880  25.759  1.00  0.00     0.124 S 
ATOM    106  O   UNL A   1      46.005  33.119  26.161  1.00  0.00    -0.237 OA
ATOM    107  O   UNL A   1      43.976  31.733  26.392  1.00  0.00    -0.237 OA
ATOM    108  O   UNL A   1      44.351  33.046  24.334  1.00  0.00    -0.744 OA
ENDBRANCH 101 105
ENDBRANCH  75  98
ENDBRANCH  49  50
ENDBRANCH  41  44
ENDBRANCH  39  40
ENDBRANCH  38  39
ENDBRANCH  37  38
ENDBRANCH   1  37
TORSDOF 21
ENDMDL
