MODEL 1
REMARK VINA RESULT:     -11.2      0.000      0.000
REMARK SMILES CC(C)C[C@H](CNC(=O)N[C@@H](C)c1ccsc1)C(=O)NCCCCCCNC(=O)c1ccc(-c2c3nc(c(-c4cc(S(=O)(=O)[O-])ccc4F)c4ccc([nH]4)c(-c4cc(S(=O)(=O)[O-])ccc4F)c4nc(c(-c5cc(S(=O)(=O)[O-])ccc5F)c5ccc2[nH]5)C=C4)C=C3)cc1
REMARK SMILES IDX 23 1 22 2 21 3 20 4 18 5 19 6 5 8 4 9 2 10 1 11 3 12 6 13
REMARK SMILES IDX 7 14 8 15 9 17 10 18 11 20 12 21 13 22 14 23 17 24 15 25
REMARK SMILES IDX 16 26 24 27 25 28 26 29 27 30 28 31 29 33 30 34 31 35 92 36
REMARK SMILES IDX 32 37 91 38 33 39 34 40 35 41 85 42 36 43 90 44 84 45 86 46
REMARK SMILES IDX 37 47 89 48 83 49 82 50 38 52 70 53 50 54 69 55 51 56 54 57
REMARK SMILES IDX 68 58 87 59 52 60 53 61 67 63 88 64 55 65 39 66 40 67 48 68
REMARK SMILES IDX 41 69 47 70 49 71 46 72 42 73 43 74 44 75 45 76 71 77 72 78
REMARK SMILES IDX 80 79 73 80 79 81 81 82 78 83 74 84 75 85 76 86 77 87 56 88
REMARK SMILES IDX 57 89 65 90 58 91 64 92 66 93 63 94 59 95 60 96 61 97 62 98
REMARK H PARENT 20 7 7 16 10 19 27 32 86 51 54 62
REMARK Flexibility Score: inf
ROOT
ATOM      1  C   UNL A   1      34.502  22.952  27.108  1.00  0.00     0.002 C 
ENDROOT
BRANCH   1   2
ATOM      2  C   UNL A   1      33.181  22.617  27.809  1.00  0.00     0.021 C 
BRANCH   2   3
ATOM      3  C   UNL A   1      32.003  22.556  26.855  1.00  0.00     0.116 C 
BRANCH   3   4
ATOM      4  N   UNL A   1      31.096  23.667  26.992  1.00  0.00    -0.356 N 
ATOM      5  C   UNL A   1      30.910  24.725  26.167  1.00  0.00     0.224 C 
ATOM      6  O   UNL A   1      29.915  25.428  26.374  1.00  0.00    -0.275 OA
ATOM      7  H   UNL A   1      30.531  23.655  27.798  1.00  0.00     0.163 HD
BRANCH   5   8
ATOM      8  C   UNL A   1      31.891  25.103  25.058  1.00  0.00     0.098 C 
BRANCH   8   9
ATOM      9  C   UNL A   1      32.875  26.278  25.305  1.00  0.00     0.018 C 
BRANCH   9  10
ATOM     10  C   UNL A   1      32.730  27.256  26.488  1.00  0.00    -0.017 C 
ATOM     11  C   UNL A   1      33.993  28.080  26.762  1.00  0.00     0.007 C 
ATOM     12  C   UNL A   1      31.598  28.259  26.218  1.00  0.00     0.007 C 
ENDBRANCH   9  10
ENDBRANCH   8   9
BRANCH   8  13
ATOM     13  C   UNL A   1      31.389  24.782  23.632  1.00  0.00     0.131 C 
BRANCH  13  14
ATOM     14  N   UNL A   1      32.266  24.990  22.496  1.00  0.00    -0.337 N 
ATOM     15  C   UNL A   1      32.369  25.900  21.520  1.00  0.00     0.315 C 
ATOM     16  H   UNL A   1      32.955  24.290  22.425  1.00  0.00     0.165 HD
ATOM     17  O   UNL A   1      33.022  25.594  20.521  1.00  0.00    -0.249 OA
ATOM     18  N   UNL A   1      31.760  27.088  21.546  1.00  0.00    -0.332 N 
ATOM     19  H   UNL A   1      31.397  27.389  20.681  1.00  0.00     0.165 HD
BRANCH  18  20
ATOM     20  C   UNL A   1      31.553  27.999  22.651  1.00  0.00     0.112 C 
ATOM     21  C   UNL A   1      32.710  28.989  22.744  1.00  0.00     0.036 C 
BRANCH  20  22
ATOM     22  C   UNL A   1      30.224  28.693  22.499  1.00  0.00    -0.015 A 
ATOM     23  C   UNL A   1      29.969  29.913  21.779  1.00  0.00     0.017 A 
ATOM     24  C   UNL A   1      29.052  28.224  23.069  1.00  0.00     0.070 A 
ATOM     25  C   UNL A   1      28.645  30.295  21.825  1.00  0.00     0.065 A 
ATOM     26  S   UNL A   1      27.701  29.227  22.765  1.00  0.00    -0.152 S 
ENDBRANCH  20  22
ENDBRANCH  18  20
ENDBRANCH  13  14
ENDBRANCH   8  13
ENDBRANCH   5   8
ENDBRANCH   3   4
ENDBRANCH   2   3
ENDBRANCH   1   2
BRANCH   1  27
ATOM     27  C   UNL A   1      34.620  22.456  25.658  1.00  0.00     0.002 C 
BRANCH  27  28
ATOM     28  C   UNL A   1      35.579  21.280  25.440  1.00  0.00     0.021 C 
BRANCH  28  29
ATOM     29  C   UNL A   1      37.044  21.677  25.302  1.00  0.00     0.116 C 
BRANCH  29  30
ATOM     30  N   UNL A   1      37.931  20.571  25.621  1.00  0.00    -0.352 N 
ATOM     31  C   UNL A   1      39.235  20.603  26.037  1.00  0.00     0.251 C 
ATOM     32  H   UNL A   1      37.540  19.673  25.524  1.00  0.00     0.163 HD
ATOM     33  O   UNL A   1      39.906  19.571  26.034  1.00  0.00    -0.269 OA
BRANCH  31  34
ATOM     34  C   UNL A   1      39.826  21.883  26.470  1.00  0.00     0.039 A 
ATOM     35  C   UNL A   1      40.860  21.872  27.407  1.00  0.00     0.014 A 
ATOM     36  C   UNL A   1      39.359  23.091  25.943  1.00  0.00     0.014 A 
ATOM     37  C   UNL A   1      41.462  23.075  27.780  1.00  0.00     0.010 A 
ATOM     38  C   UNL A   1      40.010  24.278  26.259  1.00  0.00     0.010 A 
ATOM     39  C   UNL A   1      41.062  24.283  27.188  1.00  0.00    -0.014 A 
BRANCH  39  40
ATOM     40  C   UNL A   1      41.711  25.574  27.537  1.00  0.00     0.031 A 
ATOM     41  C   UNL A   1      40.939  26.604  28.318  1.00  0.00     0.074 A 
ATOM     42  C   UNL A   1      42.956  25.841  27.095  1.00  0.00     0.049 A 
ATOM     43  N   UNL A   1      41.274  27.829  28.625  1.00  0.00    -0.248 NA
ATOM     44  C   UNL A   1      39.602  26.212  28.794  1.00  0.00     0.031 C 
ATOM     45  C   UNL A   1      43.790  24.926  26.312  1.00  0.00     0.029 A 
ATOM     46  N   UNL A   1      43.734  26.964  27.223  1.00  0.00    -0.354 N 
ATOM     47  C   UNL A   1      40.184  28.362  29.303  1.00  0.00     0.074 A 
ATOM     48  C   UNL A   1      39.160  27.341  29.327  1.00  0.00     0.031 C 
ATOM     49  C   UNL A   1      44.966  25.517  26.048  1.00  0.00     0.029 A 
ATOM     50  C   UNL A   1      44.952  26.873  26.588  1.00  0.00     0.049 A 
ATOM     51  H   UNL A   1      43.448  27.762  27.725  1.00  0.00     0.167 HD
ATOM     52  C   UNL A   1      40.056  29.588  29.867  1.00  0.00     0.034 A 
ATOM     53  C   UNL A   1      45.933  27.786  26.439  1.00  0.00     0.034 A 
ATOM     54  C   UNL A   1      41.099  30.584  29.857  1.00  0.00     0.049 A 
ATOM     55  C   UNL A   1      45.748  29.156  27.050  1.00  0.00     0.074 A 
ATOM     56  C   UNL A   1      41.101  31.829  30.460  1.00  0.00     0.029 A 
ATOM     57  N   UNL A   1      42.319  30.453  29.208  1.00  0.00    -0.354 N 
ATOM     58  N   UNL A   1      44.731  29.623  27.739  1.00  0.00    -0.248 NA
ATOM     59  C   UNL A   1      46.843  30.120  26.873  1.00  0.00     0.031 C 
ATOM     60  C   UNL A   1      42.284  32.484  30.106  1.00  0.00     0.029 A 
ATOM     61  C   UNL A   1      43.063  31.612  29.363  1.00  0.00     0.049 A 
ATOM     62  H   UNL A   1      42.613  29.656  28.710  1.00  0.00     0.167 HD
ATOM     63  C   UNL A   1      45.090  30.914  28.117  1.00  0.00     0.074 A 
ATOM     64  C   UNL A   1      46.417  31.149  27.589  1.00  0.00     0.031 C 
ATOM     65  C   UNL A   1      44.391  31.824  28.841  1.00  0.00     0.034 A 
BRANCH  52  66
ATOM     66  C   UNL A   1      38.738  29.941  30.511  1.00  0.00     0.023 A 
ATOM     67  C   UNL A   1      37.752  30.677  29.836  1.00  0.00     0.031 A 
ATOM     68  C   UNL A   1      38.457  29.503  31.818  1.00  0.00     0.131 A 
ATOM     69  C   UNL A   1      36.548  30.992  30.484  1.00  0.00     0.055 A 
ATOM     70  C   UNL A   1      37.228  29.755  32.430  1.00  0.00     0.041 A 
ATOM     71  F   UNL A   1      39.371  28.815  32.521  1.00  0.00    -0.206 F 
ATOM     72  C   UNL A   1      36.268  30.511  31.765  1.00  0.00     0.022 A 
BRANCH  69  73
ATOM     73  S   UNL A   1      35.390  32.125  29.668  1.00  0.00     0.124 S 
ATOM     74  O   UNL A   1      34.848  31.279  28.607  1.00  0.00    -0.237 OA
ATOM     75  O   UNL A   1      34.470  32.466  30.747  1.00  0.00    -0.237 OA
ATOM     76  O   UNL A   1      36.246  33.218  29.209  1.00  0.00    -0.744 OA
ENDBRANCH  69  73
ENDBRANCH  52  66
BRANCH  53  77
ATOM     77  C   UNL A   1      47.170  27.470  25.661  1.00  0.00     0.023 A 
ATOM     78  C   UNL A   1      47.307  27.885  24.328  1.00  0.00     0.031 A 
ATOM     79  C   UNL A   1      48.190  26.668  26.205  1.00  0.00     0.131 A 
ATOM     80  C   UNL A   1      48.390  27.431  23.558  1.00  0.00     0.055 A 
ATOM     81  C   UNL A   1      49.304  26.281  25.458  1.00  0.00     0.041 A 
ATOM     82  F   UNL A   1      48.115  26.239  27.474  1.00  0.00    -0.206 F 
ATOM     83  C   UNL A   1      49.397  26.645  24.118  1.00  0.00     0.022 A 
BRANCH  80  84
ATOM     84  S   UNL A   1      48.378  27.758  21.774  1.00  0.00     0.124 S 
ATOM     85  O   UNL A   1      48.655  26.432  21.230  1.00  0.00    -0.237 OA
ATOM     86  O   UNL A   1      47.027  28.267  21.568  1.00  0.00    -0.237 OA
ATOM     87  O   UNL A   1      49.447  28.739  21.601  1.00  0.00    -0.744 OA
ENDBRANCH  80  84
ENDBRANCH  53  77
BRANCH  65  88
ATOM     88  C   UNL A   1      45.079  33.125  29.172  1.00  0.00     0.023 A 
ATOM     89  C   UNL A   1      44.949  34.267  28.364  1.00  0.00     0.031 A 
ATOM     90  C   UNL A   1      45.869  33.223  30.333  1.00  0.00     0.131 A 
ATOM     91  C   UNL A   1      45.637  35.443  28.700  1.00  0.00     0.055 A 
ATOM     92  C   UNL A   1      46.498  34.413  30.697  1.00  0.00     0.041 A 
ATOM     93  F   UNL A   1      46.031  32.162  31.141  1.00  0.00    -0.206 F 
ATOM     94  C   UNL A   1      46.394  35.529  29.872  1.00  0.00     0.022 A 
BRANCH  91  95
ATOM     95  S   UNL A   1      45.598  36.838  27.542  1.00  0.00     0.124 S 
ATOM     96  O   UNL A   1      46.220  37.900  28.324  1.00  0.00    -0.237 OA
ATOM     97  O   UNL A   1      46.379  36.332  26.418  1.00  0.00    -0.237 OA
ATOM     98  O   UNL A   1      44.172  37.020  27.272  1.00  0.00    -0.744 OA
ENDBRANCH  91  95
ENDBRANCH  65  88
ENDBRANCH  39  40
ENDBRANCH  31  34
ENDBRANCH  29  30
ENDBRANCH  28  29
ENDBRANCH  27  28
ENDBRANCH   1  27
TORSDOF 22
ENDMDL
MODEL 2
REMARK VINA RESULT:     -11.0      1.559      7.712
REMARK SMILES CC(C)C[C@H](CNC(=O)N[C@@H](C)c1ccsc1)C(=O)NCCCCCCNC(=O)c1ccc(-c2c3nc(c(-c4cc(S(=O)(=O)[O-])ccc4F)c4ccc([nH]4)c(-c4cc(S(=O)(=O)[O-])ccc4F)c4nc(c(-c5cc(S(=O)(=O)[O-])ccc5F)c5ccc2[nH]5)C=C4)C=C3)cc1
REMARK SMILES IDX 23 1 22 2 21 3 20 4 18 5 19 6 5 8 4 9 2 10 1 11 3 12 6 13
REMARK SMILES IDX 7 14 8 15 9 17 10 18 11 20 12 21 13 22 14 23 17 24 15 25
REMARK SMILES IDX 16 26 24 27 25 28 26 29 27 30 28 31 29 33 30 34 31 35 92 36
REMARK SMILES IDX 32 37 91 38 33 39 34 40 35 41 85 42 36 43 90 44 84 45 86 46
REMARK SMILES IDX 37 47 89 48 83 49 82 50 38 52 70 53 50 54 69 55 51 56 54 57
REMARK SMILES IDX 68 58 87 59 52 60 53 61 67 63 88 64 55 65 39 66 40 67 48 68
REMARK SMILES IDX 41 69 47 70 49 71 46 72 42 73 43 74 44 75 45 76 71 77 72 78
REMARK SMILES IDX 80 79 73 80 79 81 81 82 78 83 74 84 75 85 76 86 77 87 56 88
REMARK SMILES IDX 57 89 65 90 58 91 64 92 66 93 63 94 59 95 60 96 61 97 62 98
REMARK H PARENT 20 7 7 16 10 19 27 32 86 51 54 62
REMARK Flexibility Score: inf
ROOT
ATOM      1  C   UNL A   1      35.415  23.805  25.767  1.00  0.00     0.002 C 
ENDROOT
BRANCH   1   2
ATOM      2  C   UNL A   1      34.752  24.416  24.528  1.00  0.00     0.021 C 
BRANCH   2   3
ATOM      3  C   UNL A   1      34.048  25.727  24.820  1.00  0.00     0.116 C 
BRANCH   3   4
ATOM      4  N   UNL A   1      33.882  26.561  23.657  1.00  0.00    -0.356 N 
ATOM      5  C   UNL A   1      33.708  27.902  23.584  1.00  0.00     0.224 C 
ATOM      6  O   UNL A   1      33.822  28.422  22.468  1.00  0.00    -0.275 OA
ATOM      7  H   UNL A   1      33.899  26.089  22.792  1.00  0.00     0.163 HD
BRANCH   5   8
ATOM      8  C   UNL A   1      33.327  28.762  24.789  1.00  0.00     0.098 C 
BRANCH   8   9
ATOM      9  C   UNL A   1      34.187  28.661  26.076  1.00  0.00     0.018 C 
BRANCH   9  10
ATOM     10  C   UNL A   1      34.623  29.895  26.890  1.00  0.00    -0.017 C 
ATOM     11  C   UNL A   1      33.455  30.662  27.517  1.00  0.00     0.007 C 
ATOM     12  C   UNL A   1      35.547  29.476  28.044  1.00  0.00     0.007 C 
ENDBRANCH   9  10
ENDBRANCH   8   9
BRANCH   8  13
ATOM     13  C   UNL A   1      31.822  29.103  24.872  1.00  0.00     0.131 C 
BRANCH  13  14
ATOM     14  N   UNL A   1      31.096  29.459  23.668  1.00  0.00    -0.337 N 
ATOM     15  C   UNL A   1      30.415  28.793  22.729  1.00  0.00     0.315 C 
ATOM     16  H   UNL A   1      31.107  30.430  23.501  1.00  0.00     0.165 HD
ATOM     17  O   UNL A   1      30.205  29.369  21.659  1.00  0.00    -0.249 OA
ATOM     18  N   UNL A   1      30.004  27.530  22.865  1.00  0.00    -0.332 N 
ATOM     19  H   UNL A   1      30.078  26.977  22.053  1.00  0.00     0.165 HD
BRANCH  18  20
ATOM     20  C   UNL A   1      29.467  26.850  24.025  1.00  0.00     0.112 C 
ATOM     21  C   UNL A   1      27.956  26.691  23.890  1.00  0.00     0.036 C 
BRANCH  20  22
ATOM     22  C   UNL A   1      30.163  25.526  24.209  1.00  0.00    -0.015 A 
ATOM     23  C   UNL A   1      30.626  24.647  23.169  1.00  0.00     0.017 A 
ATOM     24  C   UNL A   1      30.436  24.978  25.452  1.00  0.00     0.070 A 
ATOM     25  C   UNL A   1      31.225  23.506  23.659  1.00  0.00     0.065 A 
ATOM     26  S   UNL A   1      31.201  23.451  25.366  1.00  0.00    -0.152 S 
ENDBRANCH  20  22
ENDBRANCH  18  20
ENDBRANCH  13  14
ENDBRANCH   8  13
ENDBRANCH   5   8
ENDBRANCH   3   4
ENDBRANCH   2   3
ENDBRANCH   1   2
BRANCH   1  27
ATOM     27  C   UNL A   1      35.094  22.323  26.021  1.00  0.00     0.002 C 
BRANCH  27  28
ATOM     28  C   UNL A   1      35.743  21.332  25.050  1.00  0.00     0.021 C 
BRANCH  28  29
ATOM     29  C   UNL A   1      37.221  21.588  24.779  1.00  0.00     0.116 C 
BRANCH  29  30
ATOM     30  N   UNL A   1      38.059  20.552  25.358  1.00  0.00    -0.352 N 
ATOM     31  C   UNL A   1      39.274  20.669  25.978  1.00  0.00     0.251 C 
ATOM     32  H   UNL A   1      37.704  19.636  25.296  1.00  0.00     0.163 HD
ATOM     33  O   UNL A   1      39.952  19.666  26.197  1.00  0.00    -0.269 OA
BRANCH  31  34
ATOM     34  C   UNL A   1      39.765  22.006  26.362  1.00  0.00     0.039 A 
ATOM     35  C   UNL A   1      40.960  22.114  27.074  1.00  0.00     0.014 A 
ATOM     36  C   UNL A   1      39.043  23.151  26.010  1.00  0.00     0.014 A 
ATOM     37  C   UNL A   1      41.459  23.379  27.392  1.00  0.00     0.010 A 
ATOM     38  C   UNL A   1      39.579  24.409  26.263  1.00  0.00     0.010 A 
ATOM     39  C   UNL A   1      40.789  24.535  26.964  1.00  0.00    -0.014 A 
BRANCH  39  40
ATOM     40  C   UNL A   1      41.316  25.894  27.255  1.00  0.00     0.031 A 
ATOM     41  C   UNL A   1      42.676  26.287  26.742  1.00  0.00     0.074 A 
ATOM     42  C   UNL A   1      40.607  26.736  28.033  1.00  0.00     0.049 A 
ATOM     43  N   UNL A   1      43.366  27.371  26.977  1.00  0.00    -0.248 NA
ATOM     44  C   UNL A   1      43.360  25.320  25.868  1.00  0.00     0.031 C 
ATOM     45  C   UNL A   1      39.288  26.454  28.603  1.00  0.00     0.029 A 
ATOM     46  N   UNL A   1      40.900  27.995  28.494  1.00  0.00    -0.354 N 
ATOM     47  C   UNL A   1      44.573  27.206  26.307  1.00  0.00     0.074 A 
ATOM     48  C   UNL A   1      44.538  25.900  25.689  1.00  0.00     0.031 C 
ATOM     49  C   UNL A   1      38.881  27.514  29.319  1.00  0.00     0.029 A 
ATOM     50  C   UNL A   1      39.930  28.528  29.312  1.00  0.00     0.049 A 
ATOM     51  H   UNL A   1      41.729  28.474  28.260  1.00  0.00     0.167 HD
ATOM     52  C   UNL A   1      45.608  28.075  26.207  1.00  0.00     0.034 A 
ATOM     53  C   UNL A   1      39.901  29.691  29.996  1.00  0.00     0.034 A 
ATOM     54  C   UNL A   1      45.612  29.386  26.806  1.00  0.00     0.049 A 
ATOM     55  C   UNL A   1      41.086  30.623  29.889  1.00  0.00     0.074 A 
ATOM     56  C   UNL A   1      46.578  30.371  26.706  1.00  0.00     0.029 A 
ATOM     57  N   UNL A   1      44.610  29.891  27.624  1.00  0.00    -0.354 N 
ATOM     58  N   UNL A   1      42.196  30.475  29.203  1.00  0.00    -0.248 NA
ATOM     59  C   UNL A   1      41.012  31.884  30.642  1.00  0.00     0.031 C 
ATOM     60  C   UNL A   1      46.202  31.437  27.528  1.00  0.00     0.029 A 
ATOM     61  C   UNL A   1      44.956  31.158  28.066  1.00  0.00     0.049 A 
ATOM     62  H   UNL A   1      43.778  29.419  27.856  1.00  0.00     0.167 HD
ATOM     63  C   UNL A   1      42.925  31.644  29.403  1.00  0.00     0.074 A 
ATOM     64  C   UNL A   1      42.127  32.490  30.265  1.00  0.00     0.031 C 
ATOM     65  C   UNL A   1      44.141  31.994  28.914  1.00  0.00     0.034 A 
BRANCH  52  66
ATOM     66  C   UNL A   1      46.837  27.631  25.451  1.00  0.00     0.023 A 
ATOM     67  C   UNL A   1      47.051  27.977  24.108  1.00  0.00     0.031 A 
ATOM     68  C   UNL A   1      47.824  26.870  26.103  1.00  0.00     0.131 A 
ATOM     69  C   UNL A   1      48.203  27.528  23.445  1.00  0.00     0.055 A 
ATOM     70  C   UNL A   1      49.003  26.489  25.460  1.00  0.00     0.041 A 
ATOM     71  F   UNL A   1      47.662  26.489  27.380  1.00  0.00    -0.206 F 
ATOM     72  C   UNL A   1      49.194  26.811  24.120  1.00  0.00     0.022 A 
BRANCH  69  73
ATOM     73  S   UNL A   1      48.345  27.805  21.658  1.00  0.00     0.124 S 
ATOM     74  O   UNL A   1      48.672  26.465  21.177  1.00  0.00    -0.237 OA
ATOM     75  O   UNL A   1      47.019  28.303  21.309  1.00  0.00    -0.237 OA
ATOM     76  O   UNL A   1      49.426  28.782  21.547  1.00  0.00    -0.744 OA
ENDBRANCH  69  73
ENDBRANCH  52  66
BRANCH  53  77
ATOM     77  C   UNL A   1      38.739  30.045  30.867  1.00  0.00     0.023 A 
ATOM     78  C   UNL A   1      37.773  30.968  30.436  1.00  0.00     0.031 A 
ATOM     79  C   UNL A   1      38.627  29.543  32.175  1.00  0.00     0.131 A 
ATOM     80  C   UNL A   1      36.790  31.424  31.328  1.00  0.00     0.055 A 
ATOM     81  C   UNL A   1      37.602  29.943  33.035  1.00  0.00     0.041 A 
ATOM     82  F   UNL A   1      39.521  28.659  32.644  1.00  0.00    -0.206 F 
ATOM     83  C   UNL A   1      36.689  30.907  32.621  1.00  0.00     0.022 A 
BRANCH  80  84
ATOM     84  S   UNL A   1      35.745  32.818  30.823  1.00  0.00     0.124 S 
ATOM     85  O   UNL A   1      34.545  32.591  31.623  1.00  0.00    -0.237 OA
ATOM     86  O   UNL A   1      36.563  33.963  31.202  1.00  0.00    -0.237 OA
ATOM     87  O   UNL A   1      35.582  32.616  29.385  1.00  0.00    -0.744 OA
ENDBRANCH  80  84
ENDBRANCH  53  77
BRANCH  65  88
ATOM     88  C   UNL A   1      44.648  33.378  29.235  1.00  0.00     0.023 A 
ATOM     89  C   UNL A   1      44.306  34.499  28.460  1.00  0.00     0.031 A 
ATOM     90  C   UNL A   1      45.481  33.576  30.353  1.00  0.00     0.131 A 
ATOM     91  C   UNL A   1      44.831  35.759  28.784  1.00  0.00     0.055 A 
ATOM     92  C   UNL A   1      45.947  34.841  30.708  1.00  0.00     0.041 A 
ATOM     93  F   UNL A   1      45.842  32.540  31.128  1.00  0.00    -0.206 F 
ATOM     94  C   UNL A   1      45.633  35.940  29.915  1.00  0.00     0.022 A 
BRANCH  91  95
ATOM     95  S   UNL A   1      44.522  37.148  27.660  1.00  0.00     0.124 S 
ATOM     96  O   UNL A   1      44.020  38.170  28.572  1.00  0.00    -0.237 OA
ATOM     97  O   UNL A   1      45.844  37.392  27.094  1.00  0.00    -0.237 OA
ATOM     98  O   UNL A   1      43.535  36.616  26.721  1.00  0.00    -0.744 OA
ENDBRANCH  91  95
ENDBRANCH  65  88
ENDBRANCH  39  40
ENDBRANCH  31  34
ENDBRANCH  29  30
ENDBRANCH  28  29
ENDBRANCH  27  28
ENDBRANCH   1  27
TORSDOF 22
ENDMDL
MODEL 3
REMARK VINA RESULT:     -10.7      3.283      8.088
REMARK SMILES CC(C)C[C@H](CNC(=O)N[C@@H](C)c1ccsc1)C(=O)NCCCCCCNC(=O)c1ccc(-c2c3nc(c(-c4cc(S(=O)(=O)[O-])ccc4F)c4ccc([nH]4)c(-c4cc(S(=O)(=O)[O-])ccc4F)c4nc(c(-c5cc(S(=O)(=O)[O-])ccc5F)c5ccc2[nH]5)C=C4)C=C3)cc1
REMARK SMILES IDX 23 1 22 2 21 3 20 4 18 5 19 6 5 8 4 9 2 10 1 11 3 12 6 13
REMARK SMILES IDX 7 14 8 15 9 17 10 18 11 20 12 21 13 22 14 23 17 24 15 25
REMARK SMILES IDX 16 26 24 27 25 28 26 29 27 30 28 31 29 33 30 34 31 35 92 36
REMARK SMILES IDX 32 37 91 38 33 39 34 40 35 41 85 42 36 43 90 44 84 45 86 46
REMARK SMILES IDX 37 47 89 48 83 49 82 50 38 52 70 53 50 54 69 55 51 56 54 57
REMARK SMILES IDX 68 58 87 59 52 60 53 61 67 63 88 64 55 65 39 66 40 67 48 68
REMARK SMILES IDX 41 69 47 70 49 71 46 72 42 73 43 74 44 75 45 76 71 77 72 78
REMARK SMILES IDX 80 79 73 80 79 81 81 82 78 83 74 84 75 85 76 86 77 87 56 88
REMARK SMILES IDX 57 89 65 90 58 91 64 92 66 93 63 94 59 95 60 96 61 97 62 98
REMARK H PARENT 20 7 7 16 10 19 27 32 86 51 54 62
REMARK Flexibility Score: inf
ROOT
ATOM      1  C   UNL A   1      34.294  22.111  26.964  1.00  0.00     0.002 C 
ENDROOT
BRANCH   1   2
ATOM      2  C   UNL A   1      33.759  20.872  26.239  1.00  0.00     0.021 C 
BRANCH   2   3
ATOM      3  C   UNL A   1      34.265  20.756  24.814  1.00  0.00     0.116 C 
BRANCH   3   4
ATOM      4  N   UNL A   1      33.216  20.542  23.849  1.00  0.00    -0.356 N 
ATOM      5  C   UNL A   1      32.518  21.452  23.130  1.00  0.00     0.224 C 
ATOM      6  O   UNL A   1      31.831  21.021  22.197  1.00  0.00    -0.275 OA
ATOM      7  H   UNL A   1      32.973  19.601  23.690  1.00  0.00     0.163 HD
BRANCH   5   8
ATOM      8  C   UNL A   1      32.504  22.945  23.458  1.00  0.00     0.098 C 
BRANCH   8   9
ATOM      9  C   UNL A   1      31.257  23.539  24.165  1.00  0.00     0.018 C 
BRANCH   9  10
ATOM     10  C   UNL A   1      31.209  23.822  25.680  1.00  0.00    -0.017 C 
ATOM     11  C   UNL A   1      30.473  25.116  26.041  1.00  0.00     0.007 C 
ATOM     12  C   UNL A   1      30.486  22.682  26.415  1.00  0.00     0.007 C 
ENDBRANCH   9  10
ENDBRANCH   8   9
BRANCH   8  13
ATOM     13  C   UNL A   1      33.355  23.811  22.502  1.00  0.00     0.131 C 
BRANCH  13  14
ATOM     14  N   UNL A   1      32.706  24.582  21.458  1.00  0.00    -0.337 N 
ATOM     15  C   UNL A   1      32.143  25.793  21.372  1.00  0.00     0.315 C 
ATOM     16  H   UNL A   1      32.672  24.095  20.603  1.00  0.00     0.165 HD
ATOM     17  O   UNL A   1      31.387  26.005  20.423  1.00  0.00    -0.249 OA
ATOM     18  N   UNL A   1      32.310  26.755  22.283  1.00  0.00    -0.332 N 
ATOM     19  H   UNL A   1      31.504  27.287  22.480  1.00  0.00     0.165 HD
BRANCH  18  20
ATOM     20  C   UNL A   1      33.494  27.135  23.024  1.00  0.00     0.112 C 
ATOM     21  C   UNL A   1      34.237  28.250  22.296  1.00  0.00     0.036 C 
BRANCH  20  22
ATOM     22  C   UNL A   1      33.113  27.529  24.428  1.00  0.00    -0.015 A 
ATOM     23  C   UNL A   1      33.772  27.124  25.642  1.00  0.00     0.017 A 
ATOM     24  C   UNL A   1      32.035  28.348  24.721  1.00  0.00     0.070 A 
ATOM     25  C   UNL A   1      33.184  27.654  26.771  1.00  0.00     0.065 A 
ATOM     26  S   UNL A   1      31.813  28.602  26.398  1.00  0.00    -0.152 S 
ENDBRANCH  20  22
ENDBRANCH  18  20
ENDBRANCH  13  14
ENDBRANCH   8  13
ENDBRANCH   5   8
ENDBRANCH   3   4
ENDBRANCH   2   3
ENDBRANCH   1   2
BRANCH   1  27
ATOM     27  C   UNL A   1      34.947  23.170  26.062  1.00  0.00     0.002 C 
BRANCH  27  28
ATOM     28  C   UNL A   1      36.425  23.456  26.344  1.00  0.00     0.021 C 
BRANCH  28  29
ATOM     29  C   UNL A   1      37.373  23.047  25.223  1.00  0.00     0.116 C 
BRANCH  29  30
ATOM     30  N   UNL A   1      38.390  22.121  25.693  1.00  0.00    -0.352 N 
ATOM     31  C   UNL A   1      39.597  22.390  26.281  1.00  0.00     0.251 C 
ATOM     32  H   UNL A   1      38.184  21.167  25.570  1.00  0.00     0.163 HD
ATOM     33  O   UNL A   1      40.436  21.497  26.401  1.00  0.00    -0.269 OA
BRANCH  31  34
ATOM     34  C   UNL A   1      39.884  23.758  26.753  1.00  0.00     0.039 A 
ATOM     35  C   UNL A   1      40.079  23.981  28.117  1.00  0.00     0.014 A 
ATOM     36  C   UNL A   1      39.965  24.816  25.843  1.00  0.00     0.014 A 
ATOM     37  C   UNL A   1      40.405  25.263  28.564  1.00  0.00     0.010 A 
ATOM     38  C   UNL A   1      40.363  26.074  26.281  1.00  0.00     0.010 A 
ATOM     39  C   UNL A   1      40.579  26.312  27.648  1.00  0.00    -0.014 A 
BRANCH  39  40
ATOM     40  C   UNL A   1      40.964  27.677  28.092  1.00  0.00     0.031 A 
ATOM     41  C   UNL A   1      42.416  28.076  28.088  1.00  0.00     0.074 A 
ATOM     42  C   UNL A   1      40.022  28.521  28.559  1.00  0.00     0.049 A 
ATOM     43  N   UNL A   1      42.973  29.168  28.541  1.00  0.00    -0.248 NA
ATOM     44  C   UNL A   1      43.369  27.106  27.524  1.00  0.00     0.031 C 
ATOM     45  C   UNL A   1      38.587  28.233  28.629  1.00  0.00     0.029 A 
ATOM     46  N   UNL A   1      40.128  29.786  29.079  1.00  0.00    -0.354 N 
ATOM     47  C   UNL A   1      44.340  29.006  28.342  1.00  0.00     0.074 A 
ATOM     48  C   UNL A   1      44.532  27.694  27.767  1.00  0.00     0.031 C 
ATOM     49  C   UNL A   1      37.949  29.297  29.143  1.00  0.00     0.029 A 
ATOM     50  C   UNL A   1      38.929  30.319  29.495  1.00  0.00     0.049 A 
ATOM     51  H   UNL A   1      40.984  30.269  29.149  1.00  0.00     0.167 HD
ATOM     52  C   UNL A   1      45.340  29.882  28.605  1.00  0.00     0.034 A 
ATOM     53  C   UNL A   1      38.655  31.487  30.111  1.00  0.00     0.034 A 
ATOM     54  C   UNL A   1      45.127  31.198  29.153  1.00  0.00     0.049 A 
ATOM     55  C   UNL A   1      39.797  32.428  30.421  1.00  0.00     0.074 A 
ATOM     56  C   UNL A   1      46.061  32.190  29.390  1.00  0.00     0.029 A 
ATOM     57  N   UNL A   1      43.898  31.703  29.557  1.00  0.00    -0.354 N 
ATOM     58  N   UNL A   1      41.079  32.282  30.173  1.00  0.00    -0.248 NA
ATOM     59  C   UNL A   1      39.457  33.695  31.084  1.00  0.00     0.031 C 
ATOM     60  C   UNL A   1      45.414  33.260  30.013  1.00  0.00     0.029 A 
ATOM     61  C   UNL A   1      44.059  32.977  30.078  1.00  0.00     0.049 A 
ATOM     62  H   UNL A   1      43.039  31.227  29.485  1.00  0.00     0.167 HD
ATOM     63  C   UNL A   1      41.685  33.459  30.605  1.00  0.00     0.074 A 
ATOM     64  C   UNL A   1      40.631  34.306  31.120  1.00  0.00     0.031 C 
ATOM     65  C   UNL A   1      42.994  33.814  30.574  1.00  0.00     0.034 A 
BRANCH  52  66
ATOM     66  C   UNL A   1      46.758  29.441  28.338  1.00  0.00     0.023 A 
ATOM     67  C   UNL A   1      47.499  28.705  29.277  1.00  0.00     0.031 A 
ATOM     68  C   UNL A   1      47.366  29.741  27.105  1.00  0.00     0.131 A 
ATOM     69  C   UNL A   1      48.820  28.330  28.986  1.00  0.00     0.055 A 
ATOM     70  C   UNL A   1      48.654  29.302  26.794  1.00  0.00     0.041 A 
ATOM     71  F   UNL A   1      46.715  30.463  26.179  1.00  0.00    -0.206 F 
ATOM     72  C   UNL A   1      49.392  28.599  27.740  1.00  0.00     0.022 A 
BRANCH  69  73
ATOM     73  S   UNL A   1      49.819  27.575  30.298  1.00  0.00     0.124 S 
ATOM     74  O   UNL A   1      49.191  28.123  31.499  1.00  0.00    -0.237 OA
ATOM     75  O   UNL A   1      49.619  26.149  30.067  1.00  0.00    -0.237 OA
ATOM     76  O   UNL A   1      51.168  28.068  30.029  1.00  0.00    -0.744 OA
ENDBRANCH  69  73
ENDBRANCH  52  66
BRANCH  53  77
ATOM     77  C   UNL A   1      37.258  31.841  30.511  1.00  0.00     0.023 A 
ATOM     78  C   UNL A   1      36.375  32.428  29.592  1.00  0.00     0.031 A 
ATOM     79  C   UNL A   1      36.817  31.687  31.837  1.00  0.00     0.131 A 
ATOM     80  C   UNL A   1      35.132  32.916  30.026  1.00  0.00     0.055 A 
ATOM     81  C   UNL A   1      35.550  32.105  32.248  1.00  0.00     0.041 A 
ATOM     82  F   UNL A   1      37.617  31.133  32.761  1.00  0.00    -0.206 F 
ATOM     83  C   UNL A   1      34.707  32.745  31.344  1.00  0.00     0.022 A 
BRANCH  80  84
ATOM     84  S   UNL A   1      34.147  33.915  28.876  1.00  0.00     0.124 S 
ATOM     85  O   UNL A   1      33.654  32.899  27.952  1.00  0.00    -0.237 OA
ATOM     86  O   UNL A   1      33.157  34.511  29.765  1.00  0.00    -0.237 OA
ATOM     87  O   UNL A   1      35.123  34.847  28.315  1.00  0.00    -0.744 OA
ENDBRANCH  80  84
ENDBRANCH  53  77
BRANCH  65  88
ATOM     88  C   UNL A   1      43.349  35.205  31.038  1.00  0.00     0.023 A 
ATOM     89  C   UNL A   1      43.498  35.525  32.398  1.00  0.00     0.031 A 
ATOM     90  C   UNL A   1      43.556  36.226  30.092  1.00  0.00     0.131 A 
ATOM     91  C   UNL A   1      43.796  36.843  32.777  1.00  0.00     0.055 A 
ATOM     92  C   UNL A   1      43.917  37.518  30.471  1.00  0.00     0.041 A 
ATOM     93  F   UNL A   1      43.425  35.977  28.779  1.00  0.00    -0.206 F 
ATOM     94  C   UNL A   1      44.027  37.836  31.821  1.00  0.00     0.022 A 
BRANCH  91  95
ATOM     95  S   UNL A   1      43.798  37.264  34.541  1.00  0.00     0.124 S 
ATOM     96  O   UNL A   1      45.194  37.047  34.904  1.00  0.00    -0.237 OA
ATOM     97  O   UNL A   1      43.350  38.653  34.531  1.00  0.00    -0.237 OA
ATOM     98  O   UNL A   1      42.851  36.313  35.122  1.00  0.00    -0.744 OA
ENDBRANCH  91  95
ENDBRANCH  65  88
ENDBRANCH  39  40
ENDBRANCH  31  34
ENDBRANCH  29  30
ENDBRANCH  28  29
ENDBRANCH  27  28
ENDBRANCH   1  27
TORSDOF 22
ENDMDL
