MODEL 1
REMARK VINA RESULT:     -10.8      0.000      0.000
REMARK SMILES C[C@@H](C(=O)NCCCCCCNC(=O)c1ccc(-c2c3nc(c(-c4cc(S(=O)(=O)[O-])ccc4F)c4ccc([nH]4)c(-c4cc(S(=O)(=O)[O-])ccc4F)c4nc(c(-c5cc(S(=O)(=O)[O-])ccc5F)c5ccc2[nH]5)C=C4)C=C3)cc1)N1C(=O)/C(=C/c2ccc(-c3ccc([N+](=O)[O-])cc3Cl)o2)SC1=S
REMARK SMILES IDX 8 1 7 2 6 3 5 4 3 5 4 6 2 8 1 9 78 10 79 11 99 12 80 13
REMARK SMILES IDX 81 14 98 15 100 16 82 17 83 18 84 19 97 20 85 21 86 22 87 23
REMARK SMILES IDX 88 24 95 25 89 26 94 27 96 28 90 29 91 30 92 31 93 32 9 33
REMARK SMILES IDX 10 34 11 35 12 36 13 37 14 39 15 40 16 41 77 42 17 43 76 44
REMARK SMILES IDX 18 45 19 46 20 47 70 48 21 49 75 50 69 51 71 52 22 53 74 54
REMARK SMILES IDX 68 55 67 56 23 58 55 59 35 60 54 61 36 62 39 63 53 64 72 65
REMARK SMILES IDX 37 66 38 67 52 69 73 70 40 71 24 72 25 73 33 74 26 75 32 76
REMARK SMILES IDX 34 77 31 78 27 79 28 80 29 81 30 82 56 83 57 84 65 85 58 86
REMARK SMILES IDX 64 87 66 88 63 89 59 90 60 91 61 92 62 93 41 94 42 95 50 96
REMARK SMILES IDX 43 97 49 98 51 99 48 100 44 101 45 102 46 103 47 104
REMARK H PARENT 5 7 12 38 71 57 39 68
REMARK Flexibility Score: inf
ROOT
ATOM      1  C   UNL A   1      34.273  29.452  26.825  1.00  0.00     0.002 C 
ENDROOT
BRANCH   1   2
ATOM      2  C   UNL A   1      33.004  28.622  27.041  1.00  0.00     0.021 C 
BRANCH   2   3
ATOM      3  C   UNL A   1      33.098  27.205  26.466  1.00  0.00     0.116 C 
BRANCH   3   4
ATOM      4  N   UNL A   1      31.913  26.452  26.840  1.00  0.00    -0.354 N 
ATOM      5  C   UNL A   1      30.935  25.942  26.030  1.00  0.00     0.242 C 
ATOM      6  O   UNL A   1      29.848  25.648  26.534  1.00  0.00    -0.273 OA
ATOM      7  H   UNL A   1      31.798  26.287  27.803  1.00  0.00     0.163 HD
BRANCH   5   8
ATOM      8  C   UNL A   1      31.232  25.744  24.526  1.00  0.00     0.178 C 
ATOM      9  C   UNL A   1      29.966  25.144  23.899  1.00  0.00     0.042 C 
BRANCH   8  10
ATOM     10  N   UNL A   1      32.467  24.927  24.383  1.00  0.00    -0.281 N 
ATOM     11  C   UNL A   1      32.685  23.794  25.146  1.00  0.00     0.267 C 
ATOM     12  C   UNL A   1      33.399  25.130  23.376  1.00  0.00     0.149 C 
ATOM     13  O   UNL A   1      31.904  23.241  25.906  1.00  0.00    -0.268 OA
ATOM     14  C   UNL A   1      34.031  23.231  24.885  1.00  0.00     0.084 C 
ATOM     15  S   UNL A   1      34.829  24.141  23.677  1.00  0.00    -0.054 SA
ATOM     16  S   UNL A   1      33.294  26.104  22.022  1.00  0.00    -0.052 S 
ATOM     17  C   UNL A   1      34.444  22.142  25.544  1.00  0.00     0.068 C 
BRANCH  17  18
ATOM     18  C   UNL A   1      35.753  21.617  25.434  1.00  0.00     0.128 A 
ATOM     19  C   UNL A   1      36.182  20.504  24.724  1.00  0.00     0.051 A 
ATOM     20  O   UNL A   1      36.856  22.207  26.005  1.00  0.00    -0.457 OA
ATOM     21  C   UNL A   1      37.580  20.402  24.887  1.00  0.00     0.051 A 
ATOM     22  C   UNL A   1      37.943  21.444  25.708  1.00  0.00     0.136 A 
BRANCH  22  23
ATOM     23  C   UNL A   1      39.216  21.870  26.263  1.00  0.00     0.036 A 
ATOM     24  C   UNL A   1      40.218  20.898  26.438  1.00  0.00     0.020 A 
ATOM     25  C   UNL A   1      39.458  23.183  26.707  1.00  0.00     0.058 A 
ATOM     26  C   UNL A   1      41.422  21.215  27.070  1.00  0.00     0.086 A 
ATOM     27  C   UNL A   1      40.661  23.508  27.343  1.00  0.00     0.106 A 
ATOM     28  Cl  UNL A   1      38.277  24.441  26.570  1.00  0.00    -0.083 Cl
ATOM     29  C   UNL A   1      41.632  22.518  27.535  1.00  0.00     0.270 A 
BRANCH  29  30
ATOM     30  N   UNL A   1      42.866  22.839  28.262  1.00  0.00     0.062 N 
ATOM     31  O   UNL A   1      43.939  22.713  27.656  1.00  0.00    -0.258 OA
ATOM     32  O   UNL A   1      42.762  23.201  29.442  1.00  0.00    -0.258 OA
ENDBRANCH  29  30
ENDBRANCH  22  23
ENDBRANCH  17  18
ENDBRANCH   8  10
ENDBRANCH   5   8
ENDBRANCH   3   4
ENDBRANCH   2   3
ENDBRANCH   1   2
BRANCH   1  33
ATOM     33  C   UNL A   1      35.275  29.394  27.983  1.00  0.00     0.002 C 
BRANCH  33  34
ATOM     34  C   UNL A   1      36.503  30.293  27.812  1.00  0.00     0.021 C 
BRANCH  34  35
ATOM     35  C   UNL A   1      37.473  30.272  28.991  1.00  0.00     0.116 C 
BRANCH  35  36
ATOM     36  N   UNL A   1      36.785  30.465  30.256  1.00  0.00    -0.352 N 
ATOM     37  C   UNL A   1      37.142  30.060  31.517  1.00  0.00     0.251 C 
ATOM     38  H   UNL A   1      35.937  30.959  30.200  1.00  0.00     0.163 HD
ATOM     39  O   UNL A   1      36.311  30.109  32.420  1.00  0.00    -0.269 OA
BRANCH  37  40
ATOM     40  C   UNL A   1      38.506  29.553  31.786  1.00  0.00     0.039 A 
ATOM     41  C   UNL A   1      38.697  28.174  31.894  1.00  0.00     0.014 A 
ATOM     42  C   UNL A   1      39.587  30.423  31.962  1.00  0.00     0.014 A 
ATOM     43  C   UNL A   1      39.977  27.668  32.126  1.00  0.00     0.010 A 
ATOM     44  C   UNL A   1      40.876  29.913  32.122  1.00  0.00     0.010 A 
ATOM     45  C   UNL A   1      41.085  28.529  32.208  1.00  0.00    -0.014 A 
BRANCH  45  46
ATOM     46  C   UNL A   1      42.457  27.977  32.368  1.00  0.00     0.031 A 
ATOM     47  C   UNL A   1      43.298  27.651  31.163  1.00  0.00     0.074 A 
ATOM     48  C   UNL A   1      42.935  27.755  33.608  1.00  0.00     0.049 A 
ATOM     49  N   UNL A   1      44.513  27.165  31.111  1.00  0.00    -0.248 NA
ATOM     50  C   UNL A   1      42.689  27.882  29.844  1.00  0.00     0.031 C 
ATOM     51  C   UNL A   1      42.194  27.986  34.851  1.00  0.00     0.029 A 
ATOM     52  N   UNL A   1      44.154  27.290  34.034  1.00  0.00    -0.354 N 
ATOM     53  C   UNL A   1      44.817  27.042  29.760  1.00  0.00     0.074 A 
ATOM     54  C   UNL A   1      43.633  27.435  29.027  1.00  0.00     0.031 C 
ATOM     55  C   UNL A   1      42.984  27.694  35.896  1.00  0.00     0.029 A 
ATOM     56  C   UNL A   1      44.270  27.211  35.403  1.00  0.00     0.049 A 
ATOM     57  H   UNL A   1      44.879  27.036  33.417  1.00  0.00     0.167 HD
ATOM     58  C   UNL A   1      45.986  26.665  29.184  1.00  0.00     0.034 A 
ATOM     59  C   UNL A   1      45.291  26.789  36.176  1.00  0.00     0.034 A 
ATOM     60  C   UNL A   1      47.159  26.270  29.927  1.00  0.00     0.049 A 
ATOM     61  C   UNL A   1      46.569  26.347  35.508  1.00  0.00     0.074 A 
ATOM     62  C   UNL A   1      48.401  25.894  29.442  1.00  0.00     0.029 A 
ATOM     63  N   UNL A   1      47.239  26.197  31.312  1.00  0.00    -0.354 N 
ATOM     64  N   UNL A   1      46.855  26.287  34.227  1.00  0.00    -0.248 NA
ATOM     65  C   UNL A   1      47.668  25.937  36.390  1.00  0.00     0.031 C 
ATOM     66  C   UNL A   1      49.206  25.530  30.528  1.00  0.00     0.029 A 
ATOM     67  C   UNL A   1      48.497  25.758  31.696  1.00  0.00     0.049 A 
ATOM     68  H   UNL A   1      46.507  26.424  31.931  1.00  0.00     0.167 HD
ATOM     69  C   UNL A   1      48.176  25.854  34.155  1.00  0.00     0.074 A 
ATOM     70  C   UNL A   1      48.638  25.707  35.519  1.00  0.00     0.031 C 
ATOM     71  C   UNL A   1      48.940  25.597  33.061  1.00  0.00     0.034 A 
BRANCH  58  72
ATOM     72  C   UNL A   1      46.048  26.651  27.674  1.00  0.00     0.023 A 
ATOM     73  C   UNL A   1      45.970  25.450  26.947  1.00  0.00     0.031 A 
ATOM     74  C   UNL A   1      46.183  27.849  26.950  1.00  0.00     0.131 A 
ATOM     75  C   UNL A   1      46.085  25.466  25.549  1.00  0.00     0.055 A 
ATOM     76  C   UNL A   1      46.219  27.866  25.554  1.00  0.00     0.041 A 
ATOM     77  F   UNL A   1      46.284  29.026  27.589  1.00  0.00    -0.206 F 
ATOM     78  C   UNL A   1      46.182  26.668  24.845  1.00  0.00     0.022 A 
BRANCH  75  79
ATOM     79  S   UNL A   1      46.226  23.885  24.672  1.00  0.00     0.124 S 
ATOM     80  O   UNL A   1      44.874  23.719  24.144  1.00  0.00    -0.237 OA
ATOM     81  O   UNL A   1      47.267  24.161  23.688  1.00  0.00    -0.237 OA
ATOM     82  O   UNL A   1      46.597  22.942  25.725  1.00  0.00    -0.744 OA
ENDBRANCH  75  79
ENDBRANCH  58  72
BRANCH  59  83
ATOM     83  C   UNL A   1      45.152  26.741  37.662  1.00  0.00     0.023 A 
ATOM     84  C   UNL A   1      45.354  27.885  38.450  1.00  0.00     0.031 A 
ATOM     85  C   UNL A   1      44.886  25.527  38.322  1.00  0.00     0.131 A 
ATOM     86  C   UNL A   1      45.355  27.780  39.850  1.00  0.00     0.055 A 
ATOM     87  C   UNL A   1      44.820  25.441  39.713  1.00  0.00     0.041 A 
ATOM     88  F   UNL A   1      44.682  24.401  37.619  1.00  0.00    -0.206 F 
ATOM     89  C   UNL A   1      45.075  26.569  40.487  1.00  0.00     0.022 A 
BRANCH  86  90
ATOM     90  S   UNL A   1      45.852  29.225  40.828  1.00  0.00     0.124 S 
ATOM     91  O   UNL A   1      44.758  30.152  40.563  1.00  0.00    -0.237 OA
ATOM     92  O   UNL A   1      45.911  28.669  42.176  1.00  0.00    -0.237 OA
ATOM     93  O   UNL A   1      47.141  29.597  40.251  1.00  0.00    -0.744 OA
ENDBRANCH  86  90
ENDBRANCH  59  83
BRANCH  71  94
ATOM     94  C   UNL A   1      50.364  25.161  33.314  1.00  0.00     0.023 A 
ATOM     95  C   UNL A   1      50.750  23.813  33.213  1.00  0.00     0.031 A 
ATOM     96  C   UNL A   1      51.337  26.098  33.703  1.00  0.00     0.131 A 
ATOM     97  C   UNL A   1      52.049  23.428  33.574  1.00  0.00     0.055 A 
ATOM     98  C   UNL A   1      52.649  25.720  33.990  1.00  0.00     0.041 A 
ATOM     99  F   UNL A   1      51.026  27.400  33.818  1.00  0.00    -0.206 F 
ATOM    100  C   UNL A   1      53.007  24.375  33.945  1.00  0.00     0.022 A 
BRANCH  97 101
ATOM    101  S   UNL A   1      52.433  21.658  33.677  1.00  0.00     0.124 S 
ATOM    102  O   UNL A   1      51.776  21.278  34.923  1.00  0.00    -0.237 OA
ATOM    103  O   UNL A   1      51.831  21.138  32.454  1.00  0.00    -0.237 OA
ATOM    104  O   UNL A   1      53.894  21.625  33.712  1.00  0.00    -0.744 OA
ENDBRANCH  97 101
ENDBRANCH  71  94
ENDBRANCH  45  46
ENDBRANCH  37  40
ENDBRANCH  35  36
ENDBRANCH  34  35
ENDBRANCH  33  34
ENDBRANCH   1  33
TORSDOF 20
ENDMDL
MODEL 2
REMARK VINA RESULT:     -10.3      6.560     11.918
REMARK SMILES C[C@@H](C(=O)NCCCCCCNC(=O)c1ccc(-c2c3nc(c(-c4cc(S(=O)(=O)[O-])ccc4F)c4ccc([nH]4)c(-c4cc(S(=O)(=O)[O-])ccc4F)c4nc(c(-c5cc(S(=O)(=O)[O-])ccc5F)c5ccc2[nH]5)C=C4)C=C3)cc1)N1C(=O)/C(=C/c2ccc(-c3ccc([N+](=O)[O-])cc3Cl)o2)SC1=S
REMARK SMILES IDX 8 1 7 2 6 3 5 4 3 5 4 6 2 8 1 9 78 10 79 11 99 12 80 13
REMARK SMILES IDX 81 14 98 15 100 16 82 17 83 18 84 19 97 20 85 21 86 22 87 23
REMARK SMILES IDX 88 24 95 25 89 26 94 27 96 28 90 29 91 30 92 31 93 32 9 33
REMARK SMILES IDX 10 34 11 35 12 36 13 37 14 39 15 40 16 41 77 42 17 43 76 44
REMARK SMILES IDX 18 45 19 46 20 47 70 48 21 49 75 50 69 51 71 52 22 53 74 54
REMARK SMILES IDX 68 55 67 56 23 58 55 59 35 60 54 61 36 62 39 63 53 64 72 65
REMARK SMILES IDX 37 66 38 67 52 69 73 70 40 71 24 72 25 73 33 74 26 75 32 76
REMARK SMILES IDX 34 77 31 78 27 79 28 80 29 81 30 82 56 83 57 84 65 85 58 86
REMARK SMILES IDX 64 87 66 88 63 89 59 90 60 91 61 92 62 93 41 94 42 95 50 96
REMARK SMILES IDX 43 97 49 98 51 99 48 100 44 101 45 102 46 103 47 104
REMARK H PARENT 5 7 12 38 71 57 39 68
REMARK Flexibility Score: inf
ROOT
ATOM      1  C   UNL A   1      36.771  22.795  24.764  1.00  0.00     0.002 C 
ENDROOT
BRANCH   1   2
ATOM      2  C   UNL A   1      35.743  23.116  23.674  1.00  0.00     0.021 C 
BRANCH   2   3
ATOM      3  C   UNL A   1      34.562  23.951  24.178  1.00  0.00     0.116 C 
BRANCH   3   4
ATOM      4  N   UNL A   1      33.326  23.215  23.973  1.00  0.00    -0.354 N 
ATOM      5  C   UNL A   1      32.075  23.704  23.712  1.00  0.00     0.242 C 
ATOM      6  O   UNL A   1      31.104  22.971  23.918  1.00  0.00    -0.273 OA
ATOM      7  H   UNL A   1      33.398  22.236  24.030  1.00  0.00     0.163 HD
BRANCH   5   8
ATOM      8  C   UNL A   1      31.928  25.141  23.164  1.00  0.00     0.178 C 
ATOM      9  C   UNL A   1      32.807  25.229  21.909  1.00  0.00     0.042 C 
BRANCH   8  10
ATOM     10  N   UNL A   1      32.260  26.105  24.248  1.00  0.00    -0.281 N 
ATOM     11  C   UNL A   1      33.245  27.064  24.095  1.00  0.00     0.267 C 
ATOM     12  C   UNL A   1      31.510  26.232  25.407  1.00  0.00     0.149 C 
ATOM     13  O   UNL A   1      33.863  27.348  23.080  1.00  0.00    -0.268 OA
ATOM     14  C   UNL A   1      33.448  27.820  25.354  1.00  0.00     0.084 C 
ATOM     15  S   UNL A   1      32.344  27.288  26.547  1.00  0.00    -0.054 SA
ATOM     16  S   UNL A   1      30.021  25.567  25.779  1.00  0.00    -0.052 S 
ATOM     17  C   UNL A   1      34.377  28.781  25.420  1.00  0.00     0.068 C 
BRANCH  17  18
ATOM     18  C   UNL A   1      34.706  29.462  26.615  1.00  0.00     0.128 A 
ATOM     19  C   UNL A   1      35.565  29.061  27.631  1.00  0.00     0.051 A 
ATOM     20  O   UNL A   1      34.236  30.715  26.927  1.00  0.00    -0.457 OA
ATOM     21  C   UNL A   1      35.599  30.090  28.596  1.00  0.00     0.051 A 
ATOM     22  C   UNL A   1      34.742  31.065  28.141  1.00  0.00     0.136 A 
BRANCH  22  23
ATOM     23  C   UNL A   1      34.326  32.348  28.682  1.00  0.00     0.036 A 
ATOM     24  C   UNL A   1      33.358  33.081  27.973  1.00  0.00     0.020 A 
ATOM     25  C   UNL A   1      34.908  32.920  29.828  1.00  0.00     0.058 A 
ATOM     26  C   UNL A   1      32.997  34.369  28.374  1.00  0.00     0.086 A 
ATOM     27  C   UNL A   1      34.553  34.211  30.236  1.00  0.00     0.106 A 
ATOM     28  Cl  UNL A   1      36.133  32.115  30.749  1.00  0.00    -0.083 Cl
ATOM     29  C   UNL A   1      33.610  34.935  29.498  1.00  0.00     0.270 A 
BRANCH  29  30
ATOM     30  N   UNL A   1      33.287  36.314  29.882  1.00  0.00     0.062 N 
ATOM     31  O   UNL A   1      33.207  36.570  31.092  1.00  0.00    -0.258 OA
ATOM     32  O   UNL A   1      33.098  37.136  28.975  1.00  0.00    -0.258 OA
ENDBRANCH  29  30
ENDBRANCH  22  23
ENDBRANCH  17  18
ENDBRANCH   8  10
ENDBRANCH   5   8
ENDBRANCH   3   4
ENDBRANCH   2   3
ENDBRANCH   1   2
BRANCH   1  33
ATOM     33  C   UNL A   1      37.591  23.999  25.237  1.00  0.00     0.002 C 
BRANCH  33  34
ATOM     34  C   UNL A   1      38.058  23.922  26.694  1.00  0.00     0.021 C 
BRANCH  34  35
ATOM     35  C   UNL A   1      39.205  24.866  27.044  1.00  0.00     0.116 C 
BRANCH  35  36
ATOM     36  N   UNL A   1      40.426  24.510  26.344  1.00  0.00    -0.352 N 
ATOM     37  C   UNL A   1      41.542  25.266  26.087  1.00  0.00     0.251 C 
ATOM     38  H   UNL A   1      40.459  23.587  26.003  1.00  0.00     0.163 HD
ATOM     39  O   UNL A   1      42.367  24.860  25.274  1.00  0.00    -0.269 OA
BRANCH  37  40
ATOM     40  C   UNL A   1      41.741  26.565  26.767  1.00  0.00     0.039 A 
ATOM     41  C   UNL A   1      42.589  26.615  27.875  1.00  0.00     0.014 A 
ATOM     42  C   UNL A   1      41.079  27.722  26.341  1.00  0.00     0.014 A 
ATOM     43  C   UNL A   1      42.810  27.832  28.523  1.00  0.00     0.010 A 
ATOM     44  C   UNL A   1      41.358  28.949  26.944  1.00  0.00     0.010 A 
ATOM     45  C   UNL A   1      42.226  29.017  28.044  1.00  0.00    -0.014 A 
BRANCH  45  46
ATOM     46  C   UNL A   1      42.537  30.322  28.685  1.00  0.00     0.031 A 
ATOM     47  C   UNL A   1      41.738  30.806  29.865  1.00  0.00     0.074 A 
ATOM     48  C   UNL A   1      43.533  31.079  28.185  1.00  0.00     0.049 A 
ATOM     49  N   UNL A   1      41.867  31.916  30.550  1.00  0.00    -0.248 NA
ATOM     50  C   UNL A   1      40.639  29.944  30.325  1.00  0.00     0.031 C 
ATOM     51  C   UNL A   1      44.345  30.736  27.014  1.00  0.00     0.029 A 
ATOM     52  N   UNL A   1      44.040  32.288  28.594  1.00  0.00    -0.354 N 
ATOM     53  C   UNL A   1      40.876  31.879  31.525  1.00  0.00     0.074 A 
ATOM     54  C   UNL A   1      40.109  30.674  31.296  1.00  0.00     0.031 C 
ATOM     55  C   UNL A   1      45.266  31.694  26.820  1.00  0.00     0.029 A 
ATOM     56  C   UNL A   1      45.085  32.741  27.820  1.00  0.00     0.049 A 
ATOM     57  H   UNL A   1      43.689  32.784  29.368  1.00  0.00     0.167 HD
ATOM     58  C   UNL A   1      40.646  32.755  32.535  1.00  0.00     0.034 A 
ATOM     59  C   UNL A   1      45.809  33.875  27.900  1.00  0.00     0.034 A 
ATOM     60  C   UNL A   1      41.416  33.957  32.749  1.00  0.00     0.049 A 
ATOM     61  C   UNL A   1      45.513  34.845  29.017  1.00  0.00     0.074 A 
ATOM     62  C   UNL A   1      41.283  34.899  33.756  1.00  0.00     0.029 A 
ATOM     63  N   UNL A   1      42.464  34.388  31.944  1.00  0.00    -0.354 N 
ATOM     64  N   UNL A   1      44.603  34.767  29.961  1.00  0.00    -0.248 NA
ATOM     65  C   UNL A   1      46.354  36.045  29.089  1.00  0.00     0.031 C 
ATOM     66  C   UNL A   1      42.202  35.929  33.520  1.00  0.00     0.029 A 
ATOM     67  C   UNL A   1      42.966  35.592  32.415  1.00  0.00     0.049 A 
ATOM     68  H   UNL A   1      42.800  33.907  31.152  1.00  0.00     0.167 HD
ATOM     69  C   UNL A   1      44.783  35.898  30.753  1.00  0.00     0.074 A 
ATOM     70  C   UNL A   1      45.909  36.618  30.197  1.00  0.00     0.031 C 
ATOM     71  C   UNL A   1      44.079  36.309  31.839  1.00  0.00     0.034 A 
BRANCH  58  72
ATOM     72  C   UNL A   1      39.508  32.449  33.479  1.00  0.00     0.023 A 
ATOM     73  C   UNL A   1      38.268  33.104  33.373  1.00  0.00     0.031 A 
ATOM     74  C   UNL A   1      39.656  31.489  34.496  1.00  0.00     0.131 A 
ATOM     75  C   UNL A   1      37.249  32.836  34.298  1.00  0.00     0.055 A 
ATOM     76  C   UNL A   1      38.612  31.170  35.368  1.00  0.00     0.041 A 
ATOM     77  F   UNL A   1      40.823  30.845  34.663  1.00  0.00    -0.206 F 
ATOM     78  C   UNL A   1      37.403  31.854  35.279  1.00  0.00     0.022 A 
BRANCH  75  79
ATOM     79  S   UNL A   1      35.762  33.874  34.278  1.00  0.00     0.124 S 
ATOM     80  O   UNL A   1      34.809  33.009  33.588  1.00  0.00    -0.237 OA
ATOM     81  O   UNL A   1      35.513  34.098  35.697  1.00  0.00    -0.237 OA
ATOM     82  O   UNL A   1      36.180  35.055  33.523  1.00  0.00    -0.744 OA
ENDBRANCH  75  79
ENDBRANCH  58  72
BRANCH  59  83
ATOM     83  C   UNL A   1      46.869  34.174  26.892  1.00  0.00     0.023 A 
ATOM     84  C   UNL A   1      48.104  33.506  26.912  1.00  0.00     0.031 A 
ATOM     85  C   UNL A   1      46.688  35.190  25.935  1.00  0.00     0.131 A 
ATOM     86  C   UNL A   1      49.131  33.904  26.042  1.00  0.00     0.055 A 
ATOM     87  C   UNL A   1      47.689  35.537  25.027  1.00  0.00     0.041 A 
ATOM     88  F   UNL A   1      45.527  35.862  25.868  1.00  0.00    -0.206 F 
ATOM     89  C   UNL A   1      48.927  34.906  25.091  1.00  0.00     0.022 A 
BRANCH  86  90
ATOM     90  S   UNL A   1      50.780  33.180  26.258  1.00  0.00     0.124 S 
ATOM     91  O   UNL A   1      51.521  34.298  26.832  1.00  0.00    -0.237 OA
ATOM     92  O   UNL A   1      50.503  32.065  27.157  1.00  0.00    -0.237 OA
ATOM     93  O   UNL A   1      51.166  32.805  24.900  1.00  0.00    -0.744 OA
ENDBRANCH  86  90
ENDBRANCH  59  83
BRANCH  71  94
ATOM     94  C   UNL A   1      44.542  37.583  32.506  1.00  0.00     0.023 A 
ATOM     95  C   UNL A   1      43.935  38.821  32.229  1.00  0.00     0.031 A 
ATOM     96  C   UNL A   1      45.629  37.567  33.398  1.00  0.00     0.131 A 
ATOM     97  C   UNL A   1      44.469  40.000  32.771  1.00  0.00     0.055 A 
ATOM     98  C   UNL A   1      46.110  38.733  33.993  1.00  0.00     0.041 A 
ATOM     99  F   UNL A   1      46.248  36.414  33.700  1.00  0.00    -0.206 F 
ATOM    100  C   UNL A   1      45.542  39.962  33.666  1.00  0.00     0.022 A 
BRANCH  97 101
ATOM    101  S   UNL A   1      43.825  41.592  32.190  1.00  0.00     0.124 S 
ATOM    102  O   UNL A   1      43.985  41.475  30.745  1.00  0.00    -0.237 OA
ATOM    103  O   UNL A   1      42.452  41.570  32.683  1.00  0.00    -0.237 OA
ATOM    104  O   UNL A   1      44.699  42.571  32.834  1.00  0.00    -0.744 OA
ENDBRANCH  97 101
ENDBRANCH  71  94
ENDBRANCH  45  46
ENDBRANCH  37  40
ENDBRANCH  35  36
ENDBRANCH  34  35
ENDBRANCH  33  34
ENDBRANCH   1  33
TORSDOF 20
ENDMDL
MODEL 3
REMARK VINA RESULT:     -10.1     10.915     16.100
REMARK SMILES C[C@@H](C(=O)NCCCCCCNC(=O)c1ccc(-c2c3nc(c(-c4cc(S(=O)(=O)[O-])ccc4F)c4ccc([nH]4)c(-c4cc(S(=O)(=O)[O-])ccc4F)c4nc(c(-c5cc(S(=O)(=O)[O-])ccc5F)c5ccc2[nH]5)C=C4)C=C3)cc1)N1C(=O)/C(=C/c2ccc(-c3ccc([N+](=O)[O-])cc3Cl)o2)SC1=S
REMARK SMILES IDX 8 1 7 2 6 3 5 4 3 5 4 6 2 8 1 9 78 10 79 11 99 12 80 13
REMARK SMILES IDX 81 14 98 15 100 16 82 17 83 18 84 19 97 20 85 21 86 22 87 23
REMARK SMILES IDX 88 24 95 25 89 26 94 27 96 28 90 29 91 30 92 31 93 32 9 33
REMARK SMILES IDX 10 34 11 35 12 36 13 37 14 39 15 40 16 41 77 42 17 43 76 44
REMARK SMILES IDX 18 45 19 46 20 47 70 48 21 49 75 50 69 51 71 52 22 53 74 54
REMARK SMILES IDX 68 55 67 56 23 58 55 59 35 60 54 61 36 62 39 63 53 64 72 65
REMARK SMILES IDX 37 66 38 67 52 69 73 70 40 71 24 72 25 73 33 74 26 75 32 76
REMARK SMILES IDX 34 77 31 78 27 79 28 80 29 81 30 82 56 83 57 84 65 85 58 86
REMARK SMILES IDX 64 87 66 88 63 89 59 90 60 91 61 92 62 93 41 94 42 95 50 96
REMARK SMILES IDX 43 97 49 98 51 99 48 100 44 101 45 102 46 103 47 104
REMARK H PARENT 5 7 12 38 71 57 39 68
REMARK Flexibility Score: inf
ROOT
ATOM      1  C   UNL A   1      47.844  37.731  26.034  1.00  0.00     0.002 C 
ENDROOT
BRANCH   1   2
ATOM      2  C   UNL A   1      46.741  38.694  25.583  1.00  0.00     0.021 C 
BRANCH   2   3
ATOM      3  C   UNL A   1      45.819  39.141  26.721  1.00  0.00     0.116 C 
BRANCH   3   4
ATOM      4  N   UNL A   1      44.484  38.610  26.500  1.00  0.00    -0.354 N 
ATOM      5  C   UNL A   1      43.281  39.140  26.879  1.00  0.00     0.242 C 
ATOM      6  O   UNL A   1      42.298  38.395  26.922  1.00  0.00    -0.273 OA
ATOM      7  H   UNL A   1      44.440  37.756  26.014  1.00  0.00     0.163 HD
BRANCH   5   8
ATOM      8  C   UNL A   1      43.197  40.643  27.228  1.00  0.00     0.178 C 
ATOM      9  C   UNL A   1      41.913  40.838  28.045  1.00  0.00     0.042 C 
BRANCH   8  10
ATOM     10  N   UNL A   1      43.282  41.433  25.970  1.00  0.00    -0.281 N 
ATOM     11  C   UNL A   1      42.284  41.392  25.012  1.00  0.00     0.267 C 
ATOM     12  C   UNL A   1      44.263  42.386  25.737  1.00  0.00     0.149 C 
ATOM     13  O   UNL A   1      41.191  40.852  25.094  1.00  0.00    -0.268 OA
ATOM     14  C   UNL A   1      42.664  42.181  23.817  1.00  0.00     0.084 C 
ATOM     15  S   UNL A   1      44.184  42.928  24.060  1.00  0.00    -0.054 SA
ATOM     16  S   UNL A   1      45.383  43.029  26.798  1.00  0.00    -0.052 S 
ATOM     17  C   UNL A   1      41.839  42.249  22.766  1.00  0.00     0.068 C 
BRANCH  17  18
ATOM     18  C   UNL A   1      42.182  42.884  21.549  1.00  0.00     0.128 A 
ATOM     19  C   UNL A   1      41.342  43.310  20.528  1.00  0.00     0.051 A 
ATOM     20  O   UNL A   1      43.468  43.238  21.215  1.00  0.00    -0.457 OA
ATOM     21  C   UNL A   1      42.142  43.918  19.538  1.00  0.00     0.051 A 
ATOM     22  C   UNL A   1      43.440  43.818  19.985  1.00  0.00     0.136 A 
BRANCH  22  23
ATOM     23  C   UNL A   1      44.714  44.226  19.420  1.00  0.00     0.036 A 
ATOM     24  C   UNL A   1      45.862  43.500  19.786  1.00  0.00     0.020 A 
ATOM     25  C   UNL A   1      44.861  45.359  18.599  1.00  0.00     0.058 A 
ATOM     26  C   UNL A   1      47.132  43.907  19.372  1.00  0.00     0.086 A 
ATOM     27  C   UNL A   1      46.130  45.775  18.181  1.00  0.00     0.106 A 
ATOM     28  Cl  UNL A   1      43.517  46.341  18.123  1.00  0.00    -0.083 Cl
ATOM     29  C   UNL A   1      47.261  45.055  18.582  1.00  0.00     0.270 A 
BRANCH  29  30
ATOM     30  N   UNL A   1      48.598  45.528  18.204  1.00  0.00     0.062 N 
ATOM     31  O   UNL A   1      49.076  45.107  17.142  1.00  0.00    -0.258 OA
ATOM     32  O   UNL A   1      49.174  46.307  18.976  1.00  0.00    -0.258 OA
ENDBRANCH  29  30
ENDBRANCH  22  23
ENDBRANCH  17  18
ENDBRANCH   8  10
ENDBRANCH   5   8
ENDBRANCH   3   4
ENDBRANCH   2   3
ENDBRANCH   1   2
BRANCH   1  33
ATOM     33  C   UNL A   1      47.590  37.068  27.392  1.00  0.00     0.002 C 
BRANCH  33  34
ATOM     34  C   UNL A   1      46.694  35.826  27.339  1.00  0.00     0.021 C 
BRANCH  34  35
ATOM     35  C   UNL A   1      47.165  34.745  26.370  1.00  0.00     0.116 C 
BRANCH  35  36
ATOM     36  N   UNL A   1      46.201  34.520  25.307  1.00  0.00    -0.352 N 
ATOM     37  C   UNL A   1      44.886  34.137  25.383  1.00  0.00     0.251 C 
ATOM     38  H   UNL A   1      46.543  34.663  24.396  1.00  0.00     0.163 HD
ATOM     39  O   UNL A   1      44.309  33.768  24.365  1.00  0.00    -0.269 OA
BRANCH  37  40
ATOM     40  C   UNL A   1      44.174  34.151  26.680  1.00  0.00     0.039 A 
ATOM     41  C   UNL A   1      44.196  32.998  27.467  1.00  0.00     0.014 A 
ATOM     42  C   UNL A   1      43.461  35.276  27.110  1.00  0.00     0.014 A 
ATOM     43  C   UNL A   1      43.550  32.991  28.705  1.00  0.00     0.010 A 
ATOM     44  C   UNL A   1      42.878  35.291  28.378  1.00  0.00     0.010 A 
ATOM     45  C   UNL A   1      42.914  34.147  29.188  1.00  0.00    -0.014 A 
BRANCH  45  46
ATOM     46  C   UNL A   1      42.304  34.160  30.545  1.00  0.00     0.031 A 
ATOM     47  C   UNL A   1      40.808  34.134  30.713  1.00  0.00     0.074 A 
ATOM     48  C   UNL A   1      43.106  34.211  31.626  1.00  0.00     0.049 A 
ATOM     49  N   UNL A   1      40.102  34.140  31.816  1.00  0.00    -0.248 NA
ATOM     50  C   UNL A   1      40.000  34.122  29.484  1.00  0.00     0.031 C 
ATOM     51  C   UNL A   1      44.569  34.288  31.586  1.00  0.00     0.029 A 
ATOM     52  N   UNL A   1      42.814  34.203  32.967  1.00  0.00    -0.354 N 
ATOM     53  C   UNL A   1      38.770  34.120  31.415  1.00  0.00     0.074 A 
ATOM     54  C   UNL A   1      38.768  34.178  29.969  1.00  0.00     0.031 C 
ATOM     55  C   UNL A   1      45.045  34.287  32.841  1.00  0.00     0.029 A 
ATOM     56  C   UNL A   1      43.926  34.257  33.777  1.00  0.00     0.049 A 
ATOM     57  H   UNL A   1      41.895  34.163  33.317  1.00  0.00     0.167 HD
ATOM     58  C   UNL A   1      37.654  34.034  32.182  1.00  0.00     0.034 A 
ATOM     59  C   UNL A   1      44.033  34.287  35.121  1.00  0.00     0.034 A 
ATOM     60  C   UNL A   1      37.670  33.982  33.625  1.00  0.00     0.049 A 
ATOM     61  C   UNL A   1      42.774  34.218  35.948  1.00  0.00     0.074 A 
ATOM     62  C   UNL A   1      36.600  33.869  34.496  1.00  0.00     0.029 A 
ATOM     63  N   UNL A   1      38.813  34.043  34.412  1.00  0.00    -0.354 N 
ATOM     64  N   UNL A   1      41.524  34.149  35.549  1.00  0.00    -0.248 NA
ATOM     65  C   UNL A   1      42.942  34.211  37.406  1.00  0.00     0.031 C 
ATOM     66  C   UNL A   1      37.089  33.929  35.806  1.00  0.00     0.029 A 
ATOM     67  C   UNL A   1      38.472  33.997  35.756  1.00  0.00     0.049 A 
ATOM     68  H   UNL A   1      39.734  34.111  34.066  1.00  0.00     0.167 HD
ATOM     69  C   UNL A   1      40.761  34.064  36.711  1.00  0.00     0.074 A 
ATOM     70  C   UNL A   1      41.693  34.055  37.818  1.00  0.00     0.031 C 
ATOM     71  C   UNL A   1      39.411  34.006  36.852  1.00  0.00     0.034 A 
BRANCH  58  72
ATOM     72  C   UNL A   1      36.321  33.999  31.473  1.00  0.00     0.023 A 
ATOM     73  C   UNL A   1      35.474  35.122  31.445  1.00  0.00     0.031 A 
ATOM     74  C   UNL A   1      35.888  32.835  30.812  1.00  0.00     0.131 A 
ATOM     75  C   UNL A   1      34.219  35.040  30.824  1.00  0.00     0.055 A 
ATOM     76  C   UNL A   1      34.671  32.784  30.129  1.00  0.00     0.041 A 
ATOM     77  F   UNL A   1      36.642  31.724  30.822  1.00  0.00    -0.206 F 
ATOM     78  C   UNL A   1      33.822  33.888  30.142  1.00  0.00     0.022 A 
BRANCH  75  79
ATOM     79  S   UNL A   1      33.062  36.422  31.022  1.00  0.00     0.124 S 
ATOM     80  O   UNL A   1      31.782  35.723  31.116  1.00  0.00    -0.237 OA
ATOM     81  O   UNL A   1      33.534  37.057  32.247  1.00  0.00    -0.237 OA
ATOM     82  O   UNL A   1      33.249  37.204  29.802  1.00  0.00    -0.744 OA
ENDBRANCH  75  79
ENDBRANCH  58  72
BRANCH  59  83
ATOM     83  C   UNL A   1      45.369  34.407  35.776  1.00  0.00     0.023 A 
ATOM     84  C   UNL A   1      45.970  35.659  35.983  1.00  0.00     0.031 A 
ATOM     85  C   UNL A   1      46.100  33.260  36.138  1.00  0.00     0.131 A 
ATOM     86  C   UNL A   1      47.283  35.734  36.472  1.00  0.00     0.055 A 
ATOM     87  C   UNL A   1      47.380  33.343  36.687  1.00  0.00     0.041 A 
ATOM     88  F   UNL A   1      45.575  32.036  35.964  1.00  0.00    -0.206 F 
ATOM     89  C   UNL A   1      47.988  34.585  36.839  1.00  0.00     0.022 A 
BRANCH  86  90
ATOM     90  S   UNL A   1      48.107  37.350  36.503  1.00  0.00     0.124 S 
ATOM     91  O   UNL A   1      48.412  37.499  37.921  1.00  0.00    -0.237 OA
ATOM     92  O   UNL A   1      49.247  37.123  35.621  1.00  0.00    -0.237 OA
ATOM     93  O   UNL A   1      47.089  38.259  35.983  1.00  0.00    -0.744 OA
ENDBRANCH  86  90
ENDBRANCH  59  83
BRANCH  71  94
ATOM     94  C   UNL A   1      38.880  33.893  38.262  1.00  0.00     0.023 A 
ATOM     95  C   UNL A   1      38.304  32.702  38.738  1.00  0.00     0.031 A 
ATOM     96  C   UNL A   1      38.912  35.002  39.126  1.00  0.00     0.131 A 
ATOM     97  C   UNL A   1      37.711  32.671  40.009  1.00  0.00     0.055 A 
ATOM     98  C   UNL A   1      38.386  34.943  40.417  1.00  0.00     0.041 A 
ATOM     99  F   UNL A   1      39.448  36.166  38.726  1.00  0.00    -0.206 F 
ATOM    100  C   UNL A   1      37.763  33.778  40.859  1.00  0.00     0.022 A 
BRANCH  97 101
ATOM    101  S   UNL A   1      36.756  31.204  40.484  1.00  0.00     0.124 S 
ATOM    102  O   UNL A   1      36.208  30.770  39.204  1.00  0.00    -0.237 OA
ATOM    103  O   UNL A   1      37.780  30.341  41.065  1.00  0.00    -0.237 OA
ATOM    104  O   UNL A   1      35.775  31.726  41.433  1.00  0.00    -0.744 OA
ENDBRANCH  97 101
ENDBRANCH  71  94
ENDBRANCH  45  46
ENDBRANCH  37  40
ENDBRANCH  35  36
ENDBRANCH  34  35
ENDBRANCH  33  34
ENDBRANCH   1  33
TORSDOF 20
ENDMDL
