MODEL 1
REMARK VINA RESULT:     -11.0      0.000      0.000
REMARK SMILES CC[N@@H+]1CCO[C@H](c2nc(C)c(C(=O)NCCCCCCNC(=O)c3ccc(-c4c5nc(c(-c6cc(S(=O)(=O)[O-])ccc6F)c6ccc([nH]6)c(-c6cc(S(=O)(=O)[O-])ccc6F)c6nc(c(-c7cc(S(=O)(=O)[O-])ccc7F)c7ccc4[nH]7)C=C6)C=C5)cc3)s2)C1
REMARK SMILES IDX 19 1 18 2 17 3 16 4 15 5 13 6 14 7 12 9 8 10 9 11 88 12
REMARK SMILES IDX 10 13 11 14 7 15 3 16 4 17 89 18 5 20 6 21 2 22 1 23 20 24
REMARK SMILES IDX 21 25 22 26 23 27 24 29 25 30 26 31 87 32 27 33 86 34 28 35
REMARK SMILES IDX 29 36 30 37 80 38 31 39 85 40 79 41 81 42 32 43 84 44 78 45
REMARK SMILES IDX 77 46 33 48 65 49 45 50 64 51 46 52 49 53 63 54 82 55 47 56
REMARK SMILES IDX 48 57 62 59 83 60 50 61 34 62 35 63 43 64 36 65 42 66 44 67
REMARK SMILES IDX 41 68 37 69 38 70 39 71 40 72 66 73 67 74 75 75 68 76 74 77
REMARK SMILES IDX 76 78 73 79 69 80 70 81 71 82 72 83 51 84 52 85 60 86 53 87
REMARK SMILES IDX 59 88 61 89 58 90 54 91 55 92 56 93 57 94
REMARK H PARENT 15 8 3 19 22 28 81 47 49 58
REMARK Flexibility Score: inf
ROOT
ATOM      1  C   UNL A   1      35.880  20.790  25.025  1.00  0.00     0.002 C 
ENDROOT
BRANCH   1   2
ATOM      2  C   UNL A   1      34.449  20.308  24.754  1.00  0.00     0.002 C 
BRANCH   2   3
ATOM      3  C   UNL A   1      33.479  20.537  25.917  1.00  0.00     0.021 C 
BRANCH   3   4
ATOM      4  C   UNL A   1      32.091  20.979  25.453  1.00  0.00     0.116 C 
BRANCH   4   5
ATOM      5  N   UNL A   1      31.662  22.119  26.219  1.00  0.00    -0.351 N 
ATOM      6  C   UNL A   1      32.011  23.441  26.204  1.00  0.00     0.263 C 
ATOM      7  O   UNL A   1      31.571  24.051  27.190  1.00  0.00    -0.268 OA
ATOM      8  H   UNL A   1      30.978  21.902  26.892  1.00  0.00     0.163 HD
BRANCH   6   9
ATOM      9  C   UNL A   1      32.717  24.119  25.125  1.00  0.00     0.115 A 
ATOM     10  C   UNL A   1      33.563  26.164  24.112  1.00  0.00     0.128 A 
ATOM     11  N   UNL A   1      33.302  25.271  23.182  1.00  0.00    -0.243 NA
ATOM     12  S   UNL A   1      33.732  25.446  25.653  1.00  0.00    -0.110 S 
ATOM     13  C   UNL A   1      32.909  24.056  23.746  1.00  0.00     0.062 A 
ATOM     14  C   UNL A   1      32.703  22.980  22.747  1.00  0.00     0.068 C 
BRANCH  10  15
ATOM     15  C   UNL A   1      33.796  27.639  23.872  1.00  0.00     0.232 C 
ATOM     16  N   UNL A   1      32.135  28.971  25.394  1.00  0.00    -0.331 N 
ATOM     17  C   UNL A   1      31.433  29.277  24.129  1.00  0.00     0.291 C 
ATOM     18  C   UNL A   1      33.539  28.600  25.071  1.00  0.00     0.302 C 
ATOM     19  H   UNL A   1      32.177  29.787  26.003  1.00  0.00     0.348 HD
ATOM     20  C   UNL A   1      31.636  28.225  23.029  1.00  0.00     0.222 C 
ATOM     21  O   UNL A   1      33.026  28.063  22.721  1.00  0.00    -0.359 OA
BRANCH  16  22
ATOM     22  C   UNL A   1      31.391  27.984  26.188  1.00  0.00     0.258 C 
ATOM     23  C   UNL A   1      31.651  28.084  27.689  1.00  0.00     0.071 C 
ENDBRANCH  16  22
ENDBRANCH  10  15
ENDBRANCH   6   9
ENDBRANCH   4   5
ENDBRANCH   3   4
ENDBRANCH   2   3
ENDBRANCH   1   2
BRANCH   1  24
ATOM     24  C   UNL A   1      36.168  22.237  24.609  1.00  0.00     0.021 C 
BRANCH  24  25
ATOM     25  C   UNL A   1      37.045  23.012  25.588  1.00  0.00     0.116 C 
BRANCH  25  26
ATOM     26  N   UNL A   1      38.139  22.193  26.087  1.00  0.00    -0.352 N 
ATOM     27  C   UNL A   1      39.360  22.583  26.578  1.00  0.00     0.251 C 
ATOM     28  H   UNL A   1      37.982  21.221  26.068  1.00  0.00     0.163 HD
ATOM     29  O   UNL A   1      40.264  21.759  26.695  1.00  0.00    -0.269 OA
BRANCH  27  30
ATOM     30  C   UNL A   1      39.584  23.996  26.948  1.00  0.00     0.039 A 
ATOM     31  C   UNL A   1      39.313  24.410  28.254  1.00  0.00     0.014 A 
ATOM     32  C   UNL A   1      40.067  24.908  26.004  1.00  0.00     0.014 A 
ATOM     33  C   UNL A   1      39.603  25.722  28.636  1.00  0.00     0.010 A 
ATOM     34  C   UNL A   1      40.412  26.197  26.403  1.00  0.00     0.010 A 
ATOM     35  C   UNL A   1      40.197  26.612  27.726  1.00  0.00    -0.014 A 
BRANCH  35  36
ATOM     36  C   UNL A   1      40.645  27.964  28.148  1.00  0.00     0.031 A 
ATOM     37  C   UNL A   1      42.107  28.310  28.164  1.00  0.00     0.074 A 
ATOM     38  C   UNL A   1      39.732  28.847  28.599  1.00  0.00     0.049 A 
ATOM     39  N   UNL A   1      42.695  29.396  28.596  1.00  0.00    -0.248 NA
ATOM     40  C   UNL A   1      43.031  27.288  27.651  1.00  0.00     0.031 C 
ATOM     41  C   UNL A   1      38.289  28.607  28.665  1.00  0.00     0.029 A 
ATOM     42  N   UNL A   1      39.879  30.114  29.104  1.00  0.00    -0.354 N 
ATOM     43  C   UNL A   1      44.058  29.189  28.414  1.00  0.00     0.074 A 
ATOM     44  C   UNL A   1      44.209  27.851  27.882  1.00  0.00     0.031 C 
ATOM     45  C   UNL A   1      37.684  29.695  29.167  1.00  0.00     0.029 A 
ATOM     46  C   UNL A   1      38.697  30.690  29.506  1.00  0.00     0.049 A 
ATOM     47  H   UNL A   1      40.750  30.569  29.172  1.00  0.00     0.167 HD
ATOM     48  C   UNL A   1      45.084  30.045  28.651  1.00  0.00     0.034 A 
ATOM     49  C   UNL A   1      38.455  31.873  30.104  1.00  0.00     0.034 A 
ATOM     50  C   UNL A   1      44.911  31.377  29.180  1.00  0.00     0.049 A 
ATOM     51  C   UNL A   1      39.616  32.785  30.405  1.00  0.00     0.074 A 
ATOM     52  C   UNL A   1      45.872  32.350  29.394  1.00  0.00     0.029 A 
ATOM     53  N   UNL A   1      43.701  31.919  29.594  1.00  0.00    -0.354 N 
ATOM     54  N   UNL A   1      40.895  32.598  30.171  1.00  0.00    -0.248 NA
ATOM     55  C   UNL A   1      39.302  34.067  31.048  1.00  0.00     0.031 C 
ATOM     56  C   UNL A   1      45.256  33.449  30.005  1.00  0.00     0.029 A 
ATOM     57  C   UNL A   1      43.898  33.194  30.104  1.00  0.00     0.049 A 
ATOM     58  H   UNL A   1      42.830  31.464  29.536  1.00  0.00     0.167 HD
ATOM     59  C   UNL A   1      41.534  33.748  30.623  1.00  0.00     0.074 A 
ATOM     60  C   UNL A   1      40.498  34.630  31.122  1.00  0.00     0.031 C 
ATOM     61  C   UNL A   1      42.858  34.050  30.626  1.00  0.00     0.034 A 
BRANCH  48  62
ATOM     62  C   UNL A   1      46.483  29.551  28.367  1.00  0.00     0.023 A 
ATOM     63  C   UNL A   1      47.246  28.892  29.346  1.00  0.00     0.031 A 
ATOM     64  C   UNL A   1      47.068  29.757  27.105  1.00  0.00     0.131 A 
ATOM     65  C   UNL A   1      48.573  28.526  29.072  1.00  0.00     0.055 A 
ATOM     66  C   UNL A   1      48.363  29.321  26.814  1.00  0.00     0.041 A 
ATOM     67  F   UNL A   1      46.397  30.398  26.136  1.00  0.00    -0.206 F 
ATOM     68  C   UNL A   1      49.128  28.715  27.805  1.00  0.00     0.022 A 
BRANCH  65  69
ATOM     69  S   UNL A   1      49.606  27.929  30.438  1.00  0.00     0.124 S 
ATOM     70  O   UNL A   1      49.043  26.602  30.677  1.00  0.00    -0.237 OA
ATOM     71  O   UNL A   1      50.943  27.958  29.857  1.00  0.00    -0.237 OA
ATOM     72  O   UNL A   1      49.365  28.901  31.502  1.00  0.00    -0.744 OA
ENDBRANCH  65  69
ENDBRANCH  48  62
BRANCH  49  73
ATOM     73  C   UNL A   1      37.066  32.256  30.485  1.00  0.00     0.023 A 
ATOM     74  C   UNL A   1      36.198  32.847  29.554  1.00  0.00     0.031 A 
ATOM     75  C   UNL A   1      36.599  32.072  31.800  1.00  0.00     0.131 A 
ATOM     76  C   UNL A   1      34.922  33.270  29.959  1.00  0.00     0.055 A 
ATOM     77  C   UNL A   1      35.310  32.448  32.184  1.00  0.00     0.041 A 
ATOM     78  F   UNL A   1      37.387  31.507  32.728  1.00  0.00    -0.206 F 
ATOM     79  C   UNL A   1      34.468  33.063  31.263  1.00  0.00     0.022 A 
BRANCH  76  80
ATOM     80  S   UNL A   1      33.890  34.171  28.771  1.00  0.00     0.124 S 
ATOM     81  O   UNL A   1      34.831  35.152  28.243  1.00  0.00    -0.237 OA
ATOM     82  O   UNL A   1      33.488  33.109  27.854  1.00  0.00    -0.237 OA
ATOM     83  O   UNL A   1      32.816  34.717  29.599  1.00  0.00    -0.744 OA
ENDBRANCH  76  80
ENDBRANCH  49  73
BRANCH  61  84
ATOM     84  C   UNL A   1      43.247  35.402  31.171  1.00  0.00     0.023 A 
ATOM     85  C   UNL A   1      43.310  35.645  32.555  1.00  0.00     0.031 A 
ATOM     86  C   UNL A   1      43.541  36.463  30.298  1.00  0.00     0.131 A 
ATOM     87  C   UNL A   1      43.608  36.932  33.025  1.00  0.00     0.055 A 
ATOM     88  C   UNL A   1      43.897  37.726  30.772  1.00  0.00     0.041 A 
ATOM     89  F   UNL A   1      43.492  36.288  28.967  1.00  0.00    -0.206 F 
ATOM     90  C   UNL A   1      43.920  37.971  32.143  1.00  0.00     0.022 A 
BRANCH  87  91
ATOM     91  S   UNL A   1      43.503  37.255  34.806  1.00  0.00     0.124 S 
ATOM     92  O   UNL A   1      42.121  36.892  35.098  1.00  0.00    -0.237 OA
ATOM     93  O   UNL A   1      44.524  36.363  35.347  1.00  0.00    -0.237 OA
ATOM     94  O   UNL A   1      43.807  38.681  34.915  1.00  0.00    -0.744 OA
ENDBRANCH  87  91
ENDBRANCH  61  84
ENDBRANCH  35  36
ENDBRANCH  27  30
ENDBRANCH  25  26
ENDBRANCH  24  25
ENDBRANCH   1  24
TORSDOF 18
ENDMDL
MODEL 2
REMARK VINA RESULT:     -10.9      3.059      8.018
REMARK SMILES CC[N@@H+]1CCO[C@H](c2nc(C)c(C(=O)NCCCCCCNC(=O)c3ccc(-c4c5nc(c(-c6cc(S(=O)(=O)[O-])ccc6F)c6ccc([nH]6)c(-c6cc(S(=O)(=O)[O-])ccc6F)c6nc(c(-c7cc(S(=O)(=O)[O-])ccc7F)c7ccc4[nH]7)C=C6)C=C5)cc3)s2)C1
REMARK SMILES IDX 19 1 18 2 17 3 16 4 15 5 13 6 14 7 12 9 8 10 9 11 88 12
REMARK SMILES IDX 10 13 11 14 7 15 3 16 4 17 89 18 5 20 6 21 2 22 1 23 20 24
REMARK SMILES IDX 21 25 22 26 23 27 24 29 25 30 26 31 87 32 27 33 86 34 28 35
REMARK SMILES IDX 29 36 30 37 80 38 31 39 85 40 79 41 81 42 32 43 84 44 78 45
REMARK SMILES IDX 77 46 33 48 65 49 45 50 64 51 46 52 49 53 63 54 82 55 47 56
REMARK SMILES IDX 48 57 62 59 83 60 50 61 34 62 35 63 43 64 36 65 42 66 44 67
REMARK SMILES IDX 41 68 37 69 38 70 39 71 40 72 66 73 67 74 75 75 68 76 74 77
REMARK SMILES IDX 76 78 73 79 69 80 70 81 71 82 72 83 51 84 52 85 60 86 53 87
REMARK SMILES IDX 59 88 61 89 58 90 54 91 55 92 56 93 57 94
REMARK H PARENT 15 8 3 19 22 28 81 47 49 58
REMARK Flexibility Score: inf
ROOT
ATOM      1  C   UNL A   1      35.307  20.333  24.660  1.00  0.00     0.002 C 
ENDROOT
BRANCH   1   2
ATOM      2  C   UNL A   1      33.857  19.857  24.807  1.00  0.00     0.002 C 
BRANCH   2   3
ATOM      3  C   UNL A   1      33.078  20.552  25.928  1.00  0.00     0.021 C 
BRANCH   3   4
ATOM      4  C   UNL A   1      31.731  21.103  25.462  1.00  0.00     0.116 C 
BRANCH   4   5
ATOM      5  N   UNL A   1      31.386  22.265  26.237  1.00  0.00    -0.351 N 
ATOM      6  C   UNL A   1      31.828  23.558  26.231  1.00  0.00     0.263 C 
ATOM      7  O   UNL A   1      31.435  24.191  27.222  1.00  0.00    -0.268 OA
ATOM      8  H   UNL A   1      30.689  22.093  26.911  1.00  0.00     0.163 HD
BRANCH   6   9
ATOM      9  C   UNL A   1      32.579  24.192  25.155  1.00  0.00     0.115 A 
ATOM     10  C   UNL A   1      33.506  26.190  24.118  1.00  0.00     0.128 A 
ATOM     11  N   UNL A   1      33.243  25.283  23.202  1.00  0.00    -0.243 NA
ATOM     12  S   UNL A   1      33.617  25.503  25.679  1.00  0.00    -0.110 S 
ATOM     13  C   UNL A   1      32.803  24.092  23.783  1.00  0.00     0.062 A 
ATOM     14  C   UNL A   1      32.591  22.999  22.803  1.00  0.00     0.068 C 
BRANCH  10  15
ATOM     15  C   UNL A   1      33.786  27.652  23.852  1.00  0.00     0.232 C 
ATOM     16  N   UNL A   1      32.147  29.063  25.325  1.00  0.00    -0.331 N 
ATOM     17  C   UNL A   1      31.469  29.364  24.045  1.00  0.00     0.291 C 
ATOM     18  C   UNL A   1      33.542  28.644  25.027  1.00  0.00     0.302 C 
ATOM     19  H   UNL A   1      32.206  29.891  25.919  1.00  0.00     0.348 HD
ATOM     20  C   UNL A   1      31.654  28.284  22.970  1.00  0.00     0.222 C 
ATOM     21  O   UNL A   1      33.042  28.074  22.683  1.00  0.00    -0.359 OA
BRANCH  16  22
ATOM     22  C   UNL A   1      31.364  28.115  26.130  1.00  0.00     0.258 C 
ATOM     23  C   UNL A   1      31.659  28.192  27.626  1.00  0.00     0.071 C 
ENDBRANCH  16  22
ENDBRANCH  10  15
ENDBRANCH   6   9
ENDBRANCH   4   5
ENDBRANCH   3   4
ENDBRANCH   2   3
ENDBRANCH   1   2
BRANCH   1  24
ATOM     24  C   UNL A   1      35.583  21.748  25.181  1.00  0.00     0.021 C 
BRANCH  24  25
ATOM     25  C   UNL A   1      37.051  22.164  25.132  1.00  0.00     0.116 C 
BRANCH  25  26
ATOM     26  N   UNL A   1      37.925  21.082  25.558  1.00  0.00    -0.352 N 
ATOM     27  C   UNL A   1      39.183  21.146  26.102  1.00  0.00     0.251 C 
ATOM     28  H   UNL A   1      37.562  20.174  25.439  1.00  0.00     0.163 HD
ATOM     29  O   UNL A   1      39.883  20.138  26.147  1.00  0.00    -0.269 OA
BRANCH  27  30
ATOM     30  C   UNL A   1      39.693  22.434  26.618  1.00  0.00     0.039 A 
ATOM     31  C   UNL A   1      40.669  22.431  27.618  1.00  0.00     0.014 A 
ATOM     32  C   UNL A   1      39.209  23.643  26.109  1.00  0.00     0.014 A 
ATOM     33  C   UNL A   1      41.219  23.640  28.050  1.00  0.00     0.010 A 
ATOM     34  C   UNL A   1      39.801  24.843  26.497  1.00  0.00     0.010 A 
ATOM     35  C   UNL A   1      40.821  24.851  27.460  1.00  0.00    -0.014 A 
BRANCH  35  36
ATOM     36  C   UNL A   1      41.492  26.133  27.800  1.00  0.00     0.031 A 
ATOM     37  C   UNL A   1      40.733  27.229  28.492  1.00  0.00     0.074 A 
ATOM     38  C   UNL A   1      42.765  26.333  27.404  1.00  0.00     0.049 A 
ATOM     39  N   UNL A   1      41.115  28.447  28.777  1.00  0.00    -0.248 NA
ATOM     40  C   UNL A   1      39.351  26.922  28.892  1.00  0.00     0.031 C 
ATOM     41  C   UNL A   1      43.589  25.353  26.692  1.00  0.00     0.029 A 
ATOM     42  N   UNL A   1      43.584  27.426  27.525  1.00  0.00    -0.354 N 
ATOM     43  C   UNL A   1      40.023  29.057  29.384  1.00  0.00     0.074 A 
ATOM     44  C   UNL A   1      38.947  28.088  29.375  1.00  0.00     0.031 C 
ATOM     45  C   UNL A   1      44.798  25.885  26.452  1.00  0.00     0.029 A 
ATOM     46  C   UNL A   1      44.819  27.258  26.945  1.00  0.00     0.049 A 
ATOM     47  H   UNL A   1      43.311  28.254  27.983  1.00  0.00     0.167 HD
ATOM     48  C   UNL A   1      39.935  30.302  29.915  1.00  0.00     0.034 A 
ATOM     49  C   UNL A   1      45.847  28.119  26.804  1.00  0.00     0.034 A 
ATOM     50  C   UNL A   1      41.022  31.253  29.915  1.00  0.00     0.049 A 
ATOM     51  C   UNL A   1      45.707  29.514  27.356  1.00  0.00     0.074 A 
ATOM     52  C   UNL A   1      41.064  32.514  30.485  1.00  0.00     0.029 A 
ATOM     53  N   UNL A   1      42.253  31.055  29.302  1.00  0.00    -0.354 N 
ATOM     54  N   UNL A   1      44.686  30.056  27.981  1.00  0.00    -0.248 NA
ATOM     55  C   UNL A   1      46.856  30.412  27.186  1.00  0.00     0.031 C 
ATOM     56  C   UNL A   1      42.289  33.105  30.154  1.00  0.00     0.029 A 
ATOM     57  C   UNL A   1      43.043  32.188  29.441  1.00  0.00     0.049 A 
ATOM     58  H   UNL A   1      42.525  30.233  28.836  1.00  0.00     0.167 HD
ATOM     59  C   UNL A   1      45.080  31.353  28.294  1.00  0.00     0.074 A 
ATOM     60  C   UNL A   1      46.437  31.503  27.809  1.00  0.00     0.031 C 
ATOM     61  C   UNL A   1      44.384  32.333  28.926  1.00  0.00     0.034 A 
BRANCH  48  62
ATOM     62  C   UNL A   1      38.609  30.713  30.511  1.00  0.00     0.023 A 
ATOM     63  C   UNL A   1      37.612  31.333  29.738  1.00  0.00     0.031 A 
ATOM     64  C   UNL A   1      38.346  30.500  31.876  1.00  0.00     0.131 A 
ATOM     65  C   UNL A   1      36.429  31.779  30.346  1.00  0.00     0.055 A 
ATOM     66  C   UNL A   1      37.134  30.877  32.459  1.00  0.00     0.041 A 
ATOM     67  F   UNL A   1      39.266  29.932  32.670  1.00  0.00    -0.206 F 
ATOM     68  C   UNL A   1      36.173  31.534  31.696  1.00  0.00     0.022 A 
BRANCH  65  69
ATOM     69  S   UNL A   1      35.292  32.808  29.377  1.00  0.00     0.124 S 
ATOM     70  O   UNL A   1      35.306  32.128  28.085  1.00  0.00    -0.237 OA
ATOM     71  O   UNL A   1      34.052  32.708  30.138  1.00  0.00    -0.237 OA
ATOM     72  O   UNL A   1      35.928  34.124  29.387  1.00  0.00    -0.744 OA
ENDBRANCH  65  69
ENDBRANCH  48  62
BRANCH  49  73
ATOM     73  C   UNL A   1      47.086  27.704  26.088  1.00  0.00     0.023 A 
ATOM     74  C   UNL A   1      47.230  27.919  24.708  1.00  0.00     0.031 A 
ATOM     75  C   UNL A   1      48.132  27.051  26.767  1.00  0.00     0.131 A 
ATOM     76  C   UNL A   1      48.373  27.448  24.044  1.00  0.00     0.055 A 
ATOM     77  C   UNL A   1      49.289  26.631  26.110  1.00  0.00     0.041 A 
ATOM     78  F   UNL A   1      48.047  26.826  28.088  1.00  0.00    -0.206 F 
ATOM     79  C   UNL A   1      49.409  26.818  24.736  1.00  0.00     0.022 A 
BRANCH  76  80
ATOM     80  S   UNL A   1      48.451  27.602  22.238  1.00  0.00     0.124 S 
ATOM     81  O   UNL A   1      48.655  26.216  21.830  1.00  0.00    -0.237 OA
ATOM     82  O   UNL A   1      47.147  28.177  21.927  1.00  0.00    -0.237 OA
ATOM     83  O   UNL A   1      49.590  28.491  22.022  1.00  0.00    -0.744 OA
ENDBRANCH  76  80
ENDBRANCH  49  73
BRANCH  61  84
ATOM     84  C   UNL A   1      45.097  33.645  29.139  1.00  0.00     0.023 A 
ATOM     85  C   UNL A   1      45.106  34.646  28.152  1.00  0.00     0.031 A 
ATOM     86  C   UNL A   1      45.790  33.891  30.337  1.00  0.00     0.131 A 
ATOM     87  C   UNL A   1      45.837  35.825  28.358  1.00  0.00     0.055 A 
ATOM     88  C   UNL A   1      46.466  35.091  30.561  1.00  0.00     0.041 A 
ATOM     89  F   UNL A   1      45.819  32.968  31.312  1.00  0.00    -0.206 F 
ATOM     90  C   UNL A   1      46.502  36.062  29.564  1.00  0.00     0.022 A 
BRANCH  87  91
ATOM     91  S   UNL A   1      45.976  37.013  26.995  1.00  0.00     0.124 S 
ATOM     92  O   UNL A   1      44.631  37.576  26.946  1.00  0.00    -0.237 OA
ATOM     93  O   UNL A   1      47.025  37.910  27.468  1.00  0.00    -0.237 OA
ATOM     94  O   UNL A   1      46.343  36.181  25.850  1.00  0.00    -0.744 OA
ENDBRANCH  87  91
ENDBRANCH  61  84
ENDBRANCH  35  36
ENDBRANCH  27  30
ENDBRANCH  25  26
ENDBRANCH  24  25
ENDBRANCH   1  24
TORSDOF 18
ENDMDL
MODEL 3
REMARK VINA RESULT:     -10.9      3.690      8.659
REMARK SMILES CC[N@@H+]1CCO[C@H](c2nc(C)c(C(=O)NCCCCCCNC(=O)c3ccc(-c4c5nc(c(-c6cc(S(=O)(=O)[O-])ccc6F)c6ccc([nH]6)c(-c6cc(S(=O)(=O)[O-])ccc6F)c6nc(c(-c7cc(S(=O)(=O)[O-])ccc7F)c7ccc4[nH]7)C=C6)C=C5)cc3)s2)C1
REMARK SMILES IDX 19 1 18 2 17 3 16 4 15 5 13 6 14 7 12 9 8 10 9 11 88 12
REMARK SMILES IDX 10 13 11 14 7 15 3 16 4 17 89 18 5 20 6 21 2 22 1 23 20 24
REMARK SMILES IDX 21 25 22 26 23 27 24 29 25 30 26 31 87 32 27 33 86 34 28 35
REMARK SMILES IDX 29 36 30 37 80 38 31 39 85 40 79 41 81 42 32 43 84 44 78 45
REMARK SMILES IDX 77 46 33 48 65 49 45 50 64 51 46 52 49 53 63 54 82 55 47 56
REMARK SMILES IDX 48 57 62 59 83 60 50 61 34 62 35 63 43 64 36 65 42 66 44 67
REMARK SMILES IDX 41 68 37 69 38 70 39 71 40 72 66 73 67 74 75 75 68 76 74 77
REMARK SMILES IDX 76 78 73 79 69 80 70 81 71 82 72 83 51 84 52 85 60 86 53 87
REMARK SMILES IDX 59 88 61 89 58 90 54 91 55 92 56 93 57 94
REMARK H PARENT 15 8 3 19 22 28 81 47 49 58
REMARK Flexibility Score: inf
ROOT
ATOM      1  C   UNL A   1      36.628  21.088  24.986  1.00  0.00     0.002 C 
ENDROOT
BRANCH   1   2
ATOM      2  C   UNL A   1      35.224  20.470  25.005  1.00  0.00     0.002 C 
BRANCH   2   3
ATOM      3  C   UNL A   1      34.291  21.062  26.065  1.00  0.00     0.021 C 
BRANCH   3   4
ATOM      4  C   UNL A   1      32.856  21.231  25.566  1.00  0.00     0.116 C 
BRANCH   4   5
ATOM      5  N   UNL A   1      32.849  21.324  24.130  1.00  0.00    -0.351 N 
ATOM      6  C   UNL A   1      32.711  22.371  23.261  1.00  0.00     0.263 C 
ATOM      7  O   UNL A   1      32.529  21.989  22.096  1.00  0.00    -0.268 OA
ATOM      8  H   UNL A   1      32.968  20.456  23.682  1.00  0.00     0.163 HD
BRANCH   6   9
ATOM      9  C   UNL A   1      32.863  23.780  23.600  1.00  0.00     0.115 A 
ATOM     10  C   UNL A   1      32.490  26.129  23.083  1.00  0.00     0.128 A 
ATOM     11  N   UNL A   1      33.585  25.990  23.798  1.00  0.00    -0.243 NA
ATOM     12  S   UNL A   1      31.467  24.767  23.216  1.00  0.00    -0.110 S 
ATOM     13  C   UNL A   1      33.766  24.662  24.190  1.00  0.00     0.062 A 
ATOM     14  C   UNL A   1      34.931  24.464  25.087  1.00  0.00     0.068 C 
BRANCH  10  15
ATOM     15  C   UNL A   1      32.097  27.368  22.310  1.00  0.00     0.232 C 
ATOM     16  N   UNL A   1      32.106  29.388  23.973  1.00  0.00    -0.331 N 
ATOM     17  C   UNL A   1      30.633  29.321  23.850  1.00  0.00     0.291 C 
ATOM     18  C   UNL A   1      32.704  28.721  22.786  1.00  0.00     0.302 C 
ATOM     19  H   UNL A   1      32.436  30.352  23.969  1.00  0.00     0.348 HD
ATOM     20  C   UNL A   1      30.097  27.928  23.495  1.00  0.00     0.222 C 
ATOM     21  O   UNL A   1      30.653  27.460  22.260  1.00  0.00    -0.359 OA
BRANCH  16  22
ATOM     22  C   UNL A   1      32.553  28.873  25.275  1.00  0.00     0.258 C 
ATOM     23  C   UNL A   1      31.793  29.464  26.461  1.00  0.00     0.071 C 
ENDBRANCH  16  22
ENDBRANCH  10  15
ENDBRANCH   6   9
ENDBRANCH   4   5
ENDBRANCH   3   4
ENDBRANCH   2   3
ENDBRANCH   1   2
BRANCH   1  24
ATOM     24  C   UNL A   1      37.783  20.080  24.993  1.00  0.00     0.021 C 
BRANCH  24  25
ATOM     25  C   UNL A   1      38.973  20.491  25.855  1.00  0.00     0.116 C 
BRANCH  25  26
ATOM     26  N   UNL A   1      39.936  19.408  25.983  1.00  0.00    -0.352 N 
ATOM     27  C   UNL A   1      41.303  19.471  26.094  1.00  0.00     0.251 C 
ATOM     28  H   UNL A   1      39.553  18.500  25.992  1.00  0.00     0.163 HD
ATOM     29  O   UNL A   1      41.979  18.460  25.916  1.00  0.00    -0.269 OA
BRANCH  27  30
ATOM     30  C   UNL A   1      41.954  20.759  26.412  1.00  0.00     0.039 A 
ATOM     31  C   UNL A   1      42.265  21.641  25.374  1.00  0.00     0.014 A 
ATOM     32  C   UNL A   1      42.253  21.094  27.736  1.00  0.00     0.014 A 
ATOM     33  C   UNL A   1      42.801  22.895  25.672  1.00  0.00     0.010 A 
ATOM     34  C   UNL A   1      42.730  22.368  28.035  1.00  0.00     0.010 A 
ATOM     35  C   UNL A   1      42.995  23.285  27.008  1.00  0.00    -0.014 A 
BRANCH  35  36
ATOM     36  C   UNL A   1      43.428  24.664  27.355  1.00  0.00     0.031 A 
ATOM     37  C   UNL A   1      42.452  25.641  27.947  1.00  0.00     0.074 A 
ATOM     38  C   UNL A   1      44.682  25.054  27.051  1.00  0.00     0.049 A 
ATOM     39  N   UNL A   1      42.615  26.910  28.219  1.00  0.00    -0.248 NA
ATOM     40  C   UNL A   1      41.108  25.128  28.249  1.00  0.00     0.031 C 
ATOM     41  C   UNL A   1      45.705  24.202  26.439  1.00  0.00     0.029 A 
ATOM     42  N   UNL A   1      45.307  26.266  27.197  1.00  0.00    -0.354 N 
ATOM     43  C   UNL A   1      41.395  27.353  28.718  1.00  0.00     0.074 A 
ATOM     44  C   UNL A   1      40.488  26.225  28.659  1.00  0.00     0.031 C 
ATOM     45  C   UNL A   1      46.831  24.914  26.276  1.00  0.00     0.029 A 
ATOM     46  C   UNL A   1      46.597  26.284  26.721  1.00  0.00     0.049 A 
ATOM     47  H   UNL A   1      44.872  27.051  27.604  1.00  0.00     0.167 HD
ATOM     48  C   UNL A   1      41.070  28.579  29.197  1.00  0.00     0.034 A 
ATOM     49  C   UNL A   1      47.486  27.293  26.631  1.00  0.00     0.034 A 
ATOM     50  C   UNL A   1      41.992  29.690  29.248  1.00  0.00     0.049 A 
ATOM     51  C   UNL A   1      47.085  28.660  27.122  1.00  0.00     0.074 A 
ATOM     52  C   UNL A   1      41.789  30.954  29.776  1.00  0.00     0.029 A 
ATOM     53  N   UNL A   1      43.285  29.677  28.740  1.00  0.00    -0.354 N 
ATOM     54  N   UNL A   1      45.944  29.047  27.647  1.00  0.00    -0.248 NA
ATOM     55  C   UNL A   1      48.089  29.725  27.011  1.00  0.00     0.031 C 
ATOM     56  C   UNL A   1      42.930  31.725  29.520  1.00  0.00     0.029 A 
ATOM     57  C   UNL A   1      43.874  30.923  28.901  1.00  0.00     0.049 A 
ATOM     58  H   UNL A   1      43.719  28.897  28.325  1.00  0.00     0.167 HD
ATOM     59  C   UNL A   1      46.104  30.397  27.944  1.00  0.00     0.074 A 
ATOM     60  C   UNL A   1      47.456  30.750  27.561  1.00  0.00     0.031 C 
ATOM     61  C   UNL A   1      45.214  31.268  28.486  1.00  0.00     0.034 A 
BRANCH  48  62
ATOM     62  C   UNL A   1      39.652  28.788  29.674  1.00  0.00     0.023 A 
ATOM     63  C   UNL A   1      38.626  29.171  28.793  1.00  0.00     0.031 A 
ATOM     64  C   UNL A   1      39.326  28.620  31.031  1.00  0.00     0.131 A 
ATOM     65  C   UNL A   1      37.341  29.440  29.288  1.00  0.00     0.055 A 
ATOM     66  C   UNL A   1      38.026  28.814  31.505  1.00  0.00     0.041 A 
ATOM     67  F   UNL A   1      40.267  28.275  31.924  1.00  0.00    -0.206 F 
ATOM     68  C   UNL A   1      37.028  29.242  30.635  1.00  0.00     0.022 A 
BRANCH  65  69
ATOM     69  S   UNL A   1      36.122  30.189  28.174  1.00  0.00     0.124 S 
ATOM     70  O   UNL A   1      36.796  30.080  26.882  1.00  0.00    -0.237 OA
ATOM     71  O   UNL A   1      34.957  29.331  28.359  1.00  0.00    -0.237 OA
ATOM     72  O   UNL A   1      35.983  31.552  28.683  1.00  0.00    -0.744 OA
ENDBRANCH  65  69
ENDBRANCH  48  62
BRANCH  49  73
ATOM     73  C   UNL A   1      48.829  27.064  26.028  1.00  0.00     0.023 A 
ATOM     74  C   UNL A   1      49.094  27.420  24.696  1.00  0.00     0.031 A 
ATOM     75  C   UNL A   1      49.860  26.451  26.765  1.00  0.00     0.131 A 
ATOM     76  C   UNL A   1      50.342  27.122  24.128  1.00  0.00     0.055 A 
ATOM     77  C   UNL A   1      51.117  26.204  26.210  1.00  0.00     0.041 A 
ATOM     78  F   UNL A   1      49.661  26.096  28.044  1.00  0.00    -0.206 F 
ATOM     79  C   UNL A   1      51.359  26.529  24.879  1.00  0.00     0.022 A 
BRANCH  76  80
ATOM     80  S   UNL A   1      50.592  27.451  22.362  1.00  0.00     0.124 S 
ATOM     81  O   UNL A   1      51.899  26.845  22.129  1.00  0.00    -0.237 OA
ATOM     82  O   UNL A   1      49.452  26.767  21.763  1.00  0.00    -0.237 OA
ATOM     83  O   UNL A   1      50.556  28.910  22.280  1.00  0.00    -0.744 OA
ENDBRANCH  76  80
ENDBRANCH  49  73
BRANCH  61  84
ATOM     84  C   UNL A   1      45.693  32.681  28.709  1.00  0.00     0.023 A 
ATOM     85  C   UNL A   1      45.575  33.662  27.709  1.00  0.00     0.031 A 
ATOM     86  C   UNL A   1      46.290  33.045  29.928  1.00  0.00     0.131 A 
ATOM     87  C   UNL A   1      46.094  34.947  27.927  1.00  0.00     0.055 A 
ATOM     88  C   UNL A   1      46.750  34.341  30.161  1.00  0.00     0.041 A 
ATOM     89  F   UNL A   1      46.432  32.146  30.916  1.00  0.00    -0.206 F 
ATOM     90  C   UNL A   1      46.665  35.298  29.154  1.00  0.00     0.022 A 
BRANCH  87  91
ATOM     91  S   UNL A   1      46.089  36.133  26.555  1.00  0.00     0.124 S 
ATOM     92  O   UNL A   1      45.935  35.257  25.399  1.00  0.00    -0.237 OA
ATOM     93  O   UNL A   1      44.940  36.975  26.874  1.00  0.00    -0.237 OA
ATOM     94  O   UNL A   1      47.389  36.792  26.666  1.00  0.00    -0.744 OA
ENDBRANCH  87  91
ENDBRANCH  61  84
ENDBRANCH  35  36
ENDBRANCH  27  30
ENDBRANCH  25  26
ENDBRANCH  24  25
ENDBRANCH   1  24
TORSDOF 18
ENDMDL
