MODEL 1
REMARK VINA RESULT:     -13.6      0.000      0.000
REMARK SMILES Cc1cccc(C(=O)Nc2cnc(N3CCN(c4cccc(C)c4)[C@H](C)C3)c(C(=O)NCCCCCCNC(=O)c3ccc(-c4c5nc(c(-c6cc(S(=O)(=O)[O-])ccc6F)c6ccc([nH]6)c(-c6cc(S(=O)(=O)[O-])ccc6F)c6nc(c(-c7cc(S(=O)(=O)[O-])ccc7F)c7ccc4[nH]7)C=C6)C=C5)cc3)c2)c1
REMARK SMILES IDX 35 1 34 2 33 3 32 4 31 5 29 6 30 7 28 9 10 10 11 11 104 12
REMARK SMILES IDX 12 13 13 14 9 15 7 16 8 17 6 19 1 20 2 21 3 22 105 23 4 24
REMARK SMILES IDX 5 25 14 26 15 27 27 28 16 29 25 30 17 31 26 32 18 33 19 34
REMARK SMILES IDX 24 35 20 36 22 37 21 38 23 39 36 40 37 41 38 42 39 43 40 45
REMARK SMILES IDX 41 46 42 47 103 48 43 49 102 50 44 51 45 52 46 53 96 54
REMARK SMILES IDX 47 55 101 56 95 57 97 58 48 59 100 60 94 61 93 62 49 64
REMARK SMILES IDX 81 65 61 66 80 67 62 68 65 69 79 70 98 71 63 72 64 73 78 75
REMARK SMILES IDX 99 76 66 77 50 78 51 79 59 80 52 81 58 82 60 83 57 84 53 85
REMARK SMILES IDX 54 86 55 87 56 88 82 89 83 90 91 91 84 92 90 93 92 94 89 95
REMARK SMILES IDX 85 96 86 97 87 98 88 99 67 100 68 101 76 102 69 103 75 104
REMARK SMILES IDX 77 105 74 106 70 107 71 108 72 109 73 110
REMARK H PARENT 31 8 9 18 38 44 97 63 65 74
REMARK Flexibility Score: inf
ROOT
ATOM      1  C   UNL A   1      37.804  21.201  25.230  1.00  0.00     0.002 C 
ENDROOT
BRANCH   1   2
ATOM      2  C   UNL A   1      36.828  22.380  25.387  1.00  0.00     0.002 C 
BRANCH   2   3
ATOM      3  C   UNL A   1      36.241  22.933  24.081  1.00  0.00     0.021 C 
BRANCH   3   4
ATOM      4  C   UNL A   1      35.371  24.173  24.280  1.00  0.00     0.116 C 
BRANCH   4   5
ATOM      5  N   UNL A   1      34.797  24.586  23.018  1.00  0.00    -0.352 N 
ATOM      6  C   UNL A   1      33.617  25.086  22.548  1.00  0.00     0.255 C 
ATOM      7  O   UNL A   1      33.617  25.205  21.323  1.00  0.00    -0.269 OA
ATOM      8  H   UNL A   1      35.445  24.473  22.285  1.00  0.00     0.163 HD
BRANCH   6   9
ATOM      9  C   UNL A   1      32.445  25.508  23.392  1.00  0.00     0.084 A 
ATOM     10  C   UNL A   1      30.658  27.087  23.822  1.00  0.00     0.060 A 
ATOM     11  C   UNL A   1      30.091  26.166  24.678  1.00  0.00     0.139 A 
ATOM     12  C   UNL A   1      31.912  26.798  23.294  1.00  0.00     0.045 A 
ATOM     13  N   UNL A   1      30.605  24.936  24.874  1.00  0.00    -0.236 NA
ATOM     14  C   UNL A   1      31.746  24.583  24.212  1.00  0.00     0.141 A 
BRANCH  10  15
ATOM     15  N   UNL A   1      29.901  28.189  23.401  1.00  0.00    -0.321 N 
ATOM     16  C   UNL A   1      29.880  29.477  23.916  1.00  0.00     0.255 C 
ATOM     17  O   UNL A   1      29.037  30.267  23.488  1.00  0.00    -0.269 OA
ATOM     18  H   UNL A   1      29.303  28.027  22.636  1.00  0.00     0.170 HD
BRANCH  16  19
ATOM     19  C   UNL A   1      30.904  29.986  24.888  1.00  0.00     0.040 A 
ATOM     20  C   UNL A   1      34.244  29.036  26.467  1.00  0.00     0.044 C 
ATOM     21  C   UNL A   1      33.021  29.826  26.100  1.00  0.00    -0.050 A 
ATOM     22  C   UNL A   1      32.716  31.006  26.784  1.00  0.00     0.003 A 
ATOM     23  C   UNL A   1      32.146  29.368  25.103  1.00  0.00     0.017 A 
ATOM     24  C   UNL A   1      31.532  31.689  26.507  1.00  0.00     0.001 A 
ATOM     25  C   UNL A   1      30.623  31.174  25.577  1.00  0.00     0.014 A 
ENDBRANCH  16  19
ENDBRANCH  10  15
BRANCH  14  26
ATOM     26  N   UNL A   1      32.099  23.259  24.340  1.00  0.00    -0.352 N 
ATOM     27  C   UNL A   1      31.602  22.276  23.369  1.00  0.00     0.139 C 
ATOM     28  C   UNL A   1      32.277  22.705  25.696  1.00  0.00     0.142 C 
ATOM     29  C   UNL A   1      32.533  21.035  23.335  1.00  0.00     0.138 C 
ATOM     30  C   UNL A   1      33.322  21.554  25.625  1.00  0.00     0.098 C 
ATOM     31  N   UNL A   1      32.778  20.508  24.700  1.00  0.00    -0.365 N 
ATOM     32  C   UNL A   1      33.671  21.081  27.032  1.00  0.00     0.033 C 
BRANCH  31  33
ATOM     33  C   UNL A   1      33.176  19.189  24.829  1.00  0.00     0.037 A 
ATOM     34  C   UNL A   1      34.474  18.833  24.442  1.00  0.00     0.026 A 
ATOM     35  C   UNL A   1      32.343  18.183  25.334  1.00  0.00     0.029 A 
ATOM     36  C   UNL A   1      34.927  17.519  24.537  1.00  0.00     0.002 A 
ATOM     37  C   UNL A   1      32.788  16.855  25.447  1.00  0.00    -0.049 A 
ATOM     38  C   UNL A   1      34.085  16.531  25.038  1.00  0.00     0.003 A 
ATOM     39  C   UNL A   1      31.866  15.798  25.979  1.00  0.00     0.044 C 
ENDBRANCH  31  33
ENDBRANCH  14  26
ENDBRANCH   6   9
ENDBRANCH   4   5
ENDBRANCH   3   4
ENDBRANCH   2   3
ENDBRANCH   1   2
BRANCH   1  40
ATOM     40  C   UNL A   1      39.118  21.317  26.002  1.00  0.00     0.021 C 
BRANCH  40  41
ATOM     41  C   UNL A   1      39.491  22.751  26.357  1.00  0.00     0.116 C 
BRANCH  41  42
ATOM     42  N   UNL A   1      40.918  23.023  26.274  1.00  0.00    -0.352 N 
ATOM     43  C   UNL A   1      41.571  24.236  26.454  1.00  0.00     0.251 C 
ATOM     44  H   UNL A   1      41.493  22.251  26.066  1.00  0.00     0.163 HD
ATOM     45  O   UNL A   1      42.763  24.358  26.317  1.00  0.00    -0.269 OA
BRANCH  43  46
ATOM     46  C   UNL A   1      40.756  25.370  26.965  1.00  0.00     0.039 A 
ATOM     47  C   UNL A   1      40.852  26.575  26.263  1.00  0.00     0.014 A 
ATOM     48  C   UNL A   1      40.161  25.316  28.223  1.00  0.00     0.014 A 
ATOM     49  C   UNL A   1      40.549  27.766  26.917  1.00  0.00     0.010 A 
ATOM     50  C   UNL A   1      39.941  26.504  28.900  1.00  0.00     0.010 A 
ATOM     51  C   UNL A   1      40.198  27.728  28.268  1.00  0.00    -0.014 A 
BRANCH  51  52
ATOM     52  C   UNL A   1      40.243  28.914  29.117  1.00  0.00     0.031 A 
ATOM     53  C   UNL A   1      39.158  29.914  29.095  1.00  0.00     0.074 A 
ATOM     54  C   UNL A   1      41.300  29.126  29.933  1.00  0.00     0.049 A 
ATOM     55  N   UNL A   1      39.325  31.166  29.363  1.00  0.00    -0.248 NA
ATOM     56  C   UNL A   1      37.789  29.582  28.722  1.00  0.00     0.031 C 
ATOM     57  C   UNL A   1      41.419  30.129  30.988  1.00  0.00     0.029 A 
ATOM     58  N   UNL A   1      42.593  28.638  29.769  1.00  0.00    -0.354 N 
ATOM     59  C   UNL A   1      38.080  31.736  29.486  1.00  0.00     0.074 A 
ATOM     60  C   UNL A   1      37.161  30.726  29.009  1.00  0.00     0.031 C 
ATOM     61  C   UNL A   1      42.721  30.379  31.200  1.00  0.00     0.029 A 
ATOM     62  C   UNL A   1      43.473  29.641  30.204  1.00  0.00     0.049 A 
ATOM     63  H   UNL A   1      42.843  27.754  29.416  1.00  0.00     0.167 HD
ATOM     64  C   UNL A   1      37.944  32.940  30.111  1.00  0.00     0.034 A 
ATOM     65  C   UNL A   1      44.417  30.168  29.372  1.00  0.00     0.034 A 
ATOM     66  C   UNL A   1      39.230  33.500  30.530  1.00  0.00     0.049 A 
ATOM     67  C   UNL A   1      44.310  31.664  29.190  1.00  0.00     0.074 A 
ATOM     68  C   UNL A   1      39.877  33.581  31.752  1.00  0.00     0.029 A 
ATOM     69  N   UNL A   1      40.168  33.866  29.572  1.00  0.00    -0.354 N 
ATOM     70  N   UNL A   1      43.278  32.384  29.533  1.00  0.00    -0.248 NA
ATOM     71  C   UNL A   1      45.354  32.459  28.556  1.00  0.00     0.031 C 
ATOM     72  C   UNL A   1      41.214  34.001  31.522  1.00  0.00     0.029 A 
ATOM     73  C   UNL A   1      41.378  34.188  30.161  1.00  0.00     0.049 A 
ATOM     74  H   UNL A   1      39.996  33.893  28.602  1.00  0.00     0.167 HD
ATOM     75  C   UNL A   1      43.472  33.693  29.153  1.00  0.00     0.074 A 
ATOM     76  C   UNL A   1      44.801  33.683  28.562  1.00  0.00     0.031 C 
ATOM     77  C   UNL A   1      42.502  34.643  29.346  1.00  0.00     0.034 A 
BRANCH  64  78
ATOM     78  C   UNL A   1      36.613  33.455  30.614  1.00  0.00     0.023 A 
ATOM     79  C   UNL A   1      35.727  34.090  29.720  1.00  0.00     0.031 A 
ATOM     80  C   UNL A   1      36.181  33.397  31.953  1.00  0.00     0.131 A 
ATOM     81  C   UNL A   1      34.559  34.731  30.172  1.00  0.00     0.055 A 
ATOM     82  C   UNL A   1      35.054  34.090  32.417  1.00  0.00     0.041 A 
ATOM     83  F   UNL A   1      36.807  32.630  32.857  1.00  0.00    -0.206 F 
ATOM     84  C   UNL A   1      34.244  34.779  31.527  1.00  0.00     0.022 A 
BRANCH  81  85
ATOM     85  S   UNL A   1      33.449  35.501  28.960  1.00  0.00     0.124 S 
ATOM     86  O   UNL A   1      32.661  36.407  29.789  1.00  0.00    -0.237 OA
ATOM     87  O   UNL A   1      34.390  36.124  28.036  1.00  0.00    -0.237 OA
ATOM     88  O   UNL A   1      32.707  34.366  28.411  1.00  0.00    -0.744 OA
ENDBRANCH  81  85
ENDBRANCH  64  78
BRANCH  65  89
ATOM     89  C   UNL A   1      44.913  29.205  28.348  1.00  0.00     0.023 A 
ATOM     90  C   UNL A   1      45.838  28.229  28.776  1.00  0.00     0.031 A 
ATOM     91  C   UNL A   1      44.244  28.988  27.137  1.00  0.00     0.131 A 
ATOM     92  C   UNL A   1      45.939  27.006  28.102  1.00  0.00     0.055 A 
ATOM     93  C   UNL A   1      44.406  27.794  26.422  1.00  0.00     0.041 A 
ATOM     94  F   UNL A   1      43.335  29.867  26.690  1.00  0.00    -0.206 F 
ATOM     95  C   UNL A   1      45.219  26.778  26.928  1.00  0.00     0.022 A 
BRANCH  92  96
ATOM     96  S   UNL A   1      46.784  25.620  28.918  1.00  0.00     0.124 S 
ATOM     97  O   UNL A   1      46.032  24.470  28.429  1.00  0.00    -0.237 OA
ATOM     98  O   UNL A   1      48.156  25.738  28.427  1.00  0.00    -0.237 OA
ATOM     99  O   UNL A   1      46.628  25.922  30.339  1.00  0.00    -0.744 OA
ENDBRANCH  92  96
ENDBRANCH  65  89
BRANCH  77 100
ATOM    100  C   UNL A   1      42.503  36.092  28.859  1.00  0.00     0.023 A 
ATOM    101  C   UNL A   1      43.092  37.163  29.546  1.00  0.00     0.031 A 
ATOM    102  C   UNL A   1      41.898  36.447  27.622  1.00  0.00     0.131 A 
ATOM    103  C   UNL A   1      43.066  38.480  29.040  1.00  0.00     0.055 A 
ATOM    104  C   UNL A   1      41.892  37.749  27.106  1.00  0.00     0.041 A 
ATOM    105  F   UNL A   1      41.290  35.544  26.841  1.00  0.00    -0.206 F 
ATOM    106  C   UNL A   1      42.479  38.780  27.816  1.00  0.00     0.022 A 
BRANCH 103 107
ATOM    107  S   UNL A   1      43.810  39.797  30.039  1.00  0.00     0.124 S 
ATOM    108  O   UNL A   1      42.645  40.362  30.713  1.00  0.00    -0.237 OA
ATOM    109  O   UNL A   1      44.735  39.055  30.890  1.00  0.00    -0.237 OA
ATOM    110  O   UNL A   1      44.440  40.670  29.050  1.00  0.00    -0.744 OA
ENDBRANCH 103 107
ENDBRANCH  77 100
ENDBRANCH  51  52
ENDBRANCH  43  46
ENDBRANCH  41  42
ENDBRANCH  40  41
ENDBRANCH   1  40
TORSDOF 20
ENDMDL
MODEL 2
REMARK VINA RESULT:     -11.6      2.088      3.093
REMARK SMILES Cc1cccc(C(=O)Nc2cnc(N3CCN(c4cccc(C)c4)[C@H](C)C3)c(C(=O)NCCCCCCNC(=O)c3ccc(-c4c5nc(c(-c6cc(S(=O)(=O)[O-])ccc6F)c6ccc([nH]6)c(-c6cc(S(=O)(=O)[O-])ccc6F)c6nc(c(-c7cc(S(=O)(=O)[O-])ccc7F)c7ccc4[nH]7)C=C6)C=C5)cc3)c2)c1
REMARK SMILES IDX 35 1 34 2 33 3 32 4 31 5 29 6 30 7 28 9 10 10 11 11 104 12
REMARK SMILES IDX 12 13 13 14 9 15 7 16 8 17 6 19 1 20 2 21 3 22 105 23 4 24
REMARK SMILES IDX 5 25 14 26 15 27 27 28 16 29 25 30 17 31 26 32 18 33 19 34
REMARK SMILES IDX 24 35 20 36 22 37 21 38 23 39 36 40 37 41 38 42 39 43 40 45
REMARK SMILES IDX 41 46 42 47 103 48 43 49 102 50 44 51 45 52 46 53 96 54
REMARK SMILES IDX 47 55 101 56 95 57 97 58 48 59 100 60 94 61 93 62 49 64
REMARK SMILES IDX 81 65 61 66 80 67 62 68 65 69 79 70 98 71 63 72 64 73 78 75
REMARK SMILES IDX 99 76 66 77 50 78 51 79 59 80 52 81 58 82 60 83 57 84 53 85
REMARK SMILES IDX 54 86 55 87 56 88 82 89 83 90 91 91 84 92 90 93 92 94 89 95
REMARK SMILES IDX 85 96 86 97 87 98 88 99 67 100 68 101 76 102 69 103 75 104
REMARK SMILES IDX 77 105 74 106 70 107 71 108 72 109 73 110
REMARK H PARENT 31 8 9 18 38 44 97 63 65 74
REMARK Flexibility Score: inf
ROOT
ATOM      1  C   UNL A   1      38.373  22.209  25.981  1.00  0.00     0.002 C 
ENDROOT
BRANCH   1   2
ATOM      2  C   UNL A   1      36.882  22.288  25.609  1.00  0.00     0.002 C 
BRANCH   2   3
ATOM      3  C   UNL A   1      36.554  23.115  24.358  1.00  0.00     0.021 C 
BRANCH   3   4
ATOM      4  C   UNL A   1      35.368  24.059  24.544  1.00  0.00     0.116 C 
BRANCH   4   5
ATOM      5  N   UNL A   1      34.867  24.489  23.256  1.00  0.00    -0.352 N 
ATOM      6  C   UNL A   1      33.709  24.977  22.724  1.00  0.00     0.255 C 
ATOM      7  O   UNL A   1      33.784  25.123  21.504  1.00  0.00    -0.269 OA
ATOM      8  H   UNL A   1      35.562  24.404  22.565  1.00  0.00     0.163 HD
BRANCH   6   9
ATOM      9  C   UNL A   1      32.478  25.359  23.499  1.00  0.00     0.084 A 
ATOM     10  C   UNL A   1      30.648  26.905  23.859  1.00  0.00     0.060 A 
ATOM     11  C   UNL A   1      30.036  25.951  24.644  1.00  0.00     0.139 A 
ATOM     12  C   UNL A   1      31.938  26.646  23.407  1.00  0.00     0.045 A 
ATOM     13  N   UNL A   1      30.550  24.720  24.834  1.00  0.00    -0.236 NA
ATOM     14  C   UNL A   1      31.738  24.401  24.240  1.00  0.00     0.141 A 
BRANCH  10  15
ATOM     15  N   UNL A   1      29.908  28.013  23.424  1.00  0.00    -0.321 N 
ATOM     16  C   UNL A   1      29.913  29.310  23.918  1.00  0.00     0.255 C 
ATOM     17  O   UNL A   1      29.080  30.107  23.481  1.00  0.00    -0.269 OA
ATOM     18  H   UNL A   1      29.303  27.849  22.666  1.00  0.00     0.170 HD
BRANCH  16  19
ATOM     19  C   UNL A   1      30.951  29.817  24.874  1.00  0.00     0.040 A 
ATOM     20  C   UNL A   1      31.833  32.884  26.966  1.00  0.00     0.044 C 
ATOM     21  C   UNL A   1      31.882  31.500  26.384  1.00  0.00    -0.050 A 
ATOM     22  C   UNL A   1      32.999  30.688  26.597  1.00  0.00     0.003 A 
ATOM     23  C   UNL A   1      30.833  31.023  25.583  1.00  0.00     0.017 A 
ATOM     24  C   UNL A   1      33.085  29.439  25.980  1.00  0.00     0.001 A 
ATOM     25  C   UNL A   1      32.076  29.014  25.111  1.00  0.00     0.014 A 
ENDBRANCH  16  19
ENDBRANCH  10  15
BRANCH  14  26
ATOM     26  N   UNL A   1      32.097  23.077  24.349  1.00  0.00    -0.352 N 
ATOM     27  C   UNL A   1      31.620  22.110  23.351  1.00  0.00     0.139 C 
ATOM     28  C   UNL A   1      32.258  22.498  25.696  1.00  0.00     0.142 C 
ATOM     29  C   UNL A   1      32.560  20.874  23.308  1.00  0.00     0.138 C 
ATOM     30  C   UNL A   1      33.311  21.355  25.619  1.00  0.00     0.098 C 
ATOM     31  N   UNL A   1      32.788  20.323  24.666  1.00  0.00    -0.365 N 
ATOM     32  C   UNL A   1      33.642  20.858  27.022  1.00  0.00     0.033 C 
BRANCH  31  33
ATOM     33  C   UNL A   1      33.192  19.005  24.776  1.00  0.00     0.037 A 
ATOM     34  C   UNL A   1      34.487  18.658  24.369  1.00  0.00     0.026 A 
ATOM     35  C   UNL A   1      32.369  17.991  25.281  1.00  0.00     0.029 A 
ATOM     36  C   UNL A   1      34.945  17.345  24.444  1.00  0.00     0.002 A 
ATOM     37  C   UNL A   1      32.821  16.663  25.375  1.00  0.00    -0.049 A 
ATOM     38  C   UNL A   1      34.114  16.348  24.946  1.00  0.00     0.003 A 
ATOM     39  C   UNL A   1      31.909  15.597  25.907  1.00  0.00     0.044 C 
ENDBRANCH  31  33
ENDBRANCH  14  26
ENDBRANCH   6   9
ENDBRANCH   4   5
ENDBRANCH   3   4
ENDBRANCH   2   3
ENDBRANCH   1   2
BRANCH   1  40
ATOM     40  C   UNL A   1      39.036  23.534  26.356  1.00  0.00     0.021 C 
BRANCH  40  41
ATOM     41  C   UNL A   1      40.491  23.387  26.785  1.00  0.00     0.116 C 
BRANCH  41  42
ATOM     42  N   UNL A   1      41.257  22.470  25.956  1.00  0.00    -0.352 N 
ATOM     43  C   UNL A   1      42.608  22.526  25.638  1.00  0.00     0.251 C 
ATOM     44  H   UNL A   1      40.756  21.714  25.572  1.00  0.00     0.163 HD
ATOM     45  O   UNL A   1      43.135  21.732  24.900  1.00  0.00    -0.269 OA
BRANCH  43  46
ATOM     46  C   UNL A   1      43.428  23.534  26.362  1.00  0.00     0.039 A 
ATOM     47  C   UNL A   1      43.625  23.315  27.728  1.00  0.00     0.014 A 
ATOM     48  C   UNL A   1      43.734  24.761  25.780  1.00  0.00     0.014 A 
ATOM     49  C   UNL A   1      43.924  24.396  28.553  1.00  0.00     0.010 A 
ATOM     50  C   UNL A   1      43.946  25.850  26.608  1.00  0.00     0.010 A 
ATOM     51  C   UNL A   1      43.976  25.676  27.998  1.00  0.00    -0.014 A 
BRANCH  51  52
ATOM     52  C   UNL A   1      43.896  26.883  28.817  1.00  0.00     0.031 A 
ATOM     53  C   UNL A   1      42.613  27.582  29.029  1.00  0.00     0.074 A 
ATOM     54  C   UNL A   1      45.011  27.394  29.384  1.00  0.00     0.049 A 
ATOM     55  N   UNL A   1      42.510  28.849  29.252  1.00  0.00    -0.248 NA
ATOM     56  C   UNL A   1      41.327  26.901  28.960  1.00  0.00     0.031 C 
ATOM     57  C   UNL A   1      45.090  28.453  30.387  1.00  0.00     0.029 A 
ATOM     58  N   UNL A   1      46.322  27.231  28.946  1.00  0.00    -0.354 N 
ATOM     59  C   UNL A   1      41.216  29.100  29.641  1.00  0.00     0.074 A 
ATOM     60  C   UNL A   1      40.503  27.869  29.374  1.00  0.00     0.031 C 
ATOM     61  C   UNL A   1      46.301  29.028  30.313  1.00  0.00     0.029 A 
ATOM     62  C   UNL A   1      46.990  28.443  29.179  1.00  0.00     0.049 A 
ATOM     63  H   UNL A   1      46.707  26.418  28.548  1.00  0.00     0.167 HD
ATOM     64  C   UNL A   1      40.913  30.266  30.279  1.00  0.00     0.034 A 
ATOM     65  C   UNL A   1      47.575  29.140  28.162  1.00  0.00     0.034 A 
ATOM     66  C   UNL A   1      42.074  31.148  30.409  1.00  0.00     0.049 A 
ATOM     67  C   UNL A   1      47.057  30.551  28.005  1.00  0.00     0.074 A 
ATOM     68  C   UNL A   1      42.919  31.455  31.463  1.00  0.00     0.029 A 
ATOM     69  N   UNL A   1      42.668  31.681  29.271  1.00  0.00    -0.354 N 
ATOM     70  N   UNL A   1      45.972  31.012  28.563  1.00  0.00    -0.248 NA
ATOM     71  C   UNL A   1      47.710  31.542  27.160  1.00  0.00     0.031 C 
ATOM     72  C   UNL A   1      44.028  32.178  30.949  1.00  0.00     0.029 A 
ATOM     73  C   UNL A   1      43.852  32.323  29.584  1.00  0.00     0.049 A 
ATOM     74  H   UNL A   1      42.296  31.610  28.361  1.00  0.00     0.167 HD
ATOM     75  C   UNL A   1      45.746  32.305  28.148  1.00  0.00     0.074 A 
ATOM     76  C   UNL A   1      46.880  32.590  27.285  1.00  0.00     0.031 C 
ATOM     77  C   UNL A   1      44.629  32.996  28.545  1.00  0.00     0.034 A 
BRANCH  64  78
ATOM     78  C   UNL A   1      39.630  30.464  31.057  1.00  0.00     0.023 A 
ATOM     79  C   UNL A   1      38.537  31.112  30.447  1.00  0.00     0.031 A 
ATOM     80  C   UNL A   1      39.437  30.088  32.399  1.00  0.00     0.131 A 
ATOM     81  C   UNL A   1      37.389  31.466  31.180  1.00  0.00     0.055 A 
ATOM     82  C   UNL A   1      38.325  30.497  33.149  1.00  0.00     0.041 A 
ATOM     83  F   UNL A   1      40.295  29.270  33.027  1.00  0.00    -0.206 F 
ATOM     84  C   UNL A   1      37.300  31.208  32.545  1.00  0.00     0.022 A 
BRANCH  81  85
ATOM     85  S   UNL A   1      36.007  32.270  30.322  1.00  0.00     0.124 S 
ATOM     86  O   UNL A   1      35.799  31.394  29.173  1.00  0.00    -0.237 OA
ATOM     87  O   UNL A   1      34.964  32.258  31.341  1.00  0.00    -0.237 OA
ATOM     88  O   UNL A   1      36.534  33.596  29.997  1.00  0.00    -0.744 OA
ENDBRANCH  81  85
ENDBRANCH  64  78
BRANCH  65  89
ATOM     89  C   UNL A   1      48.074  28.273  27.057  1.00  0.00     0.023 A 
ATOM     90  C   UNL A   1      49.300  27.607  27.263  1.00  0.00     0.031 A 
ATOM     91  C   UNL A   1      47.237  27.806  26.036  1.00  0.00     0.131 A 
ATOM     92  C   UNL A   1      49.577  26.410  26.590  1.00  0.00     0.055 A 
ATOM     93  C   UNL A   1      47.554  26.650  25.309  1.00  0.00     0.041 A 
ATOM     94  F   UNL A   1      46.048  28.382  25.807  1.00  0.00    -0.206 F 
ATOM     95  C   UNL A   1      48.704  25.920  25.618  1.00  0.00     0.022 A 
BRANCH  92  96
ATOM     96  S   UNL A   1      50.927  25.354  27.196  1.00  0.00     0.124 S 
ATOM     97  O   UNL A   1      51.560  24.923  25.956  1.00  0.00    -0.237 OA
ATOM     98  O   UNL A   1      51.710  26.268  28.025  1.00  0.00    -0.237 OA
ATOM     99  O   UNL A   1      50.227  24.313  27.946  1.00  0.00    -0.744 OA
ENDBRANCH  92  96
ENDBRANCH  65  89
BRANCH  77 100
ATOM    100  C   UNL A   1      44.162  34.370  28.068  1.00  0.00     0.023 A 
ATOM    101  C   UNL A   1      44.267  35.552  28.816  1.00  0.00     0.031 A 
ATOM    102  C   UNL A   1      43.588  34.539  26.778  1.00  0.00     0.131 A 
ATOM    103  C   UNL A   1      43.824  36.794  28.316  1.00  0.00     0.055 A 
ATOM    104  C   UNL A   1      43.169  35.775  26.270  1.00  0.00     0.041 A 
ATOM    105  F   UNL A   1      43.414  33.512  25.935  1.00  0.00    -0.206 F 
ATOM    106  C   UNL A   1      43.284  36.918  27.041  1.00  0.00     0.022 A 
BRANCH 103 107
ATOM    107  S   UNL A   1      43.957  38.248  29.392  1.00  0.00     0.124 S 
ATOM    108  O   UNL A   1      43.850  37.654  30.721  1.00  0.00    -0.237 OA
ATOM    109  O   UNL A   1      45.272  38.774  29.039  1.00  0.00    -0.237 OA
ATOM    110  O   UNL A   1      42.825  39.081  28.990  1.00  0.00    -0.744 OA
ENDBRANCH 103 107
ENDBRANCH  77 100
ENDBRANCH  51  52
ENDBRANCH  43  46
ENDBRANCH  41  42
ENDBRANCH  40  41
ENDBRANCH   1  40
TORSDOF 20
ENDMDL
MODEL 3
REMARK VINA RESULT:     -11.4      3.866      7.684
REMARK SMILES Cc1cccc(C(=O)Nc2cnc(N3CCN(c4cccc(C)c4)[C@H](C)C3)c(C(=O)NCCCCCCNC(=O)c3ccc(-c4c5nc(c(-c6cc(S(=O)(=O)[O-])ccc6F)c6ccc([nH]6)c(-c6cc(S(=O)(=O)[O-])ccc6F)c6nc(c(-c7cc(S(=O)(=O)[O-])ccc7F)c7ccc4[nH]7)C=C6)C=C5)cc3)c2)c1
REMARK SMILES IDX 35 1 34 2 33 3 32 4 31 5 29 6 30 7 28 9 10 10 11 11 104 12
REMARK SMILES IDX 12 13 13 14 9 15 7 16 8 17 6 19 1 20 2 21 3 22 105 23 4 24
REMARK SMILES IDX 5 25 14 26 15 27 27 28 16 29 25 30 17 31 26 32 18 33 19 34
REMARK SMILES IDX 24 35 20 36 22 37 21 38 23 39 36 40 37 41 38 42 39 43 40 45
REMARK SMILES IDX 41 46 42 47 103 48 43 49 102 50 44 51 45 52 46 53 96 54
REMARK SMILES IDX 47 55 101 56 95 57 97 58 48 59 100 60 94 61 93 62 49 64
REMARK SMILES IDX 81 65 61 66 80 67 62 68 65 69 79 70 98 71 63 72 64 73 78 75
REMARK SMILES IDX 99 76 66 77 50 78 51 79 59 80 52 81 58 82 60 83 57 84 53 85
REMARK SMILES IDX 54 86 55 87 56 88 82 89 83 90 91 91 84 92 90 93 92 94 89 95
REMARK SMILES IDX 85 96 86 97 87 98 88 99 67 100 68 101 76 102 69 103 75 104
REMARK SMILES IDX 77 105 74 106 70 107 71 108 72 109 73 110
REMARK H PARENT 31 8 9 18 38 44 97 63 65 74
REMARK Flexibility Score: inf
ROOT
ATOM      1  C   UNL A   1      42.619  26.262  29.277  1.00  0.00     0.002 C 
ENDROOT
BRANCH   1   2
ATOM      2  C   UNL A   1      41.751  25.171  28.628  1.00  0.00     0.002 C 
BRANCH   2   3
ATOM      3  C   UNL A   1      42.373  24.464  27.415  1.00  0.00     0.021 C 
BRANCH   3   4
ATOM      4  C   UNL A   1      41.474  24.465  26.180  1.00  0.00     0.116 C 
BRANCH   4   5
ATOM      5  N   UNL A   1      40.086  24.351  26.575  1.00  0.00    -0.352 N 
ATOM      6  C   UNL A   1      39.093  23.414  26.554  1.00  0.00     0.255 C 
ATOM      7  O   UNL A   1      38.023  23.863  26.964  1.00  0.00    -0.269 OA
ATOM      8  H   UNL A   1      39.766  25.192  26.973  1.00  0.00     0.163 HD
BRANCH   6   9
ATOM      9  C   UNL A   1      39.250  21.977  26.139  1.00  0.00     0.084 A 
ATOM     10  C   UNL A   1      40.429  19.871  26.355  1.00  0.00     0.060 A 
ATOM     11  C   UNL A   1      39.392  19.257  25.685  1.00  0.00     0.139 A 
ATOM     12  C   UNL A   1      40.410  21.259  26.450  1.00  0.00     0.045 A 
ATOM     13  N   UNL A   1      38.285  19.915  25.289  1.00  0.00    -0.236 NA
ATOM     14  C   UNL A   1      38.184  21.253  25.544  1.00  0.00     0.141 A 
BRANCH  10  15
ATOM     15  N   UNL A   1      41.369  19.084  27.035  1.00  0.00    -0.321 N 
ATOM     16  C   UNL A   1      42.693  18.831  26.705  1.00  0.00     0.255 C 
ATOM     17  O   UNL A   1      43.312  17.994  27.365  1.00  0.00    -0.269 OA
ATOM     18  H   UNL A   1      41.045  18.653  27.858  1.00  0.00     0.170 HD
BRANCH  16  19
ATOM     19  C   UNL A   1      43.437  19.604  25.657  1.00  0.00     0.040 A 
ATOM     20  C   UNL A   1      44.235  23.182  24.597  1.00  0.00     0.044 C 
ATOM     21  C   UNL A   1      44.232  21.680  24.640  1.00  0.00    -0.050 A 
ATOM     22  C   UNL A   1      44.802  20.947  23.596  1.00  0.00     0.003 A 
ATOM     23  C   UNL A   1      43.620  20.995  25.701  1.00  0.00     0.017 A 
ATOM     24  C   UNL A   1      44.718  19.555  23.590  1.00  0.00     0.001 A 
ATOM     25  C   UNL A   1      44.025  18.888  24.604  1.00  0.00     0.014 A 
ENDBRANCH  16  19
ENDBRANCH  10  15
BRANCH  14  26
ATOM     26  N   UNL A   1      36.954  21.801  25.260  1.00  0.00    -0.352 N 
ATOM     27  C   UNL A   1      35.800  21.476  26.108  1.00  0.00     0.139 C 
ATOM     28  C   UNL A   1      36.597  22.038  23.848  1.00  0.00     0.142 C 
ATOM     29  C   UNL A   1      34.720  22.586  25.995  1.00  0.00     0.138 C 
ATOM     30  C   UNL A   1      35.620  23.248  23.784  1.00  0.00     0.098 C 
ATOM     31  N   UNL A   1      34.401  22.886  24.578  1.00  0.00    -0.365 N 
ATOM     32  C   UNL A   1      35.375  23.641  22.331  1.00  0.00     0.033 C 
BRANCH  31  33
ATOM     33  C   UNL A   1      33.184  23.478  24.294  1.00  0.00     0.037 A 
ATOM     34  C   UNL A   1      32.206  22.727  23.628  1.00  0.00     0.026 A 
ATOM     35  C   UNL A   1      32.874  24.798  24.642  1.00  0.00     0.029 A 
ATOM     36  C   UNL A   1      30.966  23.274  23.304  1.00  0.00     0.002 A 
ATOM     37  C   UNL A   1      31.623  25.360  24.332  1.00  0.00    -0.049 A 
ATOM     38  C   UNL A   1      30.675  24.588  23.655  1.00  0.00     0.003 A 
ATOM     39  C   UNL A   1      31.327  26.782  24.706  1.00  0.00     0.044 C 
ENDBRANCH  31  33
ENDBRANCH  14  26
ENDBRANCH   6   9
ENDBRANCH   4   5
ENDBRANCH   3   4
ENDBRANCH   2   3
ENDBRANCH   1   2
BRANCH   1  40
ATOM     40  C   UNL A   1      44.064  26.345  28.784  1.00  0.00     0.021 C 
BRANCH  40  41
ATOM     41  C   UNL A   1      44.346  27.573  27.927  1.00  0.00     0.116 C 
BRANCH  41  42
ATOM     42  N   UNL A   1      44.109  27.363  26.506  1.00  0.00    -0.352 N 
ATOM     43  C   UNL A   1      43.006  27.748  25.755  1.00  0.00     0.251 C 
ATOM     44  H   UNL A   1      44.821  26.891  26.016  1.00  0.00     0.163 HD
ATOM     45  O   UNL A   1      42.894  27.482  24.585  1.00  0.00    -0.269 OA
BRANCH  43  46
ATOM     46  C   UNL A   1      42.015  28.634  26.421  1.00  0.00     0.039 A 
ATOM     47  C   UNL A   1      42.529  29.714  27.144  1.00  0.00     0.014 A 
ATOM     48  C   UNL A   1      40.684  28.248  26.554  1.00  0.00     0.014 A 
ATOM     49  C   UNL A   1      41.765  30.271  28.166  1.00  0.00     0.010 A 
ATOM     50  C   UNL A   1      39.957  28.744  27.624  1.00  0.00     0.010 A 
ATOM     51  C   UNL A   1      40.524  29.708  28.468  1.00  0.00    -0.014 A 
BRANCH  51  52
ATOM     52  C   UNL A   1      39.842  29.960  29.734  1.00  0.00     0.031 A 
ATOM     53  C   UNL A   1      38.940  31.117  29.903  1.00  0.00     0.074 A 
ATOM     54  C   UNL A   1      40.044  29.140  30.790  1.00  0.00     0.049 A 
ATOM     55  N   UNL A   1      38.730  31.710  31.029  1.00  0.00    -0.248 NA
ATOM     56  C   UNL A   1      38.229  31.727  28.788  1.00  0.00     0.031 C 
ATOM     57  C   UNL A   1      39.301  29.114  32.047  1.00  0.00     0.029 A 
ATOM     58  N   UNL A   1      41.159  28.342  31.027  1.00  0.00    -0.354 N 
ATOM     59  C   UNL A   1      37.667  32.564  30.860  1.00  0.00     0.074 A 
ATOM     60  C   UNL A   1      37.437  32.590  29.431  1.00  0.00     0.031 C 
ATOM     61  C   UNL A   1      40.081  28.575  32.997  1.00  0.00     0.029 A 
ATOM     62  C   UNL A   1      41.390  28.355  32.412  1.00  0.00     0.049 A 
ATOM     63  H   UNL A   1      41.687  27.860  30.351  1.00  0.00     0.167 HD
ATOM     64  C   UNL A   1      37.001  33.044  31.948  1.00  0.00     0.034 A 
ATOM     65  C   UNL A   1      42.574  28.789  32.932  1.00  0.00     0.034 A 
ATOM     66  C   UNL A   1      37.594  32.592  33.208  1.00  0.00     0.049 A 
ATOM     67  C   UNL A   1      42.435  29.937  33.904  1.00  0.00     0.074 A 
ATOM     68  C   UNL A   1      37.238  31.621  34.130  1.00  0.00     0.029 A 
ATOM     69  N   UNL A   1      38.878  32.999  33.552  1.00  0.00    -0.354 N 
ATOM     70  N   UNL A   1      41.362  30.663  34.050  1.00  0.00    -0.248 NA
ATOM     71  C   UNL A   1      43.527  30.384  34.759  1.00  0.00     0.031 C 
ATOM     72  C   UNL A   1      38.320  31.446  35.033  1.00  0.00     0.029 A 
ATOM     73  C   UNL A   1      39.329  32.320  34.670  1.00  0.00     0.049 A 
ATOM     74  H   UNL A   1      39.398  33.678  33.065  1.00  0.00     0.167 HD
ATOM     75  C   UNL A   1      41.599  31.674  34.954  1.00  0.00     0.074 A 
ATOM     76  C   UNL A   1      42.968  31.436  35.380  1.00  0.00     0.031 C 
ATOM     77  C   UNL A   1      40.643  32.616  35.238  1.00  0.00     0.034 A 
BRANCH  64  78
ATOM     78  C   UNL A   1      35.627  33.671  31.857  1.00  0.00     0.023 A 
ATOM     79  C   UNL A   1      35.126  34.076  30.603  1.00  0.00     0.031 A 
ATOM     80  C   UNL A   1      34.790  33.939  32.957  1.00  0.00     0.131 A 
ATOM     81  C   UNL A   1      33.932  34.811  30.490  1.00  0.00     0.055 A 
ATOM     82  C   UNL A   1      33.635  34.728  32.857  1.00  0.00     0.041 A 
ATOM     83  F   UNL A   1      35.032  33.409  34.165  1.00  0.00    -0.206 F 
ATOM     84  C   UNL A   1      33.210  35.186  31.619  1.00  0.00     0.022 A 
BRANCH  81  85
ATOM     85  S   UNL A   1      33.331  35.272  28.841  1.00  0.00     0.124 S 
ATOM     86  O   UNL A   1      32.465  36.411  29.129  1.00  0.00    -0.237 OA
ATOM     87  O   UNL A   1      34.573  35.566  28.134  1.00  0.00    -0.237 OA
ATOM     88  O   UNL A   1      32.635  34.068  28.386  1.00  0.00    -0.744 OA
ENDBRANCH  81  85
ENDBRANCH  64  78
BRANCH  65  89
ATOM     89  C   UNL A   1      43.741  28.550  32.036  1.00  0.00     0.023 A 
ATOM     90  C   UNL A   1      44.122  29.604  31.179  1.00  0.00     0.031 A 
ATOM     91  C   UNL A   1      44.669  27.527  32.271  1.00  0.00     0.131 A 
ATOM     92  C   UNL A   1      45.445  29.710  30.732  1.00  0.00     0.055 A 
ATOM     93  C   UNL A   1      45.971  27.597  31.758  1.00  0.00     0.041 A 
ATOM     94  F   UNL A   1      44.375  26.512  33.096  1.00  0.00    -0.206 F 
ATOM     95  C   UNL A   1      46.378  28.714  31.026  1.00  0.00     0.022 A 
BRANCH  92  96
ATOM     96  S   UNL A   1      46.009  31.284  30.022  1.00  0.00     0.124 S 
ATOM     97  O   UNL A   1      45.453  31.230  28.675  1.00  0.00    -0.237 OA
ATOM     98  O   UNL A   1      45.415  32.277  30.915  1.00  0.00    -0.237 OA
ATOM     99  O   UNL A   1      47.465  31.190  30.111  1.00  0.00    -0.744 OA
ENDBRANCH  92  96
ENDBRANCH  65  89
BRANCH  77 100
ATOM    100  C   UNL A   1      40.793  33.869  36.099  1.00  0.00     0.023 A 
ATOM    101  C   UNL A   1      40.849  33.872  37.500  1.00  0.00     0.031 A 
ATOM    102  C   UNL A   1      40.909  35.156  35.503  1.00  0.00     0.131 A 
ATOM    103  C   UNL A   1      40.997  35.064  38.240  1.00  0.00     0.055 A 
ATOM    104  C   UNL A   1      41.079  36.338  36.235  1.00  0.00     0.041 A 
ATOM    105  F   UNL A   1      40.874  35.332  34.175  1.00  0.00    -0.206 F 
ATOM    106  C   UNL A   1      41.123  36.299  37.616  1.00  0.00     0.022 A 
BRANCH 103 107
ATOM    107  S   UNL A   1      40.999  34.954  40.050  1.00  0.00     0.124 S 
ATOM    108  O   UNL A   1      40.112  33.820  40.288  1.00  0.00    -0.237 OA
ATOM    109  O   UNL A   1      42.410  34.725  40.344  1.00  0.00    -0.237 OA
ATOM    110  O   UNL A   1      40.478  36.251  40.477  1.00  0.00    -0.744 OA
ENDBRANCH 103 107
ENDBRANCH  77 100
ENDBRANCH  51  52
ENDBRANCH  43  46
ENDBRANCH  41  42
ENDBRANCH  40  41
ENDBRANCH   1  40
TORSDOF 20
ENDMDL
