MODEL 1
REMARK VINA RESULT:     -12.1      0.000      0.000
REMARK SMILES CCCn1ncc(C(=O)N2CCC(C(=O)NCCCCCCNC(=O)c3ccc(-c4c5nc(c(-c6cc(S(=O)(=O)[O-])ccc6F)c6ccc([nH]6)c(-c6cc(S(=O)(=O)[O-])ccc6F)c6nc(c(-c7cc(S(=O)(=O)[O-])ccc7F)c7ccc4[nH]7)C=C6)C=C5)cc3)CC2)c1C
REMARK SMILES IDX 19 1 18 2 17 3 16 4 14 5 15 6 13 8 8 9 9 10 10 11 11 12
REMARK SMILES IDX 90 13 12 14 89 15 7 16 4 17 5 18 91 19 6 20 92 21 3 22 2 23
REMARK SMILES IDX 1 24 20 25 21 26 22 27 23 28 24 29 25 31 26 32 27 33 88 34
REMARK SMILES IDX 28 35 87 36 29 37 30 38 31 39 81 40 32 41 86 42 80 43 82 44
REMARK SMILES IDX 33 45 85 46 79 47 78 48 34 50 66 51 46 52 65 53 47 54 50 55
REMARK SMILES IDX 64 56 83 57 48 58 49 59 63 61 84 62 51 63 35 64 36 65 44 66
REMARK SMILES IDX 37 67 43 68 45 69 42 70 38 71 39 72 40 73 41 74 67 75 68 76
REMARK SMILES IDX 76 77 69 78 75 79 77 80 74 81 70 82 71 83 72 84 73 85 52 86
REMARK SMILES IDX 53 87 61 88 54 89 60 90 62 91 59 92 55 93 56 94 57 95 58 96
REMARK H PARENT 16 7 23 30 82 49 50 60
REMARK Flexibility Score: inf
ROOT
ATOM      1  C   UNL A   1      32.767  27.321  26.884  1.00  0.00     0.002 C 
ENDROOT
BRANCH   1   2
ATOM      2  C   UNL A   1      32.858  26.914  25.410  1.00  0.00     0.021 C 
BRANCH   2   3
ATOM      3  C   UNL A   1      32.437  25.473  25.138  1.00  0.00     0.116 C 
BRANCH   3   4
ATOM      4  N   UNL A   1      31.271  25.096  25.923  1.00  0.00    -0.356 N 
ATOM      5  C   UNL A   1      30.945  23.917  26.520  1.00  0.00     0.223 C 
ATOM      6  O   UNL A   1      29.891  23.856  27.157  1.00  0.00    -0.275 OA
ATOM      7  H   UNL A   1      30.607  25.812  26.042  1.00  0.00     0.163 HD
BRANCH   5   8
ATOM      8  C   UNL A   1      31.874  22.715  26.451  1.00  0.00     0.082 C 
ATOM      9  C   UNL A   1      35.425  22.004  24.627  1.00  0.00     0.257 C 
ATOM     10  O   UNL A   1      35.260  22.541  23.533  1.00  0.00    -0.269 OA
ATOM     11  N   UNL A   1      34.348  21.690  25.448  1.00  0.00    -0.338 N 
ATOM     12  C   UNL A   1      33.124  21.192  24.846  1.00  0.00     0.120 C 
ATOM     13  C   UNL A   1      34.289  22.004  26.865  1.00  0.00     0.120 C 
ATOM     14  C   UNL A   1      31.965  22.153  25.025  1.00  0.00     0.035 C 
ATOM     15  C   UNL A   1      33.211  23.043  27.136  1.00  0.00     0.035 C 
BRANCH   9  16
ATOM     16  C   UNL A   1      36.735  21.534  25.071  1.00  0.00     0.080 A 
ATOM     17  N   UNL A   1      38.837  21.461  25.764  1.00  0.00    -0.269 N 
ATOM     18  N   UNL A   1      38.583  20.210  25.344  1.00  0.00    -0.180 NA
ATOM     19  C   UNL A   1      37.735  22.286  25.686  1.00  0.00     0.048 A 
ATOM     20  C   UNL A   1      37.345  20.279  24.863  1.00  0.00     0.149 A 
ATOM     21  C   UNL A   1      37.723  23.711  26.118  1.00  0.00     0.067 C 
BRANCH  17  22
ATOM     22  C   UNL A   1      40.194  21.833  26.136  1.00  0.00     0.144 C 
BRANCH  22  23
ATOM     23  C   UNL A   1      40.667  21.419  27.536  1.00  0.00     0.020 C 
ATOM     24  C   UNL A   1      41.159  19.979  27.633  1.00  0.00     0.006 C 
ENDBRANCH  22  23
ENDBRANCH  17  22
ENDBRANCH   9  16
ENDBRANCH   5   8
ENDBRANCH   3   4
ENDBRANCH   2   3
ENDBRANCH   1   2
BRANCH   1  25
ATOM     25  C   UNL A   1      32.983  28.815  27.179  1.00  0.00     0.002 C 
BRANCH  25  26
ATOM     26  C   UNL A   1      34.240  29.460  26.575  1.00  0.00     0.021 C 
BRANCH  26  27
ATOM     27  C   UNL A   1      35.513  29.118  27.325  1.00  0.00     0.116 C 
BRANCH  27  28
ATOM     28  N   UNL A   1      35.494  29.584  28.716  1.00  0.00    -0.352 N 
ATOM     29  C   UNL A   1      36.433  29.353  29.716  1.00  0.00     0.251 C 
ATOM     30  H   UNL A   1      34.717  30.131  28.975  1.00  0.00     0.163 HD
ATOM     31  O   UNL A   1      36.144  29.470  30.890  1.00  0.00    -0.269 OA
BRANCH  29  32
ATOM     32  C   UNL A   1      37.796  28.980  29.292  1.00  0.00     0.039 A 
ATOM     33  C   UNL A   1      38.438  29.521  28.174  1.00  0.00     0.014 A 
ATOM     34  C   UNL A   1      38.446  28.069  30.109  1.00  0.00     0.014 A 
ATOM     35  C   UNL A   1      39.764  29.155  27.930  1.00  0.00     0.010 A 
ATOM     36  C   UNL A   1      39.798  27.964  30.047  1.00  0.00     0.010 A 
ATOM     37  C   UNL A   1      40.426  28.368  28.880  1.00  0.00    -0.014 A 
BRANCH  37  38
ATOM     38  C   UNL A   1      41.794  27.899  28.748  1.00  0.00     0.031 A 
ATOM     39  C   UNL A   1      41.960  26.681  27.916  1.00  0.00     0.074 A 
ATOM     40  C   UNL A   1      42.816  28.734  29.055  1.00  0.00     0.049 A 
ATOM     41  N   UNL A   1      42.383  25.524  28.294  1.00  0.00    -0.248 NA
ATOM     42  C   UNL A   1      41.448  26.695  26.534  1.00  0.00     0.031 C 
ATOM     43  C   UNL A   1      42.759  30.122  29.544  1.00  0.00     0.029 A 
ATOM     44  N   UNL A   1      44.141  28.574  28.831  1.00  0.00    -0.354 N 
ATOM     45  C   UNL A   1      42.410  24.726  27.153  1.00  0.00     0.074 A 
ATOM     46  C   UNL A   1      41.620  25.422  26.176  1.00  0.00     0.031 C 
ATOM     47  C   UNL A   1      43.942  30.735  29.316  1.00  0.00     0.029 A 
ATOM     48  C   UNL A   1      44.885  29.749  28.823  1.00  0.00     0.049 A 
ATOM     49  H   UNL A   1      44.548  27.689  28.683  1.00  0.00     0.167 HD
ATOM     50  C   UNL A   1      43.268  23.670  27.049  1.00  0.00     0.034 A 
ATOM     51  C   UNL A   1      46.163  29.897  28.372  1.00  0.00     0.034 A 
ATOM     52  C   UNL A   1      43.886  23.394  28.329  1.00  0.00     0.049 A 
ATOM     53  C   UNL A   1      46.752  28.526  28.377  1.00  0.00     0.074 A 
ATOM     54  C   UNL A   1      43.401  23.042  29.574  1.00  0.00     0.029 A 
ATOM     55  N   UNL A   1      45.152  23.898  28.553  1.00  0.00    -0.354 N 
ATOM     56  N   UNL A   1      46.910  27.827  29.475  1.00  0.00    -0.248 NA
ATOM     57  C   UNL A   1      46.634  27.730  27.160  1.00  0.00     0.031 C 
ATOM     58  C   UNL A   1      44.147  23.845  30.487  1.00  0.00     0.029 A 
ATOM     59  C   UNL A   1      45.118  24.547  29.766  1.00  0.00     0.049 A 
ATOM     60  H   UNL A   1      45.931  23.810  27.958  1.00  0.00     0.167 HD
ATOM     61  C   UNL A   1      46.486  26.542  29.158  1.00  0.00     0.074 A 
ATOM     62  C   UNL A   1      46.403  26.525  27.695  1.00  0.00     0.031 C 
ATOM     63  C   UNL A   1      45.928  25.712  30.094  1.00  0.00     0.034 A 
BRANCH  50  64
ATOM     64  C   UNL A   1      43.819  23.083  25.770  1.00  0.00     0.023 A 
ATOM     65  C   UNL A   1      43.751  21.682  25.629  1.00  0.00     0.031 A 
ATOM     66  C   UNL A   1      44.625  23.751  24.822  1.00  0.00     0.131 A 
ATOM     67  C   UNL A   1      44.531  21.006  24.676  1.00  0.00     0.055 A 
ATOM     68  C   UNL A   1      45.347  23.079  23.829  1.00  0.00     0.041 A 
ATOM     69  F   UNL A   1      44.837  25.070  24.850  1.00  0.00    -0.206 F 
ATOM     70  C   UNL A   1      45.331  21.697  23.773  1.00  0.00     0.022 A 
BRANCH  67  71
ATOM     71  S   UNL A   1      44.620  19.199  24.765  1.00  0.00     0.124 S 
ATOM     72  O   UNL A   1      44.902  18.848  23.377  1.00  0.00    -0.237 OA
ATOM     73  O   UNL A   1      45.709  18.999  25.715  1.00  0.00    -0.237 OA
ATOM     74  O   UNL A   1      43.294  18.820  25.246  1.00  0.00    -0.744 OA
ENDBRANCH  67  71
ENDBRANCH  50  64
BRANCH  51  75
ATOM     75  C   UNL A   1      46.682  31.064  27.586  1.00  0.00     0.023 A 
ATOM     76  C   UNL A   1      45.864  32.063  27.008  1.00  0.00     0.031 A 
ATOM     77  C   UNL A   1      48.077  31.312  27.557  1.00  0.00     0.131 A 
ATOM     78  C   UNL A   1      46.448  33.220  26.423  1.00  0.00     0.055 A 
ATOM     79  C   UNL A   1      48.646  32.449  26.975  1.00  0.00     0.041 A 
ATOM     80  F   UNL A   1      48.944  30.487  28.168  1.00  0.00    -0.206 F 
ATOM     81  C   UNL A   1      47.831  33.411  26.408  1.00  0.00     0.022 A 
BRANCH  78  82
ATOM     82  S   UNL A   1      45.408  34.551  25.726  1.00  0.00     0.124 S 
ATOM     83  O   UNL A   1      45.126  34.056  24.384  1.00  0.00    -0.237 OA
ATOM     84  O   UNL A   1      44.285  34.591  26.654  1.00  0.00    -0.237 OA
ATOM     85  O   UNL A   1      46.279  35.728  25.772  1.00  0.00    -0.744 OA
ENDBRANCH  78  82
ENDBRANCH  51  75
BRANCH  63  86
ATOM     86  C   UNL A   1      45.944  26.120  31.562  1.00  0.00     0.023 A 
ATOM     87  C   UNL A   1      44.836  26.638  32.276  1.00  0.00     0.031 A 
ATOM     88  C   UNL A   1      47.091  25.787  32.305  1.00  0.00     0.131 A 
ATOM     89  C   UNL A   1      44.909  26.797  33.678  1.00  0.00     0.055 A 
ATOM     90  C   UNL A   1      47.149  25.922  33.691  1.00  0.00     0.041 A 
ATOM     91  F   UNL A   1      48.169  25.267  31.694  1.00  0.00    -0.206 F 
ATOM     92  C   UNL A   1      46.057  26.430  34.384  1.00  0.00     0.022 A 
BRANCH  89  93
ATOM     93  S   UNL A   1      43.509  27.499  34.616  1.00  0.00     0.124 S 
ATOM     94  O   UNL A   1      44.030  28.770  35.103  1.00  0.00    -0.237 OA
ATOM     95  O   UNL A   1      42.459  27.582  33.605  1.00  0.00    -0.237 OA
ATOM     96  O   UNL A   1      43.267  26.501  35.661  1.00  0.00    -0.744 OA
ENDBRANCH  89  93
ENDBRANCH  63  86
ENDBRANCH  37  38
ENDBRANCH  29  32
ENDBRANCH  27  28
ENDBRANCH  26  27
ENDBRANCH  25  26
ENDBRANCH   1  25
TORSDOF 19
ENDMDL
MODEL 2
REMARK VINA RESULT:     -11.8      1.560      2.697
REMARK SMILES CCCn1ncc(C(=O)N2CCC(C(=O)NCCCCCCNC(=O)c3ccc(-c4c5nc(c(-c6cc(S(=O)(=O)[O-])ccc6F)c6ccc([nH]6)c(-c6cc(S(=O)(=O)[O-])ccc6F)c6nc(c(-c7cc(S(=O)(=O)[O-])ccc7F)c7ccc4[nH]7)C=C6)C=C5)cc3)CC2)c1C
REMARK SMILES IDX 19 1 18 2 17 3 16 4 14 5 15 6 13 8 8 9 9 10 10 11 11 12
REMARK SMILES IDX 90 13 12 14 89 15 7 16 4 17 5 18 91 19 6 20 92 21 3 22 2 23
REMARK SMILES IDX 1 24 20 25 21 26 22 27 23 28 24 29 25 31 26 32 27 33 88 34
REMARK SMILES IDX 28 35 87 36 29 37 30 38 31 39 81 40 32 41 86 42 80 43 82 44
REMARK SMILES IDX 33 45 85 46 79 47 78 48 34 50 66 51 46 52 65 53 47 54 50 55
REMARK SMILES IDX 64 56 83 57 48 58 49 59 63 61 84 62 51 63 35 64 36 65 44 66
REMARK SMILES IDX 37 67 43 68 45 69 42 70 38 71 39 72 40 73 41 74 67 75 68 76
REMARK SMILES IDX 76 77 69 78 75 79 77 80 74 81 70 82 71 83 72 84 73 85 52 86
REMARK SMILES IDX 53 87 61 88 54 89 60 90 62 91 59 92 55 93 56 94 57 95 58 96
REMARK H PARENT 16 7 23 30 82 49 50 60
REMARK Flexibility Score: inf
ROOT
ATOM      1  C   UNL A   1      31.762  29.536  26.952  1.00  0.00     0.002 C 
ENDROOT
BRANCH   1   2
ATOM      2  C   UNL A   1      31.362  30.352  25.719  1.00  0.00     0.021 C 
BRANCH   2   3
ATOM      3  C   UNL A   1      31.323  29.544  24.426  1.00  0.00     0.116 C 
BRANCH   3   4
ATOM      4  N   UNL A   1      32.629  29.492  23.784  1.00  0.00    -0.356 N 
ATOM      5  C   UNL A   1      33.329  28.440  23.279  1.00  0.00     0.223 C 
ATOM      6  O   UNL A   1      34.425  28.664  22.759  1.00  0.00    -0.275 OA
ATOM      7  H   UNL A   1      33.081  30.362  23.703  1.00  0.00     0.163 HD
BRANCH   5   8
ATOM      8  C   UNL A   1      32.762  27.030  23.306  1.00  0.00     0.082 C 
ATOM      9  C   UNL A   1      34.421  23.330  23.319  1.00  0.00     0.257 C 
ATOM     10  O   UNL A   1      35.335  23.459  22.507  1.00  0.00    -0.269 OA
ATOM     11  N   UNL A   1      33.368  24.236  23.373  1.00  0.00    -0.338 N 
ATOM     12  C   UNL A   1      32.839  24.776  22.134  1.00  0.00     0.120 C 
ATOM     13  C   UNL A   1      32.875  24.835  24.601  1.00  0.00     0.120 C 
ATOM     14  C   UNL A   1      33.078  26.268  22.010  1.00  0.00     0.035 C 
ATOM     15  C   UNL A   1      33.157  26.329  24.617  1.00  0.00     0.035 C 
BRANCH   9  16
ATOM     16  C   UNL A   1      34.305  22.152  24.177  1.00  0.00     0.080 A 
ATOM     17  N   UNL A   1      33.551  20.332  25.186  1.00  0.00    -0.269 N 
ATOM     18  N   UNL A   1      34.591  20.723  25.942  1.00  0.00    -0.180 NA
ATOM     19  C   UNL A   1      33.376  21.120  24.069  1.00  0.00     0.048 A 
ATOM     20  C   UNL A   1      34.993  21.855  25.372  1.00  0.00     0.149 A 
ATOM     21  C   UNL A   1      32.323  20.892  23.040  1.00  0.00     0.067 C 
BRANCH  17  22
ATOM     22  C   UNL A   1      32.695  19.249  25.646  1.00  0.00     0.144 C 
BRANCH  22  23
ATOM     23  C   UNL A   1      32.724  17.949  24.831  1.00  0.00     0.020 C 
ATOM     24  C   UNL A   1      34.125  17.439  24.510  1.00  0.00     0.006 C 
ENDBRANCH  22  23
ENDBRANCH  17  22
ENDBRANCH   9  16
ENDBRANCH   5   8
ENDBRANCH   3   4
ENDBRANCH   2   3
ENDBRANCH   1   2
BRANCH   1  25
ATOM     25  C   UNL A   1      33.164  29.819  27.515  1.00  0.00     0.002 C 
BRANCH  25  26
ATOM     26  C   UNL A   1      34.326  29.022  26.902  1.00  0.00     0.021 C 
BRANCH  26  27
ATOM     27  C   UNL A   1      35.682  29.400  27.466  1.00  0.00     0.116 C 
BRANCH  27  28
ATOM     28  N   UNL A   1      35.627  29.741  28.892  1.00  0.00    -0.352 N 
ATOM     29  C   UNL A   1      36.523  29.393  29.897  1.00  0.00     0.251 C 
ATOM     30  H   UNL A   1      34.858  30.288  29.173  1.00  0.00     0.163 HD
ATOM     31  O   UNL A   1      36.196  29.415  31.068  1.00  0.00    -0.269 OA
BRANCH  29  32
ATOM     32  C   UNL A   1      37.888  29.013  29.486  1.00  0.00     0.039 A 
ATOM     33  C   UNL A   1      38.602  29.658  28.471  1.00  0.00     0.014 A 
ATOM     34  C   UNL A   1      38.464  27.982  30.210  1.00  0.00     0.014 A 
ATOM     35  C   UNL A   1      39.922  29.266  28.238  1.00  0.00     0.010 A 
ATOM     36  C   UNL A   1      39.812  27.825  30.190  1.00  0.00     0.010 A 
ATOM     37  C   UNL A   1      40.509  28.340  29.110  1.00  0.00    -0.014 A 
BRANCH  37  38
ATOM     38  C   UNL A   1      41.862  27.830  28.976  1.00  0.00     0.031 A 
ATOM     39  C   UNL A   1      41.994  26.622  28.125  1.00  0.00     0.074 A 
ATOM     40  C   UNL A   1      42.908  28.627  29.302  1.00  0.00     0.049 A 
ATOM     41  N   UNL A   1      42.378  25.446  28.486  1.00  0.00    -0.248 NA
ATOM     42  C   UNL A   1      41.490  26.675  26.741  1.00  0.00     0.031 C 
ATOM     43  C   UNL A   1      42.892  30.008  29.814  1.00  0.00     0.029 A 
ATOM     44  N   UNL A   1      44.228  28.429  29.081  1.00  0.00    -0.354 N 
ATOM     45  C   UNL A   1      42.387  24.666  27.332  1.00  0.00     0.074 A 
ATOM     46  C   UNL A   1      41.623  25.402  26.362  1.00  0.00     0.031 C 
ATOM     47  C   UNL A   1      44.095  30.587  29.602  1.00  0.00     0.029 A 
ATOM     48  C   UNL A   1      45.010  29.580  29.096  1.00  0.00     0.049 A 
ATOM     49  H   UNL A   1      44.608  27.534  28.921  1.00  0.00     0.167 HD
ATOM     50  C   UNL A   1      43.211  23.586  27.215  1.00  0.00     0.034 A 
ATOM     51  C   UNL A   1      46.294  29.696  28.655  1.00  0.00     0.034 A 
ATOM     52  C   UNL A   1      43.813  23.269  28.492  1.00  0.00     0.049 A 
ATOM     53  C   UNL A   1      46.839  28.306  28.640  1.00  0.00     0.074 A 
ATOM     54  C   UNL A   1      43.310  22.912  29.728  1.00  0.00     0.029 A 
ATOM     55  N   UNL A   1      45.093  23.729  28.731  1.00  0.00    -0.354 N 
ATOM     56  N   UNL A   1      46.969  27.584  29.726  1.00  0.00    -0.248 NA
ATOM     57  C   UNL A   1      46.703  27.535  27.409  1.00  0.00     0.031 C 
ATOM     58  C   UNL A   1      44.077  23.675  30.658  1.00  0.00     0.029 A 
ATOM     59  C   UNL A   1      45.074  24.358  29.955  1.00  0.00     0.049 A 
ATOM     60  H   UNL A   1      45.872  23.626  28.138  1.00  0.00     0.167 HD
ATOM     61  C   UNL A   1      46.507  26.319  29.387  1.00  0.00     0.074 A 
ATOM     62  C   UNL A   1      46.431  26.328  27.923  1.00  0.00     0.031 C 
ATOM     63  C   UNL A   1      45.917  25.491  30.306  1.00  0.00     0.034 A 
BRANCH  50  64
ATOM     64  C   UNL A   1      43.751  23.003  25.928  1.00  0.00     0.023 A 
ATOM     65  C   UNL A   1      43.745  21.598  25.812  1.00  0.00     0.031 A 
ATOM     66  C   UNL A   1      44.493  23.691  24.944  1.00  0.00     0.131 A 
ATOM     67  C   UNL A   1      44.528  20.942  24.847  1.00  0.00     0.055 A 
ATOM     68  C   UNL A   1      45.216  23.037  23.940  1.00  0.00     0.041 A 
ATOM     69  F   UNL A   1      44.642  25.019  24.944  1.00  0.00    -0.206 F 
ATOM     70  C   UNL A   1      45.265  21.654  23.908  1.00  0.00     0.022 A 
BRANCH  67  71
ATOM     71  S   UNL A   1      44.707  19.144  24.963  1.00  0.00     0.124 S 
ATOM     72  O   UNL A   1      44.780  18.762  23.556  1.00  0.00    -0.237 OA
ATOM     73  O   UNL A   1      45.941  19.014  25.731  1.00  0.00    -0.237 OA
ATOM     74  O   UNL A   1      43.492  18.728  25.659  1.00  0.00    -0.744 OA
ENDBRANCH  67  71
ENDBRANCH  50  64
BRANCH  51  75
ATOM     75  C   UNL A   1      46.853  30.858  27.891  1.00  0.00     0.023 A 
ATOM     76  C   UNL A   1      46.080  31.737  27.098  1.00  0.00     0.031 A 
ATOM     77  C   UNL A   1      48.203  31.237  28.099  1.00  0.00     0.131 A 
ATOM     78  C   UNL A   1      46.665  32.909  26.544  1.00  0.00     0.055 A 
ATOM     79  C   UNL A   1      48.776  32.386  27.547  1.00  0.00     0.041 A 
ATOM     80  F   UNL A   1      49.004  30.537  28.920  1.00  0.00    -0.206 F 
ATOM     81  C   UNL A   1      48.006  33.231  26.768  1.00  0.00     0.022 A 
BRANCH  78  82
ATOM     82  S   UNL A   1      45.670  34.090  25.568  1.00  0.00     0.124 S 
ATOM     83  O   UNL A   1      44.814  33.206  24.786  1.00  0.00    -0.237 OA
ATOM     84  O   UNL A   1      45.015  34.880  26.604  1.00  0.00    -0.237 OA
ATOM     85  O   UNL A   1      46.671  34.820  24.786  1.00  0.00    -0.744 OA
ENDBRANCH  78  82
ENDBRANCH  51  75
BRANCH  63  86
ATOM     86  C   UNL A   1      45.938  25.875  31.780  1.00  0.00     0.023 A 
ATOM     87  C   UNL A   1      44.815  26.304  32.527  1.00  0.00     0.031 A 
ATOM     88  C   UNL A   1      47.122  25.608  32.493  1.00  0.00     0.131 A 
ATOM     89  C   UNL A   1      44.907  26.444  33.929  1.00  0.00     0.055 A 
ATOM     90  C   UNL A   1      47.201  25.723  33.880  1.00  0.00     0.041 A 
ATOM     91  F   UNL A   1      48.218  25.173  31.849  1.00  0.00    -0.206 F 
ATOM     92  C   UNL A   1      46.094  26.144  34.604  1.00  0.00     0.022 A 
BRANCH  89  93
ATOM     93  S   UNL A   1      43.485  27.033  34.910  1.00  0.00     0.124 S 
ATOM     94  O   UNL A   1      42.758  25.809  35.224  1.00  0.00    -0.237 OA
ATOM     95  O   UNL A   1      44.130  27.703  36.035  1.00  0.00    -0.237 OA
ATOM     96  O   UNL A   1      42.788  27.933  33.988  1.00  0.00    -0.744 OA
ENDBRANCH  89  93
ENDBRANCH  63  86
ENDBRANCH  37  38
ENDBRANCH  29  32
ENDBRANCH  27  28
ENDBRANCH  26  27
ENDBRANCH  25  26
ENDBRANCH   1  25
TORSDOF 19
ENDMDL
MODEL 3
REMARK VINA RESULT:     -11.5      3.103      9.097
REMARK SMILES CCCn1ncc(C(=O)N2CCC(C(=O)NCCCCCCNC(=O)c3ccc(-c4c5nc(c(-c6cc(S(=O)(=O)[O-])ccc6F)c6ccc([nH]6)c(-c6cc(S(=O)(=O)[O-])ccc6F)c6nc(c(-c7cc(S(=O)(=O)[O-])ccc7F)c7ccc4[nH]7)C=C6)C=C5)cc3)CC2)c1C
REMARK SMILES IDX 19 1 18 2 17 3 16 4 14 5 15 6 13 8 8 9 9 10 10 11 11 12
REMARK SMILES IDX 90 13 12 14 89 15 7 16 4 17 5 18 91 19 6 20 92 21 3 22 2 23
REMARK SMILES IDX 1 24 20 25 21 26 22 27 23 28 24 29 25 31 26 32 27 33 88 34
REMARK SMILES IDX 28 35 87 36 29 37 30 38 31 39 81 40 32 41 86 42 80 43 82 44
REMARK SMILES IDX 33 45 85 46 79 47 78 48 34 50 66 51 46 52 65 53 47 54 50 55
REMARK SMILES IDX 64 56 83 57 48 58 49 59 63 61 84 62 51 63 35 64 36 65 44 66
REMARK SMILES IDX 37 67 43 68 45 69 42 70 38 71 39 72 40 73 41 74 67 75 68 76
REMARK SMILES IDX 76 77 69 78 75 79 77 80 74 81 70 82 71 83 72 84 73 85 52 86
REMARK SMILES IDX 53 87 61 88 54 89 60 90 62 91 59 92 55 93 56 94 57 95 58 96
REMARK H PARENT 16 7 23 30 82 49 50 60
REMARK Flexibility Score: inf
ROOT
ATOM      1  C   UNL A   1      36.000  21.382  25.296  1.00  0.00     0.002 C 
ENDROOT
BRANCH   1   2
ATOM      2  C   UNL A   1      35.768  22.340  24.124  1.00  0.00     0.021 C 
BRANCH   2   3
ATOM      3  C   UNL A   1      34.298  22.553  23.778  1.00  0.00     0.116 C 
BRANCH   3   4
ATOM      4  N   UNL A   1      33.461  21.487  24.310  1.00  0.00    -0.356 N 
ATOM      5  C   UNL A   1      32.293  21.539  25.007  1.00  0.00     0.223 C 
ATOM      6  O   UNL A   1      31.759  20.476  25.333  1.00  0.00    -0.275 OA
ATOM      7  H   UNL A   1      33.795  20.578  24.138  1.00  0.00     0.163 HD
BRANCH   5   8
ATOM      8  C   UNL A   1      31.631  22.867  25.338  1.00  0.00     0.082 C 
ATOM      9  C   UNL A   1      32.274  26.699  24.179  1.00  0.00     0.257 C 
ATOM     10  O   UNL A   1      33.501  26.765  24.189  1.00  0.00    -0.269 OA
ATOM     11  N   UNL A   1      31.598  25.684  24.846  1.00  0.00    -0.338 N 
ATOM     12  C   UNL A   1      32.093  25.236  26.135  1.00  0.00     0.120 C 
ATOM     13  C   UNL A   1      30.528  24.897  24.257  1.00  0.00     0.120 C 
ATOM     14  C   UNL A   1      32.587  23.803  26.093  1.00  0.00     0.035 C 
ATOM     15  C   UNL A   1      30.964  23.450  24.081  1.00  0.00     0.035 C 
BRANCH   9  16
ATOM     16  C   UNL A   1      31.445  27.751  23.592  1.00  0.00     0.080 A 
ATOM     17  N   UNL A   1      30.191  29.554  23.317  1.00  0.00    -0.269 N 
ATOM     18  N   UNL A   1      29.981  28.831  22.203  1.00  0.00    -0.180 NA
ATOM     19  C   UNL A   1      31.119  28.981  24.159  1.00  0.00     0.048 A 
ATOM     20  C   UNL A   1      30.679  27.719  22.408  1.00  0.00     0.149 A 
ATOM     21  C   UNL A   1      31.569  29.585  25.445  1.00  0.00     0.067 C 
BRANCH  17  22
ATOM     22  C   UNL A   1      29.389  30.743  23.564  1.00  0.00     0.144 C 
BRANCH  22  23
ATOM     23  C   UNL A   1      28.001  30.790  22.912  1.00  0.00     0.020 C 
ATOM     24  C   UNL A   1      27.896  31.741  21.724  1.00  0.00     0.006 C 
ENDBRANCH  22  23
ENDBRANCH  17  22
ENDBRANCH   9  16
ENDBRANCH   5   8
ENDBRANCH   3   4
ENDBRANCH   2   3
ENDBRANCH   1   2
BRANCH   1  25
ATOM     25  C   UNL A   1      36.240  19.910  24.919  1.00  0.00     0.002 C 
BRANCH  25  26
ATOM     26  C   UNL A   1      37.694  19.502  24.636  1.00  0.00     0.021 C 
BRANCH  26  27
ATOM     27  C   UNL A   1      38.647  19.839  25.767  1.00  0.00     0.116 C 
BRANCH  27  28
ATOM     28  N   UNL A   1      39.917  19.110  25.675  1.00  0.00    -0.352 N 
ATOM     29  C   UNL A   1      41.207  19.599  25.849  1.00  0.00     0.251 C 
ATOM     30  H   UNL A   1      39.846  18.151  25.464  1.00  0.00     0.163 HD
ATOM     31  O   UNL A   1      42.170  19.009  25.400  1.00  0.00    -0.269 OA
BRANCH  29  32
ATOM     32  C   UNL A   1      41.360  20.850  26.616  1.00  0.00     0.039 A 
ATOM     33  C   UNL A   1      41.194  20.937  28.002  1.00  0.00     0.014 A 
ATOM     34  C   UNL A   1      41.731  21.961  25.877  1.00  0.00     0.014 A 
ATOM     35  C   UNL A   1      41.458  22.160  28.624  1.00  0.00     0.010 A 
ATOM     36  C   UNL A   1      42.274  23.032  26.509  1.00  0.00     0.010 A 
ATOM     37  C   UNL A   1      41.994  23.200  27.856  1.00  0.00    -0.014 A 
BRANCH  37  38
ATOM     38  C   UNL A   1      42.297  24.525  28.366  1.00  0.00     0.031 A 
ATOM     39  C   UNL A   1      41.230  25.535  28.157  1.00  0.00     0.074 A 
ATOM     40  C   UNL A   1      43.299  24.679  29.264  1.00  0.00     0.049 A 
ATOM     41  N   UNL A   1      41.291  26.605  27.441  1.00  0.00    -0.248 NA
ATOM     42  C   UNL A   1      39.878  25.251  28.671  1.00  0.00     0.031 C 
ATOM     43  C   UNL A   1      44.195  23.657  29.832  1.00  0.00     0.029 A 
ATOM     44  N   UNL A   1      43.623  25.769  29.998  1.00  0.00    -0.354 N 
ATOM     45  C   UNL A   1      40.066  27.250  27.596  1.00  0.00     0.074 A 
ATOM     46  C   UNL A   1      39.182  26.269  28.162  1.00  0.00     0.031 C 
ATOM     47  C   UNL A   1      44.743  24.117  30.979  1.00  0.00     0.029 A 
ATOM     48  C   UNL A   1      44.374  25.511  31.140  1.00  0.00     0.049 A 
ATOM     49  H   UNL A   1      43.346  26.679  29.741  1.00  0.00     0.167 HD
ATOM     50  C   UNL A   1      39.955  28.601  27.448  1.00  0.00     0.034 A 
ATOM     51  C   UNL A   1      44.606  26.372  32.170  1.00  0.00     0.034 A 
ATOM     52  C   UNL A   1      41.170  29.149  26.882  1.00  0.00     0.049 A 
ATOM     53  C   UNL A   1      44.352  27.736  31.618  1.00  0.00     0.074 A 
ATOM     54  C   UNL A   1      41.855  28.947  25.700  1.00  0.00     0.029 A 
ATOM     55  N   UNL A   1      42.086  29.712  27.750  1.00  0.00    -0.354 N 
ATOM     56  N   UNL A   1      45.062  28.249  30.644  1.00  0.00    -0.248 NA
ATOM     57  C   UNL A   1      43.004  28.279  31.740  1.00  0.00     0.031 C 
ATOM     58  C   UNL A   1      43.225  28.879  26.089  1.00  0.00     0.029 A 
ATOM     59  C   UNL A   1      43.311  29.159  27.456  1.00  0.00     0.049 A 
ATOM     60  H   UNL A   1      41.897  30.381  28.446  1.00  0.00     0.167 HD
ATOM     61  C   UNL A   1      44.141  28.839  29.786  1.00  0.00     0.074 A 
ATOM     62  C   UNL A   1      42.895  28.894  30.556  1.00  0.00     0.031 C 
ATOM     63  C   UNL A   1      44.363  28.931  28.437  1.00  0.00     0.034 A 
BRANCH  50  64
ATOM     64  C   UNL A   1      38.920  29.494  28.094  1.00  0.00     0.023 A 
ATOM     65  C   UNL A   1      39.022  29.683  29.488  1.00  0.00     0.031 A 
ATOM     66  C   UNL A   1      37.719  29.945  27.506  1.00  0.00     0.131 A 
ATOM     67  C   UNL A   1      37.943  30.182  30.237  1.00  0.00     0.055 A 
ATOM     68  C   UNL A   1      36.673  30.507  28.246  1.00  0.00     0.041 A 
ATOM     69  F   UNL A   1      37.444  29.791  26.207  1.00  0.00    -0.206 F 
ATOM     70  C   UNL A   1      36.766  30.596  29.624  1.00  0.00     0.022 A 
BRANCH  67  71
ATOM     71  S   UNL A   1      38.043  30.105  32.044  1.00  0.00     0.124 S 
ATOM     72  O   UNL A   1      36.989  29.145  32.358  1.00  0.00    -0.237 OA
ATOM     73  O   UNL A   1      39.413  29.648  32.248  1.00  0.00    -0.237 OA
ATOM     74  O   UNL A   1      37.776  31.481  32.455  1.00  0.00    -0.744 OA
ENDBRANCH  67  71
ENDBRANCH  50  64
BRANCH  51  75
ATOM     75  C   UNL A   1      44.617  26.012  33.625  1.00  0.00     0.023 A 
ATOM     76  C   UNL A   1      43.532  26.224  34.507  1.00  0.00     0.031 A 
ATOM     77  C   UNL A   1      45.691  25.243  34.139  1.00  0.00     0.131 A 
ATOM     78  C   UNL A   1      43.567  25.701  35.829  1.00  0.00     0.055 A 
ATOM     79  C   UNL A   1      45.723  24.736  35.442  1.00  0.00     0.041 A 
ATOM     80  F   UNL A   1      46.727  24.887  33.362  1.00  0.00    -0.206 F 
ATOM     81  C   UNL A   1      44.656  24.961  36.293  1.00  0.00     0.022 A 
BRANCH  78  82
ATOM     82  S   UNL A   1      42.150  25.911  36.964  1.00  0.00     0.124 S 
ATOM     83  O   UNL A   1      42.786  26.452  38.160  1.00  0.00    -0.237 OA
ATOM     84  O   UNL A   1      41.285  26.820  36.221  1.00  0.00    -0.237 OA
ATOM     85  O   UNL A   1      41.624  24.553  37.113  1.00  0.00    -0.744 OA
ENDBRANCH  78  82
ENDBRANCH  51  75
BRANCH  63  86
ATOM     86  C   UNL A   1      45.729  28.560  27.876  1.00  0.00     0.023 A 
ATOM     87  C   UNL A   1      46.054  27.321  27.274  1.00  0.00     0.031 A 
ATOM     88  C   UNL A   1      46.683  29.590  27.786  1.00  0.00     0.131 A 
ATOM     89  C   UNL A   1      47.291  27.157  26.612  1.00  0.00     0.055 A 
ATOM     90  C   UNL A   1      47.892  29.432  27.110  1.00  0.00     0.041 A 
ATOM     91  F   UNL A   1      46.429  30.800  28.313  1.00  0.00    -0.206 F 
ATOM     92  C   UNL A   1      48.202  28.213  26.521  1.00  0.00     0.022 A 
BRANCH  89  93
ATOM     93  S   UNL A   1      47.750  25.557  25.862  1.00  0.00     0.124 S 
ATOM     94  O   UNL A   1      46.832  25.434  24.736  1.00  0.00    -0.237 OA
ATOM     95  O   UNL A   1      49.156  25.757  25.524  1.00  0.00    -0.237 OA
ATOM     96  O   UNL A   1      47.517  24.597  26.943  1.00  0.00    -0.744 OA
ENDBRANCH  89  93
ENDBRANCH  63  86
ENDBRANCH  37  38
ENDBRANCH  29  32
ENDBRANCH  27  28
ENDBRANCH  26  27
ENDBRANCH  25  26
ENDBRANCH   1  25
TORSDOF 19
ENDMDL
