MODEL 1
REMARK VINA RESULT:     -12.3      0.000      0.000
REMARK SMILES CC(=O)Nc1cccc(-c2ccc(F)c(C(=O)NCCCCCCNC(=O)c3ccc(-c4c5nc(c(-c6cc(S(=O)(=O)[O-])ccc6F)c6ccc([nH]6)c(-c6cc(S(=O)(=O)[O-])ccc6F)c6nc(c(-c7cc(S(=O)(=O)[O-])ccc7F)c7ccc4[nH]7)C=C6)C=C5)cc3)c2)c1
REMARK SMILES IDX 22 1 21 2 20 3 19 4 18 5 16 6 17 7 15 9 10 10 11 11 91 12
REMARK SMILES IDX 12 13 13 14 14 15 9 16 5 17 6 18 92 19 7 20 8 21 4 22 1 23
REMARK SMILES IDX 2 24 3 25 23 27 24 28 25 29 26 30 27 32 28 33 29 34 90 35
REMARK SMILES IDX 30 36 89 37 31 38 32 39 33 40 83 41 34 42 88 43 82 44 84 45
REMARK SMILES IDX 35 46 87 47 81 48 80 49 36 51 68 52 48 53 67 54 49 55 52 56
REMARK SMILES IDX 66 57 85 58 50 59 51 60 65 62 86 63 53 64 37 65 38 66 46 67
REMARK SMILES IDX 39 68 45 69 47 70 44 71 40 72 41 73 42 74 43 75 69 76 70 77
REMARK SMILES IDX 78 78 71 79 77 80 79 81 76 82 72 83 73 84 74 85 75 86 54 87
REMARK SMILES IDX 55 88 63 89 56 90 62 91 64 92 61 93 57 94 58 95 59 96 60 97
REMARK H PARENT 18 8 4 26 25 31 84 50 52 61
REMARK Flexibility Score: inf
ROOT
ATOM      1  C   UNL A   1      31.724  28.747  26.746  1.00  0.00     0.002 C 
ENDROOT
BRANCH   1   2
ATOM      2  C   UNL A   1      31.145  27.349  26.509  1.00  0.00     0.002 C 
BRANCH   2   3
ATOM      3  C   UNL A   1      30.794  26.995  25.066  1.00  0.00     0.021 C 
BRANCH   3   4
ATOM      4  C   UNL A   1      30.040  25.690  24.845  1.00  0.00     0.116 C 
BRANCH   4   5
ATOM      5  N   UNL A   1      29.945  24.833  26.019  1.00  0.00    -0.352 N 
ATOM      6  C   UNL A   1      30.743  23.803  26.482  1.00  0.00     0.254 C 
ATOM      7  O   UNL A   1      30.436  23.275  27.550  1.00  0.00    -0.269 OA
ATOM      8  H   UNL A   1      29.165  25.021  26.589  1.00  0.00     0.163 HD
BRANCH   6   9
ATOM      9  C   UNL A   1      31.925  23.305  25.726  1.00  0.00     0.076 A 
ATOM     10  C   UNL A   1      33.017  21.525  24.440  1.00  0.00    -0.017 A 
ATOM     11  C   UNL A   1      34.237  22.196  24.572  1.00  0.00     0.012 A 
ATOM     12  C   UNL A   1      31.861  22.164  24.925  1.00  0.00     0.025 A 
ATOM     13  C   UNL A   1      34.297  23.427  25.232  1.00  0.00     0.041 A 
ATOM     14  C   UNL A   1      33.154  23.956  25.835  1.00  0.00     0.135 A 
ATOM     15  F   UNL A   1      33.290  25.085  26.544  1.00  0.00    -0.206 F 
BRANCH  10  16
ATOM     16  C   UNL A   1      32.913  20.132  23.959  1.00  0.00    -0.016 A 
ATOM     17  C   UNL A   1      33.845  17.866  23.872  1.00  0.00     0.041 A 
ATOM     18  C   UNL A   1      33.069  17.598  22.743  1.00  0.00     0.026 A 
ATOM     19  C   UNL A   1      33.761  19.129  24.463  1.00  0.00     0.034 A 
ATOM     20  C   UNL A   1      32.183  18.556  22.251  1.00  0.00     0.003 A 
ATOM     21  C   UNL A   1      32.103  19.812  22.856  1.00  0.00     0.009 A 
BRANCH  17  22
ATOM     22  N   UNL A   1      34.750  16.877  24.292  1.00  0.00    -0.326 N 
ATOM     23  C   UNL A   1      33.213  15.245  25.384  1.00  0.00     0.114 C 
ATOM     24  C   UNL A   1      34.587  15.779  25.089  1.00  0.00     0.221 C 
ATOM     25  O   UNL A   1      35.584  15.201  25.524  1.00  0.00    -0.275 OA
ATOM     26  H   UNL A   1      35.666  16.996  23.951  1.00  0.00     0.169 HD
ENDBRANCH  17  22
ENDBRANCH  10  16
ENDBRANCH   6   9
ENDBRANCH   4   5
ENDBRANCH   3   4
ENDBRANCH   2   3
ENDBRANCH   1   2
BRANCH   1  27
ATOM     27  C   UNL A   1      33.165  28.811  27.256  1.00  0.00     0.021 C 
BRANCH  27  28
ATOM     28  C   UNL A   1      34.015  29.954  26.708  1.00  0.00     0.116 C 
BRANCH  28  29
ATOM     29  N   UNL A   1      33.873  31.175  27.482  1.00  0.00    -0.352 N 
ATOM     30  C   UNL A   1      34.630  31.642  28.530  1.00  0.00     0.251 C 
ATOM     31  H   UNL A   1      33.123  31.755  27.217  1.00  0.00     0.163 HD
ATOM     32  O   UNL A   1      34.241  32.611  29.172  1.00  0.00    -0.269 OA
BRANCH  30  33
ATOM     33  C   UNL A   1      35.895  30.964  28.896  1.00  0.00     0.039 A 
ATOM     34  C   UNL A   1      37.091  31.419  28.333  1.00  0.00     0.014 A 
ATOM     35  C   UNL A   1      35.907  29.878  29.777  1.00  0.00     0.014 A 
ATOM     36  C   UNL A   1      38.300  30.824  28.698  1.00  0.00     0.010 A 
ATOM     37  C   UNL A   1      37.121  29.338  30.199  1.00  0.00     0.010 A 
ATOM     38  C   UNL A   1      38.331  29.803  29.661  1.00  0.00    -0.014 A 
BRANCH  38  39
ATOM     39  C   UNL A   1      39.620  29.213  30.113  1.00  0.00     0.031 A 
ATOM     40  C   UNL A   1      40.381  29.830  31.255  1.00  0.00     0.074 A 
ATOM     41  C   UNL A   1      40.137  28.158  29.453  1.00  0.00     0.049 A 
ATOM     42  N   UNL A   1      41.544  29.495  31.754  1.00  0.00    -0.248 NA
ATOM     43  C   UNL A   1      39.766  31.001  31.894  1.00  0.00     0.031 C 
ATOM     44  C   UNL A   1      39.521  27.507  28.295  1.00  0.00     0.029 A 
ATOM     45  N   UNL A   1      41.300  27.456  29.648  1.00  0.00    -0.354 N 
ATOM     46  C   UNL A   1      41.807  30.424  32.756  1.00  0.00     0.074 A 
ATOM     47  C   UNL A   1      40.714  31.373  32.740  1.00  0.00     0.031 C 
ATOM     48  C   UNL A   1      40.299  26.489  27.897  1.00  0.00     0.029 A 
ATOM     49  C   UNL A   1      41.493  26.445  28.736  1.00  0.00     0.049 A 
ATOM     50  H   UNL A   1      41.936  27.658  30.372  1.00  0.00     0.167 HD
ATOM     51  C   UNL A   1      42.851  30.465  33.623  1.00  0.00     0.034 A 
ATOM     52  C   UNL A   1      42.521  25.588  28.578  1.00  0.00     0.034 A 
ATOM     53  C   UNL A   1      43.931  29.506  33.619  1.00  0.00     0.049 A 
ATOM     54  C   UNL A   1      43.682  25.660  29.533  1.00  0.00     0.074 A 
ATOM     55  C   UNL A   1      45.001  29.408  34.492  1.00  0.00     0.029 A 
ATOM     56  N   UNL A   1      44.093  28.491  32.683  1.00  0.00    -0.354 N 
ATOM     57  N   UNL A   1      43.884  26.497  30.526  1.00  0.00    -0.248 NA
ATOM     58  C   UNL A   1      44.747  24.665  29.358  1.00  0.00     0.031 C 
ATOM     59  C   UNL A   1      45.852  28.396  34.033  1.00  0.00     0.029 A 
ATOM     60  C   UNL A   1      45.269  27.795  32.928  1.00  0.00     0.049 A 
ATOM     61  H   UNL A   1      43.465  28.294  31.950  1.00  0.00     0.167 HD
ATOM     62  C   UNL A   1      45.091  26.115  31.106  1.00  0.00     0.074 A 
ATOM     63  C   UNL A   1      45.559  24.963  30.361  1.00  0.00     0.031 C 
ATOM     64  C   UNL A   1      45.746  26.663  32.162  1.00  0.00     0.034 A 
BRANCH  51  65
ATOM     65  C   UNL A   1      42.886  31.613  34.611  1.00  0.00     0.023 A 
ATOM     66  C   UNL A   1      42.207  31.553  35.842  1.00  0.00     0.031 A 
ATOM     67  C   UNL A   1      43.552  32.809  34.292  1.00  0.00     0.131 A 
ATOM     68  C   UNL A   1      42.115  32.697  36.650  1.00  0.00     0.055 A 
ATOM     69  C   UNL A   1      43.545  33.911  35.151  1.00  0.00     0.041 A 
ATOM     70  F   UNL A   1      44.202  32.941  33.125  1.00  0.00    -0.206 F 
ATOM     71  C   UNL A   1      42.803  33.868  36.327  1.00  0.00     0.022 A 
BRANCH  68  72
ATOM     72  S   UNL A   1      40.920  32.694  38.017  1.00  0.00     0.124 S 
ATOM     73  O   UNL A   1      41.649  31.952  39.044  1.00  0.00    -0.237 OA
ATOM     74  O   UNL A   1      40.729  34.117  38.269  1.00  0.00    -0.237 OA
ATOM     75  O   UNL A   1      39.764  31.996  37.460  1.00  0.00    -0.744 OA
ENDBRANCH  68  72
ENDBRANCH  51  65
BRANCH  52  76
ATOM     76  C   UNL A   1      42.501  24.608  27.455  1.00  0.00     0.023 A 
ATOM     77  C   UNL A   1      41.730  23.437  27.517  1.00  0.00     0.031 A 
ATOM     78  C   UNL A   1      43.253  24.843  26.288  1.00  0.00     0.131 A 
ATOM     79  C   UNL A   1      41.746  22.533  26.442  1.00  0.00     0.055 A 
ATOM     80  C   UNL A   1      43.224  23.968  25.202  1.00  0.00     0.041 A 
ATOM     81  F   UNL A   1      44.004  25.951  26.179  1.00  0.00    -0.206 F 
ATOM     82  C   UNL A   1      42.473  22.800  25.279  1.00  0.00     0.022 A 
BRANCH  79  83
ATOM     83  S   UNL A   1      40.837  20.971  26.603  1.00  0.00     0.124 S 
ATOM     84  O   UNL A   1      41.656  20.067  25.804  1.00  0.00    -0.237 OA
ATOM     85  O   UNL A   1      40.861  20.751  28.046  1.00  0.00    -0.237 OA
ATOM     86  O   UNL A   1      39.523  21.282  26.044  1.00  0.00    -0.744 OA
ENDBRANCH  79  83
ENDBRANCH  52  76
BRANCH  64  87
ATOM     87  C   UNL A   1      47.031  25.997  32.596  1.00  0.00     0.023 A 
ATOM     88  C   UNL A   1      47.055  25.003  33.591  1.00  0.00     0.031 A 
ATOM     89  C   UNL A   1      48.255  26.371  32.011  1.00  0.00     0.131 A 
ATOM     90  C   UNL A   1      48.280  24.460  34.011  1.00  0.00     0.055 A 
ATOM     91  C   UNL A   1      49.462  25.778  32.383  1.00  0.00     0.041 A 
ATOM     92  F   UNL A   1      48.297  27.319  31.061  1.00  0.00    -0.206 F 
ATOM     93  C   UNL A   1      49.480  24.827  33.398  1.00  0.00     0.022 A 
BRANCH  90  94
ATOM     94  S   UNL A   1      48.295  23.346  35.441  1.00  0.00     0.124 S 
ATOM     95  O   UNL A   1      46.976  23.580  36.021  1.00  0.00    -0.237 OA
ATOM     96  O   UNL A   1      48.496  22.042  34.820  1.00  0.00    -0.237 OA
ATOM     97  O   UNL A   1      49.419  23.830  36.242  1.00  0.00    -0.744 OA
ENDBRANCH  90  94
ENDBRANCH  64  87
ENDBRANCH  38  39
ENDBRANCH  30  33
ENDBRANCH  28  29
ENDBRANCH  27  28
ENDBRANCH   1  27
TORSDOF 18
ENDMDL
MODEL 2
REMARK VINA RESULT:     -12.2      4.776     10.311
REMARK SMILES CC(=O)Nc1cccc(-c2ccc(F)c(C(=O)NCCCCCCNC(=O)c3ccc(-c4c5nc(c(-c6cc(S(=O)(=O)[O-])ccc6F)c6ccc([nH]6)c(-c6cc(S(=O)(=O)[O-])ccc6F)c6nc(c(-c7cc(S(=O)(=O)[O-])ccc7F)c7ccc4[nH]7)C=C6)C=C5)cc3)c2)c1
REMARK SMILES IDX 22 1 21 2 20 3 19 4 18 5 16 6 17 7 15 9 10 10 11 11 91 12
REMARK SMILES IDX 12 13 13 14 14 15 9 16 5 17 6 18 92 19 7 20 8 21 4 22 1 23
REMARK SMILES IDX 2 24 3 25 23 27 24 28 25 29 26 30 27 32 28 33 29 34 90 35
REMARK SMILES IDX 30 36 89 37 31 38 32 39 33 40 83 41 34 42 88 43 82 44 84 45
REMARK SMILES IDX 35 46 87 47 81 48 80 49 36 51 68 52 48 53 67 54 49 55 52 56
REMARK SMILES IDX 66 57 85 58 50 59 51 60 65 62 86 63 53 64 37 65 38 66 46 67
REMARK SMILES IDX 39 68 45 69 47 70 44 71 40 72 41 73 42 74 43 75 69 76 70 77
REMARK SMILES IDX 78 78 71 79 77 80 79 81 76 82 72 83 73 84 74 85 75 86 54 87
REMARK SMILES IDX 55 88 63 89 56 90 62 91 64 92 61 93 57 94 58 95 59 96 60 97
REMARK H PARENT 18 8 4 26 25 31 84 50 52 61
REMARK Flexibility Score: inf
ROOT
ATOM      1  C   UNL A   1      35.701  23.560  23.885  1.00  0.00     0.002 C 
ENDROOT
BRANCH   1   2
ATOM      2  C   UNL A   1      34.451  22.963  23.235  1.00  0.00     0.002 C 
BRANCH   2   3
ATOM      3  C   UNL A   1      33.487  22.229  24.163  1.00  0.00     0.021 C 
BRANCH   3   4
ATOM      4  C   UNL A   1      32.035  22.691  24.145  1.00  0.00     0.116 C 
BRANCH   4   5
ATOM      5  N   UNL A   1      31.428  22.852  25.460  1.00  0.00    -0.352 N 
ATOM      6  C   UNL A   1      31.231  23.962  26.260  1.00  0.00     0.254 C 
ATOM      7  O   UNL A   1      30.639  23.802  27.326  1.00  0.00    -0.269 OA
ATOM      8  H   UNL A   1      31.098  22.012  25.853  1.00  0.00     0.163 HD
BRANCH   6   9
ATOM      9  C   UNL A   1      31.731  25.314  25.889  1.00  0.00     0.076 A 
ATOM     10  C   UNL A   1      31.345  27.498  24.841  1.00  0.00    -0.017 A 
ATOM     11  C   UNL A   1      32.721  27.747  24.883  1.00  0.00     0.012 A 
ATOM     12  C   UNL A   1      30.871  26.326  25.459  1.00  0.00     0.025 A 
ATOM     13  C   UNL A   1      33.589  26.815  25.460  1.00  0.00     0.041 A 
ATOM     14  C   UNL A   1      33.097  25.593  25.925  1.00  0.00     0.135 A 
ATOM     15  F   UNL A   1      33.985  24.694  26.371  1.00  0.00    -0.206 F 
BRANCH  10  16
ATOM     16  C   UNL A   1      30.403  28.323  24.057  1.00  0.00    -0.016 A 
ATOM     17  C   UNL A   1      29.395  30.514  23.617  1.00  0.00     0.041 A 
ATOM     18  C   UNL A   1      28.336  29.887  22.958  1.00  0.00     0.026 A 
ATOM     19  C   UNL A   1      30.412  29.725  24.162  1.00  0.00     0.034 A 
ATOM     20  C   UNL A   1      28.327  28.502  22.796  1.00  0.00     0.003 A 
ATOM     21  C   UNL A   1      29.354  27.726  23.339  1.00  0.00     0.009 A 
BRANCH  17  22
ATOM     22  N   UNL A   1      29.325  31.907  23.787  1.00  0.00    -0.326 N 
ATOM     23  C   UNL A   1      28.257  32.603  21.644  1.00  0.00     0.114 C 
ATOM     24  C   UNL A   1      28.988  32.909  22.922  1.00  0.00     0.221 C 
ATOM     25  O   UNL A   1      29.246  34.075  23.226  1.00  0.00    -0.275 OA
ATOM     26  H   UNL A   1      29.561  32.216  24.691  1.00  0.00     0.169 HD
ENDBRANCH  17  22
ENDBRANCH  10  16
ENDBRANCH   6   9
ENDBRANCH   4   5
ENDBRANCH   3   4
ENDBRANCH   2   3
ENDBRANCH   1   2
BRANCH   1  27
ATOM     27  C   UNL A   1      36.804  22.574  24.277  1.00  0.00     0.021 C 
BRANCH  27  28
ATOM     28  C   UNL A   1      37.269  22.638  25.730  1.00  0.00     0.116 C 
BRANCH  28  29
ATOM     29  N   UNL A   1      38.412  21.781  25.988  1.00  0.00    -0.352 N 
ATOM     30  C   UNL A   1      39.676  22.109  26.416  1.00  0.00     0.251 C 
ATOM     31  H   UNL A   1      38.259  20.820  25.834  1.00  0.00     0.163 HD
ATOM     32  O   UNL A   1      40.560  21.259  26.402  1.00  0.00    -0.269 OA
BRANCH  30  33
ATOM     33  C   UNL A   1      39.975  23.488  26.868  1.00  0.00     0.039 A 
ATOM     34  C   UNL A   1      40.512  23.676  28.145  1.00  0.00     0.014 A 
ATOM     35  C   UNL A   1      39.718  24.591  26.049  1.00  0.00     0.014 A 
ATOM     36  C   UNL A   1      40.844  24.963  28.575  1.00  0.00     0.010 A 
ATOM     37  C   UNL A   1      40.123  25.864  26.449  1.00  0.00     0.010 A 
ATOM     38  C   UNL A   1      40.686  26.064  27.719  1.00  0.00    -0.014 A 
BRANCH  38  39
ATOM     39  C   UNL A   1      41.106  27.429  28.138  1.00  0.00     0.031 A 
ATOM     40  C   UNL A   1      42.564  27.797  28.180  1.00  0.00     0.074 A 
ATOM     41  C   UNL A   1      40.176  28.316  28.544  1.00  0.00     0.049 A 
ATOM     42  N   UNL A   1      43.127  28.913  28.571  1.00  0.00    -0.248 NA
ATOM     43  C   UNL A   1      43.514  26.759  27.760  1.00  0.00     0.031 C 
ATOM     44  C   UNL A   1      38.736  28.056  28.602  1.00  0.00     0.029 A 
ATOM     45  N   UNL A   1      40.299  29.606  28.995  1.00  0.00    -0.354 N 
ATOM     46  C   UNL A   1      44.498  28.705  28.458  1.00  0.00     0.074 A 
ATOM     47  C   UNL A   1      44.676  27.333  28.031  1.00  0.00     0.031 C 
ATOM     48  C   UNL A   1      38.109  29.159  29.041  1.00  0.00     0.029 A 
ATOM     49  C   UNL A   1      39.101  30.184  29.344  1.00  0.00     0.049 A 
ATOM     50  H   UNL A   1      41.163  30.072  29.063  1.00  0.00     0.167 HD
ATOM     51  C   UNL A   1      45.510  29.584  28.669  1.00  0.00     0.034 A 
ATOM     52  C   UNL A   1      38.830  31.397  29.866  1.00  0.00     0.034 A 
ATOM     53  C   UNL A   1      45.308  30.949  29.096  1.00  0.00     0.049 A 
ATOM     54  C   UNL A   1      39.965  32.354  30.114  1.00  0.00     0.074 A 
ATOM     55  C   UNL A   1      46.250  31.948  29.271  1.00  0.00     0.029 A 
ATOM     56  N   UNL A   1      44.079  31.504  29.437  1.00  0.00    -0.354 N 
ATOM     57  N   UNL A   1      41.254  32.171  29.932  1.00  0.00    -0.248 NA
ATOM     58  C   UNL A   1      39.611  33.683  30.624  1.00  0.00     0.031 C 
ATOM     59  C   UNL A   1      45.607  33.072  29.801  1.00  0.00     0.029 A 
ATOM     60  C   UNL A   1      44.246  32.813  29.867  1.00  0.00     0.049 A 
ATOM     61  H   UNL A   1      43.214  31.037  29.381  1.00  0.00     0.167 HD
ATOM     62  C   UNL A   1      41.862  33.372  30.287  1.00  0.00     0.074 A 
ATOM     63  C   UNL A   1      40.796  34.274  30.676  1.00  0.00     0.031 C 
ATOM     64  C   UNL A   1      43.180  33.700  30.283  1.00  0.00     0.034 A 
BRANCH  51  65
ATOM     65  C   UNL A   1      46.923  29.072  28.480  1.00  0.00     0.023 A 
ATOM     66  C   UNL A   1      47.494  28.919  27.203  1.00  0.00     0.031 A 
ATOM     67  C   UNL A   1      47.689  28.668  29.588  1.00  0.00     0.131 A 
ATOM     68  C   UNL A   1      48.733  28.277  27.059  1.00  0.00     0.055 A 
ATOM     69  C   UNL A   1      48.969  28.127  29.444  1.00  0.00     0.041 A 
ATOM     70  F   UNL A   1      47.199  28.768  30.834  1.00  0.00    -0.206 F 
ATOM     71  C   UNL A   1      49.488  27.905  28.173  1.00  0.00     0.022 A 
BRANCH  68  72
ATOM     72  S   UNL A   1      49.245  27.753  25.398  1.00  0.00     0.124 S 
ATOM     73  O   UNL A   1      49.461  26.321  25.595  1.00  0.00    -0.237 OA
ATOM     74  O   UNL A   1      48.094  28.121  24.584  1.00  0.00    -0.237 OA
ATOM     75  O   UNL A   1      50.460  28.528  25.153  1.00  0.00    -0.744 OA
ENDBRANCH  68  72
ENDBRANCH  51  65
BRANCH  52  76
ATOM     76  C   UNL A   1      37.424  31.757  30.206  1.00  0.00     0.023 A 
ATOM     77  C   UNL A   1      36.554  32.304  29.251  1.00  0.00     0.031 A 
ATOM     78  C   UNL A   1      36.927  31.543  31.506  1.00  0.00     0.131 A 
ATOM     79  C   UNL A   1      35.240  32.640  29.613  1.00  0.00     0.055 A 
ATOM     80  C   UNL A   1      35.605  31.830  31.848  1.00  0.00     0.041 A 
ATOM     81  F   UNL A   1      37.719  31.020  32.455  1.00  0.00    -0.206 F 
ATOM     82  C   UNL A   1      34.755  32.390  30.900  1.00  0.00     0.022 A 
BRANCH  79  83
ATOM     83  S   UNL A   1      34.179  33.458  28.389  1.00  0.00     0.124 S 
ATOM     84  O   UNL A   1      33.430  34.392  29.222  1.00  0.00    -0.237 OA
ATOM     85  O   UNL A   1      35.159  34.050  27.484  1.00  0.00    -0.237 OA
ATOM     86  O   UNL A   1      33.399  32.358  27.825  1.00  0.00    -0.744 OA
ENDBRANCH  79  83
ENDBRANCH  52  76
BRANCH  64  87
ATOM     87  C   UNL A   1      43.540  35.112  30.685  1.00  0.00     0.023 A 
ATOM     88  C   UNL A   1      43.536  36.172  29.760  1.00  0.00     0.031 A 
ATOM     89  C   UNL A   1      43.904  35.398  32.013  1.00  0.00     0.131 A 
ATOM     90  C   UNL A   1      43.942  37.454  30.163  1.00  0.00     0.055 A 
ATOM     91  C   UNL A   1      44.241  36.689  32.424  1.00  0.00     0.041 A 
ATOM     92  F   UNL A   1      43.935  34.426  32.939  1.00  0.00    -0.206 F 
ATOM     93  C   UNL A   1      44.275  37.723  31.493  1.00  0.00     0.022 A 
BRANCH  90  94
ATOM     94  S   UNL A   1      44.134  38.743  28.902  1.00  0.00     0.124 S 
ATOM     95  O   UNL A   1      44.402  37.956  27.703  1.00  0.00    -0.237 OA
ATOM     96  O   UNL A   1      42.842  39.418  28.946  1.00  0.00    -0.237 OA
ATOM     97  O   UNL A   1      45.263  39.534  29.389  1.00  0.00    -0.744 OA
ENDBRANCH  90  94
ENDBRANCH  64  87
ENDBRANCH  38  39
ENDBRANCH  30  33
ENDBRANCH  28  29
ENDBRANCH  27  28
ENDBRANCH   1  27
TORSDOF 18
ENDMDL
MODEL 3
REMARK VINA RESULT:     -12.2      1.589      2.062
REMARK SMILES CC(=O)Nc1cccc(-c2ccc(F)c(C(=O)NCCCCCCNC(=O)c3ccc(-c4c5nc(c(-c6cc(S(=O)(=O)[O-])ccc6F)c6ccc([nH]6)c(-c6cc(S(=O)(=O)[O-])ccc6F)c6nc(c(-c7cc(S(=O)(=O)[O-])ccc7F)c7ccc4[nH]7)C=C6)C=C5)cc3)c2)c1
REMARK SMILES IDX 22 1 21 2 20 3 19 4 18 5 16 6 17 7 15 9 10 10 11 11 91 12
REMARK SMILES IDX 12 13 13 14 14 15 9 16 5 17 6 18 92 19 7 20 8 21 4 22 1 23
REMARK SMILES IDX 2 24 3 25 23 27 24 28 25 29 26 30 27 32 28 33 29 34 90 35
REMARK SMILES IDX 30 36 89 37 31 38 32 39 33 40 83 41 34 42 88 43 82 44 84 45
REMARK SMILES IDX 35 46 87 47 81 48 80 49 36 51 68 52 48 53 67 54 49 55 52 56
REMARK SMILES IDX 66 57 85 58 50 59 51 60 65 62 86 63 53 64 37 65 38 66 46 67
REMARK SMILES IDX 39 68 45 69 47 70 44 71 40 72 41 73 42 74 43 75 69 76 70 77
REMARK SMILES IDX 78 78 71 79 77 80 79 81 76 82 72 83 73 84 74 85 75 86 54 87
REMARK SMILES IDX 55 88 63 89 56 90 62 91 64 92 61 93 57 94 58 95 59 96 60 97
REMARK H PARENT 18 8 4 26 25 31 84 50 52 61
REMARK Flexibility Score: inf
ROOT
ATOM      1  C   UNL A   1      31.974  27.738  25.816  1.00  0.00     0.002 C 
ENDROOT
BRANCH   1   2
ATOM      2  C   UNL A   1      31.132  28.420  24.734  1.00  0.00     0.002 C 
BRANCH   2   3
ATOM      3  C   UNL A   1      31.886  28.942  23.515  1.00  0.00     0.021 C 
BRANCH   3   4
ATOM      4  C   UNL A   1      33.248  28.319  23.234  1.00  0.00     0.116 C 
BRANCH   4   5
ATOM      5  N   UNL A   1      33.342  27.599  21.971  1.00  0.00    -0.352 N 
ATOM      6  C   UNL A   1      33.044  26.294  21.625  1.00  0.00     0.254 C 
ATOM      7  O   UNL A   1      33.184  25.968  20.447  1.00  0.00    -0.269 OA
ATOM      8  H   UNL A   1      33.682  28.142  21.225  1.00  0.00     0.163 HD
BRANCH   6   9
ATOM      9  C   UNL A   1      32.595  25.284  22.622  1.00  0.00     0.076 A 
ATOM     10  C   UNL A   1      33.029  23.238  23.905  1.00  0.00    -0.017 A 
ATOM     11  C   UNL A   1      31.673  23.182  24.247  1.00  0.00     0.012 A 
ATOM     12  C   UNL A   1      33.478  24.366  23.191  1.00  0.00     0.025 A 
ATOM     13  C   UNL A   1      30.796  24.184  23.823  1.00  0.00     0.041 A 
ATOM     14  C   UNL A   1      31.251  25.205  22.986  1.00  0.00     0.135 A 
ATOM     15  F   UNL A   1      30.346  26.079  22.524  1.00  0.00    -0.206 F 
BRANCH  10  16
ATOM     16  C   UNL A   1      33.961  22.114  24.124  1.00  0.00    -0.016 A 
ATOM     17  C   UNL A   1      34.338  19.821  24.904  1.00  0.00     0.041 A 
ATOM     18  C   UNL A   1      35.705  20.087  25.004  1.00  0.00     0.026 A 
ATOM     19  C   UNL A   1      33.484  20.837  24.470  1.00  0.00     0.034 A 
ATOM     20  C   UNL A   1      36.212  21.328  24.620  1.00  0.00     0.003 A 
ATOM     21  C   UNL A   1      35.347  22.333  24.181  1.00  0.00     0.009 A 
BRANCH  17  22
ATOM     22  N   UNL A   1      33.883  18.568  25.348  1.00  0.00    -0.326 N 
ATOM     23  C   UNL A   1      33.654  17.342  23.188  1.00  0.00     0.114 C 
ATOM     24  C   UNL A   1      33.414  17.481  24.666  1.00  0.00     0.221 C 
ATOM     25  O   UNL A   1      32.833  16.589  25.287  1.00  0.00    -0.275 OA
ATOM     26  H   UNL A   1      33.907  18.452  26.325  1.00  0.00     0.169 HD
ENDBRANCH  17  22
ENDBRANCH  10  16
ENDBRANCH   6   9
ENDBRANCH   4   5
ENDBRANCH   3   4
ENDBRANCH   2   3
ENDBRANCH   1   2
BRANCH   1  27
ATOM     27  C   UNL A   1      32.409  28.613  26.994  1.00  0.00     0.021 C 
BRANCH  27  28
ATOM     28  C   UNL A   1      33.731  29.355  26.818  1.00  0.00     0.116 C 
BRANCH  28  29
ATOM     29  N   UNL A   1      33.687  30.708  27.347  1.00  0.00    -0.352 N 
ATOM     30  C   UNL A   1      34.533  31.332  28.232  1.00  0.00     0.251 C 
ATOM     31  H   UNL A   1      32.939  31.260  27.023  1.00  0.00     0.163 HD
ATOM     32  O   UNL A   1      34.224  32.423  28.697  1.00  0.00    -0.269 OA
BRANCH  30  33
ATOM     33  C   UNL A   1      35.799  30.679  28.640  1.00  0.00     0.039 A 
ATOM     34  C   UNL A   1      36.968  30.976  27.933  1.00  0.00     0.014 A 
ATOM     35  C   UNL A   1      35.836  29.769  29.700  1.00  0.00     0.014 A 
ATOM     36  C   UNL A   1      38.181  30.406  28.328  1.00  0.00     0.010 A 
ATOM     37  C   UNL A   1      37.058  29.264  30.141  1.00  0.00     0.010 A 
ATOM     38  C   UNL A   1      38.244  29.574  29.457  1.00  0.00    -0.014 A 
BRANCH  38  39
ATOM     39  C   UNL A   1      39.542  29.023  29.932  1.00  0.00     0.031 A 
ATOM     40  C   UNL A   1      40.288  29.691  31.055  1.00  0.00     0.074 A 
ATOM     41  C   UNL A   1      40.080  27.957  29.308  1.00  0.00     0.049 A 
ATOM     42  N   UNL A   1      41.455  29.393  31.568  1.00  0.00    -0.248 NA
ATOM     43  C   UNL A   1      39.650  30.871  31.654  1.00  0.00     0.031 C 
ATOM     44  C   UNL A   1      39.479  27.257  28.170  1.00  0.00     0.029 A 
ATOM     45  N   UNL A   1      41.254  27.282  29.528  1.00  0.00    -0.354 N 
ATOM     46  C   UNL A   1      41.698  30.359  32.539  1.00  0.00     0.074 A 
ATOM     47  C   UNL A   1      40.589  31.287  32.489  1.00  0.00     0.031 C 
ATOM     48  C   UNL A   1      40.277  26.241  27.808  1.00  0.00     0.029 A 
ATOM     49  C   UNL A   1      41.468  26.245  28.651  1.00  0.00     0.049 A 
ATOM     50  H   UNL A   1      41.884  27.519  30.247  1.00  0.00     0.167 HD
ATOM     51  C   UNL A   1      42.739  30.447  33.407  1.00  0.00     0.034 A 
ATOM     52  C   UNL A   1      42.512  25.402  28.524  1.00  0.00     0.034 A 
ATOM     53  C   UNL A   1      43.836  29.508  33.437  1.00  0.00     0.049 A 
ATOM     54  C   UNL A   1      43.668  25.526  29.479  1.00  0.00     0.074 A 
ATOM     55  C   UNL A   1      44.904  29.457  34.316  1.00  0.00     0.029 A 
ATOM     56  N   UNL A   1      44.019  28.466  32.535  1.00  0.00    -0.354 N 
ATOM     57  N   UNL A   1      43.852  26.399  30.444  1.00  0.00    -0.248 NA
ATOM     58  C   UNL A   1      44.751  24.545  29.339  1.00  0.00     0.031 C 
ATOM     59  C   UNL A   1      45.775  28.446  33.893  1.00  0.00     0.029 A 
ATOM     60  C   UNL A   1      45.206  27.799  32.806  1.00  0.00     0.049 A 
ATOM     61  H   UNL A   1      43.397  28.234  31.808  1.00  0.00     0.167 HD
ATOM     62  C   UNL A   1      45.064  26.058  31.040  1.00  0.00     0.074 A 
ATOM     63  C   UNL A   1      45.555  24.890  30.334  1.00  0.00     0.031 C 
ATOM     64  C   UNL A   1      45.706  26.651  32.079  1.00  0.00     0.034 A 
BRANCH  51  65
ATOM     65  C   UNL A   1      42.750  31.627  34.357  1.00  0.00     0.023 A 
ATOM     66  C   UNL A   1      42.167  31.556  35.636  1.00  0.00     0.031 A 
ATOM     67  C   UNL A   1      43.293  32.860  33.956  1.00  0.00     0.131 A 
ATOM     68  C   UNL A   1      42.040  32.715  36.416  1.00  0.00     0.055 A 
ATOM     69  C   UNL A   1      43.257  33.987  34.782  1.00  0.00     0.041 A 
ATOM     70  F   UNL A   1      43.846  33.003  32.742  1.00  0.00    -0.206 F 
ATOM     71  C   UNL A   1      42.606  33.925  36.010  1.00  0.00     0.022 A 
BRANCH  68  72
ATOM     72  S   UNL A   1      40.949  32.665  37.865  1.00  0.00     0.124 S 
ATOM     73  O   UNL A   1      41.752  31.893  38.812  1.00  0.00    -0.237 OA
ATOM     74  O   UNL A   1      40.775  34.078  38.177  1.00  0.00    -0.237 OA
ATOM     75  O   UNL A   1      39.756  31.980  37.373  1.00  0.00    -0.744 OA
ENDBRANCH  68  72
ENDBRANCH  51  65
BRANCH  52  76
ATOM     76  C   UNL A   1      42.512  24.386  27.433  1.00  0.00     0.023 A 
ATOM     77  C   UNL A   1      41.713  23.235  27.502  1.00  0.00     0.031 A 
ATOM     78  C   UNL A   1      43.315  24.565  26.290  1.00  0.00     0.131 A 
ATOM     79  C   UNL A   1      41.750  22.295  26.459  1.00  0.00     0.055 A 
ATOM     80  C   UNL A   1      43.308  23.655  25.233  1.00  0.00     0.041 A 
ATOM     81  F   UNL A   1      44.095  25.652  26.175  1.00  0.00    -0.206 F 
ATOM     82  C   UNL A   1      42.528  22.507  25.318  1.00  0.00     0.022 A 
BRANCH  79  83
ATOM     83  S   UNL A   1      40.799  20.760  26.635  1.00  0.00     0.124 S 
ATOM     84  O   UNL A   1      40.818  20.561  28.079  1.00  0.00    -0.237 OA
ATOM     85  O   UNL A   1      39.511  21.131  26.056  1.00  0.00    -0.237 OA
ATOM     86  O   UNL A   1      41.571  19.790  25.860  1.00  0.00    -0.744 OA
ENDBRANCH  79  83
ENDBRANCH  52  76
BRANCH  64  87
ATOM     87  C   UNL A   1      47.001  26.023  32.538  1.00  0.00     0.023 A 
ATOM     88  C   UNL A   1      47.029  24.983  33.485  1.00  0.00     0.031 A 
ATOM     89  C   UNL A   1      48.229  26.480  32.026  1.00  0.00     0.131 A 
ATOM     90  C   UNL A   1      48.259  24.476  33.932  1.00  0.00     0.055 A 
ATOM     91  C   UNL A   1      49.447  25.924  32.424  1.00  0.00     0.041 A 
ATOM     92  F   UNL A   1      48.268  27.475  31.126  1.00  0.00    -0.206 F 
ATOM     93  C   UNL A   1      49.466  24.925  33.392  1.00  0.00     0.022 A 
BRANCH  90  94
ATOM     94  S   UNL A   1      48.266  23.293  35.308  1.00  0.00     0.124 S 
ATOM     95  O   UNL A   1      47.141  23.759  36.113  1.00  0.00    -0.237 OA
ATOM     96  O   UNL A   1      48.077  22.018  34.626  1.00  0.00    -0.237 OA
ATOM     97  O   UNL A   1      49.582  23.482  35.916  1.00  0.00    -0.744 OA
ENDBRANCH  90  94
ENDBRANCH  64  87
ENDBRANCH  38  39
ENDBRANCH  30  33
ENDBRANCH  28  29
ENDBRANCH  27  28
ENDBRANCH   1  27
TORSDOF 18
ENDMDL
