MODEL 1
REMARK VINA RESULT:     -12.9      0.000      0.000
REMARK SMILES Cc1cccc2c1[C@H]1c3c(C)cccc3[C@H](CC(=O)NCCCCCCNC(=O)c3ccc(-c4c5nc(c(-c6cc(S(=O)(=O)[O-])ccc6F)c6ccc([nH]6)c(-c6cc(S(=O)(=O)[O-])ccc6F)c6nc(c(-c7cc(S(=O)(=O)[O-])ccc7F)c7ccc4[nH]7)C=C6)C=C5)cc3)C[C@H]1CC2
REMARK SMILES IDX 24 1 23 2 22 3 21 4 20 5 18 6 19 7 17 9 16 10 1 11 2 12 3 13
REMARK SMILES IDX 7 14 4 15 6 16 8 17 5 18 96 19 9 20 94 21 95 22 10 23 15 24
REMARK SMILES IDX 93 25 12 26 11 27 14 28 13 29 25 30 26 31 27 32 28 33 29 35
REMARK SMILES IDX 30 36 31 37 92 38 32 39 91 40 33 41 34 42 35 43 85 44 36 45
REMARK SMILES IDX 90 46 84 47 86 48 37 49 89 50 83 51 82 52 38 54 70 55 50 56
REMARK SMILES IDX 69 57 51 58 54 59 68 60 87 61 52 62 53 63 67 65 88 66 55 67
REMARK SMILES IDX 39 68 40 69 48 70 41 71 47 72 49 73 46 74 42 75 43 76 44 77
REMARK SMILES IDX 45 78 71 79 72 80 80 81 73 82 79 83 81 84 78 85 74 86 75 87
REMARK SMILES IDX 76 88 77 89 56 90 57 91 65 92 58 93 64 94 66 95 63 96 59 97
REMARK SMILES IDX 60 98 61 99 62 100
REMARK H PARENT 20 8 27 34 86 53 54 64
REMARK Flexibility Score: inf
ROOT
ATOM      1  C   UNL A   1      31.085  29.524  24.589  1.00  0.00     0.002 C 
ENDROOT
BRANCH   1   2
ATOM      2  C   UNL A   1      30.258  28.308  24.163  1.00  0.00     0.002 C 
BRANCH   2   3
ATOM      3  C   UNL A   1      30.336  27.967  22.672  1.00  0.00     0.021 C 
BRANCH   3   4
ATOM      4  C   UNL A   1      31.238  26.782  22.350  1.00  0.00     0.116 C 
BRANCH   4   5
ATOM      5  N   UNL A   1      32.468  27.238  21.731  1.00  0.00    -0.356 N 
ATOM      6  C   UNL A   1      33.609  27.674  22.332  1.00  0.00     0.220 C 
ATOM      7  O   UNL A   1      34.470  28.228  21.652  1.00  0.00    -0.275 OA
ATOM      8  H   UNL A   1      32.480  27.232  20.747  1.00  0.00     0.163 HD
BRANCH   6   9
ATOM      9  C   UNL A   1      33.789  27.397  23.805  1.00  0.00     0.108 C 
BRANCH   9  10
ATOM     10  C   UNL A   1      34.101  25.934  24.193  1.00  0.00     0.029 C 
ATOM     11  C   UNL A   1      31.671  20.929  22.143  1.00  0.00     0.044 C 
ATOM     12  C   UNL A   1      32.607  20.597  23.276  1.00  0.00    -0.047 A 
ATOM     13  C   UNL A   1      32.670  19.250  23.685  1.00  0.00     0.004 A 
ATOM     14  C   UNL A   1      33.467  21.551  23.879  1.00  0.00    -0.034 A 
ATOM     15  C   UNL A   1      33.588  18.833  24.642  1.00  0.00     0.001 A 
ATOM     16  C   UNL A   1      34.502  21.079  24.718  1.00  0.00    -0.044 A 
ATOM     17  C   UNL A   1      33.316  23.062  23.656  1.00  0.00     0.053 C 
ATOM     18  C   UNL A   1      34.524  19.735  25.125  1.00  0.00     0.004 A 
ATOM     19  C   UNL A   1      35.700  21.921  25.075  1.00  0.00     0.036 C 
ATOM     20  C   UNL A   1      32.578  23.888  24.752  1.00  0.00    -0.034 A 
ATOM     21  C   UNL A   1      34.743  23.613  23.401  1.00  0.00     0.002 C 
ATOM     22  C   UNL A   1      35.665  23.371  24.609  1.00  0.00     0.009 C 
ATOM     23  C   UNL A   1      31.480  23.408  25.525  1.00  0.00    -0.047 A 
ATOM     24  C   UNL A   1      32.989  25.238  24.982  1.00  0.00    -0.040 A 
ATOM     25  C   UNL A   1      34.646  25.096  23.030  1.00  0.00     0.013 C 
ATOM     26  C   UNL A   1      30.922  24.207  26.546  1.00  0.00     0.004 A 
ATOM     27  C   UNL A   1      30.825  22.064  25.369  1.00  0.00     0.044 C 
ATOM     28  C   UNL A   1      32.445  25.967  26.064  1.00  0.00     0.004 A 
ATOM     29  C   UNL A   1      31.413  25.465  26.833  1.00  0.00     0.001 A 
ENDBRANCH   9  10
ENDBRANCH   6   9
ENDBRANCH   4   5
ENDBRANCH   3   4
ENDBRANCH   2   3
ENDBRANCH   1   2
BRANCH   1  30
ATOM     30  C   UNL A   1      31.616  29.464  26.021  1.00  0.00     0.021 C 
BRANCH  30  31
ATOM     31  C   UNL A   1      32.901  30.250  26.247  1.00  0.00     0.116 C 
BRANCH  31  32
ATOM     32  N   UNL A   1      32.641  31.633  26.617  1.00  0.00    -0.352 N 
ATOM     33  C   UNL A   1      33.390  32.428  27.451  1.00  0.00     0.251 C 
ATOM     34  H   UNL A   1      31.837  32.045  26.226  1.00  0.00     0.163 HD
ATOM     35  O   UNL A   1      33.006  33.533  27.796  1.00  0.00    -0.269 OA
BRANCH  33  36
ATOM     36  C   UNL A   1      34.671  31.883  27.936  1.00  0.00     0.039 A 
ATOM     37  C   UNL A   1      35.776  32.729  28.025  1.00  0.00     0.014 A 
ATOM     38  C   UNL A   1      34.725  30.566  28.406  1.00  0.00     0.014 A 
ATOM     39  C   UNL A   1      36.940  32.262  28.633  1.00  0.00     0.010 A 
ATOM     40  C   UNL A   1      35.869  30.121  29.056  1.00  0.00     0.010 A 
ATOM     41  C   UNL A   1      36.987  30.963  29.169  1.00  0.00    -0.014 A 
BRANCH  41  42
ATOM     42  C   UNL A   1      38.210  30.472  29.842  1.00  0.00     0.031 A 
ATOM     43  C   UNL A   1      38.523  30.925  31.238  1.00  0.00     0.074 A 
ATOM     44  C   UNL A   1      39.049  29.650  29.185  1.00  0.00     0.049 A 
ATOM     45  N   UNL A   1      39.516  30.574  32.010  1.00  0.00    -0.248 NA
ATOM     46  C   UNL A   1      37.610  31.911  31.839  1.00  0.00     0.031 C 
ATOM     47  C   UNL A   1      38.874  29.197  27.805  1.00  0.00     0.029 A 
ATOM     48  N   UNL A   1      40.217  29.051  29.588  1.00  0.00    -0.354 N 
ATOM     49  C   UNL A   1      39.345  31.288  33.189  1.00  0.00     0.074 A 
ATOM     50  C   UNL A   1      38.193  32.142  33.006  1.00  0.00     0.031 C 
ATOM     51  C   UNL A   1      39.885  28.373  27.483  1.00  0.00     0.029 A 
ATOM     52  C   UNL A   1      40.786  28.250  28.627  1.00  0.00     0.049 A 
ATOM     53  H   UNL A   1      40.609  29.183  30.481  1.00  0.00     0.167 HD
ATOM     54  C   UNL A   1      40.064  31.212  34.332  1.00  0.00     0.034 A 
ATOM     55  C   UNL A   1      41.900  27.491  28.669  1.00  0.00     0.034 A 
ATOM     56  C   UNL A   1      41.201  30.350  34.506  1.00  0.00     0.049 A 
ATOM     57  C   UNL A   1      42.681  27.415  29.957  1.00  0.00     0.074 A 
ATOM     58  C   UNL A   1      41.965  30.159  35.643  1.00  0.00     0.029 A 
ATOM     59  N   UNL A   1      41.738  29.535  33.520  1.00  0.00    -0.354 N 
ATOM     60  N   UNL A   1      42.443  28.012  31.100  1.00  0.00    -0.248 NA
ATOM     61  C   UNL A   1      43.870  26.551  29.969  1.00  0.00     0.031 C 
ATOM     62  C   UNL A   1      42.986  29.258  35.334  1.00  0.00     0.029 A 
ATOM     63  C   UNL A   1      42.835  28.852  34.018  1.00  0.00     0.049 A 
ATOM     64  H   UNL A   1      41.392  29.455  32.602  1.00  0.00     0.167 HD
ATOM     65  C   UNL A   1      43.436  27.578  31.974  1.00  0.00     0.074 A 
ATOM     66  C   UNL A   1      44.266  26.652  31.231  1.00  0.00     0.031 C 
ATOM     67  C   UNL A   1      43.643  27.919  33.271  1.00  0.00     0.034 A 
BRANCH  54  68
ATOM     68  C   UNL A   1      39.621  32.048  35.502  1.00  0.00     0.023 A 
ATOM     69  C   UNL A   1      38.779  31.504  36.487  1.00  0.00     0.031 A 
ATOM     70  C   UNL A   1      39.965  33.409  35.590  1.00  0.00     0.131 A 
ATOM     71  C   UNL A   1      38.291  32.326  37.510  1.00  0.00     0.055 A 
ATOM     72  C   UNL A   1      39.503  34.216  36.630  1.00  0.00     0.041 A 
ATOM     73  F   UNL A   1      40.773  33.968  34.674  1.00  0.00    -0.206 F 
ATOM     74  C   UNL A   1      38.655  33.675  37.592  1.00  0.00     0.022 A 
BRANCH  71  75
ATOM     75  S   UNL A   1      37.151  31.683  38.763  1.00  0.00     0.124 S 
ATOM     76  O   UNL A   1      36.001  32.571  38.611  1.00  0.00    -0.237 OA
ATOM     77  O   UNL A   1      36.944  30.311  38.308  1.00  0.00    -0.237 OA
ATOM     78  O   UNL A   1      37.885  31.833  40.015  1.00  0.00    -0.744 OA
ENDBRANCH  71  75
ENDBRANCH  54  68
BRANCH  55  79
ATOM     79  C   UNL A   1      42.274  26.680  27.477  1.00  0.00     0.023 A 
ATOM     80  C   UNL A   1      41.938  25.317  27.392  1.00  0.00     0.031 A 
ATOM     81  C   UNL A   1      43.056  27.238  26.452  1.00  0.00     0.131 A 
ATOM     82  C   UNL A   1      42.424  24.548  26.325  1.00  0.00     0.055 A 
ATOM     83  C   UNL A   1      43.490  26.480  25.362  1.00  0.00     0.041 A 
ATOM     84  F   UNL A   1      43.412  28.530  26.502  1.00  0.00    -0.206 F 
ATOM     85  C   UNL A   1      43.183  25.125  25.302  1.00  0.00     0.022 A 
BRANCH  82  86
ATOM     86  S   UNL A   1      42.163  22.754  26.276  1.00  0.00     0.124 S 
ATOM     87  O   UNL A   1      40.731  22.643  26.542  1.00  0.00    -0.237 OA
ATOM     88  O   UNL A   1      42.579  22.432  24.913  1.00  0.00    -0.237 OA
ATOM     89  O   UNL A   1      43.039  22.249  27.328  1.00  0.00    -0.744 OA
ENDBRANCH  82  86
ENDBRANCH  55  79
BRANCH  67  90
ATOM     90  C   UNL A   1      44.809  27.299  33.998  1.00  0.00     0.023 A 
ATOM     91  C   UNL A   1      44.615  26.151  34.789  1.00  0.00     0.031 A 
ATOM     92  C   UNL A   1      46.066  27.926  34.024  1.00  0.00     0.131 A 
ATOM     93  C   UNL A   1      45.655  25.685  35.602  1.00  0.00     0.055 A 
ATOM     94  C   UNL A   1      47.112  27.433  34.805  1.00  0.00     0.041 A 
ATOM     95  F   UNL A   1      46.292  29.028  33.292  1.00  0.00    -0.206 F 
ATOM     96  C   UNL A   1      46.904  26.315  35.608  1.00  0.00     0.022 A 
BRANCH  93  97
ATOM     97  S   UNL A   1      45.406  24.286  36.730  1.00  0.00     0.124 S 
ATOM     98  O   UNL A   1      44.870  23.265  35.833  1.00  0.00    -0.237 OA
ATOM     99  O   UNL A   1      46.762  24.040  37.215  1.00  0.00    -0.237 OA
ATOM    100  O   UNL A   1      44.468  24.796  37.723  1.00  0.00    -0.744 OA
ENDBRANCH  93  97
ENDBRANCH  67  90
ENDBRANCH  41  42
ENDBRANCH  33  36
ENDBRANCH  31  32
ENDBRANCH  30  31
ENDBRANCH   1  30
TORSDOF 17
ENDMDL
MODEL 2
REMARK VINA RESULT:     -12.4      2.273      3.630
REMARK SMILES Cc1cccc2c1[C@H]1c3c(C)cccc3[C@H](CC(=O)NCCCCCCNC(=O)c3ccc(-c4c5nc(c(-c6cc(S(=O)(=O)[O-])ccc6F)c6ccc([nH]6)c(-c6cc(S(=O)(=O)[O-])ccc6F)c6nc(c(-c7cc(S(=O)(=O)[O-])ccc7F)c7ccc4[nH]7)C=C6)C=C5)cc3)C[C@H]1CC2
REMARK SMILES IDX 24 1 23 2 22 3 21 4 20 5 18 6 19 7 17 9 16 10 1 11 2 12 3 13
REMARK SMILES IDX 7 14 4 15 6 16 8 17 5 18 96 19 9 20 94 21 95 22 10 23 15 24
REMARK SMILES IDX 93 25 12 26 11 27 14 28 13 29 25 30 26 31 27 32 28 33 29 35
REMARK SMILES IDX 30 36 31 37 92 38 32 39 91 40 33 41 34 42 35 43 85 44 36 45
REMARK SMILES IDX 90 46 84 47 86 48 37 49 89 50 83 51 82 52 38 54 70 55 50 56
REMARK SMILES IDX 69 57 51 58 54 59 68 60 87 61 52 62 53 63 67 65 88 66 55 67
REMARK SMILES IDX 39 68 40 69 48 70 41 71 47 72 49 73 46 74 42 75 43 76 44 77
REMARK SMILES IDX 45 78 71 79 72 80 80 81 73 82 79 83 81 84 78 85 74 86 75 87
REMARK SMILES IDX 76 88 77 89 56 90 57 91 65 92 58 93 64 94 66 95 63 96 59 97
REMARK SMILES IDX 60 98 61 99 62 100
REMARK H PARENT 20 8 27 34 86 53 54 64
REMARK Flexibility Score: inf
ROOT
ATOM      1  C   UNL A   1      34.892  33.214  28.001  1.00  0.00     0.002 C 
ENDROOT
BRANCH   1   2
ATOM      2  C   UNL A   1      34.711  31.694  28.045  1.00  0.00     0.002 C 
BRANCH   2   3
ATOM      3  C   UNL A   1      33.323  31.198  27.626  1.00  0.00     0.021 C 
BRANCH   3   4
ATOM      4  C   UNL A   1      33.308  29.774  27.084  1.00  0.00     0.116 C 
BRANCH   4   5
ATOM      5  N   UNL A   1      33.656  29.767  25.676  1.00  0.00    -0.356 N 
ATOM      6  C   UNL A   1      33.035  29.119  24.653  1.00  0.00     0.220 C 
ATOM      7  O   UNL A   1      33.596  29.049  23.561  1.00  0.00    -0.275 OA
ATOM      8  H   UNL A   1      34.445  30.300  25.427  1.00  0.00     0.163 HD
BRANCH   6   9
ATOM      9  C   UNL A   1      31.651  28.569  24.893  1.00  0.00     0.108 C 
BRANCH   9  10
ATOM     10  C   UNL A   1      31.536  27.033  25.010  1.00  0.00     0.029 C 
ATOM     11  C   UNL A   1      35.852  22.978  25.302  1.00  0.00     0.044 C 
ATOM     12  C   UNL A   1      34.521  22.278  25.210  1.00  0.00    -0.047 A 
ATOM     13  C   UNL A   1      34.538  20.872  25.123  1.00  0.00     0.004 A 
ATOM     14  C   UNL A   1      33.278  22.958  25.286  1.00  0.00    -0.034 A 
ATOM     15  C   UNL A   1      33.359  20.137  25.151  1.00  0.00     0.001 A 
ATOM     16  C   UNL A   1      32.109  22.189  25.484  1.00  0.00    -0.044 A 
ATOM     17  C   UNL A   1      33.158  24.483  25.161  1.00  0.00     0.053 C 
ATOM     18  C   UNL A   1      32.155  20.790  25.370  1.00  0.00     0.004 A 
ATOM     19  C   UNL A   1      30.821  22.792  25.984  1.00  0.00     0.036 C 
ATOM     20  C   UNL A   1      32.739  25.069  23.780  1.00  0.00    -0.034 A 
ATOM     21  C   UNL A   1      32.191  24.940  26.284  1.00  0.00     0.002 C 
ATOM     22  C   UNL A   1      30.797  24.309  26.119  1.00  0.00     0.009 C 
ATOM     23  C   UNL A   1      33.112  24.515  22.519  1.00  0.00    -0.047 A 
ATOM     24  C   UNL A   1      31.961  26.269  23.754  1.00  0.00    -0.040 A 
ATOM     25  C   UNL A   1      32.139  26.471  26.304  1.00  0.00     0.013 C 
ATOM     26  C   UNL A   1      32.622  25.077  21.320  1.00  0.00     0.004 A 
ATOM     27  C   UNL A   1      34.008  23.326  22.320  1.00  0.00     0.044 C 
ATOM     28  C   UNL A   1      31.439  26.745  22.531  1.00  0.00     0.004 A 
ATOM     29  C   UNL A   1      31.774  26.166  21.322  1.00  0.00     0.001 A 
ENDBRANCH   9  10
ENDBRANCH   6   9
ENDBRANCH   4   5
ENDBRANCH   3   4
ENDBRANCH   2   3
ENDBRANCH   1   2
BRANCH   1  30
ATOM     30  C   UNL A   1      33.609  34.015  28.216  1.00  0.00     0.021 C 
BRANCH  30  31
ATOM     31  C   UNL A   1      33.822  35.379  28.860  1.00  0.00     0.116 C 
BRANCH  31  32
ATOM     32  N   UNL A   1      33.029  35.545  30.068  1.00  0.00    -0.352 N 
ATOM     33  C   UNL A   1      33.249  34.968  31.296  1.00  0.00     0.251 C 
ATOM     34  H   UNL A   1      32.247  36.138  29.999  1.00  0.00     0.163 HD
ATOM     35  O   UNL A   1      32.444  35.074  32.206  1.00  0.00    -0.269 OA
BRANCH  33  36
ATOM     36  C   UNL A   1      34.490  34.191  31.467  1.00  0.00     0.039 A 
ATOM     37  C   UNL A   1      35.718  34.829  31.293  1.00  0.00     0.014 A 
ATOM     38  C   UNL A   1      34.417  32.866  31.911  1.00  0.00     0.014 A 
ATOM     39  C   UNL A   1      36.889  34.144  31.610  1.00  0.00     0.010 A 
ATOM     40  C   UNL A   1      35.584  32.204  32.275  1.00  0.00     0.010 A 
ATOM     41  C   UNL A   1      36.827  32.835  32.121  1.00  0.00    -0.014 A 
BRANCH  41  42
ATOM     42  C   UNL A   1      38.066  32.113  32.489  1.00  0.00     0.031 A 
ATOM     43  C   UNL A   1      38.756  32.432  33.782  1.00  0.00     0.074 A 
ATOM     44  C   UNL A   1      38.583  31.201  31.644  1.00  0.00     0.049 A 
ATOM     45  N   UNL A   1      39.821  31.881  34.300  1.00  0.00    -0.248 NA
ATOM     46  C   UNL A   1      38.186  33.521  34.591  1.00  0.00     0.031 C 
ATOM     47  C   UNL A   1      38.029  30.859  30.334  1.00  0.00     0.029 A 
ATOM     48  N   UNL A   1      39.689  30.398  31.759  1.00  0.00    -0.354 N 
ATOM     49  C   UNL A   1      40.044  32.548  35.498  1.00  0.00     0.074 A 
ATOM     50  C   UNL A   1      39.045  33.588  35.597  1.00  0.00     0.031 C 
ATOM     51  C   UNL A   1      38.784  29.898  29.776  1.00  0.00     0.029 A 
ATOM     52  C   UNL A   1      39.883  29.567  30.681  1.00  0.00     0.049 A 
ATOM     53  H   UNL A   1      40.288  30.414  32.540  1.00  0.00     0.167 HD
ATOM     54  C   UNL A   1      40.975  32.292  36.445  1.00  0.00     0.034 A 
ATOM     55  C   UNL A   1      40.829  28.634  30.455  1.00  0.00     0.034 A 
ATOM     56  C   UNL A   1      41.956  31.246  36.339  1.00  0.00     0.049 A 
ATOM     57  C   UNL A   1      41.853  28.359  31.528  1.00  0.00     0.074 A 
ATOM     58  C   UNL A   1      42.910  30.871  37.268  1.00  0.00     0.029 A 
ATOM     59  N   UNL A   1      42.110  30.409  35.244  1.00  0.00    -0.354 N 
ATOM     60  N   UNL A   1      41.983  28.924  32.705  1.00  0.00    -0.248 NA
ATOM     61  C   UNL A   1      42.846  27.312  31.253  1.00  0.00     0.031 C 
ATOM     62  C   UNL A   1      43.665  29.832  36.720  1.00  0.00     0.029 A 
ATOM     63  C   UNL A   1      43.155  29.528  35.467  1.00  0.00     0.049 A 
ATOM     64  H   UNL A   1      41.559  30.437  34.429  1.00  0.00     0.167 HD
ATOM     65  C   UNL A   1      43.055  28.286  33.321  1.00  0.00     0.074 A 
ATOM     66  C   UNL A   1      43.526  27.278  32.392  1.00  0.00     0.031 C 
ATOM     67  C   UNL A   1      43.603  28.517  34.540  1.00  0.00     0.034 A 
BRANCH  54  68
ATOM     68  C   UNL A   1      40.957  33.124  37.697  1.00  0.00     0.023 A 
ATOM     69  C   UNL A   1      40.153  32.750  38.788  1.00  0.00     0.031 A 
ATOM     70  C   UNL A   1      41.668  34.335  37.772  1.00  0.00     0.131 A 
ATOM     71  C   UNL A   1      40.066  33.592  39.904  1.00  0.00     0.055 A 
ATOM     72  C   UNL A   1      41.604  35.155  38.899  1.00  0.00     0.041 A 
ATOM     73  F   UNL A   1      42.453  34.728  36.755  1.00  0.00    -0.206 F 
ATOM     74  C   UNL A   1      40.793  34.787  39.969  1.00  0.00     0.022 A 
BRANCH  71  75
ATOM     75  S   UNL A   1      38.993  33.181  41.305  1.00  0.00     0.124 S 
ATOM     76  O   UNL A   1      39.287  31.764  41.506  1.00  0.00    -0.237 OA
ATOM     77  O   UNL A   1      39.495  34.076  42.343  1.00  0.00    -0.237 OA
ATOM     78  O   UNL A   1      37.649  33.468  40.813  1.00  0.00    -0.744 OA
ENDBRANCH  71  75
ENDBRANCH  54  68
BRANCH  55  79
ATOM     79  C   UNL A   1      40.782  27.838  29.197  1.00  0.00     0.023 A 
ATOM     80  C   UNL A   1      41.682  28.087  28.145  1.00  0.00     0.031 A 
ATOM     81  C   UNL A   1      39.773  26.881  28.996  1.00  0.00     0.131 A 
ATOM     82  C   UNL A   1      41.524  27.418  26.923  1.00  0.00     0.055 A 
ATOM     83  C   UNL A   1      39.655  26.176  27.796  1.00  0.00     0.041 A 
ATOM     84  F   UNL A   1      38.885  26.623  29.968  1.00  0.00    -0.206 F 
ATOM     85  C   UNL A   1      40.527  26.453  26.748  1.00  0.00     0.022 A 
BRANCH  82  86
ATOM     86  S   UNL A   1      42.550  27.844  25.489  1.00  0.00     0.124 S 
ATOM     87  O   UNL A   1      41.899  29.052  24.992  1.00  0.00    -0.237 OA
ATOM     88  O   UNL A   1      43.858  28.043  26.111  1.00  0.00    -0.237 OA
ATOM     89  O   UNL A   1      42.444  26.671  24.628  1.00  0.00    -0.744 OA
ENDBRANCH  82  86
ENDBRANCH  55  79
BRANCH  67  90
ATOM     90  C   UNL A   1      44.776  27.675  34.971  1.00  0.00     0.023 A 
ATOM     91  C   UNL A   1      44.561  26.485  35.692  1.00  0.00     0.031 A 
ATOM     92  C   UNL A   1      46.096  28.123  34.797  1.00  0.00     0.131 A 
ATOM     93  C   UNL A   1      45.651  25.802  36.244  1.00  0.00     0.055 A 
ATOM     94  C   UNL A   1      47.182  27.416  35.314  1.00  0.00     0.041 A 
ATOM     95  F   UNL A   1      46.346  29.257  34.123  1.00  0.00    -0.206 F 
ATOM     96  C   UNL A   1      46.960  26.257  36.052  1.00  0.00     0.022 A 
BRANCH  93  97
ATOM     97  S   UNL A   1      45.409  24.337  37.286  1.00  0.00     0.124 S 
ATOM     98  O   UNL A   1      44.353  24.781  38.193  1.00  0.00    -0.237 OA
ATOM     99  O   UNL A   1      45.006  23.329  36.307  1.00  0.00    -0.237 OA
ATOM    100  O   UNL A   1      46.712  24.124  37.905  1.00  0.00    -0.744 OA
ENDBRANCH  93  97
ENDBRANCH  67  90
ENDBRANCH  41  42
ENDBRANCH  33  36
ENDBRANCH  31  32
ENDBRANCH  30  31
ENDBRANCH   1  30
TORSDOF 17
ENDMDL
MODEL 3
REMARK VINA RESULT:     -12.3      1.146      2.176
REMARK SMILES Cc1cccc2c1[C@H]1c3c(C)cccc3[C@H](CC(=O)NCCCCCCNC(=O)c3ccc(-c4c5nc(c(-c6cc(S(=O)(=O)[O-])ccc6F)c6ccc([nH]6)c(-c6cc(S(=O)(=O)[O-])ccc6F)c6nc(c(-c7cc(S(=O)(=O)[O-])ccc7F)c7ccc4[nH]7)C=C6)C=C5)cc3)C[C@H]1CC2
REMARK SMILES IDX 24 1 23 2 22 3 21 4 20 5 18 6 19 7 17 9 16 10 1 11 2 12 3 13
REMARK SMILES IDX 7 14 4 15 6 16 8 17 5 18 96 19 9 20 94 21 95 22 10 23 15 24
REMARK SMILES IDX 93 25 12 26 11 27 14 28 13 29 25 30 26 31 27 32 28 33 29 35
REMARK SMILES IDX 30 36 31 37 92 38 32 39 91 40 33 41 34 42 35 43 85 44 36 45
REMARK SMILES IDX 90 46 84 47 86 48 37 49 89 50 83 51 82 52 38 54 70 55 50 56
REMARK SMILES IDX 69 57 51 58 54 59 68 60 87 61 52 62 53 63 67 65 88 66 55 67
REMARK SMILES IDX 39 68 40 69 48 70 41 71 47 72 49 73 46 74 42 75 43 76 44 77
REMARK SMILES IDX 45 78 71 79 72 80 80 81 73 82 79 83 81 84 78 85 74 86 75 87
REMARK SMILES IDX 76 88 77 89 56 90 57 91 65 92 58 93 64 94 66 95 63 96 59 97
REMARK SMILES IDX 60 98 61 99 62 100
REMARK H PARENT 20 8 27 34 86 53 54 64
REMARK Flexibility Score: inf
ROOT
ATOM      1  C   UNL A   1      31.741  29.956  25.188  1.00  0.00     0.002 C 
ENDROOT
BRANCH   1   2
ATOM      2  C   UNL A   1      31.236  28.545  24.875  1.00  0.00     0.002 C 
BRANCH   2   3
ATOM      3  C   UNL A   1      30.401  28.428  23.595  1.00  0.00     0.021 C 
BRANCH   3   4
ATOM      4  C   UNL A   1      30.494  27.069  22.913  1.00  0.00     0.116 C 
BRANCH   4   5
ATOM      5  N   UNL A   1      31.656  27.017  22.047  1.00  0.00    -0.356 N 
ATOM      6  C   UNL A   1      32.874  26.461  22.295  1.00  0.00     0.220 C 
ATOM      7  O   UNL A   1      33.808  26.703  21.534  1.00  0.00    -0.275 OA
ATOM      8  H   UNL A   1      31.552  27.438  21.164  1.00  0.00     0.163 HD
BRANCH   6   9
ATOM      9  C   UNL A   1      33.001  25.518  23.467  1.00  0.00     0.108 C 
BRANCH   9  10
ATOM     10  C   UNL A   1      32.938  24.009  23.140  1.00  0.00     0.029 C 
ATOM     11  C   UNL A   1      32.807  19.389  26.854  1.00  0.00     0.044 C 
ATOM     12  C   UNL A   1      32.918  18.883  25.439  1.00  0.00    -0.047 A 
ATOM     13  C   UNL A   1      33.055  17.492  25.261  1.00  0.00     0.004 A 
ATOM     14  C   UNL A   1      32.813  19.726  24.302  1.00  0.00    -0.034 A 
ATOM     15  C   UNL A   1      33.047  16.927  23.991  1.00  0.00     0.001 A 
ATOM     16  C   UNL A   1      32.637  19.119  23.038  1.00  0.00    -0.044 A 
ATOM     17  C   UNL A   1      32.883  21.256  24.394  1.00  0.00     0.053 C 
ATOM     18  C   UNL A   1      32.801  17.732  22.890  1.00  0.00     0.004 A 
ATOM     19  C   UNL A   1      32.111  19.877  21.845  1.00  0.00     0.036 C 
ATOM     20  C   UNL A   1      34.242  21.943  24.061  1.00  0.00    -0.034 A 
ATOM     21  C   UNL A   1      31.741  21.803  23.498  1.00  0.00     0.002 C 
ATOM     22  C   UNL A   1      31.923  21.377  22.030  1.00  0.00     0.009 C 
ATOM     23  C   UNL A   1      35.523  21.388  24.354  1.00  0.00    -0.047 A 
ATOM     24  C   UNL A   1      34.222  23.239  23.456  1.00  0.00    -0.040 A 
ATOM     25  C   UNL A   1      31.667  23.324  23.659  1.00  0.00     0.013 C 
ATOM     26  C   UNL A   1      36.699  22.054  23.948  1.00  0.00     0.004 A 
ATOM     27  C   UNL A   1      35.767  20.094  25.078  1.00  0.00     0.044 C 
ATOM     28  C   UNL A   1      35.426  23.826  23.006  1.00  0.00     0.004 A 
ATOM     29  C   UNL A   1      36.655  23.249  23.259  1.00  0.00     0.001 A 
ENDBRANCH   9  10
ENDBRANCH   6   9
ENDBRANCH   4   5
ENDBRANCH   3   4
ENDBRANCH   2   3
ENDBRANCH   1   2
BRANCH   1  30
ATOM     30  C   UNL A   1      31.790  30.300  26.676  1.00  0.00     0.021 C 
BRANCH  30  31
ATOM     31  C   UNL A   1      33.009  31.113  27.092  1.00  0.00     0.116 C 
BRANCH  31  32
ATOM     32  N   UNL A   1      32.703  32.528  27.234  1.00  0.00    -0.352 N 
ATOM     33  C   UNL A   1      33.350  33.446  28.026  1.00  0.00     0.251 C 
ATOM     34  H   UNL A   1      31.946  32.866  26.703  1.00  0.00     0.163 HD
ATOM     35  O   UNL A   1      32.925  34.581  28.168  1.00  0.00    -0.269 OA
BRANCH  33  36
ATOM     36  C   UNL A   1      34.571  32.999  28.721  1.00  0.00     0.039 A 
ATOM     37  C   UNL A   1      34.450  32.316  29.931  1.00  0.00     0.014 A 
ATOM     38  C   UNL A   1      35.814  33.163  28.101  1.00  0.00     0.014 A 
ATOM     39  C   UNL A   1      35.587  31.753  30.508  1.00  0.00     0.010 A 
ATOM     40  C   UNL A   1      36.936  32.557  28.653  1.00  0.00     0.010 A 
ATOM     41  C   UNL A   1      36.832  31.853  29.862  1.00  0.00    -0.014 A 
BRANCH  41  42
ATOM     42  C   UNL A   1      38.037  31.230  30.455  1.00  0.00     0.031 A 
ATOM     43  C   UNL A   1      38.454  31.595  31.849  1.00  0.00     0.074 A 
ATOM     44  C   UNL A   1      38.769  30.367  29.726  1.00  0.00     0.049 A 
ATOM     45  N   UNL A   1      39.448  31.128  32.556  1.00  0.00    -0.248 NA
ATOM     46  C   UNL A   1      37.662  32.631  32.531  1.00  0.00     0.031 C 
ATOM     47  C   UNL A   1      38.490  29.989  28.340  1.00  0.00     0.029 A 
ATOM     48  N   UNL A   1      39.896  29.654  30.046  1.00  0.00    -0.354 N 
ATOM     49  C   UNL A   1      39.396  31.805  33.768  1.00  0.00     0.074 A 
ATOM     50  C   UNL A   1      38.316  32.761  33.675  1.00  0.00     0.031 C 
ATOM     51  C   UNL A   1      39.408  29.095  27.937  1.00  0.00     0.029 A 
ATOM     52  C   UNL A   1      40.347  28.847  29.028  1.00  0.00     0.049 A 
ATOM     53  H   UNL A   1      40.341  29.714  30.922  1.00  0.00     0.167 HD
ATOM     54  C   UNL A   1      40.159  31.619  34.869  1.00  0.00     0.034 A 
ATOM     55  C   UNL A   1      41.390  27.994  28.985  1.00  0.00     0.034 A 
ATOM     56  C   UNL A   1      41.222  30.656  34.953  1.00  0.00     0.049 A 
ATOM     57  C   UNL A   1      42.221  27.796  30.228  1.00  0.00     0.074 A 
ATOM     58  C   UNL A   1      42.019  30.352  36.042  1.00  0.00     0.029 A 
ATOM     59  N   UNL A   1      41.638  29.839  33.911  1.00  0.00    -0.354 N 
ATOM     60  N   UNL A   1      42.091  28.363  31.404  1.00  0.00    -0.248 NA
ATOM     61  C   UNL A   1      43.328  26.833  30.147  1.00  0.00     0.031 C 
ATOM     62  C   UNL A   1      42.941  29.380  35.648  1.00  0.00     0.029 A 
ATOM     63  C   UNL A   1      42.692  29.044  34.327  1.00  0.00     0.049 A 
ATOM     64  H   UNL A   1      41.243  29.828  33.010  1.00  0.00     0.167 HD
ATOM     65  C   UNL A   1      43.082  27.809  32.209  1.00  0.00     0.074 A 
ATOM     66  C   UNL A   1      43.791  26.847  31.391  1.00  0.00     0.031 C 
ATOM     67  C   UNL A   1      43.379  28.077  33.505  1.00  0.00     0.034 A 
BRANCH  54  68
ATOM     68  C   UNL A   1      39.847  32.440  36.091  1.00  0.00     0.023 A 
ATOM     69  C   UNL A   1      38.865  32.016  37.002  1.00  0.00     0.031 A 
ATOM     70  C   UNL A   1      40.463  33.687  36.300  1.00  0.00     0.131 A 
ATOM     71  C   UNL A   1      38.514  32.844  38.075  1.00  0.00     0.055 A 
ATOM     72  C   UNL A   1      40.133  34.494  37.389  1.00  0.00     0.041 A 
ATOM     73  F   UNL A   1      41.412  34.129  35.458  1.00  0.00    -0.206 F 
ATOM     74  C   UNL A   1      39.147  34.075  38.278  1.00  0.00     0.022 A 
BRANCH  71  75
ATOM     75  S   UNL A   1      37.208  32.366  39.237  1.00  0.00     0.124 S 
ATOM     76  O   UNL A   1      37.585  33.107  40.439  1.00  0.00    -0.237 OA
ATOM     77  O   UNL A   1      36.008  32.847  38.558  1.00  0.00    -0.237 OA
ATOM     78  O   UNL A   1      37.342  30.917  39.339  1.00  0.00    -0.744 OA
ENDBRANCH  71  75
ENDBRANCH  54  68
BRANCH  55  79
ATOM     79  C   UNL A   1      41.635  27.203  27.746  1.00  0.00     0.023 A 
ATOM     80  C   UNL A   1      41.388  25.819  27.707  1.00  0.00     0.031 A 
ATOM     81  C   UNL A   1      42.209  27.809  26.616  1.00  0.00     0.131 A 
ATOM     82  C   UNL A   1      41.758  25.080  26.575  1.00  0.00     0.055 A 
ATOM     83  C   UNL A   1      42.524  27.078  25.470  1.00  0.00     0.041 A 
ATOM     84  F   UNL A   1      42.475  29.124  26.618  1.00  0.00    -0.206 F 
ATOM     85  C   UNL A   1      42.309  25.703  25.450  1.00  0.00     0.022 A 
BRANCH  82  86
ATOM     86  S   UNL A   1      41.621  23.272  26.558  1.00  0.00     0.124 S 
ATOM     87  O   UNL A   1      40.176  23.073  26.502  1.00  0.00    -0.237 OA
ATOM     88  O   UNL A   1      42.353  22.931  25.340  1.00  0.00    -0.237 OA
ATOM     89  O   UNL A   1      42.265  22.866  27.803  1.00  0.00    -0.744 OA
ENDBRANCH  82  86
ENDBRANCH  55  79
BRANCH  67  90
ATOM     90  C   UNL A   1      44.518  27.328  34.149  1.00  0.00     0.023 A 
ATOM     91  C   UNL A   1      44.283  26.088  34.771  1.00  0.00     0.031 A 
ATOM     92  C   UNL A   1      45.792  27.909  34.273  1.00  0.00     0.131 A 
ATOM     93  C   UNL A   1      45.300  25.484  35.520  1.00  0.00     0.055 A 
ATOM     94  C   UNL A   1      46.814  27.282  34.986  1.00  0.00     0.041 A 
ATOM     95  F   UNL A   1      46.057  29.095  33.703  1.00  0.00    -0.206 F 
ATOM     96  C   UNL A   1      46.565  26.070  35.625  1.00  0.00     0.022 A 
BRANCH  93  97
ATOM     97  S   UNL A   1      45.000  23.950  36.441  1.00  0.00     0.124 S 
ATOM     98  O   UNL A   1      44.691  24.453  37.777  1.00  0.00    -0.237 OA
ATOM     99  O   UNL A   1      43.870  23.374  35.715  1.00  0.00    -0.237 OA
ATOM    100  O   UNL A   1      46.256  23.218  36.327  1.00  0.00    -0.744 OA
ENDBRANCH  93  97
ENDBRANCH  67  90
ENDBRANCH  41  42
ENDBRANCH  33  36
ENDBRANCH  31  32
ENDBRANCH  30  31
ENDBRANCH   1  30
TORSDOF 17
ENDMDL
