MODEL 1
REMARK VINA RESULT:     -13.2      0.000      0.000
REMARK SMILES Cc1ccccc1/[NH+]=C1\S[C@@H](CC(=O)Nc2ccc(C(=O)NCCCCCCNC(=O)c3ccc(-c4c5nc(c(-c6cc(S(=O)(=O)[O-])ccc6F)c6ccc([nH]6)c(-c6cc(S(=O)(=O)[O-])ccc6F)c6nc(c(-c7cc(S(=O)(=O)[O-])ccc7F)c7ccc4[nH]7)C=C6)C=C5)cc3)cc2)C(=O)N1C
REMARK SMILES IDX 25 1 24 2 23 3 22 4 20 5 21 6 19 8 16 9 17 10 96 11 18 12
REMARK SMILES IDX 95 13 15 14 13 15 14 16 12 18 11 19 8 20 9 21 10 23 99 24
REMARK SMILES IDX 97 25 100 26 98 27 7 28 1 29 2 30 3 31 4 32 6 33 5 34 26 35
REMARK SMILES IDX 27 36 28 37 29 38 30 39 31 41 32 42 33 43 94 44 34 45 93 46
REMARK SMILES IDX 35 47 36 48 37 49 87 50 38 51 92 52 86 53 88 54 39 55 91 56
REMARK SMILES IDX 85 57 84 58 40 60 72 61 52 62 71 63 53 64 56 65 70 66 89 67
REMARK SMILES IDX 54 68 55 69 69 71 90 72 57 73 41 74 42 75 50 76 43 77 49 78
REMARK SMILES IDX 51 79 48 80 44 81 45 82 46 83 47 84 73 85 74 86 82 87 75 88
REMARK SMILES IDX 81 89 83 90 80 91 76 92 77 93 78 94 79 95 58 96 59 97 67 98
REMARK SMILES IDX 60 99 66 100 68 101 65 102 61 103 62 104 63 105 64 106
REMARK H PARENT 22 7 15 17 8 22 29 40 88 59 56 70
REMARK Flexibility Score: inf
ROOT
ATOM      1  C   UNL A   1      40.583  20.809  26.012  1.00  0.00     0.002 C 
ENDROOT
BRANCH   1   2
ATOM      2  C   UNL A   1      39.784  22.053  26.439  1.00  0.00     0.021 C 
BRANCH   2   3
ATOM      3  C   UNL A   1      38.282  22.001  26.142  1.00  0.00     0.116 C 
BRANCH   3   4
ATOM      4  N   UNL A   1      37.992  22.230  24.731  1.00  0.00    -0.352 N 
ATOM      5  C   UNL A   1      36.836  22.576  24.071  1.00  0.00     0.251 C 
ATOM      6  O   UNL A   1      36.905  22.933  22.896  1.00  0.00    -0.269 OA
ATOM      7  H   UNL A   1      38.771  22.114  24.140  1.00  0.00     0.163 HD
BRANCH   5   8
ATOM      8  C   UNL A   1      35.507  22.580  24.734  1.00  0.00     0.039 A 
ATOM      9  C   UNL A   1      33.091  22.557  26.148  1.00  0.00     0.041 A 
ATOM     10  C   UNL A   1      33.254  21.779  25.003  1.00  0.00     0.027 A 
ATOM     11  C   UNL A   1      34.068  23.480  26.496  1.00  0.00     0.027 A 
ATOM     12  C   UNL A   1      34.452  21.788  24.293  1.00  0.00     0.016 A 
ATOM     13  C   UNL A   1      35.283  23.478  25.796  1.00  0.00     0.016 A 
BRANCH   9  14
ATOM     14  N   UNL A   1      31.971  22.372  26.967  1.00  0.00    -0.326 N 
ATOM     15  C   UNL A   1      30.772  23.044  26.844  1.00  0.00     0.226 C 
ATOM     16  O   UNL A   1      29.916  22.976  27.726  1.00  0.00    -0.275 OA
ATOM     17  H   UNL A   1      32.044  21.706  27.688  1.00  0.00     0.169 HD
BRANCH  15  18
ATOM     18  C   UNL A   1      30.461  23.691  25.503  1.00  0.00     0.128 C 
BRANCH  18  19
ATOM     19  C   UNL A   1      31.322  24.875  25.124  1.00  0.00     0.183 C 
ATOM     20  N   UNL A   1      31.834  28.510  24.589  1.00  0.00    -0.234 N 
ATOM     21  C   UNL A   1      31.296  27.345  24.608  1.00  0.00     0.319 C 
ATOM     22  H   UNL A   1      32.047  28.858  23.694  1.00  0.00     0.313 HD
ATOM     23  S   UNL A   1      30.672  26.397  25.916  1.00  0.00    -0.022 SA
ATOM     24  N   UNL A   1      31.214  26.602  23.467  1.00  0.00    -0.193 N 
ATOM     25  C   UNL A   1      31.389  25.248  23.654  1.00  0.00     0.324 C 
ATOM     26  C   UNL A   1      31.200  27.176  22.137  1.00  0.00     0.301 C 
ATOM     27  O   UNL A   1      31.692  24.458  22.768  1.00  0.00    -0.245 OA
BRANCH  20  28
ATOM     28  C   UNL A   1      32.161  29.361  25.654  1.00  0.00     0.128 A 
ATOM     29  C   UNL A   1      34.344  28.225  26.459  1.00  0.00     0.049 C 
ATOM     30  C   UNL A   1      33.317  29.322  26.464  1.00  0.00    -0.004 A 
ATOM     31  C   UNL A   1      33.576  30.388  27.352  1.00  0.00     0.008 A 
ATOM     32  C   UNL A   1      32.769  31.520  27.384  1.00  0.00     0.001 A 
ATOM     33  C   UNL A   1      31.356  30.513  25.721  1.00  0.00     0.052 A 
ATOM     34  C   UNL A   1      31.657  31.587  26.559  1.00  0.00     0.004 A 
ENDBRANCH  20  28
ENDBRANCH  18  19
ENDBRANCH  15  18
ENDBRANCH   9  14
ENDBRANCH   5   8
ENDBRANCH   3   4
ENDBRANCH   2   3
ENDBRANCH   1   2
BRANCH   1  35
ATOM     35  C   UNL A   1      41.124  19.907  27.137  1.00  0.00     0.002 C 
BRANCH  35  36
ATOM     36  C   UNL A   1      42.328  19.036  26.775  1.00  0.00     0.021 C 
BRANCH  36  37
ATOM     37  C   UNL A   1      42.899  19.307  25.385  1.00  0.00     0.116 C 
BRANCH  37  38
ATOM     38  N   UNL A   1      44.297  19.728  25.387  1.00  0.00    -0.352 N 
ATOM     39  C   UNL A   1      44.845  20.984  25.609  1.00  0.00     0.251 C 
ATOM     40  H   UNL A   1      44.949  19.015  25.200  1.00  0.00     0.163 HD
ATOM     41  O   UNL A   1      46.038  21.179  25.471  1.00  0.00    -0.269 OA
BRANCH  39  42
ATOM     42  C   UNL A   1      43.971  22.070  26.118  1.00  0.00     0.039 A 
ATOM     43  C   UNL A   1      43.634  23.113  25.243  1.00  0.00     0.014 A 
ATOM     44  C   UNL A   1      43.661  22.160  27.470  1.00  0.00     0.014 A 
ATOM     45  C   UNL A   1      43.207  24.333  25.763  1.00  0.00     0.010 A 
ATOM     46  C   UNL A   1      43.346  23.394  27.994  1.00  0.00     0.010 A 
ATOM     47  C   UNL A   1      43.174  24.494  27.146  1.00  0.00    -0.014 A 
BRANCH  47  48
ATOM     48  C   UNL A   1      43.088  25.782  27.822  1.00  0.00     0.031 A 
ATOM     49  C   UNL A   1      41.866  26.603  27.732  1.00  0.00     0.074 A 
ATOM     50  C   UNL A   1      44.073  26.156  28.668  1.00  0.00     0.049 A 
ATOM     51  N   UNL A   1      41.811  27.848  28.061  1.00  0.00    -0.248 NA
ATOM     52  C   UNL A   1      40.607  26.103  27.196  1.00  0.00     0.031 C 
ATOM     53  C   UNL A   1      43.994  27.160  29.725  1.00  0.00     0.029 A 
ATOM     54  N   UNL A   1      45.426  25.849  28.587  1.00  0.00    -0.354 N 
ATOM     55  C   UNL A   1      40.490  28.224  28.086  1.00  0.00     0.074 A 
ATOM     56  C   UNL A   1      39.799  27.143  27.425  1.00  0.00     0.031 C 
ATOM     57  C   UNL A   1      45.233  27.560  30.044  1.00  0.00     0.029 A 
ATOM     58  C   UNL A   1      46.140  26.954  29.087  1.00  0.00     0.049 A 
ATOM     59  H   UNL A   1      45.815  25.011  28.244  1.00  0.00     0.167 HD
ATOM     60  C   UNL A   1      40.143  29.341  28.787  1.00  0.00     0.034 A 
ATOM     61  C   UNL A   1      47.021  27.641  28.301  1.00  0.00     0.034 A 
ATOM     62  C   UNL A   1      41.328  30.048  29.295  1.00  0.00     0.049 A 
ATOM     63  C   UNL A   1      46.677  29.106  28.098  1.00  0.00     0.074 A 
ATOM     64  C   UNL A   1      41.892  30.226  30.548  1.00  0.00     0.029 A 
ATOM     65  N   UNL A   1      42.254  30.544  28.391  1.00  0.00    -0.354 N 
ATOM     66  N   UNL A   1      45.574  29.669  28.509  1.00  0.00    -0.248 NA
ATOM     67  C   UNL A   1      47.514  30.036  27.341  1.00  0.00     0.031 C 
ATOM     68  C   UNL A   1      43.150  30.872  30.383  1.00  0.00     0.029 A 
ATOM     69  C   UNL A   1      43.342  31.099  29.033  1.00  0.00     0.049 A 
ATOM     70  H   UNL A   1      42.148  30.505  27.414  1.00  0.00     0.167 HD
ATOM     71  C   UNL A   1      45.497  30.955  28.031  1.00  0.00     0.074 A 
ATOM     72  C   UNL A   1      46.745  31.140  27.311  1.00  0.00     0.031 C 
ATOM     73  C   UNL A   1      44.386  31.729  28.235  1.00  0.00     0.034 A 
BRANCH  60  74
ATOM     74  C   UNL A   1      38.741  29.728  29.233  1.00  0.00     0.023 A 
ATOM     75  C   UNL A   1      38.260  31.012  28.890  1.00  0.00     0.031 A 
ATOM     76  C   UNL A   1      37.857  28.964  30.022  1.00  0.00     0.131 A 
ATOM     77  C   UNL A   1      37.043  31.512  29.389  1.00  0.00     0.055 A 
ATOM     78  C   UNL A   1      36.649  29.463  30.529  1.00  0.00     0.041 A 
ATOM     79  F   UNL A   1      38.082  27.685  30.327  1.00  0.00    -0.206 F 
ATOM     80  C   UNL A   1      36.241  30.749  30.227  1.00  0.00     0.022 A 
BRANCH  77  81
ATOM     81  S   UNL A   1      36.543  33.199  28.955  1.00  0.00     0.124 S 
ATOM     82  O   UNL A   1      35.581  33.513  30.007  1.00  0.00    -0.237 OA
ATOM     83  O   UNL A   1      37.812  33.918  28.998  1.00  0.00    -0.237 OA
ATOM     84  O   UNL A   1      35.966  33.046  27.619  1.00  0.00    -0.744 OA
ENDBRANCH  77  81
ENDBRANCH  60  74
BRANCH  61  85
ATOM     85  C   UNL A   1      47.685  26.762  27.296  1.00  0.00     0.023 A 
ATOM     86  C   UNL A   1      47.503  27.082  25.933  1.00  0.00     0.031 A 
ATOM     87  C   UNL A   1      48.780  25.957  27.643  1.00  0.00     0.131 A 
ATOM     88  C   UNL A   1      48.481  26.732  24.992  1.00  0.00     0.055 A 
ATOM     89  C   UNL A   1      49.724  25.563  26.687  1.00  0.00     0.041 A 
ATOM     90  F   UNL A   1      49.027  25.656  28.927  1.00  0.00    -0.206 F 
ATOM     91  C   UNL A   1      49.601  25.986  25.363  1.00  0.00     0.022 A 
BRANCH  88  92
ATOM     92  S   UNL A   1      48.392  27.487  23.339  1.00  0.00     0.124 S 
ATOM     93  O   UNL A   1      49.636  28.249  23.288  1.00  0.00    -0.237 OA
ATOM     94  O   UNL A   1      48.323  26.318  22.465  1.00  0.00    -0.237 OA
ATOM     95  O   UNL A   1      47.170  28.283  23.390  1.00  0.00    -0.744 OA
ENDBRANCH  88  92
ENDBRANCH  61  85
BRANCH  73  96
ATOM     96  C   UNL A   1      44.142  33.126  27.687  1.00  0.00     0.023 A 
ATOM     97  C   UNL A   1      43.972  34.259  28.495  1.00  0.00     0.031 A 
ATOM     98  C   UNL A   1      44.008  33.352  26.291  1.00  0.00     0.131 A 
ATOM     99  C   UNL A   1      43.763  35.535  27.926  1.00  0.00     0.055 A 
ATOM    100  C   UNL A   1      43.740  34.606  25.733  1.00  0.00     0.041 A 
ATOM    101  F   UNL A   1      44.159  32.373  25.389  1.00  0.00    -0.206 F 
ATOM    102  C   UNL A   1      43.632  35.713  26.551  1.00  0.00     0.022 A 
BRANCH  99 103
ATOM    103  S   UNL A   1      43.704  36.977  29.021  1.00  0.00     0.124 S 
ATOM    104  O   UNL A   1      43.476  36.372  30.329  1.00  0.00    -0.237 OA
ATOM    105  O   UNL A   1      45.025  37.564  28.815  1.00  0.00    -0.237 OA
ATOM    106  O   UNL A   1      42.588  37.766  28.498  1.00  0.00    -0.744 OA
ENDBRANCH  99 103
ENDBRANCH  73  96
ENDBRANCH  47  48
ENDBRANCH  39  42
ENDBRANCH  37  38
ENDBRANCH  36  37
ENDBRANCH  35  36
ENDBRANCH   1  35
TORSDOF 20
ENDMDL
MODEL 2
REMARK VINA RESULT:     -12.6      1.782      2.385
REMARK SMILES Cc1ccccc1/[NH+]=C1\S[C@@H](CC(=O)Nc2ccc(C(=O)NCCCCCCNC(=O)c3ccc(-c4c5nc(c(-c6cc(S(=O)(=O)[O-])ccc6F)c6ccc([nH]6)c(-c6cc(S(=O)(=O)[O-])ccc6F)c6nc(c(-c7cc(S(=O)(=O)[O-])ccc7F)c7ccc4[nH]7)C=C6)C=C5)cc3)cc2)C(=O)N1C
REMARK SMILES IDX 25 1 24 2 23 3 22 4 20 5 21 6 19 8 16 9 17 10 96 11 18 12
REMARK SMILES IDX 95 13 15 14 13 15 14 16 12 18 11 19 8 20 9 21 10 23 99 24
REMARK SMILES IDX 97 25 100 26 98 27 7 28 1 29 2 30 3 31 4 32 6 33 5 34 26 35
REMARK SMILES IDX 27 36 28 37 29 38 30 39 31 41 32 42 33 43 94 44 34 45 93 46
REMARK SMILES IDX 35 47 36 48 37 49 87 50 38 51 92 52 86 53 88 54 39 55 91 56
REMARK SMILES IDX 85 57 84 58 40 60 72 61 52 62 71 63 53 64 56 65 70 66 89 67
REMARK SMILES IDX 54 68 55 69 69 71 90 72 57 73 41 74 42 75 50 76 43 77 49 78
REMARK SMILES IDX 51 79 48 80 44 81 45 82 46 83 47 84 73 85 74 86 82 87 75 88
REMARK SMILES IDX 81 89 83 90 80 91 76 92 77 93 78 94 79 95 58 96 59 97 67 98
REMARK SMILES IDX 60 99 66 100 68 101 65 102 61 103 62 104 63 105 64 106
REMARK H PARENT 22 7 15 17 8 22 29 40 88 59 56 70
REMARK Flexibility Score: inf
ROOT
ATOM      1  C   UNL A   1      40.610  20.461  25.981  1.00  0.00     0.002 C 
ENDROOT
BRANCH   1   2
ATOM      2  C   UNL A   1      39.619  21.548  26.433  1.00  0.00     0.021 C 
BRANCH   2   3
ATOM      3  C   UNL A   1      38.177  21.363  25.950  1.00  0.00     0.116 C 
BRANCH   3   4
ATOM      4  N   UNL A   1      37.966  21.922  24.620  1.00  0.00    -0.352 N 
ATOM      5  C   UNL A   1      36.878  22.528  24.036  1.00  0.00     0.251 C 
ATOM      6  O   UNL A   1      37.027  23.122  22.969  1.00  0.00    -0.269 OA
ATOM      7  H   UNL A   1      38.750  21.854  24.029  1.00  0.00     0.163 HD
BRANCH   5   8
ATOM      8  C   UNL A   1      35.532  22.533  24.665  1.00  0.00     0.039 A 
ATOM      9  C   UNL A   1      33.081  22.534  26.017  1.00  0.00     0.041 A 
ATOM     10  C   UNL A   1      33.312  21.653  24.961  1.00  0.00     0.027 A 
ATOM     11  C   UNL A   1      34.004  23.533  26.292  1.00  0.00     0.027 A 
ATOM     12  C   UNL A   1      34.527  21.650  24.282  1.00  0.00     0.016 A 
ATOM     13  C   UNL A   1      35.236  23.521  25.624  1.00  0.00     0.016 A 
BRANCH   9  14
ATOM     14  N   UNL A   1      31.948  22.376  26.825  1.00  0.00    -0.326 N 
ATOM     15  C   UNL A   1      30.771  23.082  26.695  1.00  0.00     0.226 C 
ATOM     16  O   UNL A   1      29.905  23.035  27.568  1.00  0.00    -0.275 OA
ATOM     17  H   UNL A   1      31.996  21.705  27.544  1.00  0.00     0.169 HD
BRANCH  15  18
ATOM     18  C   UNL A   1      30.491  23.744  25.354  1.00  0.00     0.128 C 
BRANCH  18  19
ATOM     19  C   UNL A   1      30.240  25.235  25.390  1.00  0.00     0.183 C 
ATOM     20  N   UNL A   1      30.534  28.637  23.941  1.00  0.00    -0.234 N 
ATOM     21  C   UNL A   1      30.811  27.435  24.294  1.00  0.00     0.319 C 
ATOM     22  H   UNL A   1      31.038  29.339  24.412  1.00  0.00     0.313 HD
ATOM     23  S   UNL A   1      30.260  25.910  23.684  1.00  0.00    -0.022 SA
ATOM     24  N   UNL A   1      31.613  27.197  25.371  1.00  0.00    -0.193 N 
ATOM     25  C   UNL A   1      31.254  26.096  26.118  1.00  0.00     0.324 C 
ATOM     26  C   UNL A   1      32.602  28.138  25.856  1.00  0.00     0.301 C 
ATOM     27  O   UNL A   1      31.602  25.900  27.277  1.00  0.00    -0.245 OA
BRANCH  20  28
ATOM     28  C   UNL A   1      29.619  29.100  22.985  1.00  0.00     0.128 A 
ATOM     29  C   UNL A   1      27.481  27.898  23.814  1.00  0.00     0.049 C 
ATOM     30  C   UNL A   1      28.228  28.863  22.937  1.00  0.00    -0.004 A 
ATOM     31  C   UNL A   1      27.434  29.583  22.018  1.00  0.00     0.008 A 
ATOM     32  C   UNL A   1      27.975  30.587  21.222  1.00  0.00     0.001 A 
ATOM     33  C   UNL A   1      30.138  30.110  22.154  1.00  0.00     0.052 A 
ATOM     34  C   UNL A   1      29.332  30.857  21.295  1.00  0.00     0.004 A 
ENDBRANCH  20  28
ENDBRANCH  18  19
ENDBRANCH  15  18
ENDBRANCH   9  14
ENDBRANCH   5   8
ENDBRANCH   3   4
ENDBRANCH   2   3
ENDBRANCH   1   2
BRANCH   1  35
ATOM     35  C   UNL A   1      41.481  19.814  27.073  1.00  0.00     0.002 C 
BRANCH  35  36
ATOM     36  C   UNL A   1      42.606  18.903  26.580  1.00  0.00     0.021 C 
BRANCH  36  37
ATOM     37  C   UNL A   1      43.212  19.328  25.245  1.00  0.00     0.116 C 
BRANCH  37  38
ATOM     38  N   UNL A   1      44.654  19.557  25.291  1.00  0.00    -0.352 N 
ATOM     39  C   UNL A   1      45.363  20.750  25.313  1.00  0.00     0.251 C 
ATOM     40  H   UNL A   1      45.206  18.742  25.307  1.00  0.00     0.163 HD
ATOM     41  O   UNL A   1      46.577  20.756  25.249  1.00  0.00    -0.269 OA
BRANCH  39  42
ATOM     42  C   UNL A   1      44.624  22.021  25.520  1.00  0.00     0.039 A 
ATOM     43  C   UNL A   1      45.030  23.148  24.791  1.00  0.00     0.014 A 
ATOM     44  C   UNL A   1      43.697  22.146  26.548  1.00  0.00     0.014 A 
ATOM     45  C   UNL A   1      44.686  24.419  25.246  1.00  0.00     0.010 A 
ATOM     46  C   UNL A   1      43.448  23.398  27.063  1.00  0.00     0.010 A 
ATOM     47  C   UNL A   1      43.988  24.533  26.445  1.00  0.00    -0.014 A 
BRANCH  47  48
ATOM     48  C   UNL A   1      43.865  25.766  27.211  1.00  0.00     0.031 A 
ATOM     49  C   UNL A   1      42.615  26.550  27.185  1.00  0.00     0.074 A 
ATOM     50  C   UNL A   1      44.842  26.111  28.078  1.00  0.00     0.049 A 
ATOM     51  N   UNL A   1      42.521  27.765  27.601  1.00  0.00    -0.248 NA
ATOM     52  C   UNL A   1      41.370  26.048  26.618  1.00  0.00     0.031 C 
ATOM     53  C   UNL A   1      44.735  27.035  29.205  1.00  0.00     0.029 A 
ATOM     54  N   UNL A   1      46.204  25.856  27.972  1.00  0.00    -0.354 N 
ATOM     55  C   UNL A   1      41.188  28.095  27.657  1.00  0.00     0.074 A 
ATOM     56  C   UNL A   1      40.530  27.041  26.923  1.00  0.00     0.031 C 
ATOM     57  C   UNL A   1      45.962  27.452  29.547  1.00  0.00     0.029 A 
ATOM     58  C   UNL A   1      46.883  26.946  28.547  1.00  0.00     0.049 A 
ATOM     59  H   UNL A   1      46.618  25.058  27.569  1.00  0.00     0.167 HD
ATOM     60  C   UNL A   1      40.809  29.148  28.437  1.00  0.00     0.034 A 
ATOM     61  C   UNL A   1      47.736  27.716  27.808  1.00  0.00     0.034 A 
ATOM     62  C   UNL A   1      41.973  29.855  28.990  1.00  0.00     0.049 A 
ATOM     63  C   UNL A   1      47.343  29.179  27.711  1.00  0.00     0.074 A 
ATOM     64  C   UNL A   1      42.538  29.963  30.251  1.00  0.00     0.029 A 
ATOM     65  N   UNL A   1      42.877  30.445  28.120  1.00  0.00    -0.354 N 
ATOM     66  N   UNL A   1      46.225  29.675  28.164  1.00  0.00    -0.248 NA
ATOM     67  C   UNL A   1      48.144  30.188  27.019  1.00  0.00     0.031 C 
ATOM     68  C   UNL A   1      43.773  30.660  30.128  1.00  0.00     0.029 A 
ATOM     69  C   UNL A   1      43.949  30.989  28.796  1.00  0.00     0.049 A 
ATOM     70  H   UNL A   1      42.766  30.472  27.143  1.00  0.00     0.167 HD
ATOM     71  C   UNL A   1      46.102  30.988  27.780  1.00  0.00     0.074 A 
ATOM     72  C   UNL A   1      47.339  31.265  27.070  1.00  0.00     0.031 C 
ATOM     73  C   UNL A   1      44.967  31.708  28.041  1.00  0.00     0.034 A 
BRANCH  60  74
ATOM     74  C   UNL A   1      39.398  29.454  28.914  1.00  0.00     0.023 A 
ATOM     75  C   UNL A   1      39.170  29.556  30.306  1.00  0.00     0.031 A 
ATOM     76  C   UNL A   1      38.241  29.595  28.120  1.00  0.00     0.131 A 
ATOM     77  C   UNL A   1      37.876  29.683  30.843  1.00  0.00     0.055 A 
ATOM     78  C   UNL A   1      36.950  29.711  28.654  1.00  0.00     0.041 A 
ATOM     79  F   UNL A   1      38.283  29.663  26.789  1.00  0.00    -0.206 F 
ATOM     80  C   UNL A   1      36.757  29.740  30.023  1.00  0.00     0.022 A 
BRANCH  77  81
ATOM     81  S   UNL A   1      37.674  29.730  32.644  1.00  0.00     0.124 S 
ATOM     82  O   UNL A   1      38.989  30.182  33.088  1.00  0.00    -0.237 OA
ATOM     83  O   UNL A   1      36.574  30.674  32.806  1.00  0.00    -0.237 OA
ATOM     84  O   UNL A   1      37.353  28.344  32.983  1.00  0.00    -0.744 OA
ENDBRANCH  77  81
ENDBRANCH  60  74
BRANCH  61  85
ATOM     85  C   UNL A   1      48.423  26.933  26.741  1.00  0.00     0.023 A 
ATOM     86  C   UNL A   1      48.009  27.148  25.409  1.00  0.00     0.031 A 
ATOM     87  C   UNL A   1      49.690  26.368  26.953  1.00  0.00     0.131 A 
ATOM     88  C   UNL A   1      48.906  26.947  24.351  1.00  0.00     0.055 A 
ATOM     89  C   UNL A   1      50.561  26.116  25.887  1.00  0.00     0.041 A 
ATOM     90  F   UNL A   1      50.154  26.180  28.198  1.00  0.00    -0.206 F 
ATOM     91  C   UNL A   1      50.187  26.446  24.583  1.00  0.00     0.022 A 
BRANCH  88  92
ATOM     92  S   UNL A   1      48.459  27.593  22.711  1.00  0.00     0.124 S 
ATOM     93  O   UNL A   1      49.592  28.461  22.409  1.00  0.00    -0.237 OA
ATOM     94  O   UNL A   1      48.358  26.373  21.912  1.00  0.00    -0.237 OA
ATOM     95  O   UNL A   1      47.190  28.275  22.943  1.00  0.00    -0.744 OA
ENDBRANCH  88  92
ENDBRANCH  61  85
BRANCH  73  96
ATOM     96  C   UNL A   1      44.675  33.132  27.595  1.00  0.00     0.023 A 
ATOM     97  C   UNL A   1      44.897  34.260  28.398  1.00  0.00     0.031 A 
ATOM     98  C   UNL A   1      44.085  33.396  26.329  1.00  0.00     0.131 A 
ATOM     99  C   UNL A   1      44.619  35.559  27.921  1.00  0.00     0.055 A 
ATOM    100  C   UNL A   1      43.754  34.679  25.884  1.00  0.00     0.041 A 
ATOM    101  F   UNL A   1      43.825  32.425  25.444  1.00  0.00    -0.206 F 
ATOM    102  C   UNL A   1      44.035  35.775  26.675  1.00  0.00     0.022 A 
BRANCH  99 103
ATOM    103  S   UNL A   1      45.072  36.980  28.950  1.00  0.00     0.124 S 
ATOM    104  O   UNL A   1      45.795  36.354  30.052  1.00  0.00    -0.237 OA
ATOM    105  O   UNL A   1      45.883  37.771  28.029  1.00  0.00    -0.237 OA
ATOM    106  O   UNL A   1      43.785  37.575  29.309  1.00  0.00    -0.744 OA
ENDBRANCH  99 103
ENDBRANCH  73  96
ENDBRANCH  47  48
ENDBRANCH  39  42
ENDBRANCH  37  38
ENDBRANCH  36  37
ENDBRANCH  35  36
ENDBRANCH   1  35
TORSDOF 20
ENDMDL
MODEL 3
REMARK VINA RESULT:     -11.8      1.774      2.289
REMARK SMILES Cc1ccccc1/[NH+]=C1\S[C@@H](CC(=O)Nc2ccc(C(=O)NCCCCCCNC(=O)c3ccc(-c4c5nc(c(-c6cc(S(=O)(=O)[O-])ccc6F)c6ccc([nH]6)c(-c6cc(S(=O)(=O)[O-])ccc6F)c6nc(c(-c7cc(S(=O)(=O)[O-])ccc7F)c7ccc4[nH]7)C=C6)C=C5)cc3)cc2)C(=O)N1C
REMARK SMILES IDX 25 1 24 2 23 3 22 4 20 5 21 6 19 8 16 9 17 10 96 11 18 12
REMARK SMILES IDX 95 13 15 14 13 15 14 16 12 18 11 19 8 20 9 21 10 23 99 24
REMARK SMILES IDX 97 25 100 26 98 27 7 28 1 29 2 30 3 31 4 32 6 33 5 34 26 35
REMARK SMILES IDX 27 36 28 37 29 38 30 39 31 41 32 42 33 43 94 44 34 45 93 46
REMARK SMILES IDX 35 47 36 48 37 49 87 50 38 51 92 52 86 53 88 54 39 55 91 56
REMARK SMILES IDX 85 57 84 58 40 60 72 61 52 62 71 63 53 64 56 65 70 66 89 67
REMARK SMILES IDX 54 68 55 69 69 71 90 72 57 73 41 74 42 75 50 76 43 77 49 78
REMARK SMILES IDX 51 79 48 80 44 81 45 82 46 83 47 84 73 85 74 86 82 87 75 88
REMARK SMILES IDX 81 89 83 90 80 91 76 92 77 93 78 94 79 95 58 96 59 97 67 98
REMARK SMILES IDX 60 99 66 100 68 101 65 102 61 103 62 104 63 105 64 106
REMARK H PARENT 22 7 15 17 8 22 29 40 88 59 56 70
REMARK Flexibility Score: inf
ROOT
ATOM      1  C   UNL A   1      40.030  22.759  27.259  1.00  0.00     0.002 C 
ENDROOT
BRANCH   1   2
ATOM      2  C   UNL A   1      39.584  24.015  26.489  1.00  0.00     0.021 C 
BRANCH   2   3
ATOM      3  C   UNL A   1      38.094  24.076  26.141  1.00  0.00     0.116 C 
BRANCH   3   4
ATOM      4  N   UNL A   1      37.799  23.431  24.867  1.00  0.00    -0.352 N 
ATOM      5  C   UNL A   1      36.648  22.875  24.359  1.00  0.00     0.251 C 
ATOM      6  O   UNL A   1      36.598  22.596  23.162  1.00  0.00    -0.269 OA
ATOM      7  H   UNL A   1      38.569  23.383  24.256  1.00  0.00     0.163 HD
BRANCH   5   8
ATOM      8  C   UNL A   1      35.439  22.639  25.190  1.00  0.00     0.039 A 
ATOM      9  C   UNL A   1      33.058  22.238  26.606  1.00  0.00     0.041 A 
ATOM     10  C   UNL A   1      34.077  23.028  27.136  1.00  0.00     0.027 A 
ATOM     11  C   UNL A   1      33.288  21.505  25.450  1.00  0.00     0.027 A 
ATOM     12  C   UNL A   1      35.266  23.228  26.438  1.00  0.00     0.016 A 
ATOM     13  C   UNL A   1      34.474  21.720  24.735  1.00  0.00     0.016 A 
BRANCH   9  14
ATOM     14  N   UNL A   1      31.796  22.225  27.213  1.00  0.00    -0.326 N 
ATOM     15  C   UNL A   1      30.709  22.971  26.807  1.00  0.00     0.226 C 
ATOM     16  O   UNL A   1      29.705  23.062  27.515  1.00  0.00    -0.275 OA
ATOM     17  H   UNL A   1      31.675  21.635  27.992  1.00  0.00     0.169 HD
BRANCH  15  18
ATOM     18  C   UNL A   1      30.707  23.496  25.379  1.00  0.00     0.128 C 
BRANCH  18  19
ATOM     19  C   UNL A   1      31.560  24.718  25.122  1.00  0.00     0.183 C 
ATOM     20  N   UNL A   1      31.960  28.315  24.308  1.00  0.00    -0.234 N 
ATOM     21  C   UNL A   1      31.522  27.109  24.316  1.00  0.00     0.319 C 
ATOM     22  H   UNL A   1      32.409  28.593  23.478  1.00  0.00     0.313 HD
ATOM     23  S   UNL A   1      30.599  26.236  25.493  1.00  0.00    -0.022 SA
ATOM     24  N   UNL A   1      31.839  26.251  23.303  1.00  0.00    -0.193 N 
ATOM     25  C   UNL A   1      32.041  24.948  23.702  1.00  0.00     0.324 C 
ATOM     26  C   UNL A   1      32.188  26.686  21.966  1.00  0.00     0.301 C 
ATOM     27  O   UNL A   1      32.650  24.109  23.048  1.00  0.00    -0.245 OA
BRANCH  20  28
ATOM     28  C   UNL A   1      31.892  29.297  25.307  1.00  0.00     0.128 A 
ATOM     29  C   UNL A   1      33.863  28.531  26.800  1.00  0.00     0.049 C 
ATOM     30  C   UNL A   1      32.774  29.482  26.394  1.00  0.00    -0.004 A 
ATOM     31  C   UNL A   1      32.669  30.651  27.179  1.00  0.00     0.008 A 
ATOM     32  C   UNL A   1      31.778  31.668  26.852  1.00  0.00     0.001 A 
ATOM     33  C   UNL A   1      30.992  30.337  25.012  1.00  0.00     0.052 A 
ATOM     34  C   UNL A   1      30.941  31.515  25.759  1.00  0.00     0.004 A 
ENDBRANCH  20  28
ENDBRANCH  18  19
ENDBRANCH  15  18
ENDBRANCH   9  14
ENDBRANCH   5   8
ENDBRANCH   3   4
ENDBRANCH   2   3
ENDBRANCH   1   2
BRANCH   1  35
ATOM     35  C   UNL A   1      39.930  21.414  26.517  1.00  0.00     0.002 C 
BRANCH  35  36
ATOM     36  C   UNL A   1      41.252  20.688  26.266  1.00  0.00     0.021 C 
BRANCH  36  37
ATOM     37  C   UNL A   1      42.319  20.952  27.325  1.00  0.00     0.116 C 
BRANCH  37  38
ATOM     38  N   UNL A   1      43.614  21.350  26.780  1.00  0.00    -0.352 N 
ATOM     39  C   UNL A   1      44.121  22.618  26.532  1.00  0.00     0.251 C 
ATOM     40  H   UNL A   1      44.219  20.607  26.554  1.00  0.00     0.163 HD
ATOM     41  O   UNL A   1      45.192  22.765  25.976  1.00  0.00    -0.269 OA
BRANCH  39  42
ATOM     42  C   UNL A   1      43.383  23.799  27.046  1.00  0.00     0.039 A 
ATOM     43  C   UNL A   1      43.154  24.869  26.169  1.00  0.00     0.014 A 
ATOM     44  C   UNL A   1      43.108  23.932  28.402  1.00  0.00     0.014 A 
ATOM     45  C   UNL A   1      42.877  26.133  26.687  1.00  0.00     0.010 A 
ATOM     46  C   UNL A   1      42.943  25.196  28.922  1.00  0.00     0.010 A 
ATOM     47  C   UNL A   1      42.884  26.305  28.068  1.00  0.00    -0.014 A 
BRANCH  47  48
ATOM     48  C   UNL A   1      42.957  27.597  28.736  1.00  0.00     0.031 A 
ATOM     49  C   UNL A   1      41.743  28.411  28.943  1.00  0.00     0.074 A 
ATOM     50  C   UNL A   1      44.115  27.984  29.314  1.00  0.00     0.049 A 
ATOM     51  N   UNL A   1      41.760  29.657  29.267  1.00  0.00    -0.248 NA
ATOM     52  C   UNL A   1      40.395  27.899  28.733  1.00  0.00     0.031 C 
ATOM     53  C   UNL A   1      44.289  28.996  30.352  1.00  0.00     0.029 A 
ATOM     54  N   UNL A   1      45.410  27.684  28.907  1.00  0.00    -0.354 N 
ATOM     55  C   UNL A   1      40.483  30.026  29.612  1.00  0.00     0.074 A 
ATOM     56  C   UNL A   1      39.660  28.936  29.146  1.00  0.00     0.031 C 
ATOM     57  C   UNL A   1      45.565  29.405  30.356  1.00  0.00     0.029 A 
ATOM     58  C   UNL A   1      46.216  28.797  29.211  1.00  0.00     0.049 A 
ATOM     59  H   UNL A   1      45.709  26.845  28.485  1.00  0.00     0.167 HD
ATOM     60  C   UNL A   1      40.309  31.147  30.369  1.00  0.00     0.034 A 
ATOM     61  C   UNL A   1      46.872  29.482  28.228  1.00  0.00     0.034 A 
ATOM     62  C   UNL A   1      41.577  31.864  30.568  1.00  0.00     0.049 A 
ATOM     63  C   UNL A   1      46.479  30.944  28.106  1.00  0.00     0.074 A 
ATOM     64  C   UNL A   1      42.428  32.056  31.644  1.00  0.00     0.029 A 
ATOM     65  N   UNL A   1      42.250  32.358  29.462  1.00  0.00    -0.354 N 
ATOM     66  N   UNL A   1      45.505  31.504  28.770  1.00  0.00    -0.248 NA
ATOM     67  C   UNL A   1      47.098  31.872  27.162  1.00  0.00     0.031 C 
ATOM     68  C   UNL A   1      43.603  32.708  31.172  1.00  0.00     0.029 A 
ATOM     69  C   UNL A   1      43.458  32.925  29.814  1.00  0.00     0.049 A 
ATOM     70  H   UNL A   1      41.909  32.311  28.540  1.00  0.00     0.167 HD
ATOM     71  C   UNL A   1      45.304  32.785  28.318  1.00  0.00     0.074 A 
ATOM     72  C   UNL A   1      46.337  32.971  27.313  1.00  0.00     0.031 C 
ATOM     73  C   UNL A   1      44.270  33.554  28.781  1.00  0.00     0.034 A 
BRANCH  60  74
ATOM     74  C   UNL A   1      39.056  31.529  31.141  1.00  0.00     0.023 A 
ATOM     75  C   UNL A   1      37.974  32.090  30.425  1.00  0.00     0.031 A 
ATOM     76  C   UNL A   1      38.855  31.446  32.534  1.00  0.00     0.131 A 
ATOM     77  C   UNL A   1      36.840  32.613  31.074  1.00  0.00     0.055 A 
ATOM     78  C   UNL A   1      37.732  31.976  33.184  1.00  0.00     0.041 A 
ATOM     79  F   UNL A   1      39.706  30.824  33.351  1.00  0.00    -0.206 F 
ATOM     80  C   UNL A   1      36.722  32.579  32.457  1.00  0.00     0.022 A 
BRANCH  77  81
ATOM     81  S   UNL A   1      35.535  33.382  30.078  1.00  0.00     0.124 S 
ATOM     82  O   UNL A   1      34.708  32.235  29.719  1.00  0.00    -0.237 OA
ATOM     83  O   UNL A   1      34.953  34.335  31.016  1.00  0.00    -0.237 OA
ATOM     84  O   UNL A   1      36.271  33.983  28.965  1.00  0.00    -0.744 OA
ENDBRANCH  77  81
ENDBRANCH  60  74
BRANCH  61  85
ATOM     85  C   UNL A   1      47.278  28.599  27.097  1.00  0.00     0.023 A 
ATOM     86  C   UNL A   1      48.493  27.894  27.228  1.00  0.00     0.031 A 
ATOM     87  C   UNL A   1      46.337  28.125  26.170  1.00  0.00     0.131 A 
ATOM     88  C   UNL A   1      48.674  26.673  26.563  1.00  0.00     0.055 A 
ATOM     89  C   UNL A   1      46.548  26.933  25.467  1.00  0.00     0.041 A 
ATOM     90  F   UNL A   1      45.148  28.730  26.033  1.00  0.00    -0.206 F 
ATOM     91  C   UNL A   1      47.701  26.179  25.694  1.00  0.00     0.022 A 
BRANCH  88  92
ATOM     92  S   UNL A   1      50.078  25.626  27.055  1.00  0.00     0.124 S 
ATOM     93  O   UNL A   1      49.406  24.419  27.524  1.00  0.00    -0.237 OA
ATOM     94  O   UNL A   1      50.824  25.497  25.805  1.00  0.00    -0.237 OA
ATOM     95  O   UNL A   1      50.749  26.412  28.086  1.00  0.00    -0.744 OA
ENDBRANCH  88  92
ENDBRANCH  61  85
BRANCH  73  96
ATOM     96  C   UNL A   1      43.890  34.946  28.301  1.00  0.00     0.023 A 
ATOM     97  C   UNL A   1      43.991  36.098  29.094  1.00  0.00     0.031 A 
ATOM     98  C   UNL A   1      43.338  35.148  27.007  1.00  0.00     0.131 A 
ATOM     99  C   UNL A   1      43.636  37.366  28.586  1.00  0.00     0.055 A 
ATOM    100  C   UNL A   1      42.929  36.396  26.528  1.00  0.00     0.041 A 
ATOM    101  F   UNL A   1      43.190  34.149  26.127  1.00  0.00    -0.206 F 
ATOM    102  C   UNL A   1      43.092  37.520  27.312  1.00  0.00     0.022 A 
BRANCH  99 103
ATOM    103  S   UNL A   1      43.935  38.830  29.611  1.00  0.00     0.124 S 
ATOM    104  O   UNL A   1      43.843  38.292  30.964  1.00  0.00    -0.237 OA
ATOM    105  O   UNL A   1      45.270  39.232  29.177  1.00  0.00    -0.237 OA
ATOM    106  O   UNL A   1      42.859  39.746  29.231  1.00  0.00    -0.744 OA
ENDBRANCH  99 103
ENDBRANCH  73  96
ENDBRANCH  47  48
ENDBRANCH  39  42
ENDBRANCH  37  38
ENDBRANCH  36  37
ENDBRANCH  35  36
ENDBRANCH   1  35
TORSDOF 20
ENDMDL
