MODEL 1
REMARK VINA RESULT:     -12.0      0.000      0.000
REMARK SMILES COc1cc([C@@H]2CC(=O)Nc3c(C(=O)NCCCCCCNC(=O)c4ccc(-c5c6nc(c(-c7cc(S(=O)(=O)[O-])ccc7F)c7ccc([nH]7)c(-c7cc(S(=O)(=O)[O-])ccc7F)c7nc(c(-c8cc(S(=O)(=O)[O-])ccc8F)c8ccc5[nH]8)C=C7)C=C6)cc4)cn(-c4ccc(F)cc4)c32)c(OC)c2c1OCO2
REMARK SMILES IDX 19 1 18 2 17 3 16 4 15 5 13 6 14 7 12 9 6 10 7 11 97 12 8 13
REMARK SMILES IDX 11 14 89 15 9 16 10 17 88 18 5 20 3 21 4 22 102 23 101 24
REMARK SMILES IDX 103 25 98 26 105 27 104 28 2 29 1 30 99 31 100 32 90 33
REMARK SMILES IDX 91 34 96 35 92 36 95 37 93 38 94 39 20 40 21 41 22 42 23 43
REMARK SMILES IDX 24 45 25 46 26 47 87 48 27 49 86 50 28 51 29 52 30 53 80 54
REMARK SMILES IDX 31 55 85 56 79 57 81 58 32 59 84 60 78 61 77 62 33 64 65 65
REMARK SMILES IDX 45 66 64 67 46 68 49 69 63 70 82 71 47 72 48 73 62 75 83 76
REMARK SMILES IDX 50 77 34 78 35 79 43 80 36 81 42 82 44 83 41 84 37 85 38 86
REMARK SMILES IDX 39 87 40 88 66 89 67 90 75 91 68 92 74 93 76 94 73 95 69 96
REMARK SMILES IDX 70 97 71 98 72 99 51 100 52 101 60 102 53 103 59 104 61 105
REMARK SMILES IDX 58 106 54 107 55 108 56 109 57 110
REMARK H PARENT 15 8 10 19 22 44 81 63 49 74
REMARK Flexibility Score: inf
ROOT
ATOM      1  C   UNL A   1      34.162  29.959  27.549  1.00  0.00     0.002 C 
ENDROOT
BRANCH   1   2
ATOM      2  C   UNL A   1      32.666  29.982  27.192  1.00  0.00     0.002 C 
BRANCH   2   3
ATOM      3  C   UNL A   1      31.892  28.736  27.626  1.00  0.00     0.021 C 
BRANCH   3   4
ATOM      4  C   UNL A   1      31.445  27.860  26.449  1.00  0.00     0.116 C 
BRANCH   4   5
ATOM      5  N   UNL A   1      32.341  28.033  25.337  1.00  0.00    -0.352 N 
ATOM      6  C   UNL A   1      33.244  27.211  24.728  1.00  0.00     0.254 C 
ATOM      7  O   UNL A   1      33.833  27.719  23.767  1.00  0.00    -0.269 OA
ATOM      8  H   UNL A   1      32.293  28.929  24.933  1.00  0.00     0.163 HD
BRANCH   6   9
ATOM      9  C   UNL A   1      33.492  25.810  25.094  1.00  0.00     0.081 A 
ATOM     10  C   UNL A   1      33.237  22.269  26.307  1.00  0.00     0.082 C 
ATOM     11  C   UNL A   1      32.064  22.423  27.282  1.00  0.00     0.115 C 
ATOM     12  C   UNL A   1      33.601  23.596  25.692  1.00  0.00     0.055 A 
ATOM     13  C   UNL A   1      31.070  23.492  26.896  1.00  0.00     0.225 C 
ATOM     14  C   UNL A   1      32.796  24.723  25.711  1.00  0.00     0.076 A 
ATOM     15  N   UNL A   1      34.836  23.971  25.210  1.00  0.00    -0.317 N 
ATOM     16  O   UNL A   1      29.885  23.437  27.225  1.00  0.00    -0.275 OA
ATOM     17  N   UNL A   1      31.554  24.621  26.293  1.00  0.00    -0.324 N 
ATOM     18  C   UNL A   1      34.771  25.298  24.877  1.00  0.00     0.107 A 
ATOM     19  H   UNL A   1      30.974  25.416  26.275  1.00  0.00     0.170 HD
BRANCH  10  20
ATOM     20  C   UNL A   1      32.993  21.116  25.331  1.00  0.00     0.012 A 
ATOM     21  C   UNL A   1      33.039  18.675  25.041  1.00  0.00     0.165 A 
ATOM     22  C   UNL A   1      33.147  19.801  25.851  1.00  0.00     0.059 A 
ATOM     23  C   UNL A   1      32.656  18.864  23.731  1.00  0.00     0.211 A 
ATOM     24  C   UNL A   1      32.442  20.131  23.214  1.00  0.00     0.211 A 
ATOM     25  O   UNL A   1      32.434  17.881  22.813  1.00  0.00    -0.449 OA
ATOM     26  C   UNL A   1      32.618  21.281  23.978  1.00  0.00     0.168 A 
ATOM     27  O   UNL A   1      32.069  20.063  21.900  1.00  0.00    -0.449 OA
ATOM     28  C   UNL A   1      31.949  18.646  21.702  1.00  0.00     0.468 C 
BRANCH  21  29
ATOM     29  O   UNL A   1      33.292  17.469  25.624  1.00  0.00    -0.493 OA
ATOM     30  C   UNL A   1      34.456  16.837  25.093  1.00  0.00     0.278 C 
ENDBRANCH  21  29
BRANCH  26  31
ATOM     31  O   UNL A   1      32.468  22.566  23.547  1.00  0.00    -0.492 OA
ATOM     32  C   UNL A   1      31.169  23.020  23.197  1.00  0.00     0.278 C 
ENDBRANCH  26  31
ENDBRANCH  10  20
BRANCH  15  33
ATOM     33  C   UNL A   1      36.021  23.207  25.191  1.00  0.00     0.046 A 
ATOM     34  C   UNL A   1      36.154  22.143  24.299  1.00  0.00     0.029 A 
ATOM     35  C   UNL A   1      37.029  23.493  26.119  1.00  0.00     0.029 A 
ATOM     36  C   UNL A   1      37.250  21.289  24.404  1.00  0.00     0.041 A 
ATOM     37  C   UNL A   1      38.126  22.637  26.217  1.00  0.00     0.041 A 
ATOM     38  C   UNL A   1      38.215  21.532  25.375  1.00  0.00     0.123 A 
ATOM     39  F   UNL A   1      39.248  20.688  25.498  1.00  0.00    -0.207 F 
ENDBRANCH  15  33
ENDBRANCH   6   9
ENDBRANCH   4   5
ENDBRANCH   3   4
ENDBRANCH   2   3
ENDBRANCH   1   2
BRANCH   1  40
ATOM     40  C   UNL A   1      34.930  31.263  27.283  1.00  0.00     0.021 C 
BRANCH  40  41
ATOM     41  C   UNL A   1      36.253  31.326  28.029  1.00  0.00     0.116 C 
BRANCH  41  42
ATOM     42  N   UNL A   1      36.350  32.548  28.826  1.00  0.00    -0.352 N 
ATOM     43  C   UNL A   1      37.020  32.751  30.015  1.00  0.00     0.251 C 
ATOM     44  H   UNL A   1      35.872  33.330  28.465  1.00  0.00     0.163 HD
ATOM     45  O   UNL A   1      36.733  33.695  30.730  1.00  0.00    -0.269 OA
BRANCH  43  46
ATOM     46  C   UNL A   1      38.073  31.793  30.396  1.00  0.00     0.039 A 
ATOM     47  C   UNL A   1      37.753  30.479  30.742  1.00  0.00     0.014 A 
ATOM     48  C   UNL A   1      39.397  32.223  30.369  1.00  0.00     0.014 A 
ATOM     49  C   UNL A   1      38.789  29.579  30.978  1.00  0.00     0.010 A 
ATOM     50  C   UNL A   1      40.414  31.306  30.463  1.00  0.00     0.010 A 
ATOM     51  C   UNL A   1      40.123  29.992  30.813  1.00  0.00    -0.014 A 
BRANCH  51  52
ATOM     52  C   UNL A   1      41.218  29.025  30.874  1.00  0.00     0.031 A 
ATOM     53  C   UNL A   1      41.641  28.659  32.252  1.00  0.00     0.074 A 
ATOM     54  C   UNL A   1      41.678  28.355  29.793  1.00  0.00     0.049 A 
ATOM     55  N   UNL A   1      42.754  28.955  32.836  1.00  0.00    -0.248 NA
ATOM     56  C   UNL A   1      40.657  28.026  33.146  1.00  0.00     0.031 C 
ATOM     57  C   UNL A   1      41.184  28.420  28.412  1.00  0.00     0.029 A 
ATOM     58  N   UNL A   1      42.633  27.385  29.719  1.00  0.00    -0.354 N 
ATOM     59  C   UNL A   1      42.716  28.333  34.080  1.00  0.00     0.074 A 
ATOM     60  C   UNL A   1      41.343  27.959  34.290  1.00  0.00     0.031 C 
ATOM     61  C   UNL A   1      41.671  27.381  27.700  1.00  0.00     0.029 A 
ATOM     62  C   UNL A   1      42.655  26.690  28.511  1.00  0.00     0.049 A 
ATOM     63  H   UNL A   1      43.254  27.192  30.457  1.00  0.00     0.167 HD
ATOM     64  C   UNL A   1      43.866  27.965  34.712  1.00  0.00     0.034 A 
ATOM     65  C   UNL A   1      43.434  25.629  28.174  1.00  0.00     0.034 A 
ATOM     66  C   UNL A   1      45.011  28.614  34.114  1.00  0.00     0.049 A 
ATOM     67  C   UNL A   1      44.619  25.684  29.059  1.00  0.00     0.074 A 
ATOM     68  C   UNL A   1      45.424  29.922  33.956  1.00  0.00     0.029 A 
ATOM     69  N   UNL A   1      45.743  27.878  33.211  1.00  0.00    -0.354 N 
ATOM     70  N   UNL A   1      45.484  26.661  29.024  1.00  0.00    -0.248 NA
ATOM     71  C   UNL A   1      44.602  24.924  30.299  1.00  0.00     0.031 C 
ATOM     72  C   UNL A   1      46.019  29.966  32.659  1.00  0.00     0.029 A 
ATOM     73  C   UNL A   1      46.006  28.675  32.124  1.00  0.00     0.049 A 
ATOM     74  H   UNL A   1      46.028  26.943  33.323  1.00  0.00     0.167 HD
ATOM     75  C   UNL A   1      45.779  26.926  30.351  1.00  0.00     0.074 A 
ATOM     76  C   UNL A   1      45.318  25.743  31.077  1.00  0.00     0.031 C 
ATOM     77  C   UNL A   1      46.111  28.187  30.760  1.00  0.00     0.034 A 
BRANCH  64  78
ATOM     78  C   UNL A   1      44.025  26.740  35.590  1.00  0.00     0.023 A 
ATOM     79  C   UNL A   1      44.410  26.951  36.930  1.00  0.00     0.031 A 
ATOM     80  C   UNL A   1      44.123  25.408  35.127  1.00  0.00     0.131 A 
ATOM     81  C   UNL A   1      44.960  25.910  37.699  1.00  0.00     0.055 A 
ATOM     82  C   UNL A   1      44.610  24.363  35.918  1.00  0.00     0.041 A 
ATOM     83  F   UNL A   1      43.854  25.056  33.866  1.00  0.00    -0.206 F 
ATOM     84  C   UNL A   1      45.063  24.615  37.201  1.00  0.00     0.022 A 
BRANCH  81  85
ATOM     85  S   UNL A   1      45.713  26.321  39.295  1.00  0.00     0.124 S 
ATOM     86  O   UNL A   1      45.365  25.152  40.096  1.00  0.00    -0.237 OA
ATOM     87  O   UNL A   1      47.120  26.463  38.937  1.00  0.00    -0.237 OA
ATOM     88  O   UNL A   1      45.040  27.560  39.678  1.00  0.00    -0.744 OA
ENDBRANCH  81  85
ENDBRANCH  64  78
BRANCH  65  89
ATOM     89  C   UNL A   1      43.024  24.434  27.388  1.00  0.00     0.023 A 
ATOM     90  C   UNL A   1      43.871  23.759  26.482  1.00  0.00     0.031 A 
ATOM     91  C   UNL A   1      41.808  23.793  27.717  1.00  0.00     0.131 A 
ATOM     92  C   UNL A   1      43.487  22.502  25.951  1.00  0.00     0.055 A 
ATOM     93  C   UNL A   1      41.435  22.554  27.192  1.00  0.00     0.041 A 
ATOM     94  F   UNL A   1      40.976  24.319  28.631  1.00  0.00    -0.206 F 
ATOM     95  C   UNL A   1      42.279  21.899  26.311  1.00  0.00     0.022 A 
BRANCH  92  96
ATOM     96  S   UNL A   1      44.589  21.591  24.818  1.00  0.00     0.124 S 
ATOM     97  O   UNL A   1      45.876  21.668  25.499  1.00  0.00    -0.237 OA
ATOM     98  O   UNL A   1      43.960  20.276  24.764  1.00  0.00    -0.237 OA
ATOM     99  O   UNL A   1      44.510  22.357  23.572  1.00  0.00    -0.744 OA
ENDBRANCH  92  96
ENDBRANCH  65  89
BRANCH  77 100
ATOM    100  C   UNL A   1      46.436  29.212  29.687  1.00  0.00     0.023 A 
ATOM    101  C   UNL A   1      45.483  29.837  28.848  1.00  0.00     0.031 A 
ATOM    102  C   UNL A   1      47.768  29.647  29.595  1.00  0.00     0.131 A 
ATOM    103  C   UNL A   1      45.886  30.849  27.952  1.00  0.00     0.055 A 
ATOM    104  C   UNL A   1      48.159  30.663  28.725  1.00  0.00     0.041 A 
ATOM    105  F   UNL A   1      48.714  29.111  30.385  1.00  0.00    -0.206 F 
ATOM    106  C   UNL A   1      47.220  31.265  27.896  1.00  0.00     0.022 A 
BRANCH 103 107
ATOM    107  S   UNL A   1      44.680  31.641  26.836  1.00  0.00     0.124 S 
ATOM    108  O   UNL A   1      45.475  31.983  25.663  1.00  0.00    -0.237 OA
ATOM    109  O   UNL A   1      43.680  30.593  26.648  1.00  0.00    -0.237 OA
ATOM    110  O   UNL A   1      44.208  32.794  27.607  1.00  0.00    -0.744 OA
ENDBRANCH 103 107
ENDBRANCH  77 100
ENDBRANCH  51  52
ENDBRANCH  43  46
ENDBRANCH  41  42
ENDBRANCH  40  41
ENDBRANCH   1  40
TORSDOF 20
ENDMDL
MODEL 2
REMARK VINA RESULT:     -11.3     10.056     16.197
REMARK SMILES COc1cc([C@@H]2CC(=O)Nc3c(C(=O)NCCCCCCNC(=O)c4ccc(-c5c6nc(c(-c7cc(S(=O)(=O)[O-])ccc7F)c7ccc([nH]7)c(-c7cc(S(=O)(=O)[O-])ccc7F)c7nc(c(-c8cc(S(=O)(=O)[O-])ccc8F)c8ccc5[nH]8)C=C7)C=C6)cc4)cn(-c4ccc(F)cc4)c32)c(OC)c2c1OCO2
REMARK SMILES IDX 19 1 18 2 17 3 16 4 15 5 13 6 14 7 12 9 6 10 7 11 97 12 8 13
REMARK SMILES IDX 11 14 89 15 9 16 10 17 88 18 5 20 3 21 4 22 102 23 101 24
REMARK SMILES IDX 103 25 98 26 105 27 104 28 2 29 1 30 99 31 100 32 90 33
REMARK SMILES IDX 91 34 96 35 92 36 95 37 93 38 94 39 20 40 21 41 22 42 23 43
REMARK SMILES IDX 24 45 25 46 26 47 87 48 27 49 86 50 28 51 29 52 30 53 80 54
REMARK SMILES IDX 31 55 85 56 79 57 81 58 32 59 84 60 78 61 77 62 33 64 65 65
REMARK SMILES IDX 45 66 64 67 46 68 49 69 63 70 82 71 47 72 48 73 62 75 83 76
REMARK SMILES IDX 50 77 34 78 35 79 43 80 36 81 42 82 44 83 41 84 37 85 38 86
REMARK SMILES IDX 39 87 40 88 66 89 67 90 75 91 68 92 74 93 76 94 73 95 69 96
REMARK SMILES IDX 70 97 71 98 72 99 51 100 52 101 60 102 53 103 59 104 61 105
REMARK SMILES IDX 58 106 54 107 55 108 56 109 57 110
REMARK H PARENT 15 8 10 19 22 44 81 63 49 74
REMARK Flexibility Score: inf
ROOT
ATOM      1  C   UNL A   1      45.388  42.136  27.800  1.00  0.00     0.002 C 
ENDROOT
BRANCH   1   2
ATOM      2  C   UNL A   1      46.229  43.391  28.087  1.00  0.00     0.002 C 
BRANCH   2   3
ATOM      3  C   UNL A   1      45.503  44.713  27.828  1.00  0.00     0.021 C 
BRANCH   3   4
ATOM      4  C   UNL A   1      45.878  45.357  26.488  1.00  0.00     0.116 C 
BRANCH   4   5
ATOM      5  N   UNL A   1      47.287  45.208  26.245  1.00  0.00    -0.352 N 
ATOM      6  C   UNL A   1      48.023  44.984  25.118  1.00  0.00     0.254 C 
ATOM      7  O   UNL A   1      49.245  44.930  25.306  1.00  0.00    -0.269 OA
ATOM      8  H   UNL A   1      47.834  45.282  27.060  1.00  0.00     0.163 HD
BRANCH   6   9
ATOM      9  C   UNL A   1      47.475  44.874  23.759  1.00  0.00     0.081 A 
ATOM     10  C   UNL A   1      46.081  43.682  20.488  1.00  0.00     0.082 C 
ATOM     11  C   UNL A   1      46.598  42.239  20.507  1.00  0.00     0.115 C 
ATOM     12  C   UNL A   1      46.553  44.437  21.703  1.00  0.00     0.055 A 
ATOM     13  C   UNL A   1      46.735  41.644  21.888  1.00  0.00     0.225 C 
ATOM     14  C   UNL A   1      47.071  43.851  22.846  1.00  0.00     0.076 A 
ATOM     15  N   UNL A   1      46.746  45.797  21.806  1.00  0.00    -0.317 N 
ATOM     16  O   UNL A   1      46.641  40.434  22.094  1.00  0.00    -0.275 OA
ATOM     17  N   UNL A   1      47.122  42.477  22.902  1.00  0.00    -0.324 N 
ATOM     18  C   UNL A   1      47.318  46.049  23.025  1.00  0.00     0.107 A 
ATOM     19  H   UNL A   1      47.460  42.066  23.729  1.00  0.00     0.170 HD
BRANCH  10  20
ATOM     20  C   UNL A   1      44.576  43.723  20.209  1.00  0.00     0.012 A 
ATOM     21  C   UNL A   1      42.346  43.193  21.095  1.00  0.00     0.165 A 
ATOM     22  C   UNL A   1      43.725  43.286  21.260  1.00  0.00     0.059 A 
ATOM     23  C   UNL A   1      41.810  43.655  19.913  1.00  0.00     0.211 A 
ATOM     24  C   UNL A   1      42.613  44.141  18.895  1.00  0.00     0.211 A 
ATOM     25  O   UNL A   1      40.484  43.707  19.602  1.00  0.00    -0.449 OA
ATOM     26  C   UNL A   1      44.001  44.175  18.999  1.00  0.00     0.168 A 
ATOM     27  O   UNL A   1      41.857  44.542  17.829  1.00  0.00    -0.449 OA
ATOM     28  C   UNL A   1      40.524  44.379  18.337  1.00  0.00     0.468 C 
BRANCH  21  29
ATOM     29  O   UNL A   1      41.633  42.678  22.138  1.00  0.00    -0.493 OA
ATOM     30  C   UNL A   1      42.432  42.478  23.302  1.00  0.00     0.278 C 
ENDBRANCH  21  29
BRANCH  26  31
ATOM     31  O   UNL A   1      44.871  44.598  18.039  1.00  0.00    -0.492 OA
ATOM     32  C   UNL A   1      44.436  45.578  17.109  1.00  0.00     0.278 C 
ENDBRANCH  26  31
ENDBRANCH  10  20
BRANCH  15  33
ATOM     33  C   UNL A   1      46.552  46.773  20.806  1.00  0.00     0.046 A 
ATOM     34  C   UNL A   1      45.382  47.531  20.786  1.00  0.00     0.029 A 
ATOM     35  C   UNL A   1      47.519  46.921  19.805  1.00  0.00     0.029 A 
ATOM     36  C   UNL A   1      45.122  48.366  19.701  1.00  0.00     0.041 A 
ATOM     37  C   UNL A   1      47.255  47.761  18.723  1.00  0.00     0.041 A 
ATOM     38  C   UNL A   1      46.050  48.458  18.670  1.00  0.00     0.123 A 
ATOM     39  F   UNL A   1      45.780  49.231  17.611  1.00  0.00    -0.207 F 
ENDBRANCH  15  33
ENDBRANCH   6   9
ENDBRANCH   4   5
ENDBRANCH   3   4
ENDBRANCH   2   3
ENDBRANCH   1   2
BRANCH   1  40
ATOM     40  C   UNL A   1      45.563  41.523  26.402  1.00  0.00     0.021 C 
BRANCH  40  41
ATOM     41  C   UNL A   1      44.606  40.371  26.143  1.00  0.00     0.116 C 
BRANCH  41  42
ATOM     42  N   UNL A   1      43.223  40.768  26.395  1.00  0.00    -0.352 N 
ATOM     43  C   UNL A   1      42.148  39.977  26.745  1.00  0.00     0.251 C 
ATOM     44  H   UNL A   1      43.033  41.730  26.301  1.00  0.00     0.163 HD
ATOM     45  O   UNL A   1      41.009  40.378  26.582  1.00  0.00    -0.269 OA
BRANCH  43  46
ATOM     46  C   UNL A   1      42.418  38.639  27.302  1.00  0.00     0.039 A 
ATOM     47  C   UNL A   1      42.900  38.490  28.603  1.00  0.00     0.014 A 
ATOM     48  C   UNL A   1      42.147  37.527  26.509  1.00  0.00     0.014 A 
ATOM     49  C   UNL A   1      43.027  37.206  29.127  1.00  0.00     0.010 A 
ATOM     50  C   UNL A   1      42.138  36.274  27.071  1.00  0.00     0.010 A 
ATOM     51  C   UNL A   1      42.619  36.099  28.363  1.00  0.00    -0.014 A 
BRANCH  51  52
ATOM     52  C   UNL A   1      42.568  34.762  28.954  1.00  0.00     0.031 A 
ATOM     53  C   UNL A   1      41.495  34.577  29.967  1.00  0.00     0.074 A 
ATOM     54  C   UNL A   1      43.285  33.715  28.486  1.00  0.00     0.049 A 
ATOM     55  N   UNL A   1      41.638  34.409  31.240  1.00  0.00    -0.248 NA
ATOM     56  C   UNL A   1      40.094  34.754  29.551  1.00  0.00     0.031 C 
ATOM     57  C   UNL A   1      44.189  33.684  27.329  1.00  0.00     0.029 A 
ATOM     58  N   UNL A   1      43.280  32.413  28.891  1.00  0.00    -0.354 N 
ATOM     59  C   UNL A   1      40.359  34.208  31.750  1.00  0.00     0.074 A 
ATOM     60  C   UNL A   1      39.454  34.631  30.716  1.00  0.00     0.031 C 
ATOM     61  C   UNL A   1      44.456  32.404  26.988  1.00  0.00     0.029 A 
ATOM     62  C   UNL A   1      43.903  31.534  28.008  1.00  0.00     0.049 A 
ATOM     63  H   UNL A   1      42.868  32.120  29.735  1.00  0.00     0.167 HD
ATOM     64  C   UNL A   1      40.167  33.481  32.886  1.00  0.00     0.034 A 
ATOM     65  C   UNL A   1      43.987  30.180  28.100  1.00  0.00     0.034 A 
ATOM     66  C   UNL A   1      41.412  33.308  33.602  1.00  0.00     0.049 A 
ATOM     67  C   UNL A   1      43.811  29.849  29.531  1.00  0.00     0.074 A 
ATOM     68  C   UNL A   1      42.321  34.153  34.204  1.00  0.00     0.029 A 
ATOM     69  N   UNL A   1      42.071  32.113  33.424  1.00  0.00    -0.354 N 
ATOM     70  N   UNL A   1      44.656  30.223  30.454  1.00  0.00    -0.248 NA
ATOM     71  C   UNL A   1      42.479  29.521  30.016  1.00  0.00     0.031 C 
ATOM     72  C   UNL A   1      43.599  33.583  33.921  1.00  0.00     0.029 A 
ATOM     73  C   UNL A   1      43.402  32.385  33.227  1.00  0.00     0.049 A 
ATOM     74  H   UNL A   1      41.660  31.219  33.436  1.00  0.00     0.167 HD
ATOM     75  C   UNL A   1      43.867  30.615  31.523  1.00  0.00     0.074 A 
ATOM     76  C   UNL A   1      42.554  30.033  31.249  1.00  0.00     0.031 C 
ATOM     77  C   UNL A   1      44.279  31.598  32.378  1.00  0.00     0.034 A 
BRANCH  64  78
ATOM     78  C   UNL A   1      38.971  32.591  33.160  1.00  0.00     0.023 A 
ATOM     79  C   UNL A   1      39.056  31.248  32.739  1.00  0.00     0.031 A 
ATOM     80  C   UNL A   1      37.680  33.041  33.517  1.00  0.00     0.131 A 
ATOM     81  C   UNL A   1      37.899  30.463  32.583  1.00  0.00     0.055 A 
ATOM     82  C   UNL A   1      36.541  32.235  33.422  1.00  0.00     0.041 A 
ATOM     83  F   UNL A   1      37.425  34.303  33.878  1.00  0.00    -0.206 F 
ATOM     84  C   UNL A   1      36.640  30.949  32.922  1.00  0.00     0.022 A 
BRANCH  81  85
ATOM     85  S   UNL A   1      38.050  28.861  31.749  1.00  0.00     0.124 S 
ATOM     86  O   UNL A   1      37.044  28.978  30.699  1.00  0.00    -0.237 OA
ATOM     87  O   UNL A   1      39.443  28.877  31.315  1.00  0.00    -0.237 OA
ATOM     88  O   UNL A   1      37.738  27.900  32.805  1.00  0.00    -0.744 OA
ENDBRANCH  81  85
ENDBRANCH  64  78
BRANCH  65  89
ATOM     89  C   UNL A   1      43.869  29.201  26.987  1.00  0.00     0.023 A 
ATOM     90  C   UNL A   1      44.898  28.313  26.605  1.00  0.00     0.031 A 
ATOM     91  C   UNL A   1      42.594  28.974  26.419  1.00  0.00     0.131 A 
ATOM     92  C   UNL A   1      44.629  27.260  25.696  1.00  0.00     0.055 A 
ATOM     93  C   UNL A   1      42.334  27.934  25.524  1.00  0.00     0.041 A 
ATOM     94  F   UNL A   1      41.534  29.715  26.782  1.00  0.00    -0.206 F 
ATOM     95  C   UNL A   1      43.352  27.066  25.164  1.00  0.00     0.022 A 
BRANCH  92  96
ATOM     96  S   UNL A   1      45.935  26.073  25.229  1.00  0.00     0.124 S 
ATOM     97  O   UNL A   1      45.167  24.908  24.806  1.00  0.00    -0.237 OA
ATOM     98  O   UNL A   1      46.650  26.795  24.182  1.00  0.00    -0.237 OA
ATOM     99  O   UNL A   1      46.691  25.890  26.470  1.00  0.00    -0.744 OA
ENDBRANCH  92  96
ENDBRANCH  65  89
BRANCH  77 100
ATOM    100  C   UNL A   1      45.733  32.033  32.301  1.00  0.00     0.023 A 
ATOM    101  C   UNL A   1      46.244  32.999  31.403  1.00  0.00     0.031 A 
ATOM    102  C   UNL A   1      46.611  31.513  33.267  1.00  0.00     0.131 A 
ATOM    103  C   UNL A   1      47.594  33.398  31.488  1.00  0.00     0.055 A 
ATOM    104  C   UNL A   1      47.939  31.926  33.362  1.00  0.00     0.041 A 
ATOM    105  F   UNL A   1      46.178  30.614  34.165  1.00  0.00    -0.206 F 
ATOM    106  C   UNL A   1      48.438  32.868  32.469  1.00  0.00     0.022 A 
BRANCH 103 107
ATOM    107  S   UNL A   1      48.282  34.615  30.315  1.00  0.00     0.124 S 
ATOM    108  O   UNL A   1      47.848  35.896  30.860  1.00  0.00    -0.237 OA
ATOM    109  O   UNL A   1      49.717  34.347  30.379  1.00  0.00    -0.237 OA
ATOM    110  O   UNL A   1      47.657  34.253  29.041  1.00  0.00    -0.744 OA
ENDBRANCH 103 107
ENDBRANCH  77 100
ENDBRANCH  51  52
ENDBRANCH  43  46
ENDBRANCH  41  42
ENDBRANCH  40  41
ENDBRANCH   1  40
TORSDOF 20
ENDMDL
MODEL 3
REMARK VINA RESULT:     -11.2      7.964     15.894
REMARK SMILES COc1cc([C@@H]2CC(=O)Nc3c(C(=O)NCCCCCCNC(=O)c4ccc(-c5c6nc(c(-c7cc(S(=O)(=O)[O-])ccc7F)c7ccc([nH]7)c(-c7cc(S(=O)(=O)[O-])ccc7F)c7nc(c(-c8cc(S(=O)(=O)[O-])ccc8F)c8ccc5[nH]8)C=C7)C=C6)cc4)cn(-c4ccc(F)cc4)c32)c(OC)c2c1OCO2
REMARK SMILES IDX 19 1 18 2 17 3 16 4 15 5 13 6 14 7 12 9 6 10 7 11 97 12 8 13
REMARK SMILES IDX 11 14 89 15 9 16 10 17 88 18 5 20 3 21 4 22 102 23 101 24
REMARK SMILES IDX 103 25 98 26 105 27 104 28 2 29 1 30 99 31 100 32 90 33
REMARK SMILES IDX 91 34 96 35 92 36 95 37 93 38 94 39 20 40 21 41 22 42 23 43
REMARK SMILES IDX 24 45 25 46 26 47 87 48 27 49 86 50 28 51 29 52 30 53 80 54
REMARK SMILES IDX 31 55 85 56 79 57 81 58 32 59 84 60 78 61 77 62 33 64 65 65
REMARK SMILES IDX 45 66 64 67 46 68 49 69 63 70 82 71 47 72 48 73 62 75 83 76
REMARK SMILES IDX 50 77 34 78 35 79 43 80 36 81 42 82 44 83 41 84 37 85 38 86
REMARK SMILES IDX 39 87 40 88 66 89 67 90 75 91 68 92 74 93 76 94 73 95 69 96
REMARK SMILES IDX 70 97 71 98 72 99 51 100 52 101 60 102 53 103 59 104 61 105
REMARK SMILES IDX 58 106 54 107 55 108 56 109 57 110
REMARK H PARENT 15 8 10 19 22 44 81 63 49 74
REMARK Flexibility Score: inf
ROOT
ATOM      1  C   UNL A   1      44.371  38.634  32.373  1.00  0.00     0.002 C 
ENDROOT
BRANCH   1   2
ATOM      2  C   UNL A   1      43.476  39.774  32.885  1.00  0.00     0.002 C 
BRANCH   2   3
ATOM      3  C   UNL A   1      44.176  40.753  33.830  1.00  0.00     0.021 C 
BRANCH   3   4
ATOM      4  C   UNL A   1      44.481  42.109  33.181  1.00  0.00     0.116 C 
BRANCH   4   5
ATOM      5  N   UNL A   1      45.880  42.200  32.864  1.00  0.00    -0.352 N 
ATOM      6  C   UNL A   1      46.567  42.308  31.690  1.00  0.00     0.254 C 
ATOM      7  O   UNL A   1      47.795  42.379  31.818  1.00  0.00    -0.269 OA
ATOM      8  H   UNL A   1      46.463  42.180  33.657  1.00  0.00     0.163 HD
BRANCH   6   9
ATOM      9  C   UNL A   1      45.954  42.402  30.358  1.00  0.00     0.081 A 
ATOM     10  C   UNL A   1      44.923  43.407  26.894  1.00  0.00     0.082 C 
ATOM     11  C   UNL A   1      45.274  44.898  26.951  1.00  0.00     0.115 C 
ATOM     12  C   UNL A   1      45.197  42.740  28.217  1.00  0.00     0.055 A 
ATOM     13  C   UNL A   1      46.436  45.230  27.857  1.00  0.00     0.225 C 
ATOM     14  C   UNL A   1      45.974  43.280  29.228  1.00  0.00     0.076 A 
ATOM     15  N   UNL A   1      44.573  41.620  28.721  1.00  0.00    -0.317 N 
ATOM     16  O   UNL A   1      47.158  46.209  27.666  1.00  0.00    -0.275 OA
ATOM     17  N   UNL A   1      46.580  44.493  29.001  1.00  0.00    -0.324 N 
ATOM     18  C   UNL A   1      45.012  41.437  30.006  1.00  0.00     0.107 A 
ATOM     19  H   UNL A   1      47.157  44.856  29.710  1.00  0.00     0.170 HD
BRANCH  10  20
ATOM     20  C   UNL A   1      45.543  42.744  25.662  1.00  0.00     0.012 A 
ATOM     21  C   UNL A   1      47.022  40.948  24.867  1.00  0.00     0.165 A 
ATOM     22  C   UNL A   1      46.334  41.586  25.896  1.00  0.00     0.059 A 
ATOM     23  C   UNL A   1      46.817  41.402  23.583  1.00  0.00     0.211 A 
ATOM     24  C   UNL A   1      46.004  42.492  23.321  1.00  0.00     0.211 A 
ATOM     25  O   UNL A   1      47.348  40.862  22.450  1.00  0.00    -0.449 OA
ATOM     26  C   UNL A   1      45.365  43.199  24.335  1.00  0.00     0.168 A 
ATOM     27  O   UNL A   1      45.954  42.749  21.979  1.00  0.00    -0.449 OA
ATOM     28  C   UNL A   1      46.699  41.646  21.441  1.00  0.00     0.468 C 
BRANCH  21  29
ATOM     29  O   UNL A   1      47.821  39.899  25.217  1.00  0.00    -0.493 OA
ATOM     30  C   UNL A   1      47.185  38.637  25.026  1.00  0.00     0.278 C 
ENDBRANCH  21  29
BRANCH  26  31
ATOM     31  O   UNL A   1      44.580  44.302  24.178  1.00  0.00    -0.492 OA
ATOM     32  C   UNL A   1      43.290  44.144  23.605  1.00  0.00     0.278 C 
ENDBRANCH  26  31
ENDBRANCH  10  20
BRANCH  15  33
ATOM     33  C   UNL A   1      43.549  40.860  28.119  1.00  0.00     0.046 A 
ATOM     34  C   UNL A   1      43.869  39.805  27.264  1.00  0.00     0.029 A 
ATOM     35  C   UNL A   1      42.214  41.221  28.341  1.00  0.00     0.029 A 
ATOM     36  C   UNL A   1      42.859  39.174  26.541  1.00  0.00     0.041 A 
ATOM     37  C   UNL A   1      41.208  40.583  27.617  1.00  0.00     0.041 A 
ATOM     38  C   UNL A   1      41.541  39.582  26.708  1.00  0.00     0.123 A 
ATOM     39  F   UNL A   1      40.578  38.999  25.983  1.00  0.00    -0.207 F 
ENDBRANCH  15  33
ENDBRANCH   6   9
ENDBRANCH   4   5
ENDBRANCH   3   4
ENDBRANCH   2   3
ENDBRANCH   1   2
BRANCH   1  40
ATOM     40  C   UNL A   1      44.844  38.762  30.916  1.00  0.00     0.021 C 
BRANCH  40  41
ATOM     41  C   UNL A   1      45.875  37.709  30.540  1.00  0.00     0.116 C 
BRANCH  41  42
ATOM     42  N   UNL A   1      45.945  37.536  29.091  1.00  0.00    -0.352 N 
ATOM     43  C   UNL A   1      45.395  36.537  28.313  1.00  0.00     0.251 C 
ATOM     44  H   UNL A   1      46.454  38.224  28.604  1.00  0.00     0.163 HD
ATOM     45  O   UNL A   1      45.818  36.327  27.190  1.00  0.00    -0.269 OA
BRANCH  43  46
ATOM     46  C   UNL A   1      44.301  35.730  28.885  1.00  0.00     0.039 A 
ATOM     47  C   UNL A   1      44.553  34.476  29.443  1.00  0.00     0.014 A 
ATOM     48  C   UNL A   1      43.017  36.267  28.883  1.00  0.00     0.014 A 
ATOM     49  C   UNL A   1      43.511  33.804  30.076  1.00  0.00     0.010 A 
ATOM     50  C   UNL A   1      42.028  35.671  29.627  1.00  0.00     0.010 A 
ATOM     51  C   UNL A   1      42.252  34.419  30.187  1.00  0.00    -0.014 A 
BRANCH  51  52
ATOM     52  C   UNL A   1      41.197  33.819  31.004  1.00  0.00     0.031 A 
ATOM     53  C   UNL A   1      41.509  33.744  32.456  1.00  0.00     0.074 A 
ATOM     54  C   UNL A   1      39.960  33.542  30.532  1.00  0.00     0.049 A 
ATOM     55  N   UNL A   1      41.736  32.684  33.156  1.00  0.00    -0.248 NA
ATOM     56  C   UNL A   1      41.754  34.998  33.189  1.00  0.00     0.031 C 
ATOM     57  C   UNL A   1      39.425  33.802  29.190  1.00  0.00     0.029 A 
ATOM     58  N   UNL A   1      38.872  33.055  31.194  1.00  0.00    -0.354 N 
ATOM     59  C   UNL A   1      41.905  33.115  34.469  1.00  0.00     0.074 A 
ATOM     60  C   UNL A   1      42.107  34.536  34.392  1.00  0.00     0.031 C 
ATOM     61  C   UNL A   1      38.079  33.691  29.202  1.00  0.00     0.029 A 
ATOM     62  C   UNL A   1      37.673  33.171  30.493  1.00  0.00     0.049 A 
ATOM     63  H   UNL A   1      38.929  32.656  32.091  1.00  0.00     0.167 HD
ATOM     64  C   UNL A   1      41.615  32.293  35.516  1.00  0.00     0.034 A 
ATOM     65  C   UNL A   1      36.423  32.849  30.920  1.00  0.00     0.034 A 
ATOM     66  C   UNL A   1      41.493  30.921  35.074  1.00  0.00     0.049 A 
ATOM     67  C   UNL A   1      36.596  31.855  32.003  1.00  0.00     0.074 A 
ATOM     68  C   UNL A   1      42.340  30.003  34.487  1.00  0.00     0.029 A 
ATOM     69  N   UNL A   1      40.220  30.445  34.865  1.00  0.00    -0.354 N 
ATOM     70  N   UNL A   1      37.113  30.674  31.803  1.00  0.00    -0.248 NA
ATOM     71  C   UNL A   1      36.646  32.322  33.380  1.00  0.00     0.031 C 
ATOM     72  C   UNL A   1      41.522  29.291  33.557  1.00  0.00     0.029 A 
ATOM     73  C   UNL A   1      40.210  29.758  33.676  1.00  0.00     0.049 A 
ATOM     74  H   UNL A   1      39.449  30.574  35.463  1.00  0.00     0.167 HD
ATOM     75  C   UNL A   1      37.940  30.456  32.893  1.00  0.00     0.074 A 
ATOM     76  C   UNL A   1      37.507  31.435  33.889  1.00  0.00     0.031 C 
ATOM     77  C   UNL A   1      39.071  29.697  32.778  1.00  0.00     0.034 A 
BRANCH  64  78
ATOM     78  C   UNL A   1      41.051  32.743  36.849  1.00  0.00     0.023 A 
ATOM     79  C   UNL A   1      39.751  32.308  37.179  1.00  0.00     0.031 A 
ATOM     80  C   UNL A   1      41.568  33.789  37.646  1.00  0.00     0.131 A 
ATOM     81  C   UNL A   1      38.996  32.965  38.167  1.00  0.00     0.055 A 
ATOM     82  C   UNL A   1      40.836  34.396  38.672  1.00  0.00     0.041 A 
ATOM     83  F   UNL A   1      42.759  34.352  37.421  1.00  0.00    -0.206 F 
ATOM     84  C   UNL A   1      39.530  34.008  38.917  1.00  0.00     0.022 A 
BRANCH  81  85
ATOM     85  S   UNL A   1      37.237  32.556  38.324  1.00  0.00     0.124 S 
ATOM     86  O   UNL A   1      36.653  33.340  37.241  1.00  0.00    -0.237 OA
ATOM     87  O   UNL A   1      37.247  31.108  38.141  1.00  0.00    -0.237 OA
ATOM     88  O   UNL A   1      36.903  33.011  39.671  1.00  0.00    -0.744 OA
ENDBRANCH  81  85
ENDBRANCH  64  78
BRANCH  65  89
ATOM     89  C   UNL A   1      35.170  33.607  30.664  1.00  0.00     0.023 A 
ATOM     90  C   UNL A   1      34.692  34.644  31.495  1.00  0.00     0.031 A 
ATOM     91  C   UNL A   1      34.530  33.453  29.412  1.00  0.00     0.131 A 
ATOM     92  C   UNL A   1      33.624  35.468  31.062  1.00  0.00     0.055 A 
ATOM     93  C   UNL A   1      33.478  34.269  28.990  1.00  0.00     0.041 A 
ATOM     94  F   UNL A   1      34.966  32.549  28.520  1.00  0.00    -0.206 F 
ATOM     95  C   UNL A   1      33.025  35.287  29.813  1.00  0.00     0.022 A 
BRANCH  92  96
ATOM     96  S   UNL A   1      33.026  36.844  32.102  1.00  0.00     0.124 S 
ATOM     97  O   UNL A   1      34.015  36.885  33.172  1.00  0.00    -0.237 OA
ATOM     98  O   UNL A   1      33.032  37.964  31.167  1.00  0.00    -0.237 OA
ATOM     99  O   UNL A   1      31.692  36.405  32.517  1.00  0.00    -0.744 OA
ENDBRANCH  92  96
ENDBRANCH  65  89
BRANCH  77 100
ATOM    100  C   UNL A   1      39.234  28.864  31.518  1.00  0.00     0.023 A 
ATOM    101  C   UNL A   1      39.991  29.247  30.385  1.00  0.00     0.031 A 
ATOM    102  C   UNL A   1      38.678  27.574  31.523  1.00  0.00     0.131 A 
ATOM    103  C   UNL A   1      40.154  28.350  29.309  1.00  0.00     0.055 A 
ATOM    104  C   UNL A   1      38.860  26.682  30.468  1.00  0.00     0.041 A 
ATOM    105  F   UNL A   1      37.972  27.143  32.582  1.00  0.00    -0.206 F 
ATOM    106  C   UNL A   1      39.596  27.069  29.353  1.00  0.00     0.022 A 
BRANCH 103 107
ATOM    107  S   UNL A   1      41.096  28.837  27.824  1.00  0.00     0.124 S 
ATOM    108  O   UNL A   1      40.062  29.033  26.815  1.00  0.00    -0.237 OA
ATOM    109  O   UNL A   1      41.792  30.042  28.267  1.00  0.00    -0.237 OA
ATOM    110  O   UNL A   1      41.971  27.688  27.582  1.00  0.00    -0.744 OA
ENDBRANCH 103 107
ENDBRANCH  77 100
ENDBRANCH  51  52
ENDBRANCH  43  46
ENDBRANCH  41  42
ENDBRANCH  40  41
ENDBRANCH   1  40
TORSDOF 20
ENDMDL
