MODEL 1
REMARK VINA RESULT:     -12.4      0.000      0.000
REMARK SMILES O=C(/C=C/c1ccc(Br)cc1-n1ccnc1)NCCCCCCNC(=O)c1ccc(-c2c3nc(c(-c4cc(S(=O)(=O)[O-])ccc4F)c4ccc([nH]4)c(-c4cc(S(=O)(=O)[O-])ccc4F)c4nc(c(-c5cc(S(=O)(=O)[O-])ccc5F)c5ccc2[nH]5)C=C4)C=C3)cc1
REMARK SMILES IDX 21 1 20 2 19 3 18 4 17 5 1 6 2 7 3 9 4 10 5 11 6 12 11 13
REMARK SMILES IDX 7 14 10 15 8 16 9 17 12 18 13 19 16 20 14 21 15 22 22 23
REMARK SMILES IDX 23 24 24 25 25 26 26 28 27 29 28 30 89 31 29 32 88 33 30 34
REMARK SMILES IDX 31 35 32 36 82 37 33 38 87 39 81 40 83 41 34 42 86 43 80 44
REMARK SMILES IDX 79 45 35 47 67 48 47 49 66 50 48 51 51 52 65 53 84 54 49 55
REMARK SMILES IDX 50 56 64 58 85 59 52 60 36 61 37 62 45 63 38 64 44 65 46 66
REMARK SMILES IDX 43 67 39 68 40 69 41 70 42 71 68 72 69 73 77 74 70 75 76 76
REMARK SMILES IDX 78 77 75 78 71 79 72 80 73 81 74 82 53 83 54 84 62 85 55 86
REMARK SMILES IDX 61 87 63 88 60 89 56 90 57 91 58 92 59 93
REMARK H PARENT 17 8 24 27 83 46 51 57
REMARK Flexibility Score: inf
ROOT
ATOM      1  C   UNL A   1      32.952  28.284  26.808  1.00  0.00     0.002 C 
ENDROOT
BRANCH   1   2
ATOM      2  C   UNL A   1      32.685  27.711  25.408  1.00  0.00     0.002 C 
BRANCH   2   3
ATOM      3  C   UNL A   1      33.097  28.597  24.223  1.00  0.00     0.021 C 
BRANCH   3   4
ATOM      4  C   UNL A   1      33.439  27.845  22.933  1.00  0.00     0.116 C 
BRANCH   4   5
ATOM      5  N   UNL A   1      33.511  26.415  23.154  1.00  0.00    -0.353 N 
ATOM      6  O   UNL A   1      33.334  25.776  20.955  1.00  0.00    -0.270 OA
ATOM      7  C   UNL A   1      33.399  25.495  22.147  1.00  0.00     0.244 C 
ATOM      8  H   UNL A   1      33.648  26.090  24.073  1.00  0.00     0.163 HD
BRANCH   7   9
ATOM      9  C   UNL A   1      33.347  24.061  22.550  1.00  0.00     0.072 C 
ATOM     10  C   UNL A   1      33.856  23.540  23.677  1.00  0.00     0.016 C 
BRANCH  10  11
ATOM     11  C   UNL A   1      33.730  22.129  24.087  1.00  0.00    -0.001 A 
ATOM     12  C   UNL A   1      32.597  21.396  23.695  1.00  0.00     0.011 A 
ATOM     13  C   UNL A   1      34.802  21.433  24.688  1.00  0.00     0.055 A 
ATOM     14  C   UNL A   1      32.530  20.015  23.900  1.00  0.00     0.016 A 
ATOM     15  C   UNL A   1      34.753  20.040  24.856  1.00  0.00     0.043 A 
ATOM     16  C   UNL A   1      33.609  19.345  24.473  1.00  0.00     0.020 A 
ATOM     17  Br  UNL A   1      33.513  17.475  24.743  1.00  0.00    -0.051 Br
BRANCH  13  18
ATOM     18  N   UNL A   1      35.948  22.116  25.163  1.00  0.00    -0.306 N 
ATOM     19  C   UNL A   1      35.978  23.239  25.956  1.00  0.00     0.113 A 
ATOM     20  C   UNL A   1      37.259  21.773  24.935  1.00  0.00     0.204 A 
ATOM     21  C   UNL A   1      37.309  23.522  26.152  1.00  0.00     0.131 A 
ATOM     22  N   UNL A   1      38.098  22.615  25.497  1.00  0.00    -0.245 NA
ENDBRANCH  13  18
ENDBRANCH  10  11
ENDBRANCH   7   9
ENDBRANCH   4   5
ENDBRANCH   3   4
ENDBRANCH   2   3
ENDBRANCH   1   2
BRANCH   1  23
ATOM     23  C   UNL A   1      33.842  29.532  26.871  1.00  0.00     0.021 C 
BRANCH  23  24
ATOM     24  C   UNL A   1      35.217  29.293  27.487  1.00  0.00     0.116 C 
BRANCH  24  25
ATOM     25  N   UNL A   1      35.401  30.011  28.743  1.00  0.00    -0.352 N 
ATOM     26  C   UNL A   1      36.403  29.842  29.680  1.00  0.00     0.251 C 
ATOM     27  H   UNL A   1      34.728  30.700  28.950  1.00  0.00     0.163 HD
ATOM     28  O   UNL A   1      36.227  30.196  30.836  1.00  0.00    -0.269 OA
BRANCH  26  29
ATOM     29  C   UNL A   1      37.683  29.225  29.265  1.00  0.00     0.039 A 
ATOM     30  C   UNL A   1      38.325  29.634  28.092  1.00  0.00     0.014 A 
ATOM     31  C   UNL A   1      38.237  28.221  30.058  1.00  0.00     0.014 A 
ATOM     32  C   UNL A   1      39.568  29.085  27.772  1.00  0.00     0.010 A 
ATOM     33  C   UNL A   1      39.507  27.754  29.798  1.00  0.00     0.010 A 
ATOM     34  C   UNL A   1      40.169  28.161  28.643  1.00  0.00    -0.014 A 
BRANCH  34  35
ATOM     35  C   UNL A   1      41.569  27.767  28.459  1.00  0.00     0.031 A 
ATOM     36  C   UNL A   1      41.726  26.458  27.765  1.00  0.00     0.074 A 
ATOM     37  C   UNL A   1      42.621  28.595  28.659  1.00  0.00     0.049 A 
ATOM     38  N   UNL A   1      42.164  25.347  28.255  1.00  0.00    -0.248 NA
ATOM     39  C   UNL A   1      41.153  26.317  26.414  1.00  0.00     0.031 C 
ATOM     40  C   UNL A   1      42.576  30.007  29.054  1.00  0.00     0.029 A 
ATOM     41  N   UNL A   1      43.956  28.389  28.448  1.00  0.00    -0.354 N 
ATOM     42  C   UNL A   1      42.178  24.442  27.196  1.00  0.00     0.074 A 
ATOM     43  C   UNL A   1      41.334  25.015  26.185  1.00  0.00     0.031 C 
ATOM     44  C   UNL A   1      43.780  30.582  28.838  1.00  0.00     0.029 A 
ATOM     45  C   UNL A   1      44.728  29.554  28.445  1.00  0.00     0.049 A 
ATOM     46  H   UNL A   1      44.342  27.494  28.307  1.00  0.00     0.167 HD
ATOM     47  C   UNL A   1      43.107  23.446  27.143  1.00  0.00     0.034 A 
ATOM     48  C   UNL A   1      46.050  29.682  28.141  1.00  0.00     0.034 A 
ATOM     49  C   UNL A   1      43.744  23.290  28.434  1.00  0.00     0.049 A 
ATOM     50  C   UNL A   1      46.657  28.346  28.324  1.00  0.00     0.074 A 
ATOM     51  C   UNL A   1      43.326  22.941  29.702  1.00  0.00     0.029 A 
ATOM     52  N   UNL A   1      44.966  23.904  28.587  1.00  0.00    -0.354 N 
ATOM     53  N   UNL A   1      46.739  27.752  29.481  1.00  0.00    -0.248 NA
ATOM     54  C   UNL A   1      46.783  27.469  27.170  1.00  0.00     0.031 C 
ATOM     55  C   UNL A   1      44.116  23.734  30.587  1.00  0.00     0.029 A 
ATOM     56  C   UNL A   1      45.035  24.468  29.834  1.00  0.00     0.049 A 
ATOM     57  H   UNL A   1      45.678  23.934  27.908  1.00  0.00     0.167 HD
ATOM     58  C   UNL A   1      46.466  26.421  29.216  1.00  0.00     0.074 A 
ATOM     59  C   UNL A   1      46.656  26.283  27.774  1.00  0.00     0.031 C 
ATOM     60  C   UNL A   1      45.831  25.644  30.144  1.00  0.00     0.034 A 
BRANCH  47  61
ATOM     61  C   UNL A   1      43.769  22.926  25.872  1.00  0.00     0.023 A 
ATOM     62  C   UNL A   1      43.839  21.524  25.721  1.00  0.00     0.031 A 
ATOM     63  C   UNL A   1      44.574  23.668  24.981  1.00  0.00     0.131 A 
ATOM     64  C   UNL A   1      44.761  20.930  24.841  1.00  0.00     0.055 A 
ATOM     65  C   UNL A   1      45.449  23.072  24.064  1.00  0.00     0.041 A 
ATOM     66  F   UNL A   1      44.632  25.004  24.983  1.00  0.00    -0.206 F 
ATOM     67  C   UNL A   1      45.575  21.696  24.016  1.00  0.00     0.022 A 
BRANCH  64  68
ATOM     68  S   UNL A   1      45.007  19.137  24.933  1.00  0.00     0.124 S 
ATOM     69  O   UNL A   1      44.928  18.762  23.526  1.00  0.00    -0.237 OA
ATOM     70  O   UNL A   1      46.324  19.047  25.554  1.00  0.00    -0.237 OA
ATOM     71  O   UNL A   1      43.893  18.687  25.765  1.00  0.00    -0.744 OA
ENDBRANCH  64  68
ENDBRANCH  47  61
BRANCH  48  72
ATOM     72  C   UNL A   1      46.747  30.807  27.453  1.00  0.00     0.023 A 
ATOM     73  C   UNL A   1      46.073  31.903  26.864  1.00  0.00     0.031 A 
ATOM     74  C   UNL A   1      48.146  30.938  27.607  1.00  0.00     0.131 A 
ATOM     75  C   UNL A   1      46.792  33.060  26.470  1.00  0.00     0.055 A 
ATOM     76  C   UNL A   1      48.849  32.082  27.221  1.00  0.00     0.041 A 
ATOM     77  F   UNL A   1      48.864  29.987  28.225  1.00  0.00    -0.206 F 
ATOM     78  C   UNL A   1      48.173  33.153  26.659  1.00  0.00     0.022 A 
BRANCH  75  79
ATOM     79  S   UNL A   1      45.930  34.514  25.775  1.00  0.00     0.124 S 
ATOM     80  O   UNL A   1      45.187  33.935  24.662  1.00  0.00    -0.237 OA
ATOM     81  O   UNL A   1      45.144  34.984  26.910  1.00  0.00    -0.237 OA
ATOM     82  O   UNL A   1      47.024  35.404  25.381  1.00  0.00    -0.744 OA
ENDBRANCH  75  79
ENDBRANCH  48  72
BRANCH  60  83
ATOM     83  C   UNL A   1      45.822  26.129  31.582  1.00  0.00     0.023 A 
ATOM     84  C   UNL A   1      44.731  26.748  32.236  1.00  0.00     0.031 A 
ATOM     85  C   UNL A   1      46.974  25.867  32.344  1.00  0.00     0.131 A 
ATOM     86  C   UNL A   1      44.830  27.091  33.600  1.00  0.00     0.055 A 
ATOM     87  C   UNL A   1      47.058  26.182  33.698  1.00  0.00     0.041 A 
ATOM     88  F   UNL A   1      48.037  25.266  31.785  1.00  0.00    -0.206 F 
ATOM     89  C   UNL A   1      45.989  26.802  34.330  1.00  0.00     0.022 A 
BRANCH  86  90
ATOM     90  S   UNL A   1      43.465  27.947  34.452  1.00  0.00     0.124 S 
ATOM     91  O   UNL A   1      42.354  27.009  34.350  1.00  0.00    -0.237 OA
ATOM     92  O   UNL A   1      44.006  28.153  35.793  1.00  0.00    -0.237 OA
ATOM     93  O   UNL A   1      43.296  29.176  33.672  1.00  0.00    -0.744 OA
ENDBRANCH  86  90
ENDBRANCH  60  83
ENDBRANCH  34  35
ENDBRANCH  26  29
ENDBRANCH  24  25
ENDBRANCH  23  24
ENDBRANCH   1  23
TORSDOF 18
ENDMDL
MODEL 2
REMARK VINA RESULT:     -12.3      1.360      2.061
REMARK SMILES O=C(/C=C/c1ccc(Br)cc1-n1ccnc1)NCCCCCCNC(=O)c1ccc(-c2c3nc(c(-c4cc(S(=O)(=O)[O-])ccc4F)c4ccc([nH]4)c(-c4cc(S(=O)(=O)[O-])ccc4F)c4nc(c(-c5cc(S(=O)(=O)[O-])ccc5F)c5ccc2[nH]5)C=C4)C=C3)cc1
REMARK SMILES IDX 21 1 20 2 19 3 18 4 17 5 1 6 2 7 3 9 4 10 5 11 6 12 11 13
REMARK SMILES IDX 7 14 10 15 8 16 9 17 12 18 13 19 16 20 14 21 15 22 22 23
REMARK SMILES IDX 23 24 24 25 25 26 26 28 27 29 28 30 89 31 29 32 88 33 30 34
REMARK SMILES IDX 31 35 32 36 82 37 33 38 87 39 81 40 83 41 34 42 86 43 80 44
REMARK SMILES IDX 79 45 35 47 67 48 47 49 66 50 48 51 51 52 65 53 84 54 49 55
REMARK SMILES IDX 50 56 64 58 85 59 52 60 36 61 37 62 45 63 38 64 44 65 46 66
REMARK SMILES IDX 43 67 39 68 40 69 41 70 42 71 68 72 69 73 77 74 70 75 76 76
REMARK SMILES IDX 78 77 75 78 71 79 72 80 73 81 74 82 53 83 54 84 62 85 55 86
REMARK SMILES IDX 61 87 63 88 60 89 56 90 57 91 58 92 59 93
REMARK H PARENT 17 8 24 27 83 46 51 57
REMARK Flexibility Score: inf
ROOT
ATOM      1  C   UNL A   1      33.422  29.460  26.139  1.00  0.00     0.002 C 
ENDROOT
BRANCH   1   2
ATOM      2  C   UNL A   1      31.902  29.583  25.953  1.00  0.00     0.002 C 
BRANCH   2   3
ATOM      3  C   UNL A   1      31.354  29.188  24.573  1.00  0.00     0.021 C 
BRANCH   3   4
ATOM      4  C   UNL A   1      30.950  27.718  24.427  1.00  0.00     0.116 C 
BRANCH   4   5
ATOM      5  N   UNL A   1      32.110  26.855  24.330  1.00  0.00    -0.353 N 
ATOM      6  O   UNL A   1      31.608  25.500  26.116  1.00  0.00    -0.270 OA
ATOM      7  C   UNL A   1      32.369  25.846  25.220  1.00  0.00     0.244 C 
ATOM      8  H   UNL A   1      32.742  27.000  23.590  1.00  0.00     0.163 HD
BRANCH   7   9
ATOM      9  C   UNL A   1      33.674  25.142  25.073  1.00  0.00     0.072 C 
ATOM     10  C   UNL A   1      34.190  24.250  25.933  1.00  0.00     0.016 C 
BRANCH  10  11
ATOM     11  C   UNL A   1      35.452  23.513  25.730  1.00  0.00    -0.001 A 
ATOM     12  C   UNL A   1      36.671  24.134  26.049  1.00  0.00     0.011 A 
ATOM     13  C   UNL A   1      35.464  22.136  25.417  1.00  0.00     0.055 A 
ATOM     14  C   UNL A   1      37.866  23.408  26.050  1.00  0.00     0.016 A 
ATOM     15  C   UNL A   1      36.657  21.398  25.459  1.00  0.00     0.043 A 
ATOM     16  C   UNL A   1      37.852  22.046  25.762  1.00  0.00     0.020 A 
ATOM     17  Br  UNL A   1      39.472  21.070  25.770  1.00  0.00    -0.051 Br
BRANCH  13  18
ATOM     18  N   UNL A   1      34.282  21.460  25.027  1.00  0.00    -0.306 N 
ATOM     19  C   UNL A   1      33.579  20.527  25.752  1.00  0.00     0.113 A 
ATOM     20  C   UNL A   1      33.598  21.624  23.845  1.00  0.00     0.204 A 
ATOM     21  C   UNL A   1      32.513  20.166  24.960  1.00  0.00     0.131 A 
ATOM     22  N   UNL A   1      32.545  20.841  23.770  1.00  0.00    -0.245 NA
ENDBRANCH  13  18
ENDBRANCH  10  11
ENDBRANCH   7   9
ENDBRANCH   4   5
ENDBRANCH   3   4
ENDBRANCH   2   3
ENDBRANCH   1   2
BRANCH   1  23
ATOM     23  C   UNL A   1      34.043  30.329  27.240  1.00  0.00     0.021 C 
BRANCH  23  24
ATOM     24  C   UNL A   1      35.294  29.735  27.879  1.00  0.00     0.116 C 
BRANCH  24  25
ATOM     25  N   UNL A   1      35.481  30.174  29.258  1.00  0.00    -0.352 N 
ATOM     26  C   UNL A   1      36.432  29.744  30.165  1.00  0.00     0.251 C 
ATOM     27  H   UNL A   1      34.852  30.858  29.583  1.00  0.00     0.163 HD
ATOM     28  O   UNL A   1      36.238  29.875  31.363  1.00  0.00    -0.269 OA
BRANCH  26  29
ATOM     29  C   UNL A   1      37.680  29.125  29.664  1.00  0.00     0.039 A 
ATOM     30  C   UNL A   1      38.318  29.626  28.525  1.00  0.00     0.014 A 
ATOM     31  C   UNL A   1      38.206  28.025  30.341  1.00  0.00     0.014 A 
ATOM     32  C   UNL A   1      39.533  29.065  28.127  1.00  0.00     0.010 A 
ATOM     33  C   UNL A   1      39.452  27.538  30.009  1.00  0.00     0.010 A 
ATOM     34  C   UNL A   1      40.111  28.035  28.888  1.00  0.00    -0.014 A 
BRANCH  34  35
ATOM     35  C   UNL A   1      41.491  27.609  28.637  1.00  0.00     0.031 A 
ATOM     36  C   UNL A   1      41.583  26.319  27.898  1.00  0.00     0.074 A 
ATOM     37  C   UNL A   1      42.573  28.400  28.822  1.00  0.00     0.049 A 
ATOM     38  N   UNL A   1      42.007  25.181  28.335  1.00  0.00    -0.248 NA
ATOM     39  C   UNL A   1      40.955  26.237  26.566  1.00  0.00     0.031 C 
ATOM     40  C   UNL A   1      42.584  29.799  29.262  1.00  0.00     0.029 A 
ATOM     41  N   UNL A   1      43.893  28.164  28.552  1.00  0.00    -0.354 N 
ATOM     42  C   UNL A   1      41.954  24.310  27.249  1.00  0.00     0.074 A 
ATOM     43  C   UNL A   1      41.090  24.939  26.290  1.00  0.00     0.031 C 
ATOM     44  C   UNL A   1      43.795  30.347  29.017  1.00  0.00     0.029 A 
ATOM     45  C   UNL A   1      44.697  29.306  28.555  1.00  0.00     0.049 A 
ATOM     46  H   UNL A   1      44.246  27.264  28.369  1.00  0.00     0.167 HD
ATOM     47  C   UNL A   1      42.851  23.291  27.129  1.00  0.00     0.034 A 
ATOM     48  C   UNL A   1      46.010  29.408  28.204  1.00  0.00     0.034 A 
ATOM     49  C   UNL A   1      43.532  23.076  28.389  1.00  0.00     0.049 A 
ATOM     50  C   UNL A   1      46.584  28.050  28.321  1.00  0.00     0.074 A 
ATOM     51  C   UNL A   1      43.154  22.698  29.661  1.00  0.00     0.029 A 
ATOM     52  N   UNL A   1      44.776  23.651  28.513  1.00  0.00    -0.354 N 
ATOM     53  N   UNL A   1      46.693  27.418  29.456  1.00  0.00    -0.248 NA
ATOM     54  C   UNL A   1      46.641  27.207  27.137  1.00  0.00     0.031 C 
ATOM     55  C   UNL A   1      43.999  23.440  30.538  1.00  0.00     0.029 A 
ATOM     56  C   UNL A   1      44.910  24.172  29.773  1.00  0.00     0.049 A 
ATOM     57  H   UNL A   1      45.463  23.683  27.807  1.00  0.00     0.167 HD
ATOM     58  C   UNL A   1      46.372  26.104  29.160  1.00  0.00     0.074 A 
ATOM     59  C   UNL A   1      46.502  26.007  27.709  1.00  0.00     0.031 C 
ATOM     60  C   UNL A   1      45.751  25.315  30.088  1.00  0.00     0.034 A 
BRANCH  47  61
ATOM     61  C   UNL A   1      43.449  22.794  25.818  1.00  0.00     0.023 A 
ATOM     62  C   UNL A   1      43.622  21.399  25.687  1.00  0.00     0.031 A 
ATOM     63  C   UNL A   1      44.115  23.576  24.849  1.00  0.00     0.131 A 
ATOM     64  C   UNL A   1      44.516  20.859  24.745  1.00  0.00     0.055 A 
ATOM     65  C   UNL A   1      44.959  23.029  23.874  1.00  0.00     0.041 A 
ATOM     66  F   UNL A   1      44.063  24.911  24.822  1.00  0.00    -0.206 F 
ATOM     67  C   UNL A   1      45.194  21.667  23.842  1.00  0.00     0.022 A 
BRANCH  64  68
ATOM     68  S   UNL A   1      44.915  19.095  24.851  1.00  0.00     0.124 S 
ATOM     69  O   UNL A   1      43.695  18.557  25.442  1.00  0.00    -0.237 OA
ATOM     70  O   UNL A   1      45.158  18.759  23.452  1.00  0.00    -0.237 OA
ATOM     71  O   UNL A   1      46.094  19.066  25.713  1.00  0.00    -0.744 OA
ENDBRANCH  64  68
ENDBRANCH  47  61
BRANCH  48  72
ATOM     72  C   UNL A   1      46.712  30.534  27.524  1.00  0.00     0.023 A 
ATOM     73  C   UNL A   1      46.041  31.600  26.879  1.00  0.00     0.031 A 
ATOM     74  C   UNL A   1      48.098  30.703  27.742  1.00  0.00     0.131 A 
ATOM     75  C   UNL A   1      46.751  32.766  26.493  1.00  0.00     0.055 A 
ATOM     76  C   UNL A   1      48.792  31.856  27.364  1.00  0.00     0.041 A 
ATOM     77  F   UNL A   1      48.809  29.785  28.416  1.00  0.00    -0.206 F 
ATOM     78  C   UNL A   1      48.118  32.898  26.746  1.00  0.00     0.022 A 
BRANCH  75  79
ATOM     79  S   UNL A   1      45.889  34.182  25.724  1.00  0.00     0.124 S 
ATOM     80  O   UNL A   1      44.866  33.526  24.918  1.00  0.00    -0.237 OA
ATOM     81  O   UNL A   1      45.424  34.933  26.884  1.00  0.00    -0.237 OA
ATOM     82  O   UNL A   1      46.942  34.844  24.951  1.00  0.00    -0.744 OA
ENDBRANCH  75  79
ENDBRANCH  48  72
BRANCH  60  83
ATOM     83  C   UNL A   1      45.810  25.753  31.539  1.00  0.00     0.023 A 
ATOM     84  C   UNL A   1      44.703  26.141  32.329  1.00  0.00     0.031 A 
ATOM     85  C   UNL A   1      47.067  25.693  32.166  1.00  0.00     0.131 A 
ATOM     86  C   UNL A   1      44.887  26.462  33.690  1.00  0.00     0.055 A 
ATOM     87  C   UNL A   1      47.240  25.984  33.517  1.00  0.00     0.041 A 
ATOM     88  F   UNL A   1      48.155  25.315  31.474  1.00  0.00    -0.206 F 
ATOM     89  C   UNL A   1      46.151  26.377  34.283  1.00  0.00     0.022 A 
BRANCH  86  90
ATOM     90  S   UNL A   1      43.489  27.027  34.716  1.00  0.00     0.124 S 
ATOM     91  O   UNL A   1      43.106  25.834  35.461  1.00  0.00    -0.237 OA
ATOM     92  O   UNL A   1      44.086  28.106  35.499  1.00  0.00    -0.237 OA
ATOM     93  O   UNL A   1      42.501  27.470  33.729  1.00  0.00    -0.744 OA
ENDBRANCH  86  90
ENDBRANCH  60  83
ENDBRANCH  34  35
ENDBRANCH  26  29
ENDBRANCH  24  25
ENDBRANCH  23  24
ENDBRANCH   1  23
TORSDOF 18
ENDMDL
MODEL 3
REMARK VINA RESULT:     -12.1      4.540      9.342
REMARK SMILES O=C(/C=C/c1ccc(Br)cc1-n1ccnc1)NCCCCCCNC(=O)c1ccc(-c2c3nc(c(-c4cc(S(=O)(=O)[O-])ccc4F)c4ccc([nH]4)c(-c4cc(S(=O)(=O)[O-])ccc4F)c4nc(c(-c5cc(S(=O)(=O)[O-])ccc5F)c5ccc2[nH]5)C=C4)C=C3)cc1
REMARK SMILES IDX 21 1 20 2 19 3 18 4 17 5 1 6 2 7 3 9 4 10 5 11 6 12 11 13
REMARK SMILES IDX 7 14 10 15 8 16 9 17 12 18 13 19 16 20 14 21 15 22 22 23
REMARK SMILES IDX 23 24 24 25 25 26 26 28 27 29 28 30 89 31 29 32 88 33 30 34
REMARK SMILES IDX 31 35 32 36 82 37 33 38 87 39 81 40 83 41 34 42 86 43 80 44
REMARK SMILES IDX 79 45 35 47 67 48 47 49 66 50 48 51 51 52 65 53 84 54 49 55
REMARK SMILES IDX 50 56 64 58 85 59 52 60 36 61 37 62 45 63 38 64 44 65 46 66
REMARK SMILES IDX 43 67 39 68 40 69 41 70 42 71 68 72 69 73 77 74 70 75 76 76
REMARK SMILES IDX 78 77 75 78 71 79 72 80 73 81 74 82 53 83 54 84 62 85 55 86
REMARK SMILES IDX 61 87 63 88 60 89 56 90 57 91 58 92 59 93
REMARK H PARENT 17 8 24 27 83 46 51 57
REMARK Flexibility Score: inf
ROOT
ATOM      1  C   UNL A   1      37.277  21.283  25.020  1.00  0.00     0.002 C 
ENDROOT
BRANCH   1   2
ATOM      2  C   UNL A   1      35.930  20.551  25.110  1.00  0.00     0.002 C 
BRANCH   2   3
ATOM      3  C   UNL A   1      34.710  21.306  24.558  1.00  0.00     0.021 C 
BRANCH   3   4
ATOM      4  C   UNL A   1      33.548  21.476  25.541  1.00  0.00     0.116 C 
BRANCH   4   5
ATOM      5  N   UNL A   1      33.276  22.874  25.807  1.00  0.00    -0.353 N 
ATOM      6  O   UNL A   1      32.046  22.567  27.723  1.00  0.00    -0.270 OA
ATOM      7  C   UNL A   1      32.499  23.300  26.851  1.00  0.00     0.244 C 
ATOM      8  H   UNL A   1      33.668  23.549  25.207  1.00  0.00     0.163 HD
BRANCH   7   9
ATOM      9  C   UNL A   1      32.192  24.758  26.906  1.00  0.00     0.072 C 
ATOM     10  C   UNL A   1      32.489  25.663  25.962  1.00  0.00     0.016 C 
BRANCH  10  11
ATOM     11  C   UNL A   1      32.111  27.088  26.010  1.00  0.00    -0.001 A 
ATOM     12  C   UNL A   1      31.838  27.688  27.250  1.00  0.00     0.011 A 
ATOM     13  C   UNL A   1      32.210  27.920  24.872  1.00  0.00     0.055 A 
ATOM     14  C   UNL A   1      31.663  29.070  27.356  1.00  0.00     0.016 A 
ATOM     15  C   UNL A   1      32.076  29.312  24.984  1.00  0.00     0.043 A 
ATOM     16  C   UNL A   1      31.789  29.875  26.226  1.00  0.00     0.020 A 
ATOM     17  Br  UNL A   1      31.555  31.745  26.376  1.00  0.00    -0.051 Br
BRANCH  13  18
ATOM     18  N   UNL A   1      32.421  27.377  23.581  1.00  0.00    -0.306 N 
ATOM     19  C   UNL A   1      31.505  26.718  22.796  1.00  0.00     0.113 A 
ATOM     20  C   UNL A   1      33.588  27.423  22.855  1.00  0.00     0.204 A 
ATOM     21  C   UNL A   1      32.174  26.387  21.640  1.00  0.00     0.131 A 
ATOM     22  N   UNL A   1      33.474  26.815  21.695  1.00  0.00    -0.245 NA
ENDBRANCH  13  18
ENDBRANCH  10  11
ENDBRANCH   7   9
ENDBRANCH   4   5
ENDBRANCH   3   4
ENDBRANCH   2   3
ENDBRANCH   1   2
BRANCH   1  23
ATOM     23  C   UNL A   1      37.215  22.815  24.973  1.00  0.00     0.021 C 
BRANCH  23  24
ATOM     24  C   UNL A   1      37.941  23.510  26.120  1.00  0.00     0.116 C 
BRANCH  24  25
ATOM     25  N   UNL A   1      39.137  22.791  26.543  1.00  0.00    -0.352 N 
ATOM     26  C   UNL A   1      40.298  23.315  27.083  1.00  0.00     0.251 C 
ATOM     27  H   UNL A   1      39.116  21.813  26.431  1.00  0.00     0.163 HD
ATOM     28  O   UNL A   1      41.342  22.686  27.015  1.00  0.00    -0.269 OA
BRANCH  26  29
ATOM     29  C   UNL A   1      40.255  24.642  27.735  1.00  0.00     0.039 A 
ATOM     30  C   UNL A   1      41.329  25.091  28.512  1.00  0.00     0.014 A 
ATOM     31  C   UNL A   1      39.122  25.439  27.571  1.00  0.00     0.014 A 
ATOM     32  C   UNL A   1      41.285  26.379  29.048  1.00  0.00     0.010 A 
ATOM     33  C   UNL A   1      39.123  26.744  28.014  1.00  0.00     0.010 A 
ATOM     34  C   UNL A   1      40.189  27.214  28.776  1.00  0.00    -0.014 A 
BRANCH  34  35
ATOM     35  C   UNL A   1      40.238  28.640  29.113  1.00  0.00     0.031 A 
ATOM     36  C   UNL A   1      41.436  29.334  28.564  1.00  0.00     0.074 A 
ATOM     37  C   UNL A   1      39.200  29.328  29.645  1.00  0.00     0.049 A 
ATOM     38  N   UNL A   1      42.439  29.821  29.214  1.00  0.00    -0.248 NA
ATOM     39  C   UNL A   1      41.634  29.324  27.103  1.00  0.00     0.031 C 
ATOM     40  C   UNL A   1      37.860  28.815  29.950  1.00  0.00     0.029 A 
ATOM     41  N   UNL A   1      39.079  30.660  29.926  1.00  0.00    -0.354 N 
ATOM     42  C   UNL A   1      43.259  30.420  28.259  1.00  0.00     0.074 A 
ATOM     43  C   UNL A   1      42.845  29.876  26.997  1.00  0.00     0.031 C 
ATOM     44  C   UNL A   1      37.011  29.846  30.155  1.00  0.00     0.029 A 
ATOM     45  C   UNL A   1      37.769  31.086  30.158  1.00  0.00     0.049 A 
ATOM     46  H   UNL A   1      39.852  31.270  29.961  1.00  0.00     0.167 HD
ATOM     47  C   UNL A   1      44.008  31.514  28.573  1.00  0.00     0.034 A 
ATOM     48  C   UNL A   1      37.321  32.360  30.338  1.00  0.00     0.034 A 
ATOM     49  C   UNL A   1      44.080  31.674  30.010  1.00  0.00     0.049 A 
ATOM     50  C   UNL A   1      38.488  33.161  30.768  1.00  0.00     0.074 A 
ATOM     51  C   UNL A   1      44.583  30.932  31.059  1.00  0.00     0.029 A 
ATOM     52  N   UNL A   1      43.208  32.583  30.565  1.00  0.00    -0.354 N 
ATOM     53  N   UNL A   1      39.106  32.968  31.899  1.00  0.00    -0.248 NA
ATOM     54  C   UNL A   1      39.249  33.887  29.764  1.00  0.00     0.031 C 
ATOM     55  C   UNL A   1      43.677  31.149  32.139  1.00  0.00     0.029 A 
ATOM     56  C   UNL A   1      42.711  32.074  31.736  1.00  0.00     0.049 A 
ATOM     57  H   UNL A   1      42.978  33.460  30.181  1.00  0.00     0.167 HD
ATOM     58  C   UNL A   1      40.448  33.128  31.599  1.00  0.00     0.074 A 
ATOM     59  C   UNL A   1      40.462  33.839  30.323  1.00  0.00     0.031 C 
ATOM     60  C   UNL A   1      41.400  32.409  32.268  1.00  0.00     0.034 A 
BRANCH  47  61
ATOM     61  C   UNL A   1      44.292  32.683  27.637  1.00  0.00     0.023 A 
ATOM     62  C   UNL A   1      43.733  33.930  27.990  1.00  0.00     0.031 A 
ATOM     63  C   UNL A   1      44.795  32.602  26.319  1.00  0.00     0.131 A 
ATOM     64  C   UNL A   1      43.565  34.952  27.038  1.00  0.00     0.055 A 
ATOM     65  C   UNL A   1      44.678  33.643  25.391  1.00  0.00     0.041 A 
ATOM     66  F   UNL A   1      45.357  31.499  25.816  1.00  0.00    -0.206 F 
ATOM     67  C   UNL A   1      44.027  34.813  25.736  1.00  0.00     0.022 A 
BRANCH  64  68
ATOM     68  S   UNL A   1      42.562  36.392  27.489  1.00  0.00     0.124 S 
ATOM     69  O   UNL A   1      43.027  37.381  26.524  1.00  0.00    -0.237 OA
ATOM     70  O   UNL A   1      41.207  35.886  27.296  1.00  0.00    -0.237 OA
ATOM     71  O   UNL A   1      42.941  36.645  28.877  1.00  0.00    -0.744 OA
ENDBRANCH  64  68
ENDBRANCH  47  61
BRANCH  48  72
ATOM     72  C   UNL A   1      36.030  32.969  29.903  1.00  0.00     0.023 A 
ATOM     73  C   UNL A   1      35.236  33.795  30.734  1.00  0.00     0.031 A 
ATOM     74  C   UNL A   1      35.695  32.947  28.531  1.00  0.00     0.131 A 
ATOM     75  C   UNL A   1      34.172  34.554  30.183  1.00  0.00     0.055 A 
ATOM     76  C   UNL A   1      34.649  33.701  27.993  1.00  0.00     0.041 A 
ATOM     77  F   UNL A   1      36.435  32.257  27.649  1.00  0.00    -0.206 F 
ATOM     78  C   UNL A   1      33.888  34.517  28.816  1.00  0.00     0.022 A 
BRANCH  75  79
ATOM     79  S   UNL A   1      33.182  35.682  31.226  1.00  0.00     0.124 S 
ATOM     80  O   UNL A   1      32.256  36.267  30.263  1.00  0.00    -0.237 OA
ATOM     81  O   UNL A   1      32.608  34.774  32.212  1.00  0.00    -0.237 OA
ATOM     82  O   UNL A   1      34.176  36.614  31.761  1.00  0.00    -0.744 OA
ENDBRANCH  75  79
ENDBRANCH  48  72
BRANCH  60  83
ATOM     83  C   UNL A   1      41.008  31.781  33.592  1.00  0.00     0.023 A 
ATOM     84  C   UNL A   1      40.914  32.459  34.831  1.00  0.00     0.031 A 
ATOM     85  C   UNL A   1      40.634  30.426  33.562  1.00  0.00     0.131 A 
ATOM     86  C   UNL A   1      40.471  31.769  35.978  1.00  0.00     0.055 A 
ATOM     87  C   UNL A   1      40.171  29.756  34.691  1.00  0.00     0.041 A 
ATOM     88  F   UNL A   1      40.685  29.732  32.413  1.00  0.00    -0.206 F 
ATOM     89  C   UNL A   1      40.094  30.423  35.907  1.00  0.00     0.022 A 
BRANCH  86  90
ATOM     90  S   UNL A   1      40.401  32.599  37.600  1.00  0.00     0.124 S 
ATOM     91  O   UNL A   1      40.627  34.003  37.277  1.00  0.00    -0.237 OA
ATOM     92  O   UNL A   1      39.062  32.259  38.073  1.00  0.00    -0.237 OA
ATOM     93  O   UNL A   1      41.487  31.967  38.352  1.00  0.00    -0.744 OA
ENDBRANCH  86  90
ENDBRANCH  60  83
ENDBRANCH  34  35
ENDBRANCH  26  29
ENDBRANCH  24  25
ENDBRANCH  23  24
ENDBRANCH   1  23
TORSDOF 18
ENDMDL
