MODEL 1
REMARK VINA RESULT:     -11.3      0.000      0.000
REMARK SMILES C[C@H]1[C@H](C(=O)NCCCCCCNC(=O)c2ccc(-c3c4nc(c(-c5cc(S(=O)(=O)[O-])ccc5F)c5ccc([nH]5)c(-c5cc(S(=O)(=O)[O-])ccc5F)c5nc(c(-c6cc(S(=O)(=O)[O-])ccc6F)c6ccc3[nH]6)C=C5)C=C4)cc2)CCN1C(=O)COc1ccccc1F
REMARK SMILES IDX 9 1 8 2 7 3 6 4 4 5 5 6 3 8 1 9 2 10 81 11 79 12 80 13 82 14
REMARK SMILES IDX 83 15 84 16 85 17 86 18 87 19 91 20 88 21 90 22 92 23 89 24
REMARK SMILES IDX 10 25 11 26 12 27 13 28 14 29 15 31 16 32 17 33 78 34 18 35
REMARK SMILES IDX 77 36 19 37 20 38 21 39 71 40 22 41 76 42 70 43 72 44 23 45
REMARK SMILES IDX 75 46 69 47 68 48 24 50 56 51 36 52 55 53 37 54 40 55 54 56
REMARK SMILES IDX 73 57 38 58 39 59 53 61 74 62 41 63 25 64 26 65 34 66 27 67
REMARK SMILES IDX 33 68 35 69 32 70 28 71 29 72 30 73 31 74 57 75 58 76 66 77
REMARK SMILES IDX 59 78 65 79 67 80 64 81 60 82 61 83 62 84 63 85 42 86 43 87
REMARK SMILES IDX 51 88 44 89 50 90 52 91 49 92 45 93 46 94 47 95 48 96
REMARK H PARENT 6 7 13 30 72 49 40 60
REMARK Flexibility Score: inf
ROOT
ATOM      1  C   UNL A   1      36.215  21.663  25.031  1.00  0.00     0.002 C 
ENDROOT
BRANCH   1   2
ATOM      2  C   UNL A   1      35.340  22.030  26.234  1.00  0.00     0.021 C 
BRANCH   2   3
ATOM      3  C   UNL A   1      33.904  21.532  26.112  1.00  0.00     0.116 C 
BRANCH   3   4
ATOM      4  N   UNL A   1      33.539  21.332  24.721  1.00  0.00    -0.356 N 
ATOM      5  C   UNL A   1      32.758  22.072  23.893  1.00  0.00     0.225 C 
ATOM      6  O   UNL A   1      32.548  21.635  22.758  1.00  0.00    -0.275 OA
ATOM      7  H   UNL A   1      33.923  20.525  24.310  1.00  0.00     0.163 HD
BRANCH   5   8
ATOM      8  C   UNL A   1      32.164  23.403  24.317  1.00  0.00     0.102 C 
ATOM      9  C   UNL A   1      33.424  25.069  25.689  1.00  0.00     0.032 C 
ATOM     10  C   UNL A   1      33.176  24.567  24.267  1.00  0.00     0.094 C 
ATOM     11  N   UNL A   1      32.549  25.552  23.379  1.00  0.00    -0.336 N 
ATOM     12  C   UNL A   1      30.952  23.810  23.477  1.00  0.00     0.037 C 
ATOM     13  C   UNL A   1      31.133  25.288  23.214  1.00  0.00     0.121 C 
BRANCH  11  14
ATOM     14  C   UNL A   1      33.148  26.507  22.579  1.00  0.00     0.260 C 
ATOM     15  O   UNL A   1      33.739  26.189  21.541  1.00  0.00    -0.271 OA
BRANCH  14  16
ATOM     16  C   UNL A   1      33.102  27.984  22.984  1.00  0.00     0.329 C 
BRANCH  16  17
ATOM     17  O   UNL A   1      32.249  28.478  23.994  1.00  0.00    -0.481 OA
BRANCH  17  18
ATOM     18  C   UNL A   1      32.767  29.144  25.069  1.00  0.00     0.155 A 
ATOM     19  C   UNL A   1      33.951  28.584  25.563  1.00  0.00     0.049 A 
ATOM     20  C   UNL A   1      32.198  30.202  25.780  1.00  0.00     0.165 A 
ATOM     21  C   UNL A   1      34.542  29.064  26.737  1.00  0.00     0.004 A 
ATOM     22  C   UNL A   1      32.774  30.675  26.959  1.00  0.00     0.043 A 
ATOM     23  F   UNL A   1      31.050  30.777  25.416  1.00  0.00    -0.203 F 
ATOM     24  C   UNL A   1      33.947  30.105  27.442  1.00  0.00     0.003 A 
ENDBRANCH  17  18
ENDBRANCH  16  17
ENDBRANCH  14  16
ENDBRANCH  11  14
ENDBRANCH   5   8
ENDBRANCH   3   4
ENDBRANCH   2   3
ENDBRANCH   1   2
BRANCH   1  25
ATOM     25  C   UNL A   1      36.801  20.248  25.076  1.00  0.00     0.002 C 
BRANCH  25  26
ATOM     26  C   UNL A   1      38.279  20.154  24.685  1.00  0.00     0.021 C 
BRANCH  26  27
ATOM     27  C   UNL A   1      39.248  20.426  25.830  1.00  0.00     0.116 C 
BRANCH  27  28
ATOM     28  N   UNL A   1      40.214  19.349  25.983  1.00  0.00    -0.352 N 
ATOM     29  C   UNL A   1      41.575  19.422  26.126  1.00  0.00     0.251 C 
ATOM     30  H   UNL A   1      39.836  18.439  25.985  1.00  0.00     0.163 HD
ATOM     31  O   UNL A   1      42.257  18.405  25.998  1.00  0.00    -0.269 OA
BRANCH  29  32
ATOM     32  C   UNL A   1      42.214  20.723  26.410  1.00  0.00     0.039 A 
ATOM     33  C   UNL A   1      42.602  21.535  25.342  1.00  0.00     0.014 A 
ATOM     34  C   UNL A   1      42.428  21.140  27.727  1.00  0.00     0.014 A 
ATOM     35  C   UNL A   1      43.153  22.793  25.599  1.00  0.00     0.010 A 
ATOM     36  C   UNL A   1      42.904  22.423  27.979  1.00  0.00     0.010 A 
ATOM     37  C   UNL A   1      43.276  23.262  26.917  1.00  0.00    -0.014 A 
BRANCH  37  38
ATOM     38  C   UNL A   1      43.793  24.626  27.202  1.00  0.00     0.031 A 
ATOM     39  C   UNL A   1      42.865  25.695  27.710  1.00  0.00     0.074 A 
ATOM     40  C   UNL A   1      45.087  24.911  26.956  1.00  0.00     0.049 A 
ATOM     41  N   UNL A   1      43.111  26.955  27.963  1.00  0.00    -0.248 NA
ATOM     42  C   UNL A   1      41.466  25.301  27.939  1.00  0.00     0.031 C 
ATOM     43  C   UNL A   1      46.074  23.967  26.429  1.00  0.00     0.029 A 
ATOM     44  N   UNL A   1      45.795  26.076  27.111  1.00  0.00    -0.354 N 
ATOM     45  C   UNL A   1      41.902  27.505  28.372  1.00  0.00     0.074 A 
ATOM     46  C   UNL A   1      40.910  26.456  28.266  1.00  0.00     0.031 C 
ATOM     47  C   UNL A   1      47.264  24.580  26.335  1.00  0.00     0.029 A 
ATOM     48  C   UNL A   1      47.117  25.974  26.741  1.00  0.00     0.049 A 
ATOM     49  H   UNL A   1      45.395  26.908  27.454  1.00  0.00     0.167 HD
ATOM     50  C   UNL A   1      41.648  28.761  28.817  1.00  0.00     0.034 A 
ATOM     51  C   UNL A   1      48.095  26.901  26.718  1.00  0.00     0.034 A 
ATOM     52  C   UNL A   1      42.652  29.793  28.917  1.00  0.00     0.049 A 
ATOM     53  C   UNL A   1      47.777  28.304  27.171  1.00  0.00     0.074 A 
ATOM     54  C   UNL A   1      42.517  31.082  29.399  1.00  0.00     0.029 A 
ATOM     55  N   UNL A   1      43.976  29.659  28.514  1.00  0.00    -0.354 N 
ATOM     56  N   UNL A   1      46.640  28.796  27.605  1.00  0.00    -0.248 NA
ATOM     57  C   UNL A   1      48.879  29.275  27.138  1.00  0.00     0.031 C 
ATOM     58  C   UNL A   1      43.731  31.751  29.214  1.00  0.00     0.029 A 
ATOM     59  C   UNL A   1      44.654  30.855  28.700  1.00  0.00     0.049 A 
ATOM     60  H   UNL A   1      44.373  28.835  28.149  1.00  0.00     0.167 HD
ATOM     61  C   UNL A   1      46.898  30.125  27.927  1.00  0.00     0.074 A 
ATOM     62  C   UNL A   1      48.303  30.351  27.653  1.00  0.00     0.031 C 
ATOM     63  C   UNL A   1      46.052  31.073  28.408  1.00  0.00     0.034 A 
BRANCH  50  64
ATOM     64  C   UNL A   1      40.223  29.088  29.200  1.00  0.00     0.023 A 
ATOM     65  C   UNL A   1      39.807  29.122  30.543  1.00  0.00     0.031 A 
ATOM     66  C   UNL A   1      39.258  29.344  28.210  1.00  0.00     0.131 A 
ATOM     67  C   UNL A   1      38.454  29.322  30.854  1.00  0.00     0.055 A 
ATOM     68  C   UNL A   1      37.930  29.632  28.530  1.00  0.00     0.041 A 
ATOM     69  F   UNL A   1      39.587  29.305  26.908  1.00  0.00    -0.206 F 
ATOM     70  C   UNL A   1      37.517  29.606  29.858  1.00  0.00     0.022 A 
BRANCH  67  71
ATOM     71  S   UNL A   1      37.909  29.048  32.562  1.00  0.00     0.124 S 
ATOM     72  O   UNL A   1      36.513  29.474  32.499  1.00  0.00    -0.237 OA
ATOM     73  O   UNL A   1      38.135  27.619  32.742  1.00  0.00    -0.237 OA
ATOM     74  O   UNL A   1      38.782  29.922  33.345  1.00  0.00    -0.744 OA
ENDBRANCH  67  71
ENDBRANCH  50  64
BRANCH  51  75
ATOM     75  C   UNL A   1      49.463  26.546  26.238  1.00  0.00     0.023 A 
ATOM     76  C   UNL A   1      49.944  27.021  25.008  1.00  0.00     0.031 A 
ATOM     77  C   UNL A   1      50.293  25.687  26.982  1.00  0.00     0.131 A 
ATOM     78  C   UNL A   1      51.196  26.597  24.535  1.00  0.00     0.055 A 
ATOM     79  C   UNL A   1      51.563  25.317  26.536  1.00  0.00     0.041 A 
ATOM     80  F   UNL A   1      49.884  25.205  28.166  1.00  0.00    -0.206 F 
ATOM     81  C   UNL A   1      52.015  25.761  25.299  1.00  0.00     0.022 A 
BRANCH  78  82
ATOM     82  S   UNL A   1      51.700  27.079  22.861  1.00  0.00     0.124 S 
ATOM     83  O   UNL A   1      50.446  26.959  22.127  1.00  0.00    -0.237 OA
ATOM     84  O   UNL A   1      52.193  28.435  23.071  1.00  0.00    -0.237 OA
ATOM     85  O   UNL A   1      52.723  26.093  22.516  1.00  0.00    -0.744 OA
ENDBRANCH  78  82
ENDBRANCH  51  75
BRANCH  63  86
ATOM     86  C   UNL A   1      46.642  32.430  28.710  1.00  0.00     0.023 A 
ATOM     87  C   UNL A   1      46.654  33.463  27.757  1.00  0.00     0.031 A 
ATOM     88  C   UNL A   1      47.211  32.689  29.971  1.00  0.00     0.131 A 
ATOM     89  C   UNL A   1      47.274  34.686  28.058  1.00  0.00     0.055 A 
ATOM     90  C   UNL A   1      47.765  33.930  30.287  1.00  0.00     0.041 A 
ATOM     91  F   UNL A   1      47.234  31.738  30.919  1.00  0.00    -0.206 F 
ATOM     92  C   UNL A   1      47.811  34.933  29.324  1.00  0.00     0.022 A 
BRANCH  89  93
ATOM     93  S   UNL A   1      47.460  35.916  26.738  1.00  0.00     0.124 S 
ATOM     94  O   UNL A   1      48.903  35.913  26.524  1.00  0.00    -0.237 OA
ATOM     95  O   UNL A   1      46.653  35.347  25.663  1.00  0.00    -0.237 OA
ATOM     96  O   UNL A   1      46.924  37.140  27.332  1.00  0.00    -0.744 OA
ENDBRANCH  89  93
ENDBRANCH  63  86
ENDBRANCH  37  38
ENDBRANCH  29  32
ENDBRANCH  27  28
ENDBRANCH  26  27
ENDBRANCH  25  26
ENDBRANCH   1  25
TORSDOF 20
ENDMDL
MODEL 2
REMARK VINA RESULT:     -11.2      2.288      2.962
REMARK SMILES C[C@H]1[C@H](C(=O)NCCCCCCNC(=O)c2ccc(-c3c4nc(c(-c5cc(S(=O)(=O)[O-])ccc5F)c5ccc([nH]5)c(-c5cc(S(=O)(=O)[O-])ccc5F)c5nc(c(-c6cc(S(=O)(=O)[O-])ccc6F)c6ccc3[nH]6)C=C5)C=C4)cc2)CCN1C(=O)COc1ccccc1F
REMARK SMILES IDX 9 1 8 2 7 3 6 4 4 5 5 6 3 8 1 9 2 10 81 11 79 12 80 13 82 14
REMARK SMILES IDX 83 15 84 16 85 17 86 18 87 19 91 20 88 21 90 22 92 23 89 24
REMARK SMILES IDX 10 25 11 26 12 27 13 28 14 29 15 31 16 32 17 33 78 34 18 35
REMARK SMILES IDX 77 36 19 37 20 38 21 39 71 40 22 41 76 42 70 43 72 44 23 45
REMARK SMILES IDX 75 46 69 47 68 48 24 50 56 51 36 52 55 53 37 54 40 55 54 56
REMARK SMILES IDX 73 57 38 58 39 59 53 61 74 62 41 63 25 64 26 65 34 66 27 67
REMARK SMILES IDX 33 68 35 69 32 70 28 71 29 72 30 73 31 74 57 75 58 76 66 77
REMARK SMILES IDX 59 78 65 79 67 80 64 81 60 82 61 83 62 84 63 85 42 86 43 87
REMARK SMILES IDX 51 88 44 89 50 90 52 91 49 92 45 93 46 94 47 95 48 96
REMARK H PARENT 6 7 13 30 72 49 40 60
REMARK Flexibility Score: inf
ROOT
ATOM      1  C   UNL A   1      35.786  24.113  24.729  1.00  0.00     0.002 C 
ENDROOT
BRANCH   1   2
ATOM      2  C   UNL A   1      34.465  24.885  24.806  1.00  0.00     0.021 C 
BRANCH   2   3
ATOM      3  C   UNL A   1      33.772  24.764  26.159  1.00  0.00     0.116 C 
BRANCH   3   4
ATOM      4  N   UNL A   1      34.080  23.493  26.790  1.00  0.00    -0.356 N 
ATOM      5  C   UNL A   1      33.399  22.319  26.800  1.00  0.00     0.225 C 
ATOM      6  O   UNL A   1      33.853  21.397  27.484  1.00  0.00    -0.275 OA
ATOM      7  H   UNL A   1      34.926  23.481  27.294  1.00  0.00     0.163 HD
BRANCH   5   8
ATOM      8  C   UNL A   1      32.130  22.113  25.995  1.00  0.00     0.102 C 
ATOM      9  C   UNL A   1      29.859  22.648  26.890  1.00  0.00     0.032 C 
ATOM     10  C   UNL A   1      31.088  23.234  26.197  1.00  0.00     0.094 C 
ATOM     11  N   UNL A   1      30.836  23.740  24.844  1.00  0.00    -0.336 N 
ATOM     12  C   UNL A   1      32.390  21.992  24.492  1.00  0.00     0.037 C 
ATOM     13  C   UNL A   1      31.297  22.806  23.836  1.00  0.00     0.121 C 
BRANCH  11  14
ATOM     14  C   UNL A   1      30.428  25.000  24.449  1.00  0.00     0.260 C 
ATOM     15  O   UNL A   1      30.115  25.230  23.276  1.00  0.00    -0.271 OA
BRANCH  14  16
ATOM     16  C   UNL A   1      30.377  26.143  25.468  1.00  0.00     0.329 C 
BRANCH  16  17
ATOM     17  O   UNL A   1      30.698  27.479  25.144  1.00  0.00    -0.481 OA
BRANCH  17  18
ATOM     18  C   UNL A   1      31.774  28.091  25.722  1.00  0.00     0.155 A 
ATOM     19  C   UNL A   1      32.873  28.227  24.865  1.00  0.00     0.049 A 
ATOM     20  C   UNL A   1      31.936  28.463  27.057  1.00  0.00     0.165 A 
ATOM     21  C   UNL A   1      34.098  28.715  25.334  1.00  0.00     0.004 A 
ATOM     22  C   UNL A   1      33.159  28.935  27.534  1.00  0.00     0.043 A 
ATOM     23  F   UNL A   1      30.963  28.333  27.962  1.00  0.00    -0.203 F 
ATOM     24  C   UNL A   1      34.244  29.059  26.674  1.00  0.00     0.003 A 
ENDBRANCH  17  18
ENDBRANCH  16  17
ENDBRANCH  14  16
ENDBRANCH  11  14
ENDBRANCH   5   8
ENDBRANCH   3   4
ENDBRANCH   2   3
ENDBRANCH   1   2
BRANCH   1  25
ATOM     25  C   UNL A   1      35.822  23.014  23.663  1.00  0.00     0.002 C 
BRANCH  25  26
ATOM     26  C   UNL A   1      36.304  21.649  24.163  1.00  0.00     0.021 C 
BRANCH  26  27
ATOM     27  C   UNL A   1      36.866  21.665  25.581  1.00  0.00     0.116 C 
BRANCH  27  28
ATOM     28  N   UNL A   1      37.847  20.611  25.781  1.00  0.00    -0.352 N 
ATOM     29  C   UNL A   1      39.185  20.717  26.064  1.00  0.00     0.251 C 
ATOM     30  H   UNL A   1      37.503  19.692  25.702  1.00  0.00     0.163 HD
ATOM     31  O   UNL A   1      39.910  19.729  25.960  1.00  0.00    -0.269 OA
BRANCH  29  32
ATOM     32  C   UNL A   1      39.746  22.021  26.472  1.00  0.00     0.039 A 
ATOM     33  C   UNL A   1      40.821  22.048  27.363  1.00  0.00     0.014 A 
ATOM     34  C   UNL A   1      39.212  23.214  25.976  1.00  0.00     0.014 A 
ATOM     35  C   UNL A   1      41.398  23.272  27.709  1.00  0.00     0.010 A 
ATOM     36  C   UNL A   1      39.838  24.424  26.260  1.00  0.00     0.010 A 
ATOM     37  C   UNL A   1      40.934  24.467  27.134  1.00  0.00    -0.014 A 
BRANCH  37  38
ATOM     38  C   UNL A   1      41.584  25.768  27.439  1.00  0.00     0.031 A 
ATOM     39  C   UNL A   1      40.845  26.815  28.227  1.00  0.00     0.074 A 
ATOM     40  C   UNL A   1      42.819  26.023  26.963  1.00  0.00     0.049 A 
ATOM     41  N   UNL A   1      41.217  28.028  28.545  1.00  0.00    -0.248 NA
ATOM     42  C   UNL A   1      39.498  26.459  28.697  1.00  0.00     0.031 C 
ATOM     43  C   UNL A   1      43.619  25.099  26.157  1.00  0.00     0.029 A 
ATOM     44  N   UNL A   1      43.617  27.132  27.083  1.00  0.00    -0.354 N 
ATOM     45  C   UNL A   1      40.151  28.583  29.244  1.00  0.00     0.074 A 
ATOM     46  C   UNL A   1      39.093  27.595  29.241  1.00  0.00     0.031 C 
ATOM     47  C   UNL A   1      44.804  25.667  25.882  1.00  0.00     0.029 A 
ATOM     48  C   UNL A   1      44.830  27.013  26.443  1.00  0.00     0.049 A 
ATOM     49  H   UNL A   1      43.347  27.939  27.579  1.00  0.00     0.167 HD
ATOM     50  C   UNL A   1      40.071  29.793  29.852  1.00  0.00     0.034 A 
ATOM     51  C   UNL A   1      45.842  27.894  26.311  1.00  0.00     0.034 A 
ATOM     52  C   UNL A   1      41.139  30.763  29.845  1.00  0.00     0.049 A 
ATOM     53  C   UNL A   1      45.710  29.252  26.954  1.00  0.00     0.074 A 
ATOM     54  C   UNL A   1      41.185  31.998  30.467  1.00  0.00     0.029 A 
ATOM     55  N   UNL A   1      42.345  30.617  29.169  1.00  0.00    -0.354 N 
ATOM     56  N   UNL A   1      44.715  29.743  27.657  1.00  0.00    -0.248 NA
ATOM     57  C   UNL A   1      46.843  30.173  26.791  1.00  0.00     0.031 C 
ATOM     58  C   UNL A   1      42.379  32.630  30.104  1.00  0.00     0.029 A 
ATOM     59  C   UNL A   1      43.123  31.755  29.328  1.00  0.00     0.049 A 
ATOM     60  H   UNL A   1      42.609  29.821  28.652  1.00  0.00     0.167 HD
ATOM     61  C   UNL A   1      45.117  31.018  28.047  1.00  0.00     0.074 A 
ATOM     62  C   UNL A   1      46.451  31.211  27.516  1.00  0.00     0.031 C 
ATOM     63  C   UNL A   1      44.446  31.943  28.781  1.00  0.00     0.034 A 
BRANCH  50  64
ATOM     64  C   UNL A   1      38.775  30.138  30.547  1.00  0.00     0.023 A 
ATOM     65  C   UNL A   1      37.797  30.942  29.936  1.00  0.00     0.031 A 
ATOM     66  C   UNL A   1      38.521  29.678  31.852  1.00  0.00     0.131 A 
ATOM     67  C   UNL A   1      36.656  31.330  30.653  1.00  0.00     0.055 A 
ATOM     68  C   UNL A   1      37.340  29.992  32.529  1.00  0.00     0.041 A 
ATOM     69  F   UNL A   1      39.424  28.924  32.500  1.00  0.00    -0.206 F 
ATOM     70  C   UNL A   1      36.407  30.837  31.936  1.00  0.00     0.022 A 
BRANCH  67  71
ATOM     71  S   UNL A   1      35.583  32.610  29.948  1.00  0.00     0.124 S 
ATOM     72  O   UNL A   1      36.543  33.420  29.200  1.00  0.00    -0.237 OA
ATOM     73  O   UNL A   1      34.644  31.832  29.149  1.00  0.00    -0.237 OA
ATOM     74  O   UNL A   1      35.012  33.265  31.123  1.00  0.00    -0.744 OA
ENDBRANCH  67  71
ENDBRANCH  50  64
BRANCH  51  75
ATOM     75  C   UNL A   1      47.061  27.534  25.530  1.00  0.00     0.023 A 
ATOM     76  C   UNL A   1      47.183  27.884  24.176  1.00  0.00     0.031 A 
ATOM     77  C   UNL A   1      48.105  26.794  26.115  1.00  0.00     0.131 A 
ATOM     78  C   UNL A   1      48.297  27.453  23.439  1.00  0.00     0.055 A 
ATOM     79  C   UNL A   1      49.240  26.420  25.394  1.00  0.00     0.041 A 
ATOM     80  F   UNL A   1      48.041  26.434  27.407  1.00  0.00    -0.206 F 
ATOM     81  C   UNL A   1      49.334  26.737  24.043  1.00  0.00     0.022 A 
BRANCH  78  82
ATOM     82  S   UNL A   1      48.327  27.761  21.652  1.00  0.00     0.124 S 
ATOM     83  O   UNL A   1      46.977  28.257  21.414  1.00  0.00    -0.237 OA
ATOM     84  O   UNL A   1      49.401  28.740  21.530  1.00  0.00    -0.237 OA
ATOM     85  O   UNL A   1      48.619  26.445  21.085  1.00  0.00    -0.744 OA
ENDBRANCH  78  82
ENDBRANCH  51  75
BRANCH  63  86
ATOM     86  C   UNL A   1      45.170  33.233  29.086  1.00  0.00     0.023 A 
ATOM     87  C   UNL A   1      45.072  34.356  28.247  1.00  0.00     0.031 A 
ATOM     88  C   UNL A   1      45.979  33.335  30.233  1.00  0.00     0.131 A 
ATOM     89  C   UNL A   1      45.816  35.511  28.534  1.00  0.00     0.055 A 
ATOM     90  C   UNL A   1      46.662  34.510  30.550  1.00  0.00     0.041 A 
ATOM     91  F   UNL A   1      46.115  32.292  31.068  1.00  0.00    -0.206 F 
ATOM     92  C   UNL A   1      46.595  35.602  29.691  1.00  0.00     0.022 A 
BRANCH  89  93
ATOM     93  S   UNL A   1      45.835  36.859  27.321  1.00  0.00     0.124 S 
ATOM     94  O   UNL A   1      46.479  37.932  28.071  1.00  0.00    -0.237 OA
ATOM     95  O   UNL A   1      46.615  36.286  26.228  1.00  0.00    -0.237 OA
ATOM     96  O   UNL A   1      44.419  37.073  27.024  1.00  0.00    -0.744 OA
ENDBRANCH  89  93
ENDBRANCH  63  86
ENDBRANCH  37  38
ENDBRANCH  29  32
ENDBRANCH  27  28
ENDBRANCH  26  27
ENDBRANCH  25  26
ENDBRANCH   1  25
TORSDOF 20
ENDMDL
MODEL 3
REMARK VINA RESULT:     -11.0      2.654      8.089
REMARK SMILES C[C@H]1[C@H](C(=O)NCCCCCCNC(=O)c2ccc(-c3c4nc(c(-c5cc(S(=O)(=O)[O-])ccc5F)c5ccc([nH]5)c(-c5cc(S(=O)(=O)[O-])ccc5F)c5nc(c(-c6cc(S(=O)(=O)[O-])ccc6F)c6ccc3[nH]6)C=C5)C=C4)cc2)CCN1C(=O)COc1ccccc1F
REMARK SMILES IDX 9 1 8 2 7 3 6 4 4 5 5 6 3 8 1 9 2 10 81 11 79 12 80 13 82 14
REMARK SMILES IDX 83 15 84 16 85 17 86 18 87 19 91 20 88 21 90 22 92 23 89 24
REMARK SMILES IDX 10 25 11 26 12 27 13 28 14 29 15 31 16 32 17 33 78 34 18 35
REMARK SMILES IDX 77 36 19 37 20 38 21 39 71 40 22 41 76 42 70 43 72 44 23 45
REMARK SMILES IDX 75 46 69 47 68 48 24 50 56 51 36 52 55 53 37 54 40 55 54 56
REMARK SMILES IDX 73 57 38 58 39 59 53 61 74 62 41 63 25 64 26 65 34 66 27 67
REMARK SMILES IDX 33 68 35 69 32 70 28 71 29 72 30 73 31 74 57 75 58 76 66 77
REMARK SMILES IDX 59 78 65 79 67 80 64 81 60 82 61 83 62 84 63 85 42 86 43 87
REMARK SMILES IDX 51 88 44 89 50 90 52 91 49 92 45 93 46 94 47 95 48 96
REMARK H PARENT 6 7 13 30 72 49 40 60
REMARK Flexibility Score: inf
ROOT
ATOM      1  C   UNL A   1      35.936  24.087  24.963  1.00  0.00     0.002 C 
ENDROOT
BRANCH   1   2
ATOM      2  C   UNL A   1      34.678  24.959  24.923  1.00  0.00     0.021 C 
BRANCH   2   3
ATOM      3  C   UNL A   1      33.739  24.721  26.101  1.00  0.00     0.116 C 
BRANCH   3   4
ATOM      4  N   UNL A   1      34.074  23.489  26.793  1.00  0.00    -0.356 N 
ATOM      5  C   UNL A   1      33.484  22.267  26.765  1.00  0.00     0.225 C 
ATOM      6  O   UNL A   1      33.932  21.395  27.515  1.00  0.00    -0.275 OA
ATOM      7  H   UNL A   1      34.862  23.551  27.379  1.00  0.00     0.163 HD
BRANCH   5   8
ATOM      8  C   UNL A   1      32.322  21.950  25.842  1.00  0.00     0.102 C 
ATOM      9  C   UNL A   1      29.965  22.599  26.364  1.00  0.00     0.032 C 
ATOM     10  C   UNL A   1      31.280  23.086  25.757  1.00  0.00     0.094 C 
ATOM     11  N   UNL A   1      31.207  23.402  24.327  1.00  0.00    -0.336 N 
ATOM     12  C   UNL A   1      32.766  21.625  24.414  1.00  0.00     0.037 C 
ATOM     13  C   UNL A   1      31.776  22.340  23.521  1.00  0.00     0.121 C 
BRANCH  11  14
ATOM     14  C   UNL A   1      30.871  24.596  23.716  1.00  0.00     0.260 C 
ATOM     15  O   UNL A   1      31.241  24.849  22.564  1.00  0.00    -0.271 OA
BRANCH  14  16
ATOM     16  C   UNL A   1      30.044  25.638  24.476  1.00  0.00     0.329 C 
BRANCH  16  17
ATOM     17  O   UNL A   1      30.240  27.029  24.335  1.00  0.00    -0.481 OA
BRANCH  17  18
ATOM     18  C   UNL A   1      31.378  27.617  24.810  1.00  0.00     0.155 A 
ATOM     19  C   UNL A   1      32.300  27.952  23.810  1.00  0.00     0.049 A 
ATOM     20  C   UNL A   1      31.763  27.795  26.139  1.00  0.00     0.165 A 
ATOM     21  C   UNL A   1      33.569  28.443  24.134  1.00  0.00     0.004 A 
ATOM     22  C   UNL A   1      33.032  28.270  26.468  1.00  0.00     0.043 A 
ATOM     23  F   UNL A   1      30.974  27.468  27.165  1.00  0.00    -0.203 F 
ATOM     24  C   UNL A   1      33.940  28.592  25.466  1.00  0.00     0.003 A 
ENDBRANCH  17  18
ENDBRANCH  16  17
ENDBRANCH  14  16
ENDBRANCH  11  14
ENDBRANCH   5   8
ENDBRANCH   3   4
ENDBRANCH   2   3
ENDBRANCH   1   2
BRANCH   1  25
ATOM     25  C   UNL A   1      36.058  23.089  23.806  1.00  0.00     0.002 C 
BRANCH  25  26
ATOM     26  C   UNL A   1      36.694  21.747  24.181  1.00  0.00     0.021 C 
BRANCH  26  27
ATOM     27  C   UNL A   1      37.016  21.599  25.664  1.00  0.00     0.116 C 
BRANCH  27  28
ATOM     28  N   UNL A   1      38.061  20.614  25.891  1.00  0.00    -0.352 N 
ATOM     29  C   UNL A   1      39.383  20.810  26.197  1.00  0.00     0.251 C 
ATOM     30  H   UNL A   1      37.780  19.673  25.814  1.00  0.00     0.163 HD
ATOM     31  O   UNL A   1      40.174  19.872  26.114  1.00  0.00    -0.269 OA
BRANCH  29  32
ATOM     32  C   UNL A   1      39.850  22.152  26.603  1.00  0.00     0.039 A 
ATOM     33  C   UNL A   1      40.811  22.259  27.610  1.00  0.00     0.014 A 
ATOM     34  C   UNL A   1      39.339  23.300  25.991  1.00  0.00     0.014 A 
ATOM     35  C   UNL A   1      41.302  23.519  27.961  1.00  0.00     0.010 A 
ATOM     36  C   UNL A   1      39.887  24.545  26.287  1.00  0.00     0.010 A 
ATOM     37  C   UNL A   1      40.871  24.668  27.279  1.00  0.00    -0.014 A 
BRANCH  37  38
ATOM     38  C   UNL A   1      41.437  26.006  27.594  1.00  0.00     0.031 A 
ATOM     39  C   UNL A   1      42.807  26.380  27.097  1.00  0.00     0.074 A 
ATOM     40  C   UNL A   1      40.738  26.860  28.365  1.00  0.00     0.049 A 
ATOM     41  N   UNL A   1      43.496  27.472  27.312  1.00  0.00    -0.248 NA
ATOM     42  C   UNL A   1      43.506  25.384  26.273  1.00  0.00     0.031 C 
ATOM     43  C   UNL A   1      39.415  26.593  28.934  1.00  0.00     0.029 A 
ATOM     44  N   UNL A   1      41.040  28.122  28.810  1.00  0.00    -0.354 N 
ATOM     45  C   UNL A   1      44.709  27.292  26.658  1.00  0.00     0.074 A 
ATOM     46  C   UNL A   1      44.686  25.957  26.098  1.00  0.00     0.031 C 
ATOM     47  C   UNL A   1      39.007  27.670  29.624  1.00  0.00     0.029 A 
ATOM     48  C   UNL A   1      40.058  28.682  29.595  1.00  0.00     0.049 A 
ATOM     49  H   UNL A   1      41.881  28.585  28.589  1.00  0.00     0.167 HD
ATOM     50  C   UNL A   1      45.736  28.167  26.516  1.00  0.00     0.034 A 
ATOM     51  C   UNL A   1      40.014  29.870  30.231  1.00  0.00     0.034 A 
ATOM     52  C   UNL A   1      45.739  29.495  27.081  1.00  0.00     0.049 A 
ATOM     53  C   UNL A   1      41.189  30.807  30.099  1.00  0.00     0.074 A 
ATOM     54  C   UNL A   1      46.702  30.481  26.960  1.00  0.00     0.029 A 
ATOM     55  N   UNL A   1      44.736  30.021  27.888  1.00  0.00    -0.354 N 
ATOM     56  N   UNL A   1      42.308  30.643  29.433  1.00  0.00    -0.248 NA
ATOM     57  C   UNL A   1      41.090  32.093  30.802  1.00  0.00     0.031 C 
ATOM     58  C   UNL A   1      46.323  31.567  27.755  1.00  0.00     0.029 A 
ATOM     59  C   UNL A   1      45.078  31.300  28.302  1.00  0.00     0.049 A 
ATOM     60  H   UNL A   1      43.904  29.552  28.130  1.00  0.00     0.167 HD
ATOM     61  C   UNL A   1      43.033  31.819  29.610  1.00  0.00     0.074 A 
ATOM     62  C   UNL A   1      42.214  32.689  30.430  1.00  0.00     0.031 C 
ATOM     63  C   UNL A   1      44.260  32.152  29.134  1.00  0.00     0.034 A 
BRANCH  50  64
ATOM     64  C   UNL A   1      46.947  27.699  25.744  1.00  0.00     0.023 A 
ATOM     65  C   UNL A   1      47.152  28.056  24.399  1.00  0.00     0.031 A 
ATOM     66  C   UNL A   1      47.900  26.861  26.350  1.00  0.00     0.131 A 
ATOM     67  C   UNL A   1      48.230  27.515  23.684  1.00  0.00     0.055 A 
ATOM     68  C   UNL A   1      49.021  26.397  25.658  1.00  0.00     0.041 A 
ATOM     69  F   UNL A   1      47.751  26.465  27.625  1.00  0.00    -0.206 F 
ATOM     70  C   UNL A   1      49.183  26.709  24.312  1.00  0.00     0.022 A 
BRANCH  67  71
ATOM     71  S   UNL A   1      48.281  27.748  21.886  1.00  0.00     0.124 S 
ATOM     72  O   UNL A   1      48.523  26.385  21.418  1.00  0.00    -0.237 OA
ATOM     73  O   UNL A   1      46.961  28.297  21.601  1.00  0.00    -0.237 OA
ATOM     74  O   UNL A   1      49.398  28.671  21.691  1.00  0.00    -0.744 OA
ENDBRANCH  67  71
ENDBRANCH  50  64
BRANCH  51  75
ATOM     75  C   UNL A   1      38.831  30.242  31.060  1.00  0.00     0.023 A 
ATOM     76  C   UNL A   1      37.757  30.959  30.509  1.00  0.00     0.031 A 
ATOM     77  C   UNL A   1      38.777  29.926  32.430  1.00  0.00     0.131 A 
ATOM     78  C   UNL A   1      36.699  31.378  31.331  1.00  0.00     0.055 A 
ATOM     79  C   UNL A   1      37.694  30.293  33.231  1.00  0.00     0.041 A 
ATOM     80  F   UNL A   1      39.776  29.242  33.009  1.00  0.00    -0.206 F 
ATOM     81  C   UNL A   1      36.653  31.036  32.684  1.00  0.00     0.022 A 
BRANCH  78  82
ATOM     82  S   UNL A   1      35.428  32.462  30.624  1.00  0.00     0.124 S 
ATOM     83  O   UNL A   1      35.062  31.739  29.413  1.00  0.00    -0.237 OA
ATOM     84  O   UNL A   1      34.426  32.486  31.684  1.00  0.00    -0.237 OA
ATOM     85  O   UNL A   1      36.136  33.723  30.411  1.00  0.00    -0.744 OA
ENDBRANCH  78  82
ENDBRANCH  51  75
BRANCH  63  86
ATOM     86  C   UNL A   1      44.770  33.537  29.458  1.00  0.00     0.023 A 
ATOM     87  C   UNL A   1      45.528  33.798  30.612  1.00  0.00     0.031 A 
ATOM     88  C   UNL A   1      44.483  34.614  28.600  1.00  0.00     0.131 A 
ATOM     89  C   UNL A   1      45.923  35.112  30.908  1.00  0.00     0.055 A 
ATOM     90  C   UNL A   1      44.936  35.907  28.864  1.00  0.00     0.041 A 
ATOM     91  F   UNL A   1      43.757  34.426  27.485  1.00  0.00    -0.206 F 
ATOM     92  C   UNL A   1      45.649  36.165  30.031  1.00  0.00     0.022 A 
BRANCH  89  93
ATOM     93  S   UNL A   1      46.711  35.445  32.507  1.00  0.00     0.124 S 
ATOM     94  O   UNL A   1      46.061  34.468  33.375  1.00  0.00    -0.237 OA
ATOM     95  O   UNL A   1      48.121  35.204  32.217  1.00  0.00    -0.237 OA
ATOM     96  O   UNL A   1      46.364  36.840  32.776  1.00  0.00    -0.744 OA
ENDBRANCH  89  93
ENDBRANCH  63  86
ENDBRANCH  37  38
ENDBRANCH  29  32
ENDBRANCH  27  28
ENDBRANCH  26  27
ENDBRANCH  25  26
ENDBRANCH   1  25
TORSDOF 20
ENDMDL
