MODEL 1
REMARK VINA RESULT:      -9.6      0.000      0.000
REMARK SMILES COCCNS(=O)(=O)c1c[nH]c(C(=O)NCCCCCCNC(=O)c2ccc(-c3c4nc(c(-c5cc(S(=O)(=O)[O-])ccc5F)c5ccc([nH]5)c(-c5cc(S(=O)(=O)[O-])ccc5F)c5nc(c(-c6cc(S(=O)(=O)[O-])ccc6F)c6ccc3[nH]6)C=C5)C=C4)cc2)c1
REMARK SMILES IDX 17 1 16 2 15 3 13 4 14 5 12 7 9 8 10 9 88 10 11 11 6 13 7 14
REMARK SMILES IDX 8 15 5 16 4 18 3 19 2 20 1 21 18 22 19 23 20 24 21 25 22 26
REMARK SMILES IDX 23 27 24 29 25 30 26 31 87 32 27 33 86 34 28 35 29 36 30 37
REMARK SMILES IDX 80 38 31 39 85 40 79 41 81 42 32 43 84 44 78 45 77 46 33 48
REMARK SMILES IDX 65 49 45 50 64 51 46 52 49 53 63 54 82 55 47 56 48 57 62 59
REMARK SMILES IDX 83 60 50 61 34 62 35 63 43 64 36 65 42 66 44 67 41 68 37 69
REMARK SMILES IDX 38 70 39 71 40 72 66 73 67 74 75 75 68 76 74 77 76 78 73 79
REMARK SMILES IDX 69 80 70 81 71 82 72 83 51 84 52 85 60 86 53 87 59 88 61 89
REMARK SMILES IDX 58 90 54 91 55 92 56 93 57 94
REMARK H PARENT 15 6 11 12 5 17 22 28 81 47 49 58
REMARK Flexibility Score: inf
ROOT
ATOM      1  C   UNL A   1      39.216  23.326  26.844  1.00  0.00     0.021 C 
ENDROOT
BRANCH   1   2
ATOM      2  C   UNL A   1      37.881  23.708  26.208  1.00  0.00     0.116 C 
BRANCH   2   3
ATOM      3  N   UNL A   1      36.930  22.616  26.290  1.00  0.00    -0.351 N 
ATOM      4  C   UNL A   1      35.679  22.472  25.751  1.00  0.00     0.267 C 
ATOM      5  O   UNL A   1      35.137  21.371  25.862  1.00  0.00    -0.268 OA
ATOM      6  H   UNL A   1      37.236  21.847  26.822  1.00  0.00     0.163 HD
BRANCH   4   7
ATOM      7  C   UNL A   1      35.060  23.541  25.001  1.00  0.00     0.105 A 
ATOM      8  C   UNL A   1      33.990  24.886  23.522  1.00  0.00     0.100 A 
ATOM      9  C   UNL A   1      33.827  25.423  24.779  1.00  0.00     0.104 A 
ATOM     10  C   UNL A   1      34.870  23.780  23.649  1.00  0.00     0.055 A 
ATOM     11  N   UNL A   1      34.535  24.644  25.652  1.00  0.00    -0.356 N 
ATOM     12  H   UNL A   1      34.655  24.840  26.610  1.00  0.00     0.166 HD
BRANCH   8  13
ATOM     13  S   UNL A   1      33.249  25.395  22.047  1.00  0.00     0.242 S 
ATOM     14  O   UNL A   1      33.174  24.216  21.232  1.00  0.00    -0.207 OA
ATOM     15  O   UNL A   1      33.980  26.585  21.645  1.00  0.00    -0.207 OA
BRANCH  13  16
ATOM     16  N   UNL A   1      31.667  25.905  22.395  1.00  0.00    -0.209 NA
ATOM     17  H   UNL A   1      31.069  25.619  21.619  1.00  0.00     0.141 HD
BRANCH  16  18
ATOM     18  C   UNL A   1      31.483  27.364  22.597  1.00  0.00     0.127 C 
BRANCH  18  19
ATOM     19  C   UNL A   1      30.053  27.691  23.052  1.00  0.00     0.176 C 
BRANCH  19  20
ATOM     20  O   UNL A   1      29.343  28.539  22.149  1.00  0.00    -0.383 OA
ATOM     21  C   UNL A   1      28.350  29.348  22.756  1.00  0.00     0.194 C 
ENDBRANCH  19  20
ENDBRANCH  18  19
ENDBRANCH  16  18
ENDBRANCH  13  16
ENDBRANCH   8  13
ENDBRANCH   4   7
ENDBRANCH   2   3
ENDBRANCH   1   2
BRANCH   1  22
ATOM     22  C   UNL A   1      39.954  22.213  26.088  1.00  0.00     0.002 C 
BRANCH  22  23
ATOM     23  C   UNL A   1      40.211  20.935  26.898  1.00  0.00     0.002 C 
BRANCH  23  24
ATOM     24  C   UNL A   1      40.880  19.793  26.118  1.00  0.00     0.021 C 
BRANCH  24  25
ATOM     25  C   UNL A   1      42.258  19.409  26.662  1.00  0.00     0.116 C 
BRANCH  25  26
ATOM     26  N   UNL A   1      43.274  19.616  25.644  1.00  0.00    -0.352 N 
ATOM     27  C   UNL A   1      43.797  20.775  25.138  1.00  0.00     0.251 C 
ATOM     28  H   UNL A   1      43.645  18.791  25.256  1.00  0.00     0.163 HD
ATOM     29  O   UNL A   1      44.388  20.732  24.060  1.00  0.00    -0.269 OA
BRANCH  27  30
ATOM     30  C   UNL A   1      43.643  22.069  25.835  1.00  0.00     0.039 A 
ATOM     31  C   UNL A   1      43.553  22.043  27.232  1.00  0.00     0.014 A 
ATOM     32  C   UNL A   1      43.491  23.277  25.144  1.00  0.00     0.014 A 
ATOM     33  C   UNL A   1      43.379  23.229  27.939  1.00  0.00     0.010 A 
ATOM     34  C   UNL A   1      43.318  24.470  25.853  1.00  0.00     0.010 A 
ATOM     35  C   UNL A   1      43.289  24.450  27.254  1.00  0.00    -0.014 A 
BRANCH  35  36
ATOM     36  C   UNL A   1      43.426  25.699  28.053  1.00  0.00     0.031 A 
ATOM     37  C   UNL A   1      44.816  25.765  28.738  1.00  0.00     0.074 A 
ATOM     38  C   UNL A   1      42.348  26.543  28.131  1.00  0.00     0.049 A 
ATOM     39  N   UNL A   1      45.177  26.288  29.870  1.00  0.00    -0.248 NA
ATOM     40  C   UNL A   1      45.957  25.035  28.112  1.00  0.00     0.031 C 
ATOM     41  C   UNL A   1      41.077  26.367  27.389  1.00  0.00     0.029 A 
ATOM     42  N   UNL A   1      42.086  27.706  28.833  1.00  0.00    -0.354 N 
ATOM     43  C   UNL A   1      46.590  26.174  29.964  1.00  0.00     0.074 A 
ATOM     44  C   UNL A   1      46.981  25.257  28.940  1.00  0.00     0.031 C 
ATOM     45  C   UNL A   1      40.176  27.320  27.726  1.00  0.00     0.029 A 
ATOM     46  C   UNL A   1      40.759  28.221  28.703  1.00  0.00     0.049 A 
ATOM     47  H   UNL A   1      42.768  28.150  29.386  1.00  0.00     0.167 HD
ATOM     48  C   UNL A   1      47.362  26.971  30.766  1.00  0.00     0.034 A 
ATOM     49  C   UNL A   1      40.164  29.276  29.354  1.00  0.00     0.034 A 
ATOM     50  C   UNL A   1      46.525  27.854  31.502  1.00  0.00     0.049 A 
ATOM     51  C   UNL A   1      41.252  29.903  30.114  1.00  0.00     0.074 A 
ATOM     52  C   UNL A   1      45.637  27.672  32.527  1.00  0.00     0.029 A 
ATOM     53  N   UNL A   1      46.349  29.113  30.974  1.00  0.00    -0.354 N 
ATOM     54  N   UNL A   1      42.172  30.652  29.594  1.00  0.00    -0.248 NA
ATOM     55  C   UNL A   1      41.345  29.660  31.560  1.00  0.00     0.031 C 
ATOM     56  C   UNL A   1      44.636  28.624  32.254  1.00  0.00     0.029 A 
ATOM     57  C   UNL A   1      45.045  29.458  31.202  1.00  0.00     0.049 A 
ATOM     58  H   UNL A   1      47.030  29.660  30.520  1.00  0.00     0.167 HD
ATOM     59  C   UNL A   1      43.118  30.690  30.586  1.00  0.00     0.074 A 
ATOM     60  C   UNL A   1      42.428  30.390  31.821  1.00  0.00     0.031 C 
ATOM     61  C   UNL A   1      44.401  30.370  30.279  1.00  0.00     0.034 A 
BRANCH  48  62
ATOM     62  C   UNL A   1      48.846  27.274  30.821  1.00  0.00     0.023 A 
ATOM     63  C   UNL A   1      49.431  27.747  29.614  1.00  0.00     0.031 A 
ATOM     64  C   UNL A   1      49.742  26.843  31.807  1.00  0.00     0.131 A 
ATOM     65  C   UNL A   1      50.802  27.626  29.358  1.00  0.00     0.055 A 
ATOM     66  C   UNL A   1      51.128  26.798  31.579  1.00  0.00     0.041 A 
ATOM     67  F   UNL A   1      49.322  26.374  32.988  1.00  0.00    -0.206 F 
ATOM     68  C   UNL A   1      51.661  27.146  30.338  1.00  0.00     0.022 A 
BRANCH  65  69
ATOM     69  S   UNL A   1      51.390  27.911  27.662  1.00  0.00     0.124 S 
ATOM     70  O   UNL A   1      51.080  26.643  27.012  1.00  0.00    -0.237 OA
ATOM     71  O   UNL A   1      50.582  29.054  27.249  1.00  0.00    -0.237 OA
ATOM     72  O   UNL A   1      52.813  28.189  27.839  1.00  0.00    -0.744 OA
ENDBRANCH  65  69
ENDBRANCH  48  62
BRANCH  49  73
ATOM     73  C   UNL A   1      38.800  29.943  29.536  1.00  0.00     0.023 A 
ATOM     74  C   UNL A   1      38.459  31.271  29.225  1.00  0.00     0.031 A 
ATOM     75  C   UNL A   1      37.702  29.159  30.032  1.00  0.00     0.131 A 
ATOM     76  C   UNL A   1      37.106  31.713  29.346  1.00  0.00     0.055 A 
ATOM     77  C   UNL A   1      36.372  29.572  30.070  1.00  0.00     0.041 A 
ATOM     78  F   UNL A   1      37.861  27.922  30.521  1.00  0.00    -0.206 F 
ATOM     79  C   UNL A   1      36.062  30.857  29.711  1.00  0.00     0.022 A 
BRANCH  76  80
ATOM     80  S   UNL A   1      36.622  33.435  29.017  1.00  0.00     0.124 S 
ATOM     81  O   UNL A   1      35.969  33.324  27.718  1.00  0.00    -0.237 OA
ATOM     82  O   UNL A   1      35.757  33.759  30.146  1.00  0.00    -0.237 OA
ATOM     83  O   UNL A   1      37.906  34.139  29.006  1.00  0.00    -0.744 OA
ENDBRANCH  76  80
ENDBRANCH  49  73
BRANCH  61  84
ATOM     84  C   UNL A   1      44.774  30.622  28.814  1.00  0.00     0.023 A 
ATOM     85  C   UNL A   1      45.185  29.552  27.990  1.00  0.00     0.031 A 
ATOM     86  C   UNL A   1      44.877  31.903  28.242  1.00  0.00     0.131 A 
ATOM     87  C   UNL A   1      45.709  29.782  26.701  1.00  0.00     0.055 A 
ATOM     88  C   UNL A   1      45.384  32.135  26.955  1.00  0.00     0.041 A 
ATOM     89  F   UNL A   1      44.506  32.989  28.916  1.00  0.00    -0.206 F 
ATOM     90  C   UNL A   1      45.812  31.071  26.179  1.00  0.00     0.022 A 
BRANCH  87  91
ATOM     91  S   UNL A   1      46.259  28.373  25.698  1.00  0.00     0.124 S 
ATOM     92  O   UNL A   1      45.051  27.564  25.585  1.00  0.00    -0.237 OA
ATOM     93  O   UNL A   1      46.716  29.018  24.471  1.00  0.00    -0.237 OA
ATOM     94  O   UNL A   1      47.325  27.776  26.504  1.00  0.00    -0.744 OA
ENDBRANCH  87  91
ENDBRANCH  61  84
ENDBRANCH  35  36
ENDBRANCH  27  30
ENDBRANCH  25  26
ENDBRANCH  24  25
ENDBRANCH  23  24
ENDBRANCH  22  23
ENDBRANCH   1  22
TORSDOF 21
ENDMDL
MODEL 2
REMARK VINA RESULT:      -9.5      3.980      6.822
REMARK SMILES COCCNS(=O)(=O)c1c[nH]c(C(=O)NCCCCCCNC(=O)c2ccc(-c3c4nc(c(-c5cc(S(=O)(=O)[O-])ccc5F)c5ccc([nH]5)c(-c5cc(S(=O)(=O)[O-])ccc5F)c5nc(c(-c6cc(S(=O)(=O)[O-])ccc6F)c6ccc3[nH]6)C=C5)C=C4)cc2)c1
REMARK SMILES IDX 17 1 16 2 15 3 13 4 14 5 12 7 9 8 10 9 88 10 11 11 6 13 7 14
REMARK SMILES IDX 8 15 5 16 4 18 3 19 2 20 1 21 18 22 19 23 20 24 21 25 22 26
REMARK SMILES IDX 23 27 24 29 25 30 26 31 87 32 27 33 86 34 28 35 29 36 30 37
REMARK SMILES IDX 80 38 31 39 85 40 79 41 81 42 32 43 84 44 78 45 77 46 33 48
REMARK SMILES IDX 65 49 45 50 64 51 46 52 49 53 63 54 82 55 47 56 48 57 62 59
REMARK SMILES IDX 83 60 50 61 34 62 35 63 43 64 36 65 42 66 44 67 41 68 37 69
REMARK SMILES IDX 38 70 39 71 40 72 66 73 67 74 75 75 68 76 74 77 76 78 73 79
REMARK SMILES IDX 69 80 70 81 71 82 72 83 51 84 52 85 60 86 53 87 59 88 61 89
REMARK SMILES IDX 58 90 54 91 55 92 56 93 57 94
REMARK H PARENT 15 6 11 12 5 17 22 28 81 47 49 58
REMARK Flexibility Score: inf
ROOT
ATOM      1  C   UNL A   1      39.487  23.107  27.128  1.00  0.00     0.021 C 
ENDROOT
BRANCH   1   2
ATOM      2  C   UNL A   1      38.475  24.020  26.437  1.00  0.00     0.116 C 
BRANCH   2   3
ATOM      3  N   UNL A   1      38.076  23.481  25.152  1.00  0.00    -0.351 N 
ATOM      4  C   UNL A   1      36.834  23.259  24.617  1.00  0.00     0.267 C 
ATOM      5  O   UNL A   1      36.778  22.918  23.435  1.00  0.00    -0.268 OA
ATOM      6  H   UNL A   1      38.824  23.233  24.562  1.00  0.00     0.163 HD
BRANCH   4   7
ATOM      7  C   UNL A   1      35.635  23.506  25.385  1.00  0.00     0.105 A 
ATOM      8  C   UNL A   1      33.604  24.098  26.203  1.00  0.00     0.100 A 
ATOM      9  C   UNL A   1      34.005  22.951  26.851  1.00  0.00     0.104 A 
ATOM     10  C   UNL A   1      34.682  24.514  25.379  1.00  0.00     0.055 A 
ATOM     11  N   UNL A   1      35.261  22.644  26.401  1.00  0.00    -0.356 N 
ATOM     12  H   UNL A   1      35.820  21.913  26.751  1.00  0.00     0.166 HD
BRANCH   8  13
ATOM     13  S   UNL A   1      32.073  24.891  26.302  1.00  0.00     0.242 S 
ATOM     14  O   UNL A   1      32.370  26.294  26.304  1.00  0.00    -0.207 OA
ATOM     15  O   UNL A   1      31.375  24.233  27.394  1.00  0.00    -0.207 OA
BRANCH  13  16
ATOM     16  N   UNL A   1      31.195  24.532  24.893  1.00  0.00    -0.209 NA
ATOM     17  H   UNL A   1      30.246  24.882  25.020  1.00  0.00     0.141 HD
BRANCH  16  18
ATOM     18  C   UNL A   1      31.107  23.095  24.530  1.00  0.00     0.127 C 
BRANCH  18  19
ATOM     19  C   UNL A   1      31.982  22.772  23.310  1.00  0.00     0.176 C 
BRANCH  19  20
ATOM     20  O   UNL A   1      33.027  21.838  23.583  1.00  0.00    -0.383 OA
ATOM     21  C   UNL A   1      32.582  20.534  23.918  1.00  0.00     0.194 C 
ENDBRANCH  19  20
ENDBRANCH  18  19
ENDBRANCH  16  18
ENDBRANCH  13  16
ENDBRANCH   8  13
ENDBRANCH   4   7
ENDBRANCH   2   3
ENDBRANCH   1   2
BRANCH   1  22
ATOM     22  C   UNL A   1      39.665  21.754  26.426  1.00  0.00     0.002 C 
BRANCH  22  23
ATOM     23  C   UNL A   1      40.740  20.842  27.034  1.00  0.00     0.002 C 
BRANCH  23  24
ATOM     24  C   UNL A   1      41.242  19.723  26.110  1.00  0.00     0.021 C 
BRANCH  24  25
ATOM     25  C   UNL A   1      42.684  19.297  26.395  1.00  0.00     0.116 C 
BRANCH  25  26
ATOM     26  N   UNL A   1      43.498  19.456  25.201  1.00  0.00    -0.352 N 
ATOM     27  C   UNL A   1      44.124  20.564  24.699  1.00  0.00     0.251 C 
ATOM     28  H   UNL A   1      43.619  18.636  24.671  1.00  0.00     0.163 HD
ATOM     29  O   UNL A   1      44.471  20.559  23.518  1.00  0.00    -0.269 OA
BRANCH  27  30
ATOM     30  C   UNL A   1      44.364  21.766  25.523  1.00  0.00     0.039 A 
ATOM     31  C   UNL A   1      43.269  22.598  25.786  1.00  0.00     0.014 A 
ATOM     32  C   UNL A   1      45.644  22.135  25.954  1.00  0.00     0.014 A 
ATOM     33  C   UNL A   1      43.441  23.759  26.534  1.00  0.00     0.010 A 
ATOM     34  C   UNL A   1      45.818  23.300  26.707  1.00  0.00     0.010 A 
ATOM     35  C   UNL A   1      44.711  24.100  27.021  1.00  0.00    -0.014 A 
BRANCH  35  36
ATOM     36  C   UNL A   1      44.786  25.157  28.067  1.00  0.00     0.031 A 
ATOM     37  C   UNL A   1      45.152  26.527  27.439  1.00  0.00     0.074 A 
ATOM     38  C   UNL A   1      44.600  24.793  29.375  1.00  0.00     0.049 A 
ATOM     39  N   UNL A   1      45.832  27.523  27.919  1.00  0.00    -0.248 NA
ATOM     40  C   UNL A   1      44.799  26.777  26.010  1.00  0.00     0.031 C 
ATOM     41  C   UNL A   1      44.219  23.436  29.833  1.00  0.00     0.029 A 
ATOM     42  N   UNL A   1      44.687  25.464  30.583  1.00  0.00    -0.354 N 
ATOM     43  C   UNL A   1      45.770  28.582  26.975  1.00  0.00     0.074 A 
ATOM     44  C   UNL A   1      45.267  28.004  25.768  1.00  0.00     0.031 C 
ATOM     45  C   UNL A   1      44.181  23.365  31.185  1.00  0.00     0.029 A 
ATOM     46  C   UNL A   1      44.514  24.659  31.751  1.00  0.00     0.049 A 
ATOM     47  H   UNL A   1      44.858  26.432  30.634  1.00  0.00     0.167 HD
ATOM     48  C   UNL A   1      45.975  29.896  27.295  1.00  0.00     0.034 A 
ATOM     49  C   UNL A   1      44.656  25.000  33.075  1.00  0.00     0.034 A 
ATOM     50  C   UNL A   1      46.307  30.001  28.675  1.00  0.00     0.049 A 
ATOM     51  C   UNL A   1      44.862  26.454  33.063  1.00  0.00     0.074 A 
ATOM     52  C   UNL A   1      47.407  29.644  29.405  1.00  0.00     0.029 A 
ATOM     53  N   UNL A   1      45.271  30.290  29.533  1.00  0.00    -0.354 N 
ATOM     54  N   UNL A   1      43.924  27.325  32.866  1.00  0.00    -0.248 NA
ATOM     55  C   UNL A   1      46.218  26.985  33.256  1.00  0.00     0.031 C 
ATOM     56  C   UNL A   1      46.854  29.252  30.640  1.00  0.00     0.029 A 
ATOM     57  C   UNL A   1      45.486  29.561  30.671  1.00  0.00     0.049 A 
ATOM     58  H   UNL A   1      44.520  30.904  29.362  1.00  0.00     0.167 HD
ATOM     59  C   UNL A   1      44.632  28.466  32.589  1.00  0.00     0.074 A 
ATOM     60  C   UNL A   1      45.943  28.285  33.174  1.00  0.00     0.031 C 
ATOM     61  C   UNL A   1      44.339  29.159  31.460  1.00  0.00     0.034 A 
BRANCH  48  62
ATOM     62  C   UNL A   1      45.670  31.204  26.593  1.00  0.00     0.023 A 
ATOM     63  C   UNL A   1      46.763  32.101  26.440  1.00  0.00     0.031 A 
ATOM     64  C   UNL A   1      44.398  31.747  26.374  1.00  0.00     0.131 A 
ATOM     65  C   UNL A   1      46.572  33.476  26.259  1.00  0.00     0.055 A 
ATOM     66  C   UNL A   1      44.213  33.115  26.110  1.00  0.00     0.041 A 
ATOM     67  F   UNL A   1      43.286  31.011  26.486  1.00  0.00    -0.206 F 
ATOM     68  C   UNL A   1      45.294  33.994  26.096  1.00  0.00     0.022 A 
BRANCH  65  69
ATOM     69  S   UNL A   1      48.007  34.576  26.448  1.00  0.00     0.124 S 
ATOM     70  O   UNL A   1      48.616  34.518  25.125  1.00  0.00    -0.237 OA
ATOM     71  O   UNL A   1      47.374  35.843  26.804  1.00  0.00    -0.237 OA
ATOM     72  O   UNL A   1      48.778  33.946  27.518  1.00  0.00    -0.744 OA
ENDBRANCH  65  69
ENDBRANCH  48  62
BRANCH  49  73
ATOM     73  C   UNL A   1      44.685  24.371  34.468  1.00  0.00     0.023 A 
ATOM     74  C   UNL A   1      45.420  23.242  34.871  1.00  0.00     0.031 A 
ATOM     75  C   UNL A   1      43.935  24.988  35.528  1.00  0.00     0.131 A 
ATOM     76  C   UNL A   1      45.433  22.845  36.244  1.00  0.00     0.055 A 
ATOM     77  C   UNL A   1      44.016  24.645  36.876  1.00  0.00     0.041 A 
ATOM     78  F   UNL A   1      43.061  25.979  35.310  1.00  0.00    -0.206 F 
ATOM     79  C   UNL A   1      44.782  23.571  37.246  1.00  0.00     0.022 A 
BRANCH  76  80
ATOM     80  S   UNL A   1      46.315  21.357  36.808  1.00  0.00     0.124 S 
ATOM     81  O   UNL A   1      47.707  21.727  36.582  1.00  0.00    -0.237 OA
ATOM     82  O   UNL A   1      45.900  21.233  38.201  1.00  0.00    -0.237 OA
ATOM     83  O   UNL A   1      45.799  20.314  35.919  1.00  0.00    -0.744 OA
ENDBRANCH  76  80
ENDBRANCH  49  73
BRANCH  61  84
ATOM     84  C   UNL A   1      42.897  28.982  30.973  1.00  0.00     0.023 A 
ATOM     85  C   UNL A   1      42.632  28.285  29.774  1.00  0.00     0.031 A 
ATOM     86  C   UNL A   1      41.786  29.598  31.576  1.00  0.00     0.131 A 
ATOM     87  C   UNL A   1      41.338  28.267  29.211  1.00  0.00     0.055 A 
ATOM     88  C   UNL A   1      40.496  29.571  31.027  1.00  0.00     0.041 A 
ATOM     89  F   UNL A   1      41.909  30.272  32.718  1.00  0.00    -0.206 F 
ATOM     90  C   UNL A   1      40.268  28.910  29.832  1.00  0.00     0.022 A 
BRANCH  87  91
ATOM     91  S   UNL A   1      41.059  27.391  27.647  1.00  0.00     0.124 S 
ATOM     92  O   UNL A   1      41.475  26.028  27.960  1.00  0.00    -0.237 OA
ATOM     93  O   UNL A   1      39.630  27.589  27.424  1.00  0.00    -0.237 OA
ATOM     94  O   UNL A   1      41.926  28.096  26.701  1.00  0.00    -0.744 OA
ENDBRANCH  87  91
ENDBRANCH  61  84
ENDBRANCH  35  36
ENDBRANCH  27  30
ENDBRANCH  25  26
ENDBRANCH  24  25
ENDBRANCH  23  24
ENDBRANCH  22  23
ENDBRANCH   1  22
TORSDOF 21
ENDMDL
MODEL 3
REMARK VINA RESULT:      -9.5      4.231      7.385
REMARK SMILES COCCNS(=O)(=O)c1c[nH]c(C(=O)NCCCCCCNC(=O)c2ccc(-c3c4nc(c(-c5cc(S(=O)(=O)[O-])ccc5F)c5ccc([nH]5)c(-c5cc(S(=O)(=O)[O-])ccc5F)c5nc(c(-c6cc(S(=O)(=O)[O-])ccc6F)c6ccc3[nH]6)C=C5)C=C4)cc2)c1
REMARK SMILES IDX 17 1 16 2 15 3 13 4 14 5 12 7 9 8 10 9 88 10 11 11 6 13 7 14
REMARK SMILES IDX 8 15 5 16 4 18 3 19 2 20 1 21 18 22 19 23 20 24 21 25 22 26
REMARK SMILES IDX 23 27 24 29 25 30 26 31 87 32 27 33 86 34 28 35 29 36 30 37
REMARK SMILES IDX 80 38 31 39 85 40 79 41 81 42 32 43 84 44 78 45 77 46 33 48
REMARK SMILES IDX 65 49 45 50 64 51 46 52 49 53 63 54 82 55 47 56 48 57 62 59
REMARK SMILES IDX 83 60 50 61 34 62 35 63 43 64 36 65 42 66 44 67 41 68 37 69
REMARK SMILES IDX 38 70 39 71 40 72 66 73 67 74 75 75 68 76 74 77 76 78 73 79
REMARK SMILES IDX 69 80 70 81 71 82 72 83 51 84 52 85 60 86 53 87 59 88 61 89
REMARK SMILES IDX 58 90 54 91 55 92 56 93 57 94
REMARK H PARENT 15 6 11 12 5 17 22 28 81 47 49 58
REMARK Flexibility Score: inf
ROOT
ATOM      1  C   UNL A   1      39.964  21.469  26.256  1.00  0.00     0.021 C 
ENDROOT
BRANCH   1   2
ATOM      2  C   UNL A   1      38.521  21.529  25.756  1.00  0.00     0.116 C 
BRANCH   2   3
ATOM      3  N   UNL A   1      38.069  22.900  25.625  1.00  0.00    -0.351 N 
ATOM      4  C   UNL A   1      36.815  23.445  25.716  1.00  0.00     0.267 C 
ATOM      5  O   UNL A   1      36.728  24.674  25.703  1.00  0.00    -0.268 OA
ATOM      6  H   UNL A   1      38.784  23.551  25.440  1.00  0.00     0.163 HD
BRANCH   4   7
ATOM      7  C   UNL A   1      35.651  22.612  25.915  1.00  0.00     0.105 A 
ATOM      8  C   UNL A   1      33.962  21.101  25.838  1.00  0.00     0.100 A 
ATOM      9  C   UNL A   1      34.204  21.400  27.160  1.00  0.00     0.104 A 
ATOM     10  C   UNL A   1      34.782  21.957  25.057  1.00  0.00     0.055 A 
ATOM     11  N   UNL A   1      35.174  22.364  27.190  1.00  0.00    -0.356 N 
ATOM     12  H   UNL A   1      35.490  22.818  28.006  1.00  0.00     0.166 HD
BRANCH   8  13
ATOM     13  S   UNL A   1      32.909  19.889  25.200  1.00  0.00     0.242 S 
ATOM     14  O   UNL A   1      33.500  19.486  23.957  1.00  0.00    -0.207 OA
ATOM     15  O   UNL A   1      31.576  20.460  25.290  1.00  0.00    -0.207 OA
BRANCH  13  16
ATOM     16  N   UNL A   1      32.927  18.559  26.256  1.00  0.00    -0.209 NA
ATOM     17  H   UNL A   1      33.866  18.483  26.647  1.00  0.00     0.141 HD
BRANCH  16  18
ATOM     18  C   UNL A   1      32.578  17.247  25.654  1.00  0.00     0.127 C 
BRANCH  18  19
ATOM     19  C   UNL A   1      33.826  16.519  25.135  1.00  0.00     0.176 C 
BRANCH  19  20
ATOM     20  O   UNL A   1      33.858  15.128  25.459  1.00  0.00    -0.383 OA
ATOM     21  C   UNL A   1      32.584  14.511  25.537  1.00  0.00     0.194 C 
ENDBRANCH  19  20
ENDBRANCH  18  19
ENDBRANCH  16  18
ENDBRANCH  13  16
ENDBRANCH   8  13
ENDBRANCH   4   7
ENDBRANCH   2   3
ENDBRANCH   1   2
BRANCH   1  22
ATOM     22  C   UNL A   1      40.562  20.056  26.218  1.00  0.00     0.002 C 
BRANCH  22  23
ATOM     23  C   UNL A   1      42.074  19.983  26.475  1.00  0.00     0.002 C 
BRANCH  23  24
ATOM     24  C   UNL A   1      42.846  19.032  25.548  1.00  0.00     0.021 C 
BRANCH  24  25
ATOM     25  C   UNL A   1      44.329  19.383  25.412  1.00  0.00     0.116 C 
BRANCH  25  26
ATOM     26  N   UNL A   1      44.541  20.219  24.242  1.00  0.00    -0.352 N 
ATOM     27  C   UNL A   1      44.442  21.576  24.095  1.00  0.00     0.251 C 
ATOM     28  H   UNL A   1      44.796  19.732  23.426  1.00  0.00     0.163 HD
ATOM     29  O   UNL A   1      44.330  22.038  22.960  1.00  0.00    -0.269 OA
BRANCH  27  30
ATOM     30  C   UNL A   1      44.435  22.489  25.257  1.00  0.00     0.039 A 
ATOM     31  C   UNL A   1      45.604  22.565  26.024  1.00  0.00     0.014 A 
ATOM     32  C   UNL A   1      43.287  23.185  25.655  1.00  0.00     0.014 A 
ATOM     33  C   UNL A   1      45.646  23.387  27.146  1.00  0.00     0.010 A 
ATOM     34  C   UNL A   1      43.329  24.012  26.782  1.00  0.00     0.010 A 
ATOM     35  C   UNL A   1      44.518  24.135  27.514  1.00  0.00    -0.014 A 
BRANCH  35  36
ATOM     36  C   UNL A   1      44.709  25.224  28.511  1.00  0.00     0.031 A 
ATOM     37  C   UNL A   1      45.105  26.549  27.811  1.00  0.00     0.074 A 
ATOM     38  C   UNL A   1      44.584  24.916  29.842  1.00  0.00     0.049 A 
ATOM     39  N   UNL A   1      45.862  27.525  28.212  1.00  0.00    -0.248 NA
ATOM     40  C   UNL A   1      44.680  26.766  26.397  1.00  0.00     0.031 C 
ATOM     41  C   UNL A   1      44.164  23.598  30.372  1.00  0.00     0.029 A 
ATOM     42  N   UNL A   1      44.778  25.624  31.015  1.00  0.00    -0.354 N 
ATOM     43  C   UNL A   1      45.796  28.551  27.232  1.00  0.00     0.074 A 
ATOM     44  C   UNL A   1      45.194  27.958  26.080  1.00  0.00     0.031 C 
ATOM     45  C   UNL A   1      44.205  23.577  31.726  1.00  0.00     0.029 A 
ATOM     46  C   UNL A   1      44.636  24.871  32.221  1.00  0.00     0.049 A 
ATOM     47  H   UNL A   1      45.000  26.583  31.019  1.00  0.00     0.167 HD
ATOM     48  C   UNL A   1      46.087  29.863  27.490  1.00  0.00     0.034 A 
ATOM     49  C   UNL A   1      44.874  25.251  33.521  1.00  0.00     0.034 A 
ATOM     50  C   UNL A   1      46.506  29.999  28.842  1.00  0.00     0.049 A 
ATOM     51  C   UNL A   1      45.151  26.691  33.441  1.00  0.00     0.074 A 
ATOM     52  C   UNL A   1      47.628  29.612  29.521  1.00  0.00     0.029 A 
ATOM     53  N   UNL A   1      45.539  30.373  29.748  1.00  0.00    -0.354 N 
ATOM     54  N   UNL A   1      44.248  27.603  33.266  1.00  0.00    -0.248 NA
ATOM     55  C   UNL A   1      46.542  27.156  33.534  1.00  0.00     0.031 C 
ATOM     56  C   UNL A   1      47.132  29.293  30.800  1.00  0.00     0.029 A 
ATOM     57  C   UNL A   1      45.786  29.674  30.898  1.00  0.00     0.049 A 
ATOM     58  H   UNL A   1      44.811  31.018  29.598  1.00  0.00     0.167 HD
ATOM     59  C   UNL A   1      44.995  28.694  32.904  1.00  0.00     0.074 A 
ATOM     60  C   UNL A   1      46.328  28.466  33.418  1.00  0.00     0.031 C 
ATOM     61  C   UNL A   1      44.670  29.361  31.768  1.00  0.00     0.034 A 
BRANCH  48  62
ATOM     62  C   UNL A   1      45.805  31.159  26.757  1.00  0.00     0.023 A 
ATOM     63  C   UNL A   1      46.918  32.024  26.568  1.00  0.00     0.031 A 
ATOM     64  C   UNL A   1      44.545  31.729  26.538  1.00  0.00     0.131 A 
ATOM     65  C   UNL A   1      46.760  33.399  26.353  1.00  0.00     0.055 A 
ATOM     66  C   UNL A   1      44.390  33.093  26.240  1.00  0.00     0.041 A 
ATOM     67  F   UNL A   1      43.416  31.024  26.682  1.00  0.00    -0.206 F 
ATOM     68  C   UNL A   1      45.493  33.944  26.191  1.00  0.00     0.022 A 
BRANCH  65  69
ATOM     69  S   UNL A   1      48.223  34.467  26.497  1.00  0.00     0.124 S 
ATOM     70  O   UNL A   1      49.316  33.506  26.405  1.00  0.00    -0.237 OA
ATOM     71  O   UNL A   1      48.061  35.362  25.355  1.00  0.00    -0.237 OA
ATOM     72  O   UNL A   1      48.056  35.096  27.806  1.00  0.00    -0.744 OA
ENDBRANCH  65  69
ENDBRANCH  48  62
BRANCH  49  73
ATOM     73  C   UNL A   1      44.956  24.671  34.933  1.00  0.00     0.023 A 
ATOM     74  C   UNL A   1      45.935  23.793  35.432  1.00  0.00     0.031 A 
ATOM     75  C   UNL A   1      43.978  25.070  35.908  1.00  0.00     0.131 A 
ATOM     76  C   UNL A   1      45.938  23.431  36.814  1.00  0.00     0.055 A 
ATOM     77  C   UNL A   1      44.034  24.778  37.270  1.00  0.00     0.041 A 
ATOM     78  F   UNL A   1      42.887  25.778  35.588  1.00  0.00    -0.206 F 
ATOM     79  C   UNL A   1      45.031  23.962  37.736  1.00  0.00     0.022 A 
BRANCH  76  80
ATOM     80  S   UNL A   1      47.143  22.251  37.498  1.00  0.00     0.124 S 
ATOM     81  O   UNL A   1      47.353  22.777  38.842  1.00  0.00    -0.237 OA
ATOM     82  O   UNL A   1      46.444  20.974  37.408  1.00  0.00    -0.237 OA
ATOM     83  O   UNL A   1      48.285  22.390  36.593  1.00  0.00    -0.744 OA
ENDBRANCH  76  80
ENDBRANCH  49  73
BRANCH  61  84
ATOM     84  C   UNL A   1      43.194  29.242  31.374  1.00  0.00     0.023 A 
ATOM     85  C   UNL A   1      42.817  28.471  30.253  1.00  0.00     0.031 A 
ATOM     86  C   UNL A   1      42.160  29.978  31.980  1.00  0.00     0.131 A 
ATOM     87  C   UNL A   1      41.495  28.495  29.761  1.00  0.00     0.055 A 
ATOM     88  C   UNL A   1      40.841  29.994  31.503  1.00  0.00     0.041 A 
ATOM     89  F   UNL A   1      42.390  30.731  33.054  1.00  0.00    -0.206 F 
ATOM     90  C   UNL A   1      40.504  29.256  30.381  1.00  0.00     0.022 A 
BRANCH  87  91
ATOM     91  S   UNL A   1      41.072  27.517  28.292  1.00  0.00     0.124 S 
ATOM     92  O   UNL A   1      39.644  27.766  28.136  1.00  0.00    -0.237 OA
ATOM     93  O   UNL A   1      41.938  28.094  27.268  1.00  0.00    -0.237 OA
ATOM     94  O   UNL A   1      41.419  26.149  28.681  1.00  0.00    -0.744 OA
ENDBRANCH  87  91
ENDBRANCH  61  84
ENDBRANCH  35  36
ENDBRANCH  27  30
ENDBRANCH  25  26
ENDBRANCH  24  25
ENDBRANCH  23  24
ENDBRANCH  22  23
ENDBRANCH   1  22
TORSDOF 21
ENDMDL
