MODEL 1
REMARK VINA RESULT:     -13.0      0.000      0.000
REMARK SMILES O=C(NC1(C(=O)NCCCCCCNC(=O)c2ccc(-c3c4nc(c(-c5cc(S(=O)(=O)[O-])ccc5F)c5ccc([nH]5)c(-c5cc(S(=O)(=O)[O-])ccc5F)c5nc(c(-c6cc(S(=O)(=O)[O-])ccc6F)c6ccc3[nH]6)C=C5)C=C4)cc2)Cc2ccccc2C1)OCC1c2ccccc2-c2ccccc21
REMARK SMILES IDX 10 1 9 2 8 3 7 4 5 5 6 6 4 8 80 9 87 10 81 11 86 12 82 13
REMARK SMILES IDX 85 14 83 15 84 16 3 17 1 18 2 19 88 21 89 22 90 23 91 24
REMARK SMILES IDX 102 25 92 26 96 27 97 28 101 29 93 30 95 31 98 32 100 33
REMARK SMILES IDX 94 34 99 35 11 36 12 37 13 38 14 39 15 40 16 42 17 43 18 44
REMARK SMILES IDX 79 45 19 46 78 47 20 48 21 49 22 50 72 51 23 52 77 53 71 54
REMARK SMILES IDX 73 55 24 56 76 57 70 58 69 59 25 61 57 62 37 63 56 64 38 65
REMARK SMILES IDX 41 66 55 67 74 68 39 69 40 70 54 72 75 73 42 74 26 75 27 76
REMARK SMILES IDX 35 77 28 78 34 79 36 80 33 81 29 82 30 83 31 84 32 85 58 86
REMARK SMILES IDX 59 87 67 88 60 89 66 90 68 91 65 92 61 93 62 94 63 95 64 96
REMARK SMILES IDX 43 97 44 98 52 99 45 100 51 101 53 102 50 103 46 104 47 105
REMARK SMILES IDX 48 106 49 107
REMARK H PARENT 7 7 3 20 14 41 73 60 41 71
REMARK Flexibility Score: inf
ROOT
ATOM      1  C   UNL A   1      30.433  30.061  24.759  1.00  0.00     0.002 C 
ENDROOT
BRANCH   1   2
ATOM      2  C   UNL A   1      31.147  29.384  23.584  1.00  0.00     0.021 C 
BRANCH   2   3
ATOM      3  C   UNL A   1      30.334  28.238  22.999  1.00  0.00     0.116 C 
BRANCH   3   4
ATOM      4  N   UNL A   1      31.101  27.540  21.997  1.00  0.00    -0.354 N 
ATOM      5  C   UNL A   1      31.885  26.445  22.051  1.00  0.00     0.246 C 
ATOM      6  O   UNL A   1      32.562  26.265  21.022  1.00  0.00    -0.272 OA
ATOM      7  H   UNL A   1      31.040  27.941  21.101  1.00  0.00     0.163 HD
BRANCH   5   8
ATOM      8  C   UNL A   1      32.059  25.475  23.272  1.00  0.00     0.130 C 
ATOM      9  C   UNL A   1      31.064  25.464  24.450  1.00  0.00     0.075 C 
ATOM     10  C   UNL A   1      33.432  25.816  23.933  1.00  0.00     0.075 C 
ATOM     11  C   UNL A   1      31.699  26.324  25.483  1.00  0.00    -0.042 A 
ATOM     12  C   UNL A   1      33.022  26.597  25.154  1.00  0.00    -0.042 A 
ATOM     13  C   UNL A   1      31.061  26.903  26.568  1.00  0.00     0.004 A 
ATOM     14  C   UNL A   1      33.732  27.515  25.905  1.00  0.00     0.004 A 
ATOM     15  C   UNL A   1      31.760  27.840  27.314  1.00  0.00     0.000 A 
ATOM     16  C   UNL A   1      33.086  28.151  26.977  1.00  0.00     0.000 A 
BRANCH   8  17
ATOM     17  N   UNL A   1      32.030  24.167  22.562  1.00  0.00    -0.306 N 
ATOM     18  O   UNL A   1      31.828  21.902  22.721  1.00  0.00    -0.225 OA
ATOM     19  C   UNL A   1      32.274  22.951  23.161  1.00  0.00     0.408 C 
ATOM     20  H   UNL A   1      31.823  24.172  21.600  1.00  0.00     0.168 HD
BRANCH  19  21
ATOM     21  O   UNL A   1      33.137  23.003  24.203  1.00  0.00    -0.449 OA
BRANCH  21  22
ATOM     22  C   UNL A   1      32.711  22.444  25.459  1.00  0.00     0.248 C 
BRANCH  22  23
ATOM     23  C   UNL A   1      33.668  21.320  25.954  1.00  0.00     0.088 C 
ATOM     24  C   UNL A   1      35.160  21.648  25.754  1.00  0.00    -0.029 A 
ATOM     25  C   UNL A   1      33.583  19.941  25.285  1.00  0.00    -0.029 A 
ATOM     26  C   UNL A   1      35.855  22.812  26.048  1.00  0.00     0.005 A 
ATOM     27  C   UNL A   1      35.827  20.548  25.166  1.00  0.00    -0.014 A 
ATOM     28  C   UNL A   1      34.869  19.498  24.905  1.00  0.00    -0.014 A 
ATOM     29  C   UNL A   1      32.469  19.158  25.016  1.00  0.00     0.005 A 
ATOM     30  C   UNL A   1      37.217  22.875  25.725  1.00  0.00     0.000 A 
ATOM     31  C   UNL A   1      37.175  20.610  24.846  1.00  0.00     0.009 A 
ATOM     32  C   UNL A   1      35.055  18.263  24.300  1.00  0.00     0.009 A 
ATOM     33  C   UNL A   1      32.648  17.944  24.345  1.00  0.00     0.000 A 
ATOM     34  C   UNL A   1      37.870  21.788  25.124  1.00  0.00     0.001 A 
ATOM     35  C   UNL A   1      33.930  17.490  24.007  1.00  0.00     0.001 A 
ENDBRANCH  22  23
ENDBRANCH  21  22
ENDBRANCH  19  21
ENDBRANCH   8  17
ENDBRANCH   5   8
ENDBRANCH   3   4
ENDBRANCH   2   3
ENDBRANCH   1   2
BRANCH   1  36
ATOM     36  C   UNL A   1      31.072  31.381  25.212  1.00  0.00     0.002 C 
BRANCH  36  37
ATOM     37  C   UNL A   1      31.309  31.496  26.721  1.00  0.00     0.021 C 
BRANCH  37  38
ATOM     38  C   UNL A   1      32.675  32.064  27.089  1.00  0.00     0.116 C 
BRANCH  38  39
ATOM     39  N   UNL A   1      32.589  33.484  27.389  1.00  0.00    -0.352 N 
ATOM     40  C   UNL A   1      33.232  34.201  28.363  1.00  0.00     0.251 C 
ATOM     41  H   UNL A   1      31.983  34.003  26.812  1.00  0.00     0.163 HD
ATOM     42  O   UNL A   1      32.838  35.327  28.654  1.00  0.00    -0.269 OA
BRANCH  40  43
ATOM     43  C   UNL A   1      34.392  33.606  29.058  1.00  0.00     0.039 A 
ATOM     44  C   UNL A   1      35.681  33.982  28.672  1.00  0.00     0.014 A 
ATOM     45  C   UNL A   1      34.205  32.665  30.074  1.00  0.00     0.014 A 
ATOM     46  C   UNL A   1      36.783  33.441  29.335  1.00  0.00     0.010 A 
ATOM     47  C   UNL A   1      35.301  32.184  30.782  1.00  0.00     0.010 A 
ATOM     48  C   UNL A   1      36.601  32.556  30.410  1.00  0.00    -0.014 A 
BRANCH  48  49
ATOM     49  C   UNL A   1      37.759  31.981  31.140  1.00  0.00     0.031 A 
ATOM     50  C   UNL A   1      38.547  30.859  30.522  1.00  0.00     0.074 A 
ATOM     51  C   UNL A   1      38.058  32.427  32.375  1.00  0.00     0.049 A 
ATOM     52  N   UNL A   1      39.532  30.161  31.026  1.00  0.00    -0.248 NA
ATOM     53  C   UNL A   1      38.150  30.444  29.167  1.00  0.00     0.031 C 
ATOM     54  C   UNL A   1      37.339  33.486  33.087  1.00  0.00     0.029 A 
ATOM     55  N   UNL A   1      39.037  32.043  33.254  1.00  0.00    -0.354 N 
ATOM     56  C   UNL A   1      39.862  29.217  30.059  1.00  0.00     0.074 A 
ATOM     57  C   UNL A   1      38.926  29.390  28.968  1.00  0.00     0.031 C 
ATOM     58  C   UNL A   1      37.917  33.682  34.283  1.00  0.00     0.029 A 
ATOM     59  C   UNL A   1      39.015  32.734  34.443  1.00  0.00     0.049 A 
ATOM     60  H   UNL A   1      39.696  31.339  33.053  1.00  0.00     0.167 HD
ATOM     61  C   UNL A   1      40.868  28.307  30.071  1.00  0.00     0.034 A 
ATOM     62  C   UNL A   1      39.784  32.607  35.542  1.00  0.00     0.034 A 
ATOM     63  C   UNL A   1      41.800  28.164  31.163  1.00  0.00     0.049 A 
ATOM     64  C   UNL A   1      40.885  31.576  35.541  1.00  0.00     0.074 A 
ATOM     65  C   UNL A   1      42.888  27.315  31.263  1.00  0.00     0.029 A 
ATOM     66  N   UNL A   1      41.750  28.885  32.350  1.00  0.00    -0.354 N 
ATOM     67  N   UNL A   1      41.213  30.720  34.600  1.00  0.00    -0.248 NA
ATOM     68  C   UNL A   1      41.724  31.502  36.743  1.00  0.00     0.031 C 
ATOM     69  C   UNL A   1      43.453  27.474  32.533  1.00  0.00     0.029 A 
ATOM     70  C   UNL A   1      42.769  28.479  33.198  1.00  0.00     0.049 A 
ATOM     71  H   UNL A   1      41.088  29.582  32.558  1.00  0.00     0.167 HD
ATOM     72  C   UNL A   1      42.319  30.028  35.087  1.00  0.00     0.074 A 
ATOM     73  C   UNL A   1      42.607  30.578  36.397  1.00  0.00     0.031 C 
ATOM     74  C   UNL A   1      43.035  29.032  34.506  1.00  0.00     0.034 A 
BRANCH  61  75
ATOM     75  C   UNL A   1      40.987  27.387  28.879  1.00  0.00     0.023 A 
ATOM     76  C   UNL A   1      42.003  27.546  27.920  1.00  0.00     0.031 A 
ATOM     77  C   UNL A   1      40.053  26.355  28.678  1.00  0.00     0.131 A 
ATOM     78  C   UNL A   1      42.013  26.747  26.766  1.00  0.00     0.055 A 
ATOM     79  C   UNL A   1      40.120  25.504  27.571  1.00  0.00     0.041 A 
ATOM     80  F   UNL A   1      39.047  26.164  29.546  1.00  0.00    -0.206 F 
ATOM     81  C   UNL A   1      41.094  25.709  26.598  1.00  0.00     0.022 A 
BRANCH  78  82
ATOM     82  S   UNL A   1      43.146  27.184  25.419  1.00  0.00     0.124 S 
ATOM     83  O   UNL A   1      44.247  27.807  26.153  1.00  0.00    -0.237 OA
ATOM     84  O   UNL A   1      43.433  25.889  24.815  1.00  0.00    -0.237 OA
ATOM     85  O   UNL A   1      42.361  28.100  24.594  1.00  0.00    -0.744 OA
ENDBRANCH  78  82
ENDBRANCH  61  75
BRANCH  62  86
ATOM     86  C   UNL A   1      39.545  33.469  36.736  1.00  0.00     0.023 A 
ATOM     87  C   UNL A   1      38.912  32.959  37.879  1.00  0.00     0.031 A 
ATOM     88  C   UNL A   1      39.914  34.826  36.736  1.00  0.00     0.131 A 
ATOM     89  C   UNL A   1      38.622  33.810  38.957  1.00  0.00     0.055 A 
ATOM     90  C   UNL A   1      39.672  35.656  37.831  1.00  0.00     0.041 A 
ATOM     91  F   UNL A   1      40.530  35.363  35.670  1.00  0.00    -0.206 F 
ATOM     92  C   UNL A   1      39.009  35.152  38.946  1.00  0.00     0.022 A 
BRANCH  89  93
ATOM     93  S   UNL A   1      37.649  33.157  40.342  1.00  0.00     0.124 S 
ATOM     94  O   UNL A   1      36.406  32.781  39.680  1.00  0.00    -0.237 OA
ATOM     95  O   UNL A   1      38.488  32.057  40.807  1.00  0.00    -0.237 OA
ATOM     96  O   UNL A   1      37.553  34.293  41.255  1.00  0.00    -0.744 OA
ENDBRANCH  89  93
ENDBRANCH  62  86
BRANCH  74  97
ATOM     97  C   UNL A   1      44.228  28.510  35.269  1.00  0.00     0.023 A 
ATOM     98  C   UNL A   1      44.108  27.473  36.210  1.00  0.00     0.031 A 
ATOM     99  C   UNL A   1      45.500  29.068  35.057  1.00  0.00     0.131 A 
ATOM    100  C   UNL A   1      45.231  27.065  36.946  1.00  0.00     0.055 A 
ATOM    101  C   UNL A   1      46.626  28.614  35.745  1.00  0.00     0.041 A 
ATOM    102  F   UNL A   1      45.672  30.063  34.171  1.00  0.00    -0.206 F 
ATOM    103  C   UNL A   1      46.493  27.616  36.705  1.00  0.00     0.022 A 
BRANCH 100 104
ATOM    104  S   UNL A   1      45.004  25.867  38.288  1.00  0.00     0.124 S 
ATOM    105  O   UNL A   1      44.383  26.686  39.324  1.00  0.00    -0.237 OA
ATOM    106  O   UNL A   1      44.144  24.863  37.668  1.00  0.00    -0.237 OA
ATOM    107  O   UNL A   1      46.364  25.420  38.583  1.00  0.00    -0.744 OA
ENDBRANCH 100 104
ENDBRANCH  74  97
ENDBRANCH  48  49
ENDBRANCH  40  43
ENDBRANCH  38  39
ENDBRANCH  37  38
ENDBRANCH  36  37
ENDBRANCH   1  36
TORSDOF 20
ENDMDL
MODEL 2
REMARK VINA RESULT:     -12.9      1.524      7.258
REMARK SMILES O=C(NC1(C(=O)NCCCCCCNC(=O)c2ccc(-c3c4nc(c(-c5cc(S(=O)(=O)[O-])ccc5F)c5ccc([nH]5)c(-c5cc(S(=O)(=O)[O-])ccc5F)c5nc(c(-c6cc(S(=O)(=O)[O-])ccc6F)c6ccc3[nH]6)C=C5)C=C4)cc2)Cc2ccccc2C1)OCC1c2ccccc2-c2ccccc21
REMARK SMILES IDX 10 1 9 2 8 3 7 4 5 5 6 6 4 8 80 9 87 10 81 11 86 12 82 13
REMARK SMILES IDX 85 14 83 15 84 16 3 17 1 18 2 19 88 21 89 22 90 23 91 24
REMARK SMILES IDX 102 25 92 26 96 27 97 28 101 29 93 30 95 31 98 32 100 33
REMARK SMILES IDX 94 34 99 35 11 36 12 37 13 38 14 39 15 40 16 42 17 43 18 44
REMARK SMILES IDX 79 45 19 46 78 47 20 48 21 49 22 50 72 51 23 52 77 53 71 54
REMARK SMILES IDX 73 55 24 56 76 57 70 58 69 59 25 61 57 62 37 63 56 64 38 65
REMARK SMILES IDX 41 66 55 67 74 68 39 69 40 70 54 72 75 73 42 74 26 75 27 76
REMARK SMILES IDX 35 77 28 78 34 79 36 80 33 81 29 82 30 83 31 84 32 85 58 86
REMARK SMILES IDX 59 87 67 88 60 89 66 90 68 91 65 92 61 93 62 94 63 95 64 96
REMARK SMILES IDX 43 97 44 98 52 99 45 100 51 101 53 102 50 103 46 104 47 105
REMARK SMILES IDX 48 106 49 107
REMARK H PARENT 7 7 3 20 14 41 73 60 41 71
REMARK Flexibility Score: inf
ROOT
ATOM      1  C   UNL A   1      30.704  29.476  24.454  1.00  0.00     0.002 C 
ENDROOT
BRANCH   1   2
ATOM      2  C   UNL A   1      31.466  28.960  23.229  1.00  0.00     0.021 C 
BRANCH   2   3
ATOM      3  C   UNL A   1      30.733  27.823  22.530  1.00  0.00     0.116 C 
BRANCH   3   4
ATOM      4  N   UNL A   1      31.613  27.148  21.611  1.00  0.00    -0.354 N 
ATOM      5  C   UNL A   1      32.384  26.049  21.729  1.00  0.00     0.246 C 
ATOM      6  O   UNL A   1      33.180  25.892  20.785  1.00  0.00    -0.272 OA
ATOM      7  H   UNL A   1      31.661  27.572  20.725  1.00  0.00     0.163 HD
BRANCH   5   8
ATOM      8  C   UNL A   1      32.407  25.046  22.937  1.00  0.00     0.130 C 
ATOM      9  C   UNL A   1      31.284  25.019  23.993  1.00  0.00     0.075 C 
ATOM     10  C   UNL A   1      33.699  25.352  23.758  1.00  0.00     0.075 C 
ATOM     11  C   UNL A   1      31.806  25.843  25.114  1.00  0.00    -0.042 A 
ATOM     12  C   UNL A   1      33.160  26.108  24.944  1.00  0.00    -0.042 A 
ATOM     13  C   UNL A   1      31.054  26.403  26.134  1.00  0.00     0.004 A 
ATOM     14  C   UNL A   1      33.790  26.997  25.796  1.00  0.00     0.004 A 
ATOM     15  C   UNL A   1      31.673  27.312  26.979  1.00  0.00     0.000 A 
ATOM     16  C   UNL A   1      33.032  27.614  26.804  1.00  0.00     0.000 A 
BRANCH   8  17
ATOM     17  N   UNL A   1      32.446  23.756  22.193  1.00  0.00    -0.306 N 
ATOM     18  O   UNL A   1      31.931  21.536  22.177  1.00  0.00    -0.225 OA
ATOM     19  C   UNL A   1      32.338  22.515  22.782  1.00  0.00     0.408 C 
ATOM     20  H   UNL A   1      32.557  23.793  21.216  1.00  0.00     0.168 HD
BRANCH  19  21
ATOM     21  O   UNL A   1      32.826  22.450  24.043  1.00  0.00    -0.449 OA
BRANCH  21  22
ATOM     22  C   UNL A   1      32.214  21.520  24.955  1.00  0.00     0.248 C 
BRANCH  22  23
ATOM     23  C   UNL A   1      33.253  20.550  25.589  1.00  0.00     0.088 C 
ATOM     24  C   UNL A   1      34.706  21.055  25.493  1.00  0.00    -0.029 A 
ATOM     25  C   UNL A   1      33.397  19.142  24.994  1.00  0.00    -0.029 A 
ATOM     26  C   UNL A   1      35.225  22.310  25.776  1.00  0.00     0.005 A 
ATOM     27  C   UNL A   1      35.551  20.022  25.024  1.00  0.00    -0.014 A 
ATOM     28  C   UNL A   1      34.756  18.849  24.746  1.00  0.00    -0.014 A 
ATOM     29  C   UNL A   1      32.414  18.213  24.681  1.00  0.00     0.005 A 
ATOM     30  C   UNL A   1      36.592  22.530  25.561  1.00  0.00     0.000 A 
ATOM     31  C   UNL A   1      36.904  20.240  24.811  1.00  0.00     0.009 A 
ATOM     32  C   UNL A   1      35.143  17.620  24.229  1.00  0.00     0.009 A 
ATOM     33  C   UNL A   1      32.798  17.002  24.097  1.00  0.00     0.000 A 
ATOM     34  C   UNL A   1      37.423  21.507  25.078  1.00  0.00     0.001 A 
ATOM     35  C   UNL A   1      34.151  16.698  23.891  1.00  0.00     0.001 A 
ENDBRANCH  22  23
ENDBRANCH  21  22
ENDBRANCH  19  21
ENDBRANCH   8  17
ENDBRANCH   5   8
ENDBRANCH   3   4
ENDBRANCH   2   3
ENDBRANCH   1   2
BRANCH   1  36
ATOM     36  C   UNL A   1      31.169  30.851  24.955  1.00  0.00     0.002 C 
BRANCH  36  37
ATOM     37  C   UNL A   1      31.328  30.961  26.474  1.00  0.00     0.021 C 
BRANCH  37  38
ATOM     38  C   UNL A   1      32.710  31.427  26.917  1.00  0.00     0.116 C 
BRANCH  38  39
ATOM     39  N   UNL A   1      32.730  32.862  27.151  1.00  0.00    -0.352 N 
ATOM     40  C   UNL A   1      33.480  33.581  28.044  1.00  0.00     0.251 C 
ATOM     41  H   UNL A   1      32.118  33.391  26.590  1.00  0.00     0.163 HD
ATOM     42  O   UNL A   1      33.175  34.741  28.304  1.00  0.00    -0.269 OA
BRANCH  40  43
ATOM     43  C   UNL A   1      34.648  32.946  28.690  1.00  0.00     0.039 A 
ATOM     44  C   UNL A   1      34.471  32.274  29.901  1.00  0.00     0.014 A 
ATOM     45  C   UNL A   1      35.916  33.034  28.108  1.00  0.00     0.014 A 
ATOM     46  C   UNL A   1      35.564  31.655  30.510  1.00  0.00     0.010 A 
ATOM     47  C   UNL A   1      36.987  32.354  28.677  1.00  0.00     0.010 A 
ATOM     48  C   UNL A   1      36.825  31.670  29.891  1.00  0.00    -0.014 A 
BRANCH  48  49
ATOM     49  C   UNL A   1      37.997  31.004  30.512  1.00  0.00     0.031 A 
ATOM     50  C   UNL A   1      38.416  31.381  31.907  1.00  0.00     0.074 A 
ATOM     51  C   UNL A   1      38.712  30.111  29.801  1.00  0.00     0.049 A 
ATOM     52  N   UNL A   1      39.455  30.986  32.596  1.00  0.00    -0.248 NA
ATOM     53  C   UNL A   1      37.570  32.361  32.606  1.00  0.00     0.031 C 
ATOM     54  C   UNL A   1      38.418  29.696  28.428  1.00  0.00     0.029 A 
ATOM     55  N   UNL A   1      39.835  29.396  30.130  1.00  0.00    -0.354 N 
ATOM     56  C   UNL A   1      39.397  31.679  33.801  1.00  0.00     0.074 A 
ATOM     57  C   UNL A   1      38.257  32.567  33.719  1.00  0.00     0.031 C 
ATOM     58  C   UNL A   1      39.324  28.783  28.042  1.00  0.00     0.029 A 
ATOM     59  C   UNL A   1      40.288  28.582  29.118  1.00  0.00     0.049 A 
ATOM     60  H   UNL A   1      40.276  29.460  31.008  1.00  0.00     0.167 HD
ATOM     61  C   UNL A   1      40.206  31.565  34.884  1.00  0.00     0.034 A 
ATOM     62  C   UNL A   1      41.367  27.777  29.061  1.00  0.00     0.034 A 
ATOM     63  C   UNL A   1      41.327  30.660  34.950  1.00  0.00     0.049 A 
ATOM     64  C   UNL A   1      42.264  27.681  30.270  1.00  0.00     0.074 A 
ATOM     65  C   UNL A   1      42.182  30.421  36.011  1.00  0.00     0.029 A 
ATOM     66  N   UNL A   1      41.754  29.847  33.907  1.00  0.00    -0.354 N 
ATOM     67  N   UNL A   1      42.169  28.309  31.421  1.00  0.00    -0.248 NA
ATOM     68  C   UNL A   1      43.403  26.760  30.178  1.00  0.00     0.031 C 
ATOM     69  C   UNL A   1      43.164  29.518  35.589  1.00  0.00     0.029 A 
ATOM     70  C   UNL A   1      42.877  29.130  34.291  1.00  0.00     0.049 A 
ATOM     71  H   UNL A   1      41.322  29.789  33.024  1.00  0.00     0.167 HD
ATOM     72  C   UNL A   1      43.220  27.833  32.199  1.00  0.00     0.074 A 
ATOM     73  C   UNL A   1      43.924  26.856  31.392  1.00  0.00     0.031 C 
ATOM     74  C   UNL A   1      43.572  28.167  33.467  1.00  0.00     0.034 A 
BRANCH  61  75
ATOM     75  C   UNL A   1      39.915  32.461  36.065  1.00  0.00     0.023 A 
ATOM     76  C   UNL A   1      39.032  32.072  37.089  1.00  0.00     0.031 A 
ATOM     77  C   UNL A   1      40.502  33.736  36.156  1.00  0.00     0.131 A 
ATOM     78  C   UNL A   1      38.697  32.976  38.109  1.00  0.00     0.055 A 
ATOM     79  C   UNL A   1      40.233  34.598  37.222  1.00  0.00     0.041 A 
ATOM     80  F   UNL A   1      41.337  34.174  35.200  1.00  0.00    -0.206 F 
ATOM     81  C   UNL A   1      39.311  34.227  38.197  1.00  0.00     0.022 A 
BRANCH  78  82
ATOM     82  S   UNL A   1      37.333  32.553  39.227  1.00  0.00     0.124 S 
ATOM     83  O   UNL A   1      37.539  33.507  40.315  1.00  0.00    -0.237 OA
ATOM     84  O   UNL A   1      36.159  32.780  38.393  1.00  0.00    -0.237 OA
ATOM     85  O   UNL A   1      37.594  31.158  39.574  1.00  0.00    -0.744 OA
ENDBRANCH  78  82
ENDBRANCH  61  75
BRANCH  62  86
ATOM     86  C   UNL A   1      41.668  27.002  27.823  1.00  0.00     0.023 A 
ATOM     87  C   UNL A   1      41.426  25.622  27.758  1.00  0.00     0.031 A 
ATOM     88  C   UNL A   1      42.237  27.626  26.698  1.00  0.00     0.131 A 
ATOM     89  C   UNL A   1      41.796  24.899  26.613  1.00  0.00     0.055 A 
ATOM     90  C   UNL A   1      42.553  26.913  25.541  1.00  0.00     0.041 A 
ATOM     91  F   UNL A   1      42.482  28.946  26.704  1.00  0.00    -0.206 F 
ATOM     92  C   UNL A   1      42.346  25.537  25.499  1.00  0.00     0.022 A 
BRANCH  89  93
ATOM     93  S   UNL A   1      41.627  23.093  26.634  1.00  0.00     0.124 S 
ATOM     94  O   UNL A   1      42.361  22.713  25.434  1.00  0.00    -0.237 OA
ATOM     95  O   UNL A   1      42.252  22.747  27.907  1.00  0.00    -0.237 OA
ATOM     96  O   UNL A   1      40.182  22.887  26.576  1.00  0.00    -0.744 OA
ENDBRANCH  89  93
ENDBRANCH  62  86
BRANCH  74  97
ATOM     97  C   UNL A   1      44.744  27.431  34.069  1.00  0.00     0.023 A 
ATOM     98  C   UNL A   1      44.592  26.177  34.688  1.00  0.00     0.031 A 
ATOM     99  C   UNL A   1      46.029  28.000  34.031  1.00  0.00     0.131 A 
ATOM    100  C   UNL A   1      45.697  25.560  35.293  1.00  0.00     0.055 A 
ATOM    101  C   UNL A   1      47.136  27.351  34.579  1.00  0.00     0.041 A 
ATOM    102  F   UNL A   1      46.230  29.196  33.455  1.00  0.00    -0.206 F 
ATOM    103  C   UNL A   1      46.972  26.130  35.226  1.00  0.00     0.022 A 
BRANCH 100 104
ATOM    104  S   UNL A   1      45.430  24.044  36.252  1.00  0.00     0.124 S 
ATOM    105  O   UNL A   1      44.192  23.533  35.671  1.00  0.00    -0.237 OA
ATOM    106  O   UNL A   1      46.636  23.275  35.962  1.00  0.00    -0.237 OA
ATOM    107  O   UNL A   1      45.317  24.524  37.628  1.00  0.00    -0.744 OA
ENDBRANCH 100 104
ENDBRANCH  74  97
ENDBRANCH  48  49
ENDBRANCH  40  43
ENDBRANCH  38  39
ENDBRANCH  37  38
ENDBRANCH  36  37
ENDBRANCH   1  36
TORSDOF 20
ENDMDL
MODEL 3
REMARK VINA RESULT:     -12.5      1.665      2.821
REMARK SMILES O=C(NC1(C(=O)NCCCCCCNC(=O)c2ccc(-c3c4nc(c(-c5cc(S(=O)(=O)[O-])ccc5F)c5ccc([nH]5)c(-c5cc(S(=O)(=O)[O-])ccc5F)c5nc(c(-c6cc(S(=O)(=O)[O-])ccc6F)c6ccc3[nH]6)C=C5)C=C4)cc2)Cc2ccccc2C1)OCC1c2ccccc2-c2ccccc21
REMARK SMILES IDX 10 1 9 2 8 3 7 4 5 5 6 6 4 8 80 9 87 10 81 11 86 12 82 13
REMARK SMILES IDX 85 14 83 15 84 16 3 17 1 18 2 19 88 21 89 22 90 23 91 24
REMARK SMILES IDX 102 25 92 26 96 27 97 28 101 29 93 30 95 31 98 32 100 33
REMARK SMILES IDX 94 34 99 35 11 36 12 37 13 38 14 39 15 40 16 42 17 43 18 44
REMARK SMILES IDX 79 45 19 46 78 47 20 48 21 49 22 50 72 51 23 52 77 53 71 54
REMARK SMILES IDX 73 55 24 56 76 57 70 58 69 59 25 61 57 62 37 63 56 64 38 65
REMARK SMILES IDX 41 66 55 67 74 68 39 69 40 70 54 72 75 73 42 74 26 75 27 76
REMARK SMILES IDX 35 77 28 78 34 79 36 80 33 81 29 82 30 83 31 84 32 85 58 86
REMARK SMILES IDX 59 87 67 88 60 89 66 90 68 91 65 92 61 93 62 94 63 95 64 96
REMARK SMILES IDX 43 97 44 98 52 99 45 100 51 101 53 102 50 103 46 104 47 105
REMARK SMILES IDX 48 106 49 107
REMARK H PARENT 7 7 3 20 14 41 73 60 41 71
REMARK Flexibility Score: inf
ROOT
ATOM      1  C   UNL A   1      31.726  29.160  26.613  1.00  0.00     0.002 C 
ENDROOT
BRANCH   1   2
ATOM      2  C   UNL A   1      32.500  28.246  25.656  1.00  0.00     0.021 C 
BRANCH   2   3
ATOM      3  C   UNL A   1      32.736  26.862  26.244  1.00  0.00     0.116 C 
BRANCH   3   4
ATOM      4  N   UNL A   1      31.493  26.290  26.696  1.00  0.00    -0.354 N 
ATOM      5  C   UNL A   1      30.445  25.754  26.038  1.00  0.00     0.246 C 
ATOM      6  O   UNL A   1      29.448  25.561  26.759  1.00  0.00    -0.272 OA
ATOM      7  H   UNL A   1      31.388  26.291  27.674  1.00  0.00     0.163 HD
BRANCH   5   8
ATOM      8  C   UNL A   1      30.363  25.442  24.502  1.00  0.00     0.130 C 
ATOM      9  C   UNL A   1      31.478  25.866  23.526  1.00  0.00     0.075 C 
ATOM     10  C   UNL A   1      29.086  26.158  23.960  1.00  0.00     0.075 C 
ATOM     11  C   UNL A   1      30.997  27.145  22.940  1.00  0.00    -0.042 A 
ATOM     12  C   UNL A   1      29.659  27.359  23.254  1.00  0.00    -0.042 A 
ATOM     13  C   UNL A   1      31.773  28.085  22.283  1.00  0.00     0.004 A 
ATOM     14  C   UNL A   1      29.075  28.572  22.940  1.00  0.00     0.004 A 
ATOM     15  C   UNL A   1      31.200  29.312  21.984  1.00  0.00     0.000 A 
ATOM     16  C   UNL A   1      29.860  29.557  22.321  1.00  0.00     0.000 A 
BRANCH   8  17
ATOM     17  N   UNL A   1      30.258  23.957  24.551  1.00  0.00    -0.306 N 
ATOM     18  O   UNL A   1      30.707  22.040  25.698  1.00  0.00    -0.225 OA
ATOM     19  C   UNL A   1      31.062  23.146  25.320  1.00  0.00     0.408 C 
ATOM     20  H   UNL A   1      29.567  23.528  23.996  1.00  0.00     0.168 HD
BRANCH  19  21
ATOM     21  O   UNL A   1      32.312  23.626  25.523  1.00  0.00    -0.449 OA
BRANCH  21  22
ATOM     22  C   UNL A   1      33.290  22.739  26.095  1.00  0.00     0.248 C 
BRANCH  22  23
ATOM     23  C   UNL A   1      34.294  22.209  25.031  1.00  0.00     0.088 C 
ATOM     24  C   UNL A   1      34.180  20.693  24.775  1.00  0.00    -0.029 A 
ATOM     25  C   UNL A   1      35.797  22.341  25.315  1.00  0.00    -0.029 A 
ATOM     26  C   UNL A   1      33.050  19.917  24.563  1.00  0.00     0.005 A 
ATOM     27  C   UNL A   1      35.462  20.097  24.794  1.00  0.00    -0.014 A 
ATOM     28  C   UNL A   1      36.449  21.107  25.097  1.00  0.00    -0.014 A 
ATOM     29  C   UNL A   1      36.520  23.445  25.747  1.00  0.00     0.005 A 
ATOM     30  C   UNL A   1      33.211  18.536  24.396  1.00  0.00     0.000 A 
ATOM     31  C   UNL A   1      35.622  18.729  24.630  1.00  0.00     0.009 A 
ATOM     32  C   UNL A   1      37.821  20.980  25.265  1.00  0.00     0.009 A 
ATOM     33  C   UNL A   1      37.891  23.299  25.982  1.00  0.00     0.000 A 
ATOM     34  C   UNL A   1      34.484  17.945  24.436  1.00  0.00     0.001 A 
ATOM     35  C   UNL A   1      38.541  22.084  25.725  1.00  0.00     0.001 A 
ENDBRANCH  22  23
ENDBRANCH  21  22
ENDBRANCH  19  21
ENDBRANCH   8  17
ENDBRANCH   5   8
ENDBRANCH   3   4
ENDBRANCH   2   3
ENDBRANCH   1   2
BRANCH   1  36
ATOM     36  C   UNL A   1      32.600  30.174  27.363  1.00  0.00     0.002 C 
BRANCH  36  37
ATOM     37  C   UNL A   1      32.082  31.615  27.331  1.00  0.00     0.021 C 
BRANCH  37  38
ATOM     38  C   UNL A   1      33.150  32.647  26.987  1.00  0.00     0.116 C 
BRANCH  38  39
ATOM     39  N   UNL A   1      32.817  33.951  27.537  1.00  0.00    -0.352 N 
ATOM     40  C   UNL A   1      33.229  34.523  28.712  1.00  0.00     0.251 C 
ATOM     41  H   UNL A   1      32.210  34.499  26.989  1.00  0.00     0.163 HD
ATOM     42  O   UNL A   1      32.639  35.504  29.154  1.00  0.00    -0.269 OA
BRANCH  40  43
ATOM     43  C   UNL A   1      34.379  33.945  29.438  1.00  0.00     0.039 A 
ATOM     44  C   UNL A   1      34.145  32.989  30.429  1.00  0.00     0.014 A 
ATOM     45  C   UNL A   1      35.682  34.364  29.153  1.00  0.00     0.014 A 
ATOM     46  C   UNL A   1      35.225  32.423  31.108  1.00  0.00     0.010 A 
ATOM     47  C   UNL A   1      36.759  33.745  29.777  1.00  0.00     0.010 A 
ATOM     48  C   UNL A   1      36.541  32.780  30.771  1.00  0.00    -0.014 A 
BRANCH  48  49
ATOM     49  C   UNL A   1      37.705  32.178  31.468  1.00  0.00     0.031 A 
ATOM     50  C   UNL A   1      38.476  31.066  30.810  1.00  0.00     0.074 A 
ATOM     51  C   UNL A   1      38.026  32.590  32.710  1.00  0.00     0.049 A 
ATOM     52  N   UNL A   1      39.463  30.349  31.281  1.00  0.00    -0.248 NA
ATOM     53  C   UNL A   1      38.055  30.689  29.451  1.00  0.00     0.031 C 
ATOM     54  C   UNL A   1      37.326  33.635  33.460  1.00  0.00     0.029 A 
ATOM     55  N   UNL A   1      39.016  32.176  33.564  1.00  0.00    -0.354 N 
ATOM     56  C   UNL A   1      39.771  29.427  30.285  1.00  0.00     0.074 A 
ATOM     57  C   UNL A   1      38.821  29.635  29.214  1.00  0.00     0.031 C 
ATOM     58  C   UNL A   1      37.923  33.796  34.651  1.00  0.00     0.029 A 
ATOM     59  C   UNL A   1      39.017  32.836  34.771  1.00  0.00     0.049 A 
ATOM     60  H   UNL A   1      39.666  31.472  33.335  1.00  0.00     0.167 HD
ATOM     61  C   UNL A   1      40.770  28.510  30.259  1.00  0.00     0.034 A 
ATOM     62  C   UNL A   1      39.801  32.676  35.854  1.00  0.00     0.034 A 
ATOM     63  C   UNL A   1      41.717  28.332  31.332  1.00  0.00     0.049 A 
ATOM     64  C   UNL A   1      40.893  31.637  35.810  1.00  0.00     0.074 A 
ATOM     65  C   UNL A   1      42.801  27.474  31.394  1.00  0.00     0.029 A 
ATOM     66  N   UNL A   1      41.690  29.023  32.538  1.00  0.00    -0.354 N 
ATOM     67  N   UNL A   1      41.201  30.803  34.842  1.00  0.00    -0.248 NA
ATOM     68  C   UNL A   1      41.750  31.526  36.997  1.00  0.00     0.031 C 
ATOM     69  C   UNL A   1      43.385  27.595  32.659  1.00  0.00     0.029 A 
ATOM     70  C   UNL A   1      42.719  28.587  33.360  1.00  0.00     0.049 A 
ATOM     71  H   UNL A   1      41.037  29.719  32.774  1.00  0.00     0.167 HD
ATOM     72  C   UNL A   1      42.309  30.091  35.295  1.00  0.00     0.074 A 
ATOM     73  C   UNL A   1      42.620  30.604  36.614  1.00  0.00     0.031 C 
ATOM     74  C   UNL A   1      43.009  29.105  34.677  1.00  0.00     0.034 A 
BRANCH  61  75
ATOM     75  C   UNL A   1      40.864  27.620  29.041  1.00  0.00     0.023 A 
ATOM     76  C   UNL A   1      41.809  27.854  28.025  1.00  0.00     0.031 A 
ATOM     77  C   UNL A   1      39.977  26.542  28.875  1.00  0.00     0.131 A 
ATOM     78  C   UNL A   1      41.789  27.078  26.856  1.00  0.00     0.055 A 
ATOM     79  C   UNL A   1      40.021  25.717  27.749  1.00  0.00     0.041 A 
ATOM     80  F   UNL A   1      39.039  26.279  29.799  1.00  0.00    -0.206 F 
ATOM     81  C   UNL A   1      40.920  25.994  26.722  1.00  0.00     0.022 A 
BRANCH  78  82
ATOM     82  S   UNL A   1      42.810  27.603  25.452  1.00  0.00     0.124 S 
ATOM     83  O   UNL A   1      44.090  27.876  26.106  1.00  0.00    -0.237 OA
ATOM     84  O   UNL A   1      42.775  26.434  24.581  1.00  0.00    -0.237 OA
ATOM     85  O   UNL A   1      42.115  28.783  24.944  1.00  0.00    -0.744 OA
ENDBRANCH  78  82
ENDBRANCH  61  75
BRANCH  62  86
ATOM     86  C   UNL A   1      39.586  33.507  37.073  1.00  0.00     0.023 A 
ATOM     87  C   UNL A   1      40.352  34.660  37.305  1.00  0.00     0.031 A 
ATOM     88  C   UNL A   1      38.636  33.140  38.044  1.00  0.00     0.131 A 
ATOM     89  C   UNL A   1      40.190  35.379  38.500  1.00  0.00     0.055 A 
ATOM     90  C   UNL A   1      38.441  33.889  39.205  1.00  0.00     0.041 A 
ATOM     91  F   UNL A   1      37.871  32.051  37.867  1.00  0.00    -0.206 F 
ATOM     92  C   UNL A   1      39.231  35.009  39.445  1.00  0.00     0.022 A 
BRANCH  89  93
ATOM     93  S   UNL A   1      41.316  36.759  38.842  1.00  0.00     0.124 S 
ATOM     94  O   UNL A   1      40.381  37.848  39.095  1.00  0.00    -0.237 OA
ATOM     95  O   UNL A   1      42.057  36.266  39.998  1.00  0.00    -0.237 OA
ATOM     96  O   UNL A   1      42.094  36.875  37.610  1.00  0.00    -0.744 OA
ENDBRANCH  89  93
ENDBRANCH  62  86
BRANCH  74  97
ATOM     97  C   UNL A   1      44.209  28.555  35.409  1.00  0.00     0.023 A 
ATOM     98  C   UNL A   1      44.084  27.547  36.381  1.00  0.00     0.031 A 
ATOM     99  C   UNL A   1      45.493  29.056  35.134  1.00  0.00     0.131 A 
ATOM    100  C   UNL A   1      45.218  27.113  37.084  1.00  0.00     0.055 A 
ATOM    101  C   UNL A   1      46.626  28.574  35.792  1.00  0.00     0.041 A 
ATOM    102  F   UNL A   1      45.669  30.020  34.216  1.00  0.00    -0.206 F 
ATOM    103  C   UNL A   1      46.491  27.607  36.782  1.00  0.00     0.022 A 
BRANCH 100 104
ATOM    104  S   UNL A   1      44.996  25.959  38.465  1.00  0.00     0.124 S 
ATOM    105  O   UNL A   1      46.107  26.317  39.341  1.00  0.00    -0.237 OA
ATOM    106  O   UNL A   1      43.664  26.305  38.950  1.00  0.00    -0.237 OA
ATOM    107  O   UNL A   1      45.103  24.645  37.834  1.00  0.00    -0.744 OA
ENDBRANCH 100 104
ENDBRANCH  74  97
ENDBRANCH  48  49
ENDBRANCH  40  43
ENDBRANCH  38  39
ENDBRANCH  37  38
ENDBRANCH  36  37
ENDBRANCH   1  36
TORSDOF 20
ENDMDL
