MODEL 1
REMARK VINA RESULT:     -12.4      0.000      0.000
REMARK SMILES O=C(Cn1nc(C(=O)NCCCCCCNC(=O)c2ccc(-c3c4nc(c(-c5cc(S(=O)(=O)[O-])ccc5F)c5ccc([nH]5)c(-c5cc(S(=O)(=O)[O-])ccc5F)c5nc(c(-c6cc(S(=O)(=O)[O-])ccc6F)c6ccc3[nH]6)C=C5)C=C4)cc2)c2ccccc2c1=O)Nc1ccc2c(c1)C(=O)c1ccccc1C2=O
REMARK SMILES IDX 12 1 11 2 10 3 9 4 7 5 8 6 6 8 4 9 5 10 88 11 87 12 89 13
REMARK SMILES IDX 82 14 86 15 83 16 85 17 84 18 3 19 2 20 1 21 90 22 91 24
REMARK SMILES IDX 92 25 96 26 93 27 95 28 94 29 97 30 105 31 98 32 99 33
REMARK SMILES IDX 104 34 106 35 100 36 103 37 101 38 102 39 13 40 14 41 15 42
REMARK SMILES IDX 16 43 17 44 18 46 19 47 20 48 81 49 21 50 80 51 22 52 23 53
REMARK SMILES IDX 24 54 74 55 25 56 79 57 73 58 75 59 26 60 78 61 72 62 71 63
REMARK SMILES IDX 27 65 59 66 39 67 58 68 40 69 43 70 57 71 76 72 41 73 42 74
REMARK SMILES IDX 56 76 77 77 44 78 28 79 29 80 37 81 30 82 36 83 38 84 35 85
REMARK SMILES IDX 31 86 32 87 33 88 34 89 60 90 61 91 69 92 62 93 68 94 70 95
REMARK SMILES IDX 67 96 63 97 64 98 65 99 66 100 45 101 46 102 54 103 47 104
REMARK SMILES IDX 53 105 55 106 52 107 48 108 49 109 50 110 51 111
REMARK H PARENT 9 7 90 23 16 45 75 64 43 75
REMARK Flexibility Score: inf
ROOT
ATOM      1  C   UNL A   1      48.119  37.740  27.326  1.00  0.00     0.002 C 
ENDROOT
BRANCH   1   2
ATOM      2  C   UNL A   1      48.482  39.220  27.202  1.00  0.00     0.021 C 
BRANCH   2   3
ATOM      3  C   UNL A   1      47.512  40.136  26.464  1.00  0.00     0.116 C 
BRANCH   3   4
ATOM      4  N   UNL A   1      47.342  41.449  27.057  1.00  0.00    -0.351 N 
ATOM      5  C   UNL A   1      46.173  42.152  27.263  1.00  0.00     0.272 C 
ATOM      6  O   UNL A   1      46.144  43.055  28.093  1.00  0.00    -0.267 OA
ATOM      7  H   UNL A   1      48.168  41.897  27.352  1.00  0.00     0.163 HD
BRANCH   5   8
ATOM      8  C   UNL A   1      44.924  41.853  26.422  1.00  0.00     0.156 A 
ATOM      9  N   UNL A   1      43.609  42.382  24.581  1.00  0.00    -0.219 N 
ATOM     10  N   UNL A   1      44.791  42.487  25.289  1.00  0.00    -0.163 NA
ATOM     11  C   UNL A   1      42.524  41.637  25.036  1.00  0.00     0.275 A 
ATOM     12  C   UNL A   1      42.763  40.737  26.169  1.00  0.00     0.051 A 
ATOM     13  O   UNL A   1      41.395  41.685  24.563  1.00  0.00    -0.267 OA
ATOM     14  C   UNL A   1      43.923  40.876  26.919  1.00  0.00     0.020 A 
ATOM     15  C   UNL A   1      41.791  39.782  26.505  1.00  0.00     0.014 A 
ATOM     16  C   UNL A   1      44.083  40.074  28.058  1.00  0.00     0.011 A 
ATOM     17  C   UNL A   1      41.970  38.970  27.620  1.00  0.00     0.001 A 
ATOM     18  C   UNL A   1      43.111  39.125  28.402  1.00  0.00     0.001 A 
BRANCH   9  19
ATOM     19  C   UNL A   1      43.369  43.430  23.575  1.00  0.00     0.248 C 
BRANCH  19  20
ATOM     20  C   UNL A   1      43.253  42.879  22.154  1.00  0.00     0.246 C 
ATOM     21  O   UNL A   1      44.072  42.085  21.694  1.00  0.00    -0.273 OA
ATOM     22  N   UNL A   1      42.152  43.318  21.450  1.00  0.00    -0.324 N 
ATOM     23  H   UNL A   1      41.310  43.460  21.942  1.00  0.00     0.169 HD
BRANCH  22  24
ATOM     24  C   UNL A   1      42.165  43.576  20.067  1.00  0.00     0.042 A 
ATOM     25  C   UNL A   1      40.940  43.715  19.405  1.00  0.00     0.027 A 
ATOM     26  C   UNL A   1      43.360  43.933  19.429  1.00  0.00     0.039 A 
ATOM     27  C   UNL A   1      40.889  44.284  18.133  1.00  0.00     0.015 A 
ATOM     28  C   UNL A   1      43.285  44.638  18.230  1.00  0.00     0.036 A 
ATOM     29  C   UNL A   1      42.055  44.823  17.594  1.00  0.00     0.034 A 
ATOM     30  C   UNL A   1      44.437  45.468  17.811  1.00  0.00     0.194 C 
ATOM     31  C   UNL A   1      41.946  45.833  16.525  1.00  0.00     0.194 C 
ATOM     32  O   UNL A   1      45.599  45.146  18.012  1.00  0.00    -0.289 OA
ATOM     33  C   UNL A   1      44.095  46.803  17.278  1.00  0.00     0.034 A 
ATOM     34  C   UNL A   1      42.862  46.983  16.650  1.00  0.00     0.034 A 
ATOM     35  O   UNL A   1      41.063  45.799  15.681  1.00  0.00    -0.289 OA
ATOM     36  C   UNL A   1      44.917  47.898  17.547  1.00  0.00     0.013 A 
ATOM     37  C   UNL A   1      42.431  48.262  16.295  1.00  0.00     0.013 A 
ATOM     38  C   UNL A   1      44.472  49.180  17.225  1.00  0.00     0.001 A 
ATOM     39  C   UNL A   1      43.231  49.362  16.604  1.00  0.00     0.001 A 
ENDBRANCH  22  24
ENDBRANCH  19  20
ENDBRANCH   9  19
ENDBRANCH   5   8
ENDBRANCH   3   4
ENDBRANCH   2   3
ENDBRANCH   1   2
BRANCH   1  40
ATOM     40  C   UNL A   1      48.830  36.746  26.405  1.00  0.00     0.002 C 
BRANCH  40  41
ATOM     41  C   UNL A   1      47.968  35.925  25.447  1.00  0.00     0.021 C 
BRANCH  41  42
ATOM     42  C   UNL A   1      46.501  35.749  25.818  1.00  0.00     0.116 C 
BRANCH  42  43
ATOM     43  N   UNL A   1      45.786  34.815  24.967  1.00  0.00    -0.352 N 
ATOM     44  C   UNL A   1      44.681  34.046  25.262  1.00  0.00     0.251 C 
ATOM     45  H   UNL A   1      46.140  34.717  24.053  1.00  0.00     0.163 HD
ATOM     46  O   UNL A   1      44.261  33.247  24.430  1.00  0.00    -0.269 OA
BRANCH  44  47
ATOM     47  C   UNL A   1      44.030  34.145  26.594  1.00  0.00     0.039 A 
ATOM     48  C   UNL A   1      43.291  35.270  26.964  1.00  0.00     0.014 A 
ATOM     49  C   UNL A   1      44.176  33.085  27.497  1.00  0.00     0.014 A 
ATOM     50  C   UNL A   1      42.835  35.402  28.275  1.00  0.00     0.010 A 
ATOM     51  C   UNL A   1      43.661  33.191  28.794  1.00  0.00     0.010 A 
ATOM     52  C   UNL A   1      43.028  34.371  29.209  1.00  0.00    -0.014 A 
BRANCH  52  53
ATOM     53  C   UNL A   1      42.558  34.559  30.608  1.00  0.00     0.031 A 
ATOM     54  C   UNL A   1      41.107  34.390  30.965  1.00  0.00     0.074 A 
ATOM     55  C   UNL A   1      43.460  34.813  31.576  1.00  0.00     0.049 A 
ATOM     56  N   UNL A   1      40.545  34.397  32.147  1.00  0.00    -0.248 NA
ATOM     57  C   UNL A   1      40.161  34.187  29.855  1.00  0.00     0.031 C 
ATOM     58  C   UNL A   1      44.892  35.006  31.349  1.00  0.00     0.029 A 
ATOM     59  N   UNL A   1      43.319  34.918  32.937  1.00  0.00    -0.354 N 
ATOM     60  C   UNL A   1      39.187  34.201  31.928  1.00  0.00     0.074 A 
ATOM     61  C   UNL A   1      39.002  34.115  30.495  1.00  0.00     0.031 C 
ATOM     62  C   UNL A   1      45.507  35.143  32.533  1.00  0.00     0.029 A 
ATOM     63  C   UNL A   1      44.511  35.089  33.601  1.00  0.00     0.049 A 
ATOM     64  H   UNL A   1      42.448  34.875  33.394  1.00  0.00     0.167 HD
ATOM     65  C   UNL A   1      38.188  34.085  32.836  1.00  0.00     0.034 A 
ATOM     66  C   UNL A   1      44.779  35.177  34.920  1.00  0.00     0.034 A 
ATOM     67  C   UNL A   1      38.374  34.166  34.261  1.00  0.00     0.049 A 
ATOM     68  C   UNL A   1      43.650  35.054  35.909  1.00  0.00     0.074 A 
ATOM     69  C   UNL A   1      37.420  34.054  35.258  1.00  0.00     0.029 A 
ATOM     70  N   UNL A   1      39.591  34.374  34.894  1.00  0.00    -0.354 N 
ATOM     71  N   UNL A   1      42.379  34.816  35.683  1.00  0.00    -0.248 NA
ATOM     72  C   UNL A   1      43.987  35.210  37.331  1.00  0.00     0.031 C 
ATOM     73  C   UNL A   1      38.055  34.221  36.492  1.00  0.00     0.029 A 
ATOM     74  C   UNL A   1      39.410  34.405  36.267  1.00  0.00     0.049 A 
ATOM     75  H   UNL A   1      40.454  34.483  34.435  1.00  0.00     0.167 HD
ATOM     76  C   UNL A   1      41.767  34.786  36.933  1.00  0.00     0.074 A 
ATOM     77  C   UNL A   1      42.813  34.998  37.913  1.00  0.00     0.031 C 
ATOM     78  C   UNL A   1      40.458  34.609  37.237  1.00  0.00     0.034 A 
BRANCH  65  79
ATOM     79  C   UNL A   1      36.794  33.833  32.325  1.00  0.00     0.023 A 
ATOM     80  C   UNL A   1      35.839  34.866  32.320  1.00  0.00     0.031 A 
ATOM     81  C   UNL A   1      36.393  32.546  31.925  1.00  0.00     0.131 A 
ATOM     82  C   UNL A   1      34.522  34.587  31.934  1.00  0.00     0.055 A 
ATOM     83  C   UNL A   1      35.084  32.279  31.523  1.00  0.00     0.041 A 
ATOM     84  F   UNL A   1      37.274  31.533  31.905  1.00  0.00    -0.206 F 
ATOM     85  C   UNL A   1      34.140  33.302  31.533  1.00  0.00     0.022 A 
BRANCH  82  86
ATOM     86  S   UNL A   1      33.243  35.872  31.962  1.00  0.00     0.124 S 
ATOM     87  O   UNL A   1      33.382  36.459  30.631  1.00  0.00    -0.237 OA
ATOM     88  O   UNL A   1      32.027  35.091  32.175  1.00  0.00    -0.237 OA
ATOM     89  O   UNL A   1      33.637  36.738  33.067  1.00  0.00    -0.744 OA
ENDBRANCH  82  86
ENDBRANCH  65  79
BRANCH  66  90
ATOM     90  C   UNL A   1      46.195  35.313  35.363  1.00  0.00     0.023 A 
ATOM     91  C   UNL A   1      46.962  34.186  35.702  1.00  0.00     0.031 A 
ATOM     92  C   UNL A   1      46.759  36.585  35.562  1.00  0.00     0.131 A 
ATOM     93  C   UNL A   1      48.227  34.354  36.283  1.00  0.00     0.055 A 
ATOM     94  C   UNL A   1      48.042  36.746  36.085  1.00  0.00     0.041 A 
ATOM     95  F   UNL A   1      46.057  37.689  35.262  1.00  0.00    -0.206 F 
ATOM     96  C   UNL A   1      48.776  35.627  36.466  1.00  0.00     0.022 A 
BRANCH  93  97
ATOM     97  S   UNL A   1      49.138  32.932  36.948  1.00  0.00     0.124 S 
ATOM     98  O   UNL A   1      50.497  33.206  36.493  1.00  0.00    -0.237 OA
ATOM     99  O   UNL A   1      48.911  33.074  38.384  1.00  0.00    -0.237 OA
ATOM    100  O   UNL A   1      48.483  31.785  36.329  1.00  0.00    -0.744 OA
ENDBRANCH  93  97
ENDBRANCH  66  90
BRANCH  78 101
ATOM    101  C   UNL A   1      40.053  34.652  38.688  1.00  0.00     0.023 A 
ATOM    102  C   UNL A   1      39.984  33.467  39.443  1.00  0.00     0.031 A 
ATOM    103  C   UNL A   1      39.614  35.849  39.279  1.00  0.00     0.131 A 
ATOM    104  C   UNL A   1      39.468  33.503  40.744  1.00  0.00     0.055 A 
ATOM    105  C   UNL A   1      39.127  35.885  40.585  1.00  0.00     0.041 A 
ATOM    106  F   UNL A   1      39.653  37.002  38.591  1.00  0.00    -0.206 F 
ATOM    107  C   UNL A   1      39.042  34.705  41.320  1.00  0.00     0.022 A 
BRANCH 104 108
ATOM    108  S   UNL A   1      39.264  31.984  41.715  1.00  0.00     0.124 S 
ATOM    109  O   UNL A   1      40.621  31.443  41.717  1.00  0.00    -0.237 OA
ATOM    110  O   UNL A   1      38.795  32.498  42.999  1.00  0.00    -0.237 OA
ATOM    111  O   UNL A   1      38.285  31.211  40.957  1.00  0.00    -0.744 OA
ENDBRANCH 104 108
ENDBRANCH  78 101
ENDBRANCH  52  53
ENDBRANCH  44  47
ENDBRANCH  42  43
ENDBRANCH  41  42
ENDBRANCH  40  41
ENDBRANCH   1  40
TORSDOF 19
ENDMDL
MODEL 2
REMARK VINA RESULT:     -12.3      5.990     10.651
REMARK SMILES O=C(Cn1nc(C(=O)NCCCCCCNC(=O)c2ccc(-c3c4nc(c(-c5cc(S(=O)(=O)[O-])ccc5F)c5ccc([nH]5)c(-c5cc(S(=O)(=O)[O-])ccc5F)c5nc(c(-c6cc(S(=O)(=O)[O-])ccc6F)c6ccc3[nH]6)C=C5)C=C4)cc2)c2ccccc2c1=O)Nc1ccc2c(c1)C(=O)c1ccccc1C2=O
REMARK SMILES IDX 12 1 11 2 10 3 9 4 7 5 8 6 6 8 4 9 5 10 88 11 87 12 89 13
REMARK SMILES IDX 82 14 86 15 83 16 85 17 84 18 3 19 2 20 1 21 90 22 91 24
REMARK SMILES IDX 92 25 96 26 93 27 95 28 94 29 97 30 105 31 98 32 99 33
REMARK SMILES IDX 104 34 106 35 100 36 103 37 101 38 102 39 13 40 14 41 15 42
REMARK SMILES IDX 16 43 17 44 18 46 19 47 20 48 81 49 21 50 80 51 22 52 23 53
REMARK SMILES IDX 24 54 74 55 25 56 79 57 73 58 75 59 26 60 78 61 72 62 71 63
REMARK SMILES IDX 27 65 59 66 39 67 58 68 40 69 43 70 57 71 76 72 41 73 42 74
REMARK SMILES IDX 56 76 77 77 44 78 28 79 29 80 37 81 30 82 36 83 38 84 35 85
REMARK SMILES IDX 31 86 32 87 33 88 34 89 60 90 61 91 69 92 62 93 68 94 70 95
REMARK SMILES IDX 67 96 63 97 64 98 65 99 66 100 45 101 46 102 54 103 47 104
REMARK SMILES IDX 53 105 55 106 52 107 48 108 49 109 50 110 51 111
REMARK H PARENT 9 7 90 23 16 45 75 64 43 75
REMARK Flexibility Score: inf
ROOT
ATOM      1  C   UNL A   1      48.983  38.583  26.705  1.00  0.00     0.002 C 
ENDROOT
BRANCH   1   2
ATOM      2  C   UNL A   1      48.365  39.926  27.096  1.00  0.00     0.021 C 
BRANCH   2   3
ATOM      3  C   UNL A   1      47.141  40.405  26.323  1.00  0.00     0.116 C 
BRANCH   3   4
ATOM      4  N   UNL A   1      46.836  41.815  26.478  1.00  0.00    -0.351 N 
ATOM      5  C   UNL A   1      45.611  42.406  26.711  1.00  0.00     0.272 C 
ATOM      6  O   UNL A   1      45.563  43.538  27.182  1.00  0.00    -0.267 OA
ATOM      7  H   UNL A   1      47.601  42.430  26.407  1.00  0.00     0.163 HD
BRANCH   5   8
ATOM      8  C   UNL A   1      44.310  41.684  26.334  1.00  0.00     0.156 A 
ATOM      9  N   UNL A   1      42.457  41.553  24.938  1.00  0.00    -0.219 N 
ATOM     10  N   UNL A   1      43.712  42.050  25.233  1.00  0.00    -0.163 NA
ATOM     11  C   UNL A   1      41.776  40.681  25.785  1.00  0.00     0.275 A 
ATOM     12  C   UNL A   1      42.543  40.085  26.883  1.00  0.00     0.051 A 
ATOM     13  O   UNL A   1      40.592  40.387  25.679  1.00  0.00    -0.267 OA
ATOM     14  C   UNL A   1      43.781  40.617  27.221  1.00  0.00     0.020 A 
ATOM     15  C   UNL A   1      41.991  39.017  27.607  1.00  0.00     0.014 A 
ATOM     16  C   UNL A   1      44.450  40.099  28.337  1.00  0.00     0.011 A 
ATOM     17  C   UNL A   1      42.674  38.488  28.697  1.00  0.00     0.001 A 
ATOM     18  C   UNL A   1      43.898  39.037  29.068  1.00  0.00     0.001 A 
BRANCH   9  19
ATOM     19  C   UNL A   1      41.683  42.314  23.944  1.00  0.00     0.248 C 
BRANCH  19  20
ATOM     20  C   UNL A   1      42.553  43.240  23.093  1.00  0.00     0.246 C 
ATOM     21  O   UNL A   1      42.658  44.441  23.334  1.00  0.00    -0.273 OA
ATOM     22  N   UNL A   1      43.224  42.618  22.061  1.00  0.00    -0.324 N 
ATOM     23  H   UNL A   1      43.559  41.703  22.208  1.00  0.00     0.169 HD
BRANCH  22  24
ATOM     24  C   UNL A   1      43.455  43.218  20.810  1.00  0.00     0.042 A 
ATOM     25  C   UNL A   1      42.411  43.236  19.879  1.00  0.00     0.027 A 
ATOM     26  C   UNL A   1      44.603  43.993  20.602  1.00  0.00     0.039 A 
ATOM     27  C   UNL A   1      42.467  44.084  18.774  1.00  0.00     0.015 A 
ATOM     28  C   UNL A   1      44.583  44.946  19.586  1.00  0.00     0.036 A 
ATOM     29  C   UNL A   1      43.516  44.998  18.687  1.00  0.00     0.034 A 
ATOM     30  C   UNL A   1      45.509  46.099  19.663  1.00  0.00     0.194 C 
ATOM     31  C   UNL A   1      43.348  46.196  17.841  1.00  0.00     0.194 C 
ATOM     32  O   UNL A   1      46.644  46.014  20.107  1.00  0.00    -0.289 OA
ATOM     33  C   UNL A   1      44.917  47.409  19.322  1.00  0.00     0.034 A 
ATOM     34  C   UNL A   1      43.846  47.455  18.429  1.00  0.00     0.034 A 
ATOM     35  O   UNL A   1      42.711  46.177  16.798  1.00  0.00    -0.289 OA
ATOM     36  C   UNL A   1      45.312  48.557  20.010  1.00  0.00     0.013 A 
ATOM     37  C   UNL A   1      43.150  48.646  18.221  1.00  0.00     0.013 A 
ATOM     38  C   UNL A   1      44.595  49.741  19.829  1.00  0.00     0.001 A 
ATOM     39  C   UNL A   1      43.515  49.784  18.941  1.00  0.00     0.001 A 
ENDBRANCH  22  24
ENDBRANCH  19  20
ENDBRANCH   9  19
ENDBRANCH   5   8
ENDBRANCH   3   4
ENDBRANCH   2   3
ENDBRANCH   1   2
BRANCH   1  40
ATOM     40  C   UNL A   1      50.021  37.969  27.646  1.00  0.00     0.002 C 
BRANCH  40  41
ATOM     41  C   UNL A   1      49.894  36.481  27.970  1.00  0.00     0.021 C 
BRANCH  41  42
ATOM     42  C   UNL A   1      48.518  35.983  28.397  1.00  0.00     0.116 C 
BRANCH  42  43
ATOM     43  N   UNL A   1      47.988  36.649  29.572  1.00  0.00    -0.352 N 
ATOM     44  C   UNL A   1      46.882  36.324  30.327  1.00  0.00     0.251 C 
ATOM     45  H   UNL A   1      48.488  37.443  29.872  1.00  0.00     0.163 HD
ATOM     46  O   UNL A   1      46.541  37.061  31.248  1.00  0.00    -0.269 OA
BRANCH  44  47
ATOM     47  C   UNL A   1      46.076  35.120  30.000  1.00  0.00     0.039 A 
ATOM     48  C   UNL A   1      46.221  33.928  30.714  1.00  0.00     0.014 A 
ATOM     49  C   UNL A   1      45.161  35.186  28.942  1.00  0.00     0.014 A 
ATOM     50  C   UNL A   1      45.573  32.773  30.278  1.00  0.00     0.010 A 
ATOM     51  C   UNL A   1      44.461  34.040  28.546  1.00  0.00     0.010 A 
ATOM     52  C   UNL A   1      44.698  32.812  29.179  1.00  0.00    -0.014 A 
BRANCH  52  53
ATOM     53  C   UNL A   1      44.050  31.555  28.720  1.00  0.00     0.031 A 
ATOM     54  C   UNL A   1      44.794  30.569  27.863  1.00  0.00     0.074 A 
ATOM     55  C   UNL A   1      42.802  31.268  29.141  1.00  0.00     0.049 A 
ATOM     56  N   UNL A   1      44.427  29.374  27.476  1.00  0.00    -0.248 NA
ATOM     57  C   UNL A   1      46.123  30.972  27.375  1.00  0.00     0.031 C 
ATOM     58  C   UNL A   1      41.979  32.150  29.967  1.00  0.00     0.029 A 
ATOM     59  N   UNL A   1      42.025  30.151  28.965  1.00  0.00    -0.354 N 
ATOM     60  C   UNL A   1      45.471  28.882  26.703  1.00  0.00     0.074 A 
ATOM     61  C   UNL A   1      46.475  29.924  26.644  1.00  0.00     0.031 C 
ATOM     62  C   UNL A   1      40.839  31.517  30.279  1.00  0.00     0.029 A 
ATOM     63  C   UNL A   1      40.830  30.201  29.643  1.00  0.00     0.049 A 
ATOM     64  H   UNL A   1      42.297  29.386  28.407  1.00  0.00     0.167 HD
ATOM     65  C   UNL A   1      45.593  27.669  26.111  1.00  0.00     0.034 A 
ATOM     66  C   UNL A   1      39.843  29.289  29.757  1.00  0.00     0.034 A 
ATOM     67  C   UNL A   1      44.596  26.633  26.174  1.00  0.00     0.049 A 
ATOM     68  C   UNL A   1      39.998  27.951  29.083  1.00  0.00     0.074 A 
ATOM     69  C   UNL A   1      44.635  25.370  25.610  1.00  0.00     0.029 A 
ATOM     70  N   UNL A   1      43.384  26.734  26.842  1.00  0.00    -0.354 N 
ATOM     71  N   UNL A   1      41.017  27.486  28.399  1.00  0.00    -0.248 NA
ATOM     72  C   UNL A   1      38.872  27.013  29.193  1.00  0.00     0.031 C 
ATOM     73  C   UNL A   1      43.438  24.716  25.914  1.00  0.00     0.029 A 
ATOM     74  C   UNL A   1      42.664  25.560  26.695  1.00  0.00     0.049 A 
ATOM     75  H   UNL A   1      43.082  27.523  27.347  1.00  0.00     0.167 HD
ATOM     76  C   UNL A   1      40.660  26.200  28.006  1.00  0.00     0.074 A 
ATOM     77  C   UNL A   1      39.342  25.949  28.554  1.00  0.00     0.031 C 
ATOM     78  C   UNL A   1      41.355  25.315  27.250  1.00  0.00     0.034 A 
BRANCH  65  79
ATOM     79  C   UNL A   1      46.862  27.376  25.356  1.00  0.00     0.023 A 
ATOM     80  C   UNL A   1      46.976  27.714  23.995  1.00  0.00     0.031 A 
ATOM     81  C   UNL A   1      47.921  26.680  25.966  1.00  0.00     0.131 A 
ATOM     82  C   UNL A   1      48.125  27.344  23.285  1.00  0.00     0.055 A 
ATOM     83  C   UNL A   1      49.072  26.331  25.258  1.00  0.00     0.041 A 
ATOM     84  F   UNL A   1      47.857  26.345  27.264  1.00  0.00    -0.206 F 
ATOM     85  C   UNL A   1      49.174  26.658  23.909  1.00  0.00     0.022 A 
BRANCH  82  86
ATOM     86  S   UNL A   1      48.297  27.712  21.518  1.00  0.00     0.124 S 
ATOM     87  O   UNL A   1      49.344  28.732  21.527  1.00  0.00    -0.237 OA
ATOM     88  O   UNL A   1      48.694  26.417  20.971  1.00  0.00    -0.237 OA
ATOM     89  O   UNL A   1      46.974  28.183  21.126  1.00  0.00    -0.744 OA
ENDBRANCH  82  86
ENDBRANCH  65  79
BRANCH  66  90
ATOM     90  C   UNL A   1      38.664  29.601  30.613  1.00  0.00     0.023 A 
ATOM     91  C   UNL A   1      37.684  30.517  30.193  1.00  0.00     0.031 A 
ATOM     92  C   UNL A   1      38.566  29.073  31.911  1.00  0.00     0.131 A 
ATOM     93  C   UNL A   1      36.685  30.926  31.087  1.00  0.00     0.055 A 
ATOM     94  C   UNL A   1      37.536  29.437  32.778  1.00  0.00     0.041 A 
ATOM     95  F   UNL A   1      39.487  28.204  32.357  1.00  0.00    -0.206 F 
ATOM     96  C   UNL A   1      36.598  30.382  32.373  1.00  0.00     0.022 A 
BRANCH  93  97
ATOM     97  S   UNL A   1      35.553  32.277  30.658  1.00  0.00     0.124 S 
ATOM     98  O   UNL A   1      34.618  32.255  31.779  1.00  0.00    -0.237 OA
ATOM     99  O   UNL A   1      36.457  33.424  30.611  1.00  0.00    -0.237 OA
ATOM    100  O   UNL A   1      35.005  31.869  29.369  1.00  0.00    -0.744 OA
ENDBRANCH  93  97
ENDBRANCH  66  90
BRANCH  78 101
ATOM    101  C   UNL A   1      40.716  23.985  26.942  1.00  0.00     0.023 A 
ATOM    102  C   UNL A   1      39.467  23.929  26.297  1.00  0.00     0.031 A 
ATOM    103  C   UNL A   1      41.287  22.786  27.402  1.00  0.00     0.131 A 
ATOM    104  C   UNL A   1      38.819  22.696  26.148  1.00  0.00     0.055 A 
ATOM    105  C   UNL A   1      40.651  21.558  27.227  1.00  0.00     0.041 A 
ATOM    106  F   UNL A   1      42.474  22.796  28.032  1.00  0.00    -0.206 F 
ATOM    107  C   UNL A   1      39.406  21.511  26.607  1.00  0.00     0.022 A 
BRANCH 104 108
ATOM    108  S   UNL A   1      37.163  22.589  25.418  1.00  0.00     0.124 S 
ATOM    109  O   UNL A   1      36.844  21.175  25.599  1.00  0.00    -0.237 OA
ATOM    110  O   UNL A   1      36.397  23.514  26.249  1.00  0.00    -0.237 OA
ATOM    111  O   UNL A   1      37.361  23.011  24.035  1.00  0.00    -0.744 OA
ENDBRANCH 104 108
ENDBRANCH  78 101
ENDBRANCH  52  53
ENDBRANCH  44  47
ENDBRANCH  42  43
ENDBRANCH  41  42
ENDBRANCH  40  41
ENDBRANCH   1  40
TORSDOF 19
ENDMDL
MODEL 3
REMARK VINA RESULT:     -12.3      8.035     16.107
REMARK SMILES O=C(Cn1nc(C(=O)NCCCCCCNC(=O)c2ccc(-c3c4nc(c(-c5cc(S(=O)(=O)[O-])ccc5F)c5ccc([nH]5)c(-c5cc(S(=O)(=O)[O-])ccc5F)c5nc(c(-c6cc(S(=O)(=O)[O-])ccc6F)c6ccc3[nH]6)C=C5)C=C4)cc2)c2ccccc2c1=O)Nc1ccc2c(c1)C(=O)c1ccccc1C2=O
REMARK SMILES IDX 12 1 11 2 10 3 9 4 7 5 8 6 6 8 4 9 5 10 88 11 87 12 89 13
REMARK SMILES IDX 82 14 86 15 83 16 85 17 84 18 3 19 2 20 1 21 90 22 91 24
REMARK SMILES IDX 92 25 96 26 93 27 95 28 94 29 97 30 105 31 98 32 99 33
REMARK SMILES IDX 104 34 106 35 100 36 103 37 101 38 102 39 13 40 14 41 15 42
REMARK SMILES IDX 16 43 17 44 18 46 19 47 20 48 81 49 21 50 80 51 22 52 23 53
REMARK SMILES IDX 24 54 74 55 25 56 79 57 73 58 75 59 26 60 78 61 72 62 71 63
REMARK SMILES IDX 27 65 59 66 39 67 58 68 40 69 43 70 57 71 76 72 41 73 42 74
REMARK SMILES IDX 56 76 77 77 44 78 28 79 29 80 37 81 30 82 36 83 38 84 35 85
REMARK SMILES IDX 31 86 32 87 33 88 34 89 60 90 61 91 69 92 62 93 68 94 70 95
REMARK SMILES IDX 67 96 63 97 64 98 65 99 66 100 45 101 46 102 54 103 47 104
REMARK SMILES IDX 53 105 55 106 52 107 48 108 49 109 50 110 51 111
REMARK H PARENT 9 7 90 23 16 45 75 64 43 75
REMARK Flexibility Score: inf
ROOT
ATOM      1  C   UNL A   1      41.068  27.570  29.136  1.00  0.00     0.002 C 
ENDROOT
BRANCH   1   2
ATOM      2  C   UNL A   1      41.917  26.309  28.970  1.00  0.00     0.021 C 
BRANCH   2   3
ATOM      3  C   UNL A   1      43.258  26.436  28.256  1.00  0.00     0.116 C 
BRANCH   3   4
ATOM      4  N   UNL A   1      43.182  26.955  26.903  1.00  0.00    -0.351 N 
ATOM      5  C   UNL A   1      42.560  26.397  25.805  1.00  0.00     0.272 C 
ATOM      6  O   UNL A   1      42.262  27.107  24.850  1.00  0.00    -0.267 OA
ATOM      7  H   UNL A   1      43.631  27.817  26.749  1.00  0.00     0.163 HD
BRANCH   5   8
ATOM      8  C   UNL A   1      42.292  24.887  25.743  1.00  0.00     0.156 A 
ATOM      9  N   UNL A   1      40.837  23.121  26.150  1.00  0.00    -0.219 N 
ATOM     10  N   UNL A   1      41.086  24.475  26.026  1.00  0.00    -0.163 NA
ATOM     11  C   UNL A   1      41.834  22.158  26.008  1.00  0.00     0.275 A 
ATOM     12  C   UNL A   1      43.115  22.603  25.451  1.00  0.00     0.051 A 
ATOM     13  O   UNL A   1      41.715  20.979  26.318  1.00  0.00    -0.267 OA
ATOM     14  C   UNL A   1      43.393  23.962  25.376  1.00  0.00     0.020 A 
ATOM     15  C   UNL A   1      44.059  21.645  25.048  1.00  0.00     0.014 A 
ATOM     16  C   UNL A   1      44.662  24.362  24.937  1.00  0.00     0.011 A 
ATOM     17  C   UNL A   1      45.307  22.051  24.586  1.00  0.00     0.001 A 
ATOM     18  C   UNL A   1      45.611  23.408  24.542  1.00  0.00     0.001 A 
BRANCH   9  19
ATOM     19  C   UNL A   1      39.609  22.759  26.876  1.00  0.00     0.248 C 
BRANCH  19  20
ATOM     20  C   UNL A   1      38.337  23.073  26.089  1.00  0.00     0.246 C 
ATOM     21  O   UNL A   1      37.582  23.991  26.408  1.00  0.00    -0.273 OA
ATOM     22  N   UNL A   1      38.122  22.270  24.989  1.00  0.00    -0.324 N 
ATOM     23  H   UNL A   1      38.905  21.973  24.469  1.00  0.00     0.169 HD
BRANCH  22  24
ATOM     24  C   UNL A   1      36.847  21.850  24.569  1.00  0.00     0.042 A 
ATOM     25  C   UNL A   1      36.308  20.691  25.139  1.00  0.00     0.027 A 
ATOM     26  C   UNL A   1      36.043  22.701  23.801  1.00  0.00     0.039 A 
ATOM     27  C   UNL A   1      34.948  20.412  25.013  1.00  0.00     0.015 A 
ATOM     28  C   UNL A   1      34.665  22.498  23.810  1.00  0.00     0.036 A 
ATOM     29  C   UNL A   1      34.122  21.367  24.424  1.00  0.00     0.034 A 
ATOM     30  C   UNL A   1      33.769  23.628  23.475  1.00  0.00     0.194 C 
ATOM     31  C   UNL A   1      32.675  21.333  24.713  1.00  0.00     0.194 C 
ATOM     32  O   UNL A   1      34.041  24.467  22.629  1.00  0.00    -0.289 OA
ATOM     33  C   UNL A   1      32.587  23.780  24.349  1.00  0.00     0.034 A 
ATOM     34  C   UNL A   1      32.053  22.647  24.965  1.00  0.00     0.034 A 
ATOM     35  O   UNL A   1      32.066  20.287  24.880  1.00  0.00    -0.289 OA
ATOM     36  C   UNL A   1      32.121  25.052  24.683  1.00  0.00     0.013 A 
ATOM     37  C   UNL A   1      31.055  22.774  25.932  1.00  0.00     0.013 A 
ATOM     38  C   UNL A   1      31.147  25.182  25.675  1.00  0.00     0.001 A 
ATOM     39  C   UNL A   1      30.619  24.047  26.300  1.00  0.00     0.001 A 
ENDBRANCH  22  24
ENDBRANCH  19  20
ENDBRANCH   9  19
ENDBRANCH   5   8
ENDBRANCH   3   4
ENDBRANCH   2   3
ENDBRANCH   1   2
BRANCH   1  40
ATOM     40  C   UNL A   1      39.593  27.501  28.735  1.00  0.00     0.002 C 
BRANCH  40  41
ATOM     41  C   UNL A   1      38.554  27.460  29.855  1.00  0.00     0.021 C 
BRANCH  41  42
ATOM     42  C   UNL A   1      39.081  27.396  31.284  1.00  0.00     0.116 C 
BRANCH  42  43
ATOM     43  N   UNL A   1      38.349  28.229  32.219  1.00  0.00    -0.352 N 
ATOM     44  C   UNL A   1      38.555  29.553  32.543  1.00  0.00     0.251 C 
ATOM     45  H   UNL A   1      37.603  27.789  32.687  1.00  0.00     0.163 HD
ATOM     46  O   UNL A   1      37.876  30.072  33.426  1.00  0.00    -0.269 OA
BRANCH  44  47
ATOM     47  C   UNL A   1      39.621  30.336  31.867  1.00  0.00     0.039 A 
ATOM     48  C   UNL A   1      39.466  30.803  30.560  1.00  0.00     0.014 A 
ATOM     49  C   UNL A   1      40.809  30.598  32.560  1.00  0.00     0.014 A 
ATOM     50  C   UNL A   1      40.545  31.389  29.899  1.00  0.00     0.010 A 
ATOM     51  C   UNL A   1      41.870  31.245  31.915  1.00  0.00     0.010 A 
ATOM     52  C   UNL A   1      41.764  31.602  30.564  1.00  0.00    -0.014 A 
BRANCH  52  53
ATOM     53  C   UNL A   1      42.905  32.199  29.819  1.00  0.00     0.031 A 
ATOM     54  C   UNL A   1      42.935  33.668  29.498  1.00  0.00     0.074 A 
ATOM     55  C   UNL A   1      43.955  31.421  29.492  1.00  0.00     0.049 A 
ATOM     56  N   UNL A   1      43.901  34.374  28.967  1.00  0.00    -0.248 NA
ATOM     57  C   UNL A   1      41.728  34.449  29.814  1.00  0.00     0.031 C 
ATOM     58  C   UNL A   1      44.036  29.983  29.743  1.00  0.00     0.029 A 
ATOM     59  N   UNL A   1      45.162  31.729  28.915  1.00  0.00    -0.354 N 
ATOM     60  C   UNL A   1      43.423  35.676  28.883  1.00  0.00     0.074 A 
ATOM     61  C   UNL A   1      42.066  35.658  29.385  1.00  0.00     0.031 C 
ATOM     62  C   UNL A   1      45.250  29.543  29.381  1.00  0.00     0.029 A 
ATOM     63  C   UNL A   1      46.021  30.658  28.835  1.00  0.00     0.049 A 
ATOM     64  H   UNL A   1      45.391  32.630  28.590  1.00  0.00     0.167 HD
ATOM     65  C   UNL A   1      44.061  36.788  28.445  1.00  0.00     0.034 A 
ATOM     66  C   UNL A   1      47.292  30.581  28.389  1.00  0.00     0.034 A 
ATOM     67  C   UNL A   1      45.412  36.806  27.950  1.00  0.00     0.049 A 
ATOM     68  C   UNL A   1      47.976  31.830  27.899  1.00  0.00     0.074 A 
ATOM     69  C   UNL A   1      46.143  37.888  27.491  1.00  0.00     0.029 A 
ATOM     70  N   UNL A   1      46.239  35.696  27.853  1.00  0.00    -0.354 N 
ATOM     71  N   UNL A   1      47.525  33.061  27.877  1.00  0.00    -0.248 NA
ATOM     72  C   UNL A   1      49.341  31.681  27.375  1.00  0.00     0.031 C 
ATOM     73  C   UNL A   1      47.402  37.429  27.091  1.00  0.00     0.029 A 
ATOM     74  C   UNL A   1      47.467  36.066  27.330  1.00  0.00     0.049 A 
ATOM     75  H   UNL A   1      45.989  34.781  28.116  1.00  0.00     0.167 HD
ATOM     76  C   UNL A   1      48.551  33.836  27.345  1.00  0.00     0.074 A 
ATOM     77  C   UNL A   1      49.658  32.938  27.088  1.00  0.00     0.031 C 
ATOM     78  C   UNL A   1      48.568  35.166  27.084  1.00  0.00     0.034 A 
BRANCH  65  79
ATOM     79  C   UNL A   1      43.318  38.097  28.499  1.00  0.00     0.023 A 
ATOM     80  C   UNL A   1      43.470  38.959  29.600  1.00  0.00     0.031 A 
ATOM     81  C   UNL A   1      42.393  38.444  27.497  1.00  0.00     0.131 A 
ATOM     82  C   UNL A   1      42.696  40.124  29.677  1.00  0.00     0.055 A 
ATOM     83  C   UNL A   1      41.638  39.615  27.571  1.00  0.00     0.041 A 
ATOM     84  F   UNL A   1      42.223  37.654  26.425  1.00  0.00    -0.206 F 
ATOM     85  C   UNL A   1      41.784  40.457  28.669  1.00  0.00     0.022 A 
BRANCH  82  86
ATOM     86  S   UNL A   1      42.818  41.240  31.102  1.00  0.00     0.124 S 
ATOM     87  O   UNL A   1      43.260  42.481  30.469  1.00  0.00    -0.237 OA
ATOM     88  O   UNL A   1      41.446  41.250  31.603  1.00  0.00    -0.237 OA
ATOM     89  O   UNL A   1      43.800  40.599  31.967  1.00  0.00    -0.744 OA
ENDBRANCH  82  86
ENDBRANCH  65  79
BRANCH  66  90
ATOM     90  C   UNL A   1      48.008  29.276  28.468  1.00  0.00     0.023 A 
ATOM     91  C   UNL A   1      48.017  28.386  27.381  1.00  0.00     0.031 A 
ATOM     92  C   UNL A   1      48.592  28.857  29.675  1.00  0.00     0.131 A 
ATOM     93  C   UNL A   1      48.543  27.097  27.542  1.00  0.00     0.055 A 
ATOM     94  C   UNL A   1      49.168  27.594  29.814  1.00  0.00     0.041 A 
ATOM     95  F   UNL A   1      48.595  29.671  30.742  1.00  0.00    -0.206 F 
ATOM     96  C   UNL A   1      49.129  26.700  28.748  1.00  0.00     0.022 A 
BRANCH  93  97
ATOM     97  S   UNL A   1      48.357  25.849  26.237  1.00  0.00     0.124 S 
ATOM     98  O   UNL A   1      47.345  26.458  25.381  1.00  0.00    -0.237 OA
ATOM     99  O   UNL A   1      49.706  25.793  25.680  1.00  0.00    -0.237 OA
ATOM    100  O   UNL A   1      47.938  24.655  26.962  1.00  0.00    -0.744 OA
ENDBRANCH  93  97
ENDBRANCH  66  90
BRANCH  78 101
ATOM    101  C   UNL A   1      49.812  35.755  26.470  1.00  0.00     0.023 A 
ATOM    102  C   UNL A   1      50.772  36.390  27.278  1.00  0.00     0.031 A 
ATOM    103  C   UNL A   1      49.978  35.795  25.075  1.00  0.00     0.131 A 
ATOM    104  C   UNL A   1      51.849  37.058  26.681  1.00  0.00     0.055 A 
ATOM    105  C   UNL A   1      51.067  36.438  24.486  1.00  0.00     0.041 A 
ATOM    106  F   UNL A   1      49.080  35.210  24.266  1.00  0.00    -0.206 F 
ATOM    107  C   UNL A   1      52.002  37.083  25.290  1.00  0.00     0.022 A 
BRANCH 104 108
ATOM    108  S   UNL A   1      53.052  37.979  27.678  1.00  0.00     0.124 S 
ATOM    109  O   UNL A   1      53.202  39.211  26.908  1.00  0.00    -0.237 OA
ATOM    110  O   UNL A   1      52.353  38.121  28.953  1.00  0.00    -0.237 OA
ATOM    111  O   UNL A   1      54.225  37.111  27.703  1.00  0.00    -0.744 OA
ENDBRANCH 104 108
ENDBRANCH  78 101
ENDBRANCH  52  53
ENDBRANCH  44  47
ENDBRANCH  42  43
ENDBRANCH  41  42
ENDBRANCH  40  41
ENDBRANCH   1  40
TORSDOF 19
ENDMDL
