MODEL 1
REMARK VINA RESULT:     -11.3      0.000      0.000
REMARK SMILES CC(C)(C)c1ccc(NC(=O)CCC(=O)NCCCCCCNC(=O)c2ccc(-c3c4nc(c(-c5cc(S(=O)(=O)[O-])ccc5F)c5ccc([nH]5)c(-c5cc(S(=O)(=O)[O-])ccc5F)c5nc(c(-c6cc(S(=O)(=O)[O-])ccc6F)c6ccc3[nH]6)C=C5)C=C4)cc2)cc1
REMARK SMILES IDX 19 1 18 2 17 3 16 4 14 5 15 6 13 8 12 9 10 10 9 11 11 13
REMARK SMILES IDX 8 14 5 15 6 16 90 17 7 18 89 19 2 20 1 21 3 22 4 23 20 24
REMARK SMILES IDX 21 25 22 26 23 27 24 28 25 30 26 31 27 32 88 33 28 34 87 35
REMARK SMILES IDX 29 36 30 37 31 38 81 39 32 40 86 41 80 42 82 43 33 44 85 45
REMARK SMILES IDX 79 46 78 47 34 49 66 50 46 51 65 52 47 53 50 54 64 55 83 56
REMARK SMILES IDX 48 57 49 58 63 60 84 61 51 62 35 63 36 64 44 65 37 66 43 67
REMARK SMILES IDX 45 68 42 69 38 70 39 71 40 72 41 73 67 74 68 75 76 76 69 77
REMARK SMILES IDX 75 78 77 79 74 80 70 81 71 82 72 83 73 84 52 85 53 86 61 87
REMARK SMILES IDX 54 88 60 89 62 90 59 91 55 92 56 93 57 94 58 95
REMARK H PARENT 16 7 9 12 23 29 82 48 50 59
REMARK Flexibility Score: inf
ROOT
ATOM      1  C   UNL A   1      33.448  27.919  26.698  1.00  0.00     0.002 C 
ENDROOT
BRANCH   1   2
ATOM      2  C   UNL A   1      33.518  26.558  25.999  1.00  0.00     0.021 C 
BRANCH   2   3
ATOM      3  C   UNL A   1      33.155  26.567  24.517  1.00  0.00     0.116 C 
BRANCH   3   4
ATOM      4  N   UNL A   1      31.776  26.958  24.278  1.00  0.00    -0.356 N 
ATOM      5  C   UNL A   1      30.623  26.264  24.475  1.00  0.00     0.220 C 
ATOM      6  O   UNL A   1      29.545  26.836  24.303  1.00  0.00    -0.275 OA
ATOM      7  H   UNL A   1      31.658  27.867  23.919  1.00  0.00     0.163 HD
BRANCH   5   8
ATOM      8  C   UNL A   1      30.667  24.812  24.892  1.00  0.00     0.110 C 
BRANCH   8   9
ATOM      9  C   UNL A   1      30.684  24.611  26.401  1.00  0.00     0.110 C 
BRANCH   9  10
ATOM     10  C   UNL A   1      30.413  23.188  26.838  1.00  0.00     0.224 C 
ATOM     11  N   UNL A   1      31.310  22.173  26.678  1.00  0.00    -0.326 N 
ATOM     12  H   UNL A   1      30.996  21.302  27.014  1.00  0.00     0.169 HD
ATOM     13  O   UNL A   1      29.374  22.933  27.458  1.00  0.00    -0.275 OA
BRANCH  11  14
ATOM     14  C   UNL A   1      32.596  22.142  26.125  1.00  0.00     0.041 A 
ATOM     15  C   UNL A   1      35.273  22.315  25.201  1.00  0.00    -0.042 A 
ATOM     16  C   UNL A   1      34.180  22.362  24.317  1.00  0.00     0.006 A 
ATOM     17  C   UNL A   1      34.989  22.088  26.554  1.00  0.00     0.006 A 
ATOM     18  C   UNL A   1      32.862  22.271  24.771  1.00  0.00     0.026 A 
ATOM     19  C   UNL A   1      33.668  21.975  27.004  1.00  0.00     0.026 A 
BRANCH  15  20
ATOM     20  C   UNL A   1      36.703  22.469  24.662  1.00  0.00    -0.013 C 
ATOM     21  C   UNL A   1      37.577  21.208  24.838  1.00  0.00     0.016 C 
ATOM     22  C   UNL A   1      37.436  23.621  25.389  1.00  0.00     0.016 C 
ATOM     23  C   UNL A   1      36.623  22.784  23.155  1.00  0.00     0.016 C 
ENDBRANCH  15  20
ENDBRANCH  11  14
ENDBRANCH   9  10
ENDBRANCH   8   9
ENDBRANCH   5   8
ENDBRANCH   3   4
ENDBRANCH   2   3
ENDBRANCH   1   2
BRANCH   1  24
ATOM     24  C   UNL A   1      32.085  28.268  27.297  1.00  0.00     0.002 C 
BRANCH  24  25
ATOM     25  C   UNL A   1      31.542  29.646  26.917  1.00  0.00     0.021 C 
BRANCH  25  26
ATOM     26  C   UNL A   1      32.566  30.608  26.323  1.00  0.00     0.116 C 
BRANCH  26  27
ATOM     27  N   UNL A   1      32.333  31.988  26.715  1.00  0.00    -0.352 N 
ATOM     28  C   UNL A   1      33.124  32.794  27.507  1.00  0.00     0.251 C 
ATOM     29  H   UNL A   1      31.505  32.398  26.374  1.00  0.00     0.163 HD
ATOM     30  O   UNL A   1      32.748  33.894  27.860  1.00  0.00    -0.269 OA
BRANCH  28  31
ATOM     31  C   UNL A   1      34.432  32.257  27.941  1.00  0.00     0.039 A 
ATOM     32  C   UNL A   1      35.539  33.107  27.958  1.00  0.00     0.014 A 
ATOM     33  C   UNL A   1      34.518  30.954  28.438  1.00  0.00     0.014 A 
ATOM     34  C   UNL A   1      36.724  32.672  28.553  1.00  0.00     0.010 A 
ATOM     35  C   UNL A   1      35.682  30.544  29.079  1.00  0.00     0.010 A 
ATOM     36  C   UNL A   1      36.789  31.406  29.159  1.00  0.00    -0.014 A 
BRANCH  36  37
ATOM     37  C   UNL A   1      37.994  30.967  29.908  1.00  0.00     0.031 A 
ATOM     38  C   UNL A   1      38.951  29.998  29.275  1.00  0.00     0.074 A 
ATOM     39  C   UNL A   1      38.176  31.374  31.181  1.00  0.00     0.049 A 
ATOM     40  N   UNL A   1      39.983  29.390  29.800  1.00  0.00    -0.248 NA
ATOM     41  C   UNL A   1      38.695  29.648  27.870  1.00  0.00     0.031 C 
ATOM     42  C   UNL A   1      37.301  32.296  31.907  1.00  0.00     0.029 A 
ATOM     43  N   UNL A   1      39.147  31.051  32.096  1.00  0.00    -0.354 N 
ATOM     44  C   UNL A   1      40.497  28.580  28.794  1.00  0.00     0.074 A 
ATOM     45  C   UNL A   1      39.627  28.734  27.646  1.00  0.00     0.031 C 
ATOM     46  C   UNL A   1      37.781  32.473  33.149  1.00  0.00     0.029 A 
ATOM     47  C   UNL A   1      38.965  31.640  33.328  1.00  0.00     0.049 A 
ATOM     48  H   UNL A   1      39.904  30.456  31.891  1.00  0.00     0.167 HD
ATOM     49  C   UNL A   1      41.604  27.798  28.819  1.00  0.00     0.034 A 
ATOM     50  C   UNL A   1      39.660  31.502  34.475  1.00  0.00     0.034 A 
ATOM     51  C   UNL A   1      42.461  27.662  29.970  1.00  0.00     0.049 A 
ATOM     52  C   UNL A   1      40.847  30.572  34.497  1.00  0.00     0.074 A 
ATOM     53  C   UNL A   1      43.635  26.938  30.090  1.00  0.00     0.029 A 
ATOM     54  N   UNL A   1      42.233  28.253  31.206  1.00  0.00    -0.354 N 
ATOM     55  N   UNL A   1      41.345  29.844  33.524  1.00  0.00    -0.248 NA
ATOM     56  C   UNL A   1      41.564  30.440  35.773  1.00  0.00     0.031 C 
ATOM     57  C   UNL A   1      44.082  27.042  31.412  1.00  0.00     0.029 A 
ATOM     58  C   UNL A   1      43.223  27.883  32.101  1.00  0.00     0.049 A 
ATOM     59  H   UNL A   1      41.477  28.850  31.414  1.00  0.00     0.167 HD
ATOM     60  C   UNL A   1      42.447  29.188  34.065  1.00  0.00     0.074 A 
ATOM     61  C   UNL A   1      42.551  29.618  35.445  1.00  0.00     0.031 C 
ATOM     62  C   UNL A   1      43.299  28.311  33.477  1.00  0.00     0.034 A 
BRANCH  49  63
ATOM     63  C   UNL A   1      41.931  27.020  27.571  1.00  0.00     0.023 A 
ATOM     64  C   UNL A   1      41.741  25.628  27.503  1.00  0.00     0.031 A 
ATOM     65  C   UNL A   1      42.454  27.670  26.440  1.00  0.00     0.131 A 
ATOM     66  C   UNL A   1      42.136  24.924  26.356  1.00  0.00     0.055 A 
ATOM     67  C   UNL A   1      42.776  26.974  25.274  1.00  0.00     0.041 A 
ATOM     68  F   UNL A   1      42.674  28.995  26.454  1.00  0.00    -0.206 F 
ATOM     69  C   UNL A   1      42.629  25.590  25.231  1.00  0.00     0.022 A 
BRANCH  66  70
ATOM     70  S   UNL A   1      42.112  23.111  26.403  1.00  0.00     0.124 S 
ATOM     71  O   UNL A   1      43.169  22.828  27.371  1.00  0.00    -0.237 OA
ATOM     72  O   UNL A   1      40.751  22.824  26.843  1.00  0.00    -0.237 OA
ATOM     73  O   UNL A   1      42.416  22.728  25.027  1.00  0.00    -0.744 OA
ENDBRANCH  66  70
ENDBRANCH  49  63
BRANCH  50  74
ATOM     74  C   UNL A   1      39.244  32.226  35.712  1.00  0.00     0.023 A 
ATOM     75  C   UNL A   1      38.545  31.562  36.733  1.00  0.00     0.031 A 
ATOM     76  C   UNL A   1      39.479  33.604  35.863  1.00  0.00     0.131 A 
ATOM     77  C   UNL A   1      38.063  32.284  37.835  1.00  0.00     0.055 A 
ATOM     78  C   UNL A   1      39.043  34.308  36.987  1.00  0.00     0.041 A 
ATOM     79  F   UNL A   1      40.143  34.288  34.918  1.00  0.00    -0.206 F 
ATOM     80  C   UNL A   1      38.317  33.651  37.975  1.00  0.00     0.022 A 
BRANCH  77  81
ATOM     81  S   UNL A   1      37.008  31.429  39.038  1.00  0.00     0.124 S 
ATOM     82  O   UNL A   1      37.861  31.412  40.222  1.00  0.00    -0.237 OA
ATOM     83  O   UNL A   1      35.845  32.307  39.098  1.00  0.00    -0.237 OA
ATOM     84  O   UNL A   1      36.773  30.126  38.420  1.00  0.00    -0.744 OA
ENDBRANCH  77  81
ENDBRANCH  50  74
BRANCH  62  85
ATOM     85  C   UNL A   1      44.432  27.790  34.322  1.00  0.00     0.023 A 
ATOM     86  C   UNL A   1      44.313  26.595  35.054  1.00  0.00     0.031 A 
ATOM     87  C   UNL A   1      45.647  28.493  34.392  1.00  0.00     0.131 A 
ATOM     88  C   UNL A   1      45.377  26.161  35.858  1.00  0.00     0.055 A 
ATOM     89  C   UNL A   1      46.720  28.029  35.153  1.00  0.00     0.041 A 
ATOM     90  F   UNL A   1      45.811  29.640  33.712  1.00  0.00    -0.206 F 
ATOM     91  C   UNL A   1      46.585  26.862  35.899  1.00  0.00     0.022 A 
BRANCH  88  92
ATOM     92  S   UNL A   1      45.140  24.695  36.899  1.00  0.00     0.124 S 
ATOM     93  O   UNL A   1      46.459  24.536  37.502  1.00  0.00    -0.237 OA
ATOM     94  O   UNL A   1      44.074  25.118  37.801  1.00  0.00    -0.237 OA
ATOM     95  O   UNL A   1      44.764  23.654  35.944  1.00  0.00    -0.744 OA
ENDBRANCH  88  92
ENDBRANCH  62  85
ENDBRANCH  36  37
ENDBRANCH  28  31
ENDBRANCH  26  27
ENDBRANCH  25  26
ENDBRANCH  24  25
ENDBRANCH   1  24
TORSDOF 20
ENDMDL
MODEL 2
REMARK VINA RESULT:     -11.3      5.111     10.144
REMARK SMILES CC(C)(C)c1ccc(NC(=O)CCC(=O)NCCCCCCNC(=O)c2ccc(-c3c4nc(c(-c5cc(S(=O)(=O)[O-])ccc5F)c5ccc([nH]5)c(-c5cc(S(=O)(=O)[O-])ccc5F)c5nc(c(-c6cc(S(=O)(=O)[O-])ccc6F)c6ccc3[nH]6)C=C5)C=C4)cc2)cc1
REMARK SMILES IDX 19 1 18 2 17 3 16 4 14 5 15 6 13 8 12 9 10 10 9 11 11 13
REMARK SMILES IDX 8 14 5 15 6 16 90 17 7 18 89 19 2 20 1 21 3 22 4 23 20 24
REMARK SMILES IDX 21 25 22 26 23 27 24 28 25 30 26 31 27 32 88 33 28 34 87 35
REMARK SMILES IDX 29 36 30 37 31 38 81 39 32 40 86 41 80 42 82 43 33 44 85 45
REMARK SMILES IDX 79 46 78 47 34 49 66 50 46 51 65 52 47 53 50 54 64 55 83 56
REMARK SMILES IDX 48 57 49 58 63 60 84 61 51 62 35 63 36 64 44 65 37 66 43 67
REMARK SMILES IDX 45 68 42 69 38 70 39 71 40 72 41 73 67 74 68 75 76 76 69 77
REMARK SMILES IDX 75 78 77 79 74 80 70 81 71 82 72 83 73 84 52 85 53 86 61 87
REMARK SMILES IDX 54 88 60 89 62 90 59 91 55 92 56 93 57 94 58 95
REMARK H PARENT 16 7 9 12 23 29 82 48 50 59
REMARK Flexibility Score: inf
ROOT
ATOM      1  C   UNL A   1      36.461  24.051  25.113  1.00  0.00     0.002 C 
ENDROOT
BRANCH   1   2
ATOM      2  C   UNL A   1      35.083  24.378  25.695  1.00  0.00     0.021 C 
BRANCH   2   3
ATOM      3  C   UNL A   1      34.217  25.302  24.844  1.00  0.00     0.116 C 
BRANCH   3   4
ATOM      4  N   UNL A   1      33.192  25.981  25.617  1.00  0.00    -0.356 N 
ATOM      5  C   UNL A   1      32.016  25.512  26.115  1.00  0.00     0.220 C 
ATOM      6  O   UNL A   1      31.341  26.243  26.842  1.00  0.00    -0.275 OA
ATOM      7  H   UNL A   1      33.377  26.928  25.811  1.00  0.00     0.163 HD
BRANCH   5   8
ATOM      8  C   UNL A   1      31.545  24.117  25.774  1.00  0.00     0.110 C 
BRANCH   8   9
ATOM      9  C   UNL A   1      30.647  24.059  24.546  1.00  0.00     0.110 C 
BRANCH   9  10
ATOM     10  C   UNL A   1      31.385  24.210  23.234  1.00  0.00     0.224 C 
ATOM     11  N   UNL A   1      32.118  23.208  22.668  1.00  0.00    -0.326 N 
ATOM     12  H   UNL A   1      32.539  23.451  21.812  1.00  0.00     0.169 HD
ATOM     13  O   UNL A   1      31.250  25.250  22.580  1.00  0.00    -0.275 OA
BRANCH  11  14
ATOM     14  C   UNL A   1      32.382  21.896  23.084  1.00  0.00     0.041 A 
ATOM     15  C   UNL A   1      33.221  19.311  23.897  1.00  0.00    -0.042 A 
ATOM     16  C   UNL A   1      32.292  19.495  22.857  1.00  0.00     0.006 A 
ATOM     17  C   UNL A   1      33.651  20.457  24.578  1.00  0.00     0.006 A 
ATOM     18  C   UNL A   1      31.874  20.768  22.460  1.00  0.00     0.026 A 
ATOM     19  C   UNL A   1      33.214  21.731  24.194  1.00  0.00     0.026 A 
BRANCH  15  20
ATOM     20  C   UNL A   1      33.690  17.896  24.265  1.00  0.00    -0.013 C 
ATOM     21  C   UNL A   1      33.593  16.882  23.104  1.00  0.00     0.016 C 
ATOM     22  C   UNL A   1      32.839  17.326  25.424  1.00  0.00     0.016 C 
ATOM     23  C   UNL A   1      35.166  17.973  24.705  1.00  0.00     0.016 C 
ENDBRANCH  15  20
ENDBRANCH  11  14
ENDBRANCH   9  10
ENDBRANCH   8   9
ENDBRANCH   5   8
ENDBRANCH   3   4
ENDBRANCH   2   3
ENDBRANCH   1   2
BRANCH   1  24
ATOM     24  C   UNL A   1      36.446  23.113  23.905  1.00  0.00     0.002 C 
BRANCH  24  25
ATOM     25  C   UNL A   1      37.021  21.719  24.158  1.00  0.00     0.021 C 
BRANCH  25  26
ATOM     26  C   UNL A   1      37.455  21.445  25.595  1.00  0.00     0.116 C 
BRANCH  26  27
ATOM     27  N   UNL A   1      38.512  20.451  25.681  1.00  0.00    -0.352 N 
ATOM     28  C   UNL A   1      39.803  20.617  26.136  1.00  0.00     0.251 C 
ATOM     29  H   UNL A   1      38.276  19.545  25.375  1.00  0.00     0.163 HD
ATOM     30  O   UNL A   1      40.625  19.728  26.038  1.00  0.00    -0.269 OA
BRANCH  28  31
ATOM     31  C   UNL A   1      40.162  21.930  26.717  1.00  0.00     0.039 A 
ATOM     32  C   UNL A   1      41.013  21.970  27.822  1.00  0.00     0.014 A 
ATOM     33  C   UNL A   1      39.746  23.106  26.086  1.00  0.00     0.014 A 
ATOM     34  C   UNL A   1      41.518  23.198  28.249  1.00  0.00     0.010 A 
ATOM     35  C   UNL A   1      40.294  24.321  26.480  1.00  0.00     0.010 A 
ATOM     36  C   UNL A   1      41.200  24.377  27.553  1.00  0.00    -0.014 A 
BRANCH  36  37
ATOM     37  C   UNL A   1      41.820  25.678  27.908  1.00  0.00     0.031 A 
ATOM     38  C   UNL A   1      41.005  26.723  28.616  1.00  0.00     0.074 A 
ATOM     39  C   UNL A   1      43.083  25.946  27.520  1.00  0.00     0.049 A 
ATOM     40  N   UNL A   1      41.311  27.962  28.897  1.00  0.00    -0.248 NA
ATOM     41  C   UNL A   1      39.655  26.323  29.041  1.00  0.00     0.031 C 
ATOM     42  C   UNL A   1      43.964  25.017  26.807  1.00  0.00     0.029 A 
ATOM     43  N   UNL A   1      43.841  27.083  27.650  1.00  0.00    -0.354 N 
ATOM     44  C   UNL A   1      40.191  28.495  29.525  1.00  0.00     0.074 A 
ATOM     45  C   UNL A   1      39.180  27.457  29.532  1.00  0.00     0.031 C 
ATOM     46  C   UNL A   1      45.143  25.617  26.576  1.00  0.00     0.029 A 
ATOM     47  C   UNL A   1      45.088  26.988  27.074  1.00  0.00     0.049 A 
ATOM     48  H   UNL A   1      43.524  27.890  28.116  1.00  0.00     0.167 HD
ATOM     49  C   UNL A   1      40.029  29.728  30.064  1.00  0.00     0.034 A 
ATOM     50  C   UNL A   1      46.064  27.909  26.940  1.00  0.00     0.034 A 
ATOM     51  C   UNL A   1      41.049  30.747  30.053  1.00  0.00     0.049 A 
ATOM     52  C   UNL A   1      45.832  29.296  27.487  1.00  0.00     0.074 A 
ATOM     53  C   UNL A   1      41.012  32.012  30.615  1.00  0.00     0.029 A 
ATOM     54  N   UNL A   1      42.289  30.623  29.439  1.00  0.00    -0.354 N 
ATOM     55  N   UNL A   1      44.782  29.771  28.116  1.00  0.00    -0.248 NA
ATOM     56  C   UNL A   1      46.916  30.271  27.304  1.00  0.00     0.031 C 
ATOM     57  C   UNL A   1      42.200  32.672  30.288  1.00  0.00     0.029 A 
ATOM     58  C   UNL A   1      43.008  31.799  29.578  1.00  0.00     0.049 A 
ATOM     59  H   UNL A   1      42.609  29.816  28.974  1.00  0.00     0.167 HD
ATOM     60  C   UNL A   1      45.090  31.093  28.423  1.00  0.00     0.074 A 
ATOM     61  C   UNL A   1      46.429  31.335  27.927  1.00  0.00     0.031 C 
ATOM     62  C   UNL A   1      44.337  32.025  29.061  1.00  0.00     0.034 A 
BRANCH  49  63
ATOM     63  C   UNL A   1      38.694  30.041  30.691  1.00  0.00     0.023 A 
ATOM     64  C   UNL A   1      37.705  30.755  29.993  1.00  0.00     0.031 A 
ATOM     65  C   UNL A   1      38.411  29.636  32.006  1.00  0.00     0.131 A 
ATOM     66  C   UNL A   1      36.508  31.103  30.636  1.00  0.00     0.055 A 
ATOM     67  C   UNL A   1      37.187  29.920  32.616  1.00  0.00     0.041 A 
ATOM     68  F   UNL A   1      39.324  28.966  32.728  1.00  0.00    -0.206 F 
ATOM     69  C   UNL A   1      36.232  30.669  31.935  1.00  0.00     0.022 A 
BRANCH  66  70
ATOM     70  S   UNL A   1      35.371  32.236  29.793  1.00  0.00     0.124 S 
ATOM     71  O   UNL A   1      34.796  31.368  28.768  1.00  0.00    -0.237 OA
ATOM     72  O   UNL A   1      34.470  32.637  30.868  1.00  0.00    -0.237 OA
ATOM     73  O   UNL A   1      36.248  33.290  29.288  1.00  0.00    -0.744 OA
ENDBRANCH  66  70
ENDBRANCH  49  63
BRANCH  50  74
ATOM     74  C   UNL A   1      47.334  27.578  26.231  1.00  0.00     0.023 A 
ATOM     75  C   UNL A   1      47.476  27.823  24.856  1.00  0.00     0.031 A 
ATOM     76  C   UNL A   1      48.401  26.954  26.902  1.00  0.00     0.131 A 
ATOM     77  C   UNL A   1      48.634  27.401  24.186  1.00  0.00     0.055 A 
ATOM     78  C   UNL A   1      49.573  26.584  26.241  1.00  0.00     0.041 A 
ATOM     79  F   UNL A   1      48.320  26.698  28.218  1.00  0.00    -0.206 F 
ATOM     80  C   UNL A   1      49.689  26.793  24.871  1.00  0.00     0.022 A 
BRANCH  77  81
ATOM     81  S   UNL A   1      48.700  27.567  22.380  1.00  0.00     0.124 S 
ATOM     82  O   UNL A   1      47.434  28.234  22.096  1.00  0.00    -0.237 OA
ATOM     83  O   UNL A   1      49.905  28.369  22.195  1.00  0.00    -0.237 OA
ATOM     84  O   UNL A   1      48.795  26.185  21.914  1.00  0.00    -0.744 OA
ENDBRANCH  77  81
ENDBRANCH  50  74
BRANCH  62  85
ATOM     85  C   UNL A   1      44.964  33.376  29.280  1.00  0.00     0.023 A 
ATOM     86  C   UNL A   1      44.713  34.452  28.410  1.00  0.00     0.031 A 
ATOM     87  C   UNL A   1      45.820  33.593  30.374  1.00  0.00     0.131 A 
ATOM     88  C   UNL A   1      45.346  35.685  28.626  1.00  0.00     0.055 A 
ATOM     89  C   UNL A   1      46.404  34.836  30.613  1.00  0.00     0.041 A 
ATOM     90  F   UNL A   1      46.092  32.597  31.234  1.00  0.00    -0.206 F 
ATOM     91  C   UNL A   1      46.176  35.889  29.731  1.00  0.00     0.022 A 
BRANCH  88  92
ATOM     92  S   UNL A   1      45.114  37.008  27.407  1.00  0.00     0.124 S 
ATOM     93  O   UNL A   1      45.199  38.204  28.238  1.00  0.00    -0.237 OA
ATOM     94  O   UNL A   1      46.226  36.788  26.489  1.00  0.00    -0.237 OA
ATOM     95  O   UNL A   1      43.790  36.733  26.850  1.00  0.00    -0.744 OA
ENDBRANCH  88  92
ENDBRANCH  62  85
ENDBRANCH  36  37
ENDBRANCH  28  31
ENDBRANCH  26  27
ENDBRANCH  25  26
ENDBRANCH  24  25
ENDBRANCH   1  24
TORSDOF 20
ENDMDL
MODEL 3
REMARK VINA RESULT:     -11.0      4.844     10.256
REMARK SMILES CC(C)(C)c1ccc(NC(=O)CCC(=O)NCCCCCCNC(=O)c2ccc(-c3c4nc(c(-c5cc(S(=O)(=O)[O-])ccc5F)c5ccc([nH]5)c(-c5cc(S(=O)(=O)[O-])ccc5F)c5nc(c(-c6cc(S(=O)(=O)[O-])ccc6F)c6ccc3[nH]6)C=C5)C=C4)cc2)cc1
REMARK SMILES IDX 19 1 18 2 17 3 16 4 14 5 15 6 13 8 12 9 10 10 9 11 11 13
REMARK SMILES IDX 8 14 5 15 6 16 90 17 7 18 89 19 2 20 1 21 3 22 4 23 20 24
REMARK SMILES IDX 21 25 22 26 23 27 24 28 25 30 26 31 27 32 88 33 28 34 87 35
REMARK SMILES IDX 29 36 30 37 31 38 81 39 32 40 86 41 80 42 82 43 33 44 85 45
REMARK SMILES IDX 79 46 78 47 34 49 66 50 46 51 65 52 47 53 50 54 64 55 83 56
REMARK SMILES IDX 48 57 49 58 63 60 84 61 51 62 35 63 36 64 44 65 37 66 43 67
REMARK SMILES IDX 45 68 42 69 38 70 39 71 40 72 41 73 67 74 68 75 76 76 69 77
REMARK SMILES IDX 75 78 77 79 74 80 70 81 71 82 72 83 73 84 52 85 53 86 61 87
REMARK SMILES IDX 54 88 60 89 62 90 59 91 55 92 56 93 57 94 58 95
REMARK H PARENT 16 7 9 12 23 29 82 48 50 59
REMARK Flexibility Score: inf
ROOT
ATOM      1  C   UNL A   1      33.597  23.382  23.614  1.00  0.00     0.002 C 
ENDROOT
BRANCH   1   2
ATOM      2  C   UNL A   1      32.960  22.376  24.575  1.00  0.00     0.021 C 
BRANCH   2   3
ATOM      3  C   UNL A   1      33.141  22.685  26.058  1.00  0.00     0.116 C 
BRANCH   3   4
ATOM      4  N   UNL A   1      31.881  22.724  26.781  1.00  0.00    -0.356 N 
ATOM      5  C   UNL A   1      30.860  23.621  26.713  1.00  0.00     0.220 C 
ATOM      6  O   UNL A   1      29.827  23.397  27.347  1.00  0.00    -0.275 OA
ATOM      7  H   UNL A   1      31.746  21.986  27.419  1.00  0.00     0.163 HD
BRANCH   5   8
ATOM      8  C   UNL A   1      30.997  24.872  25.877  1.00  0.00     0.110 C 
BRANCH   8   9
ATOM      9  C   UNL A   1      31.845  25.953  26.531  1.00  0.00     0.110 C 
BRANCH   9  10
ATOM     10  C   UNL A   1      33.031  26.394  25.702  1.00  0.00     0.224 C 
ATOM     11  N   UNL A   1      32.929  27.260  24.652  1.00  0.00    -0.326 N 
ATOM     12  H   UNL A   1      33.786  27.458  24.209  1.00  0.00     0.169 HD
ATOM     13  O   UNL A   1      34.168  26.041  26.035  1.00  0.00    -0.275 OA
BRANCH  11  14
ATOM     14  C   UNL A   1      31.829  27.919  24.089  1.00  0.00     0.041 A 
ATOM     15  C   UNL A   1      29.495  29.293  23.243  1.00  0.00    -0.042 A 
ATOM     16  C   UNL A   1      29.846  28.037  22.717  1.00  0.00     0.006 A 
ATOM     17  C   UNL A   1      30.395  29.883  24.141  1.00  0.00     0.006 A 
ATOM     18  C   UNL A   1      30.998  27.362  23.129  1.00  0.00     0.026 A 
ATOM     19  C   UNL A   1      31.561  29.215  24.536  1.00  0.00     0.026 A 
BRANCH  15  20
ATOM     20  C   UNL A   1      28.193  29.975  22.798  1.00  0.00    -0.013 C 
ATOM     21  C   UNL A   1      28.157  30.335  21.296  1.00  0.00     0.016 C 
ATOM     22  C   UNL A   1      27.978  31.295  23.575  1.00  0.00     0.016 C 
ATOM     23  C   UNL A   1      27.020  29.016  23.084  1.00  0.00     0.016 C 
ENDBRANCH  15  20
ENDBRANCH  11  14
ENDBRANCH   9  10
ENDBRANCH   8   9
ENDBRANCH   5   8
ENDBRANCH   3   4
ENDBRANCH   2   3
ENDBRANCH   1   2
BRANCH   1  24
ATOM     24  C   UNL A   1      35.118  23.505  23.721  1.00  0.00     0.002 C 
BRANCH  24  25
ATOM     25  C   UNL A   1      35.854  22.205  24.050  1.00  0.00     0.021 C 
BRANCH  25  26
ATOM     26  C   UNL A   1      36.774  22.268  25.265  1.00  0.00     0.116 C 
BRANCH  26  27
ATOM     27  N   UNL A   1      37.680  21.134  25.341  1.00  0.00    -0.352 N 
ATOM     28  C   UNL A   1      38.961  21.101  25.850  1.00  0.00     0.251 C 
ATOM     29  H   UNL A   1      37.336  20.284  24.984  1.00  0.00     0.163 HD
ATOM     30  O   UNL A   1      39.658  20.111  25.740  1.00  0.00    -0.269 OA
BRANCH  28  31
ATOM     31  C   UNL A   1      39.472  22.325  26.505  1.00  0.00     0.039 A 
ATOM     32  C   UNL A   1      40.454  22.205  27.489  1.00  0.00     0.014 A 
ATOM     33  C   UNL A   1      39.057  23.580  26.052  1.00  0.00     0.014 A 
ATOM     34  C   UNL A   1      41.085  23.354  27.967  1.00  0.00     0.010 A 
ATOM     35  C   UNL A   1      39.725  24.718  26.490  1.00  0.00     0.010 A 
ATOM     36  C   UNL A   1      40.759  24.614  27.437  1.00  0.00    -0.014 A 
BRANCH  36  37
ATOM     37  C   UNL A   1      41.499  25.838  27.835  1.00  0.00     0.031 A 
ATOM     38  C   UNL A   1      40.794  26.917  28.606  1.00  0.00     0.074 A 
ATOM     39  C   UNL A   1      42.773  26.011  27.429  1.00  0.00     0.049 A 
ATOM     40  N   UNL A   1      41.215  28.110  28.935  1.00  0.00    -0.248 NA
ATOM     41  C   UNL A   1      39.422  26.618  29.045  1.00  0.00     0.031 C 
ATOM     42  C   UNL A   1      43.553  25.042  26.655  1.00  0.00     0.029 A 
ATOM     43  N   UNL A   1      43.632  27.069  27.592  1.00  0.00    -0.354 N 
ATOM     44  C   UNL A   1      40.159  28.710  29.612  1.00  0.00     0.074 A 
ATOM     45  C   UNL A   1      39.060  27.766  29.596  1.00  0.00     0.031 C 
ATOM     46  C   UNL A   1      44.777  25.546  26.424  1.00  0.00     0.029 A 
ATOM     47  C   UNL A   1      44.855  26.891  26.983  1.00  0.00     0.049 A 
ATOM     48  H   UNL A   1      43.397  27.879  28.100  1.00  0.00     0.167 HD
ATOM     49  C   UNL A   1      40.119  29.926  30.209  1.00  0.00     0.034 A 
ATOM     50  C   UNL A   1      45.906  27.728  26.867  1.00  0.00     0.034 A 
ATOM     51  C   UNL A   1      41.225  30.851  30.219  1.00  0.00     0.049 A 
ATOM     52  C   UNL A   1      45.810  29.102  27.481  1.00  0.00     0.074 A 
ATOM     53  C   UNL A   1      41.312  32.086  30.837  1.00  0.00     0.029 A 
ATOM     54  N   UNL A   1      42.437  30.646  29.571  1.00  0.00    -0.354 N 
ATOM     55  N   UNL A   1      44.818  29.639  28.154  1.00  0.00    -0.248 NA
ATOM     56  C   UNL A   1      46.972  29.986  27.316  1.00  0.00     0.031 C 
ATOM     57  C   UNL A   1      42.548  32.654  30.513  1.00  0.00     0.029 A 
ATOM     58  C   UNL A   1      43.261  31.746  29.745  1.00  0.00     0.049 A 
ATOM     59  H   UNL A   1      42.675  29.836  29.063  1.00  0.00     0.167 HD
ATOM     60  C   UNL A   1      45.248  30.913  28.513  1.00  0.00     0.074 A 
ATOM     61  C   UNL A   1      46.594  31.059  27.996  1.00  0.00     0.031 C 
ATOM     62  C   UNL A   1      44.594  31.877  29.208  1.00  0.00     0.034 A 
BRANCH  49  63
ATOM     63  C   UNL A   1      38.829  30.326  30.880  1.00  0.00     0.023 A 
ATOM     64  C   UNL A   1      37.879  31.128  30.224  1.00  0.00     0.031 A 
ATOM     65  C   UNL A   1      38.552  29.917  32.195  1.00  0.00     0.131 A 
ATOM     66  C   UNL A   1      36.731  31.552  30.908  1.00  0.00     0.055 A 
ATOM     67  C   UNL A   1      37.371  30.280  32.845  1.00  0.00     0.041 A 
ATOM     68  F   UNL A   1      39.432  29.165  32.877  1.00  0.00    -0.206 F 
ATOM     69  C   UNL A   1      36.457  31.113  32.206  1.00  0.00     0.022 A 
BRANCH  66  70
ATOM     70  S   UNL A   1      35.660  32.786  30.120  1.00  0.00     0.124 S 
ATOM     71  O   UNL A   1      34.332  32.301  30.488  1.00  0.00    -0.237 OA
ATOM     72  O   UNL A   1      36.086  34.027  30.756  1.00  0.00    -0.237 OA
ATOM     73  O   UNL A   1      35.988  32.668  28.701  1.00  0.00    -0.744 OA
ENDBRANCH  66  70
ENDBRANCH  49  63
BRANCH  50  74
ATOM     74  C   UNL A   1      47.128  27.319  26.115  1.00  0.00     0.023 A 
ATOM     75  C   UNL A   1      47.302  27.688  24.772  1.00  0.00     0.031 A 
ATOM     76  C   UNL A   1      48.107  26.501  26.706  1.00  0.00     0.131 A 
ATOM     77  C   UNL A   1      48.402  27.199  24.049  1.00  0.00     0.055 A 
ATOM     78  C   UNL A   1      49.226  26.061  25.998  1.00  0.00     0.041 A 
ATOM     79  F   UNL A   1      47.990  26.120  27.989  1.00  0.00    -0.206 F 
ATOM     80  C   UNL A   1      49.371  26.397  24.656  1.00  0.00     0.022 A 
BRANCH  77  81
ATOM     81  S   UNL A   1      48.494  27.545  22.271  1.00  0.00     0.124 S 
ATOM     82  O   UNL A   1      48.503  26.199  21.706  1.00  0.00    -0.237 OA
ATOM     83  O   UNL A   1      47.281  28.325  22.052  1.00  0.00    -0.237 OA
ATOM     84  O   UNL A   1      49.745  28.287  22.132  1.00  0.00    -0.744 OA
ENDBRANCH  77  81
ENDBRANCH  50  74
BRANCH  62  85
ATOM     85  C   UNL A   1      45.344  33.157  29.472  1.00  0.00     0.023 A 
ATOM     86  C   UNL A   1      46.154  33.312  30.611  1.00  0.00     0.031 A 
ATOM     87  C   UNL A   1      45.251  34.232  28.571  1.00  0.00     0.131 A 
ATOM     88  C   UNL A   1      46.807  34.532  30.841  1.00  0.00     0.055 A 
ATOM     89  C   UNL A   1      45.944  35.424  28.779  1.00  0.00     0.041 A 
ATOM     90  F   UNL A   1      44.490  34.134  27.469  1.00  0.00    -0.206 F 
ATOM     91  C   UNL A   1      46.720  35.583  29.924  1.00  0.00     0.022 A 
BRANCH  88  92
ATOM     92  S   UNL A   1      47.728  34.749  32.388  1.00  0.00     0.124 S 
ATOM     93  O   UNL A   1      49.072  34.337  32.001  1.00  0.00    -0.237 OA
ATOM     94  O   UNL A   1      47.550  36.171  32.663  1.00  0.00    -0.237 OA
ATOM     95  O   UNL A   1      47.047  33.851  33.320  1.00  0.00    -0.744 OA
ENDBRANCH  88  92
ENDBRANCH  62  85
ENDBRANCH  36  37
ENDBRANCH  28  31
ENDBRANCH  26  27
ENDBRANCH  25  26
ENDBRANCH  24  25
ENDBRANCH   1  24
TORSDOF 20
ENDMDL
