MODEL 1
REMARK VINA RESULT:     -12.0      0.000      0.000
REMARK SMILES O=C(NCCCCCCNC(=O)c1ccccc1/N=C/c1coc2ccccc2c1=O)c1ccc(-c2c3nc(c(-c4cc(S(=O)(=O)[O-])ccc4F)c4ccc([nH]4)c(-c4cc(S(=O)(=O)[O-])ccc4F)c4nc(c(-c5cc(S(=O)(=O)[O-])ccc5F)c5ccc2[nH]5)C=C4)C=C3)cc1
REMARK SMILES IDX 6 1 5 2 4 3 3 4 1 5 2 6 32 8 33 9 94 10 34 11 93 12 35 13
REMARK SMILES IDX 36 14 37 15 87 16 38 17 92 18 86 19 88 20 39 21 91 22 85 23
REMARK SMILES IDX 84 24 40 26 72 27 52 28 71 29 53 30 56 31 70 32 89 33 54 34
REMARK SMILES IDX 55 35 69 37 90 38 57 39 41 40 42 41 50 42 43 43 49 44 51 45
REMARK SMILES IDX 48 46 44 47 45 48 46 49 47 50 73 51 74 52 82 53 75 54 81 55
REMARK SMILES IDX 83 56 80 57 76 58 77 59 78 60 79 61 58 62 59 63 67 64 60 65
REMARK SMILES IDX 66 66 68 67 65 68 61 69 62 70 63 71 64 72 7 73 8 74 9 75
REMARK SMILES IDX 10 76 11 77 12 79 13 80 14 81 18 82 15 83 17 84 16 85 19 86
REMARK SMILES IDX 20 87 21 88 22 89 30 90 23 91 29 92 31 93 24 94 28 95 25 96
REMARK SMILES IDX 27 97 26 98
REMARK H PARENT 3 7 88 25 56 36 10 78
REMARK Flexibility Score: inf
ROOT
ATOM      1  C   UNL A   1      35.179  23.163  23.188  1.00  0.00     0.002 C 
ENDROOT
BRANCH   1   2
ATOM      2  C   UNL A   1      36.656  23.203  23.585  1.00  0.00     0.021 C 
BRANCH   2   3
ATOM      3  C   UNL A   1      36.959  23.412  25.068  1.00  0.00     0.116 C 
BRANCH   3   4
ATOM      4  N   UNL A   1      37.880  22.427  25.607  1.00  0.00    -0.352 N 
ATOM      5  O   UNL A   1      39.725  21.602  26.577  1.00  0.00    -0.269 OA
ATOM      6  C   UNL A   1      39.044  22.592  26.316  1.00  0.00     0.251 C 
ATOM      7  H   UNL A   1      37.630  21.490  25.436  1.00  0.00     0.163 HD
BRANCH   6   8
ATOM      8  C   UNL A   1      39.506  23.932  26.754  1.00  0.00     0.039 A 
ATOM      9  C   UNL A   1      40.057  24.861  25.866  1.00  0.00     0.014 A 
ATOM     10  C   UNL A   1      39.311  24.292  28.094  1.00  0.00     0.014 A 
ATOM     11  C   UNL A   1      40.488  26.105  26.330  1.00  0.00     0.010 A 
ATOM     12  C   UNL A   1      39.706  25.553  28.551  1.00  0.00     0.010 A 
ATOM     13  C   UNL A   1      40.318  26.461  27.677  1.00  0.00    -0.014 A 
BRANCH  13  14
ATOM     14  C   UNL A   1      40.758  27.795  28.159  1.00  0.00     0.031 A 
ATOM     15  C   UNL A   1      42.216  28.168  28.153  1.00  0.00     0.074 A 
ATOM     16  C   UNL A   1      39.844  28.672  28.611  1.00  0.00     0.049 A 
ATOM     17  N   UNL A   1      42.785  29.279  28.546  1.00  0.00    -0.248 NA
ATOM     18  C   UNL A   1      43.153  27.152  27.652  1.00  0.00     0.031 C 
ATOM     19  C   UNL A   1      38.404  28.423  28.699  1.00  0.00     0.029 A 
ATOM     20  N   UNL A   1      39.992  29.950  29.084  1.00  0.00    -0.354 N 
ATOM     21  C   UNL A   1      44.150  29.094  28.359  1.00  0.00     0.074 A 
ATOM     22  C   UNL A   1      44.321  27.755  27.829  1.00  0.00     0.031 C 
ATOM     23  C   UNL A   1      37.800  29.520  29.184  1.00  0.00     0.029 A 
ATOM     24  C   UNL A   1      38.808  30.538  29.457  1.00  0.00     0.049 A 
ATOM     25  H   UNL A   1      40.863  30.403  29.149  1.00  0.00     0.167 HD
ATOM     26  C   UNL A   1      45.167  29.957  28.603  1.00  0.00     0.034 A 
ATOM     27  C   UNL A   1      38.563  31.757  29.969  1.00  0.00     0.034 A 
ATOM     28  C   UNL A   1      44.998  31.294  29.115  1.00  0.00     0.049 A 
ATOM     29  C   UNL A   1      39.700  32.706  30.209  1.00  0.00     0.074 A 
ATOM     30  C   UNL A   1      45.962  32.260  29.349  1.00  0.00     0.029 A 
ATOM     31  N   UNL A   1      43.782  31.853  29.479  1.00  0.00    -0.354 N 
ATOM     32  N   UNL A   1      40.984  32.517  30.019  1.00  0.00    -0.248 NA
ATOM     33  C   UNL A   1      39.352  34.034  30.731  1.00  0.00     0.031 C 
ATOM     34  C   UNL A   1      45.332  33.392  29.883  1.00  0.00     0.029 A 
ATOM     35  C   UNL A   1      43.972  33.143  29.951  1.00  0.00     0.049 A 
ATOM     36  H   UNL A   1      42.911  31.400  29.414  1.00  0.00     0.167 HD
ATOM     37  C   UNL A   1      41.598  33.701  30.405  1.00  0.00     0.074 A 
ATOM     38  C   UNL A   1      40.546  34.603  30.830  1.00  0.00     0.031 C 
ATOM     39  C   UNL A   1      42.918  34.016  30.400  1.00  0.00     0.034 A 
BRANCH  26  40
ATOM     40  C   UNL A   1      46.560  29.451  28.350  1.00  0.00     0.023 A 
ATOM     41  C   UNL A   1      47.269  28.735  29.329  1.00  0.00     0.031 A 
ATOM     42  C   UNL A   1      47.199  29.724  27.128  1.00  0.00     0.131 A 
ATOM     43  C   UNL A   1      48.599  28.358  29.088  1.00  0.00     0.055 A 
ATOM     44  C   UNL A   1      48.506  29.305  26.877  1.00  0.00     0.041 A 
ATOM     45  F   UNL A   1      46.569  30.423  26.171  1.00  0.00    -0.206 F 
ATOM     46  C   UNL A   1      49.218  28.628  27.864  1.00  0.00     0.022 A 
BRANCH  43  47
ATOM     47  S   UNL A   1      49.548  27.609  30.439  1.00  0.00     0.124 S 
ATOM     48  O   UNL A   1      48.894  28.174  31.616  1.00  0.00    -0.237 OA
ATOM     49  O   UNL A   1      49.341  26.183  30.216  1.00  0.00    -0.237 OA
ATOM     50  O   UNL A   1      50.911  28.085  30.206  1.00  0.00    -0.744 OA
ENDBRANCH  43  47
ENDBRANCH  26  40
BRANCH  27  51
ATOM     51  C   UNL A   1      37.176  32.135  30.328  1.00  0.00     0.023 A 
ATOM     52  C   UNL A   1      36.314  32.702  29.381  1.00  0.00     0.031 A 
ATOM     53  C   UNL A   1      36.698  31.918  31.631  1.00  0.00     0.131 A 
ATOM     54  C   UNL A   1      35.008  33.048  29.758  1.00  0.00     0.055 A 
ATOM     55  C   UNL A   1      35.395  32.252  31.998  1.00  0.00     0.041 A 
ATOM     56  F   UNL A   1      37.495  31.366  32.560  1.00  0.00    -0.206 F 
ATOM     57  C   UNL A   1      34.542  32.823  31.056  1.00  0.00     0.022 A 
BRANCH  54  58
ATOM     58  S   UNL A   1      33.912  33.787  28.518  1.00  0.00     0.124 S 
ATOM     59  O   UNL A   1      33.418  32.607  27.818  1.00  0.00    -0.237 OA
ATOM     60  O   UNL A   1      32.943  34.495  29.348  1.00  0.00    -0.237 OA
ATOM     61  O   UNL A   1      34.807  34.646  27.744  1.00  0.00    -0.744 OA
ENDBRANCH  54  58
ENDBRANCH  27  51
BRANCH  39  62
ATOM     62  C   UNL A   1      43.277  35.398  30.864  1.00  0.00     0.023 A 
ATOM     63  C   UNL A   1      43.418  36.456  29.952  1.00  0.00     0.031 A 
ATOM     64  C   UNL A   1      43.509  35.649  32.227  1.00  0.00     0.131 A 
ATOM     65  C   UNL A   1      43.812  37.720  30.413  1.00  0.00     0.055 A 
ATOM     66  C   UNL A   1      43.878  36.914  32.682  1.00  0.00     0.041 A 
ATOM     67  F   UNL A   1      43.392  34.663  33.130  1.00  0.00    -0.206 F 
ATOM     68  C   UNL A   1      44.037  37.957  31.773  1.00  0.00     0.022 A 
BRANCH  65  69
ATOM     69  S   UNL A   1      44.070  39.050  29.208  1.00  0.00     0.124 S 
ATOM     70  O   UNL A   1      42.881  39.873  29.404  1.00  0.00    -0.237 OA
ATOM     71  O   UNL A   1      45.331  39.634  29.650  1.00  0.00    -0.237 OA
ATOM     72  O   UNL A   1      44.131  38.346  27.929  1.00  0.00    -0.744 OA
ENDBRANCH  65  69
ENDBRANCH  39  62
ENDBRANCH  13  14
ENDBRANCH   6   8
ENDBRANCH   3   4
ENDBRANCH   2   3
ENDBRANCH   1   2
BRANCH   1  73
ATOM     73  C   UNL A   1      34.284  24.236  23.813  1.00  0.00     0.002 C 
BRANCH  73  74
ATOM     74  C   UNL A   1      33.129  24.753  22.947  1.00  0.00     0.021 C 
BRANCH  74  75
ATOM     75  C   UNL A   1      32.927  26.268  22.916  1.00  0.00     0.116 C 
BRANCH  75  76
ATOM     76  N   UNL A   1      31.550  26.663  22.659  1.00  0.00    -0.352 N 
ATOM     77  C   UNL A   1      30.727  27.474  23.394  1.00  0.00     0.253 C 
ATOM     78  H   UNL A   1      31.153  26.293  21.839  1.00  0.00     0.163 HD
ATOM     79  O   UNL A   1      29.599  27.740  22.977  1.00  0.00    -0.269 OA
BRANCH  77  80
ATOM     80  C   UNL A   1      31.129  28.005  24.711  1.00  0.00     0.065 A 
ATOM     81  C   UNL A   1      31.272  29.398  24.816  1.00  0.00     0.016 A 
ATOM     82  C   UNL A   1      31.431  27.192  25.808  1.00  0.00     0.076 A 
ATOM     83  C   UNL A   1      31.663  29.986  26.021  1.00  0.00     0.001 A 
ATOM     84  C   UNL A   1      31.813  27.800  27.015  1.00  0.00     0.029 A 
ATOM     85  C   UNL A   1      31.929  29.184  27.125  1.00  0.00     0.002 A 
BRANCH  82  86
ATOM     86  N   UNL A   1      31.275  25.808  25.859  1.00  0.00    -0.255 NA
ATOM     87  C   UNL A   1      32.089  25.076  26.548  1.00  0.00     0.127 C 
BRANCH  87  88
ATOM     88  C   UNL A   1      31.662  23.688  26.799  1.00  0.00     0.076 A 
ATOM     89  C   UNL A   1      30.752  23.241  25.920  1.00  0.00     0.209 A 
ATOM     90  C   UNL A   1      32.626  22.692  27.313  1.00  0.00     0.201 A 
ATOM     91  O   UNL A   1      30.738  21.947  25.427  1.00  0.00    -0.463 OA
ATOM     92  C   UNL A   1      32.960  21.657  26.330  1.00  0.00     0.065 A 
ATOM     93  O   UNL A   1      33.159  22.779  28.405  1.00  0.00    -0.288 OA
ATOM     94  C   UNL A   1      31.984  21.354  25.380  1.00  0.00     0.137 A 
ATOM     95  C   UNL A   1      34.242  21.119  26.260  1.00  0.00     0.016 A 
ATOM     96  C   UNL A   1      32.289  20.500  24.332  1.00  0.00     0.048 A 
ATOM     97  C   UNL A   1      34.557  20.285  25.191  1.00  0.00     0.001 A 
ATOM     98  C   UNL A   1      33.584  19.982  24.230  1.00  0.00     0.004 A 
ENDBRANCH  87  88
ENDBRANCH  82  86
ENDBRANCH  77  80
ENDBRANCH  75  76
ENDBRANCH  74  75
ENDBRANCH  73  74
ENDBRANCH   1  73
TORSDOF 18
ENDMDL
MODEL 2
REMARK VINA RESULT:     -11.8      5.149      8.128
REMARK SMILES O=C(NCCCCCCNC(=O)c1ccccc1/N=C/c1coc2ccccc2c1=O)c1ccc(-c2c3nc(c(-c4cc(S(=O)(=O)[O-])ccc4F)c4ccc([nH]4)c(-c4cc(S(=O)(=O)[O-])ccc4F)c4nc(c(-c5cc(S(=O)(=O)[O-])ccc5F)c5ccc2[nH]5)C=C4)C=C3)cc1
REMARK SMILES IDX 6 1 5 2 4 3 3 4 1 5 2 6 32 8 33 9 94 10 34 11 93 12 35 13
REMARK SMILES IDX 36 14 37 15 87 16 38 17 92 18 86 19 88 20 39 21 91 22 85 23
REMARK SMILES IDX 84 24 40 26 72 27 52 28 71 29 53 30 56 31 70 32 89 33 54 34
REMARK SMILES IDX 55 35 69 37 90 38 57 39 41 40 42 41 50 42 43 43 49 44 51 45
REMARK SMILES IDX 48 46 44 47 45 48 46 49 47 50 73 51 74 52 82 53 75 54 81 55
REMARK SMILES IDX 83 56 80 57 76 58 77 59 78 60 79 61 58 62 59 63 67 64 60 65
REMARK SMILES IDX 66 66 68 67 65 68 61 69 62 70 63 71 64 72 7 73 8 74 9 75
REMARK SMILES IDX 10 76 11 77 12 79 13 80 14 81 18 82 15 83 17 84 16 85 19 86
REMARK SMILES IDX 20 87 21 88 22 89 30 90 23 91 29 92 31 93 24 94 28 95 25 96
REMARK SMILES IDX 27 97 26 98
REMARK H PARENT 3 7 88 25 56 36 10 78
REMARK Flexibility Score: inf
ROOT
ATOM      1  C   UNL A   1      31.449  30.564  25.786  1.00  0.00     0.002 C 
ENDROOT
BRANCH   1   2
ATOM      2  C   UNL A   1      31.362  31.886  26.552  1.00  0.00     0.021 C 
BRANCH   2   3
ATOM      3  C   UNL A   1      32.645  32.372  27.223  1.00  0.00     0.116 C 
BRANCH   3   4
ATOM      4  N   UNL A   1      32.603  33.777  27.589  1.00  0.00    -0.352 N 
ATOM      5  O   UNL A   1      33.044  35.652  28.736  1.00  0.00    -0.269 OA
ATOM      6  C   UNL A   1      33.331  34.476  28.519  1.00  0.00     0.251 C 
ATOM      7  H   UNL A   1      31.945  34.313  27.091  1.00  0.00     0.163 HD
BRANCH   6   8
ATOM      8  C   UNL A   1      34.440  33.844  29.277  1.00  0.00     0.039 A 
ATOM      9  C   UNL A   1      34.222  32.826  30.209  1.00  0.00     0.014 A 
ATOM     10  C   UNL A   1      35.751  34.242  28.984  1.00  0.00     0.014 A 
ATOM     11  C   UNL A   1      35.298  32.271  30.907  1.00  0.00     0.010 A 
ATOM     12  C   UNL A   1      36.831  33.659  29.653  1.00  0.00     0.010 A 
ATOM     13  C   UNL A   1      36.611  32.684  30.635  1.00  0.00    -0.014 A 
BRANCH  13  14
ATOM     14  C   UNL A   1      37.752  32.073  31.364  1.00  0.00     0.031 A 
ATOM     15  C   UNL A   1      38.591  31.006  30.717  1.00  0.00     0.074 A 
ATOM     16  C   UNL A   1      38.028  32.475  32.618  1.00  0.00     0.049 A 
ATOM     17  N   UNL A   1      39.615  30.353  31.203  1.00  0.00    -0.248 NA
ATOM     18  C   UNL A   1      38.220  30.617  29.349  1.00  0.00     0.031 C 
ATOM     19  C   UNL A   1      37.273  33.478  33.371  1.00  0.00     0.029 A 
ATOM     20  N   UNL A   1      39.021  32.086  33.480  1.00  0.00    -0.354 N 
ATOM     21  C   UNL A   1      40.003  29.459  30.212  1.00  0.00     0.074 A 
ATOM     22  C   UNL A   1      39.091  29.648  29.100  1.00  0.00     0.031 C 
ATOM     23  C   UNL A   1      37.839  33.634  34.579  1.00  0.00     0.029 A 
ATOM     24  C   UNL A   1      38.980  32.732  34.691  1.00  0.00     0.049 A 
ATOM     25  H   UNL A   1      39.698  31.408  33.253  1.00  0.00     0.167 HD
ATOM     26  C   UNL A   1      41.023  28.566  30.223  1.00  0.00     0.034 A 
ATOM     27  C   UNL A   1      39.768  32.607  35.774  1.00  0.00     0.034 A 
ATOM     28  C   UNL A   1      41.940  28.387  31.320  1.00  0.00     0.049 A 
ATOM     29  C   UNL A   1      40.907  31.629  35.757  1.00  0.00     0.074 A 
ATOM     30  C   UNL A   1      43.034  27.543  31.406  1.00  0.00     0.029 A 
ATOM     31  N   UNL A   1      41.866  29.063  32.530  1.00  0.00    -0.354 N 
ATOM     32  N   UNL A   1      41.263  30.797  34.807  1.00  0.00    -0.248 NA
ATOM     33  C   UNL A   1      41.749  31.577  36.959  1.00  0.00     0.031 C 
ATOM     34  C   UNL A   1      43.604  27.686  32.679  1.00  0.00     0.029 A 
ATOM     35  C   UNL A   1      42.884  28.643  33.374  1.00  0.00     0.049 A 
ATOM     36  H   UNL A   1      41.190  29.740  32.757  1.00  0.00     0.167 HD
ATOM     37  C   UNL A   1      42.369  30.118  35.300  1.00  0.00     0.074 A 
ATOM     38  C   UNL A   1      42.628  30.641  36.627  1.00  0.00     0.031 C 
ATOM     39  C   UNL A   1      43.108  29.150  34.703  1.00  0.00     0.034 A 
BRANCH  26  40
ATOM     40  C   UNL A   1      41.166  27.686  29.011  1.00  0.00     0.023 A 
ATOM     41  C   UNL A   1      42.151  27.928  28.040  1.00  0.00     0.031 A 
ATOM     42  C   UNL A   1      40.277  26.616  28.810  1.00  0.00     0.131 A 
ATOM     43  C   UNL A   1      42.194  27.139  26.881  1.00  0.00     0.055 A 
ATOM     44  C   UNL A   1      40.355  25.805  27.676  1.00  0.00     0.041 A 
ATOM     45  F   UNL A   1      39.307  26.359  29.700  1.00  0.00    -0.206 F 
ATOM     46  C   UNL A   1      41.310  26.072  26.699  1.00  0.00     0.022 A 
BRANCH  43  47
ATOM     47  S   UNL A   1      43.348  27.597  25.560  1.00  0.00     0.124 S 
ATOM     48  O   UNL A   1      42.440  27.911  24.460  1.00  0.00    -0.237 OA
ATOM     49  O   UNL A   1      44.060  28.729  26.143  1.00  0.00    -0.237 OA
ATOM     50  O   UNL A   1      44.149  26.388  25.370  1.00  0.00    -0.744 OA
ENDBRANCH  43  47
ENDBRANCH  26  40
BRANCH  27  51
ATOM     51  C   UNL A   1      39.479  33.407  36.987  1.00  0.00     0.023 A 
ATOM     52  C   UNL A   1      38.867  32.827  38.106  1.00  0.00     0.031 A 
ATOM     53  C   UNL A   1      39.829  34.766  37.038  1.00  0.00     0.131 A 
ATOM     54  C   UNL A   1      38.607  33.616  39.235  1.00  0.00     0.055 A 
ATOM     55  C   UNL A   1      39.582  35.543  38.168  1.00  0.00     0.041 A 
ATOM     56  F   UNL A   1      40.429  35.350  35.988  1.00  0.00    -0.206 F 
ATOM     57  C   UNL A   1      38.965  34.967  39.277  1.00  0.00     0.022 A 
BRANCH  54  58
ATOM     58  S   UNL A   1      37.806  32.848  40.668  1.00  0.00     0.124 S 
ATOM     59  O   UNL A   1      38.560  33.426  41.775  1.00  0.00    -0.237 OA
ATOM     60  O   UNL A   1      36.426  33.298  40.526  1.00  0.00    -0.237 OA
ATOM     61  O   UNL A   1      38.016  31.418  40.447  1.00  0.00    -0.744 OA
ENDBRANCH  54  58
ENDBRANCH  27  51
BRANCH  39  62
ATOM     62  C   UNL A   1      44.268  28.614  35.491  1.00  0.00     0.023 A 
ATOM     63  C   UNL A   1      44.093  27.588  36.433  1.00  0.00     0.031 A 
ATOM     64  C   UNL A   1      45.553  29.156  35.318  1.00  0.00     0.131 A 
ATOM     65  C   UNL A   1      45.187  27.151  37.194  1.00  0.00     0.055 A 
ATOM     66  C   UNL A   1      46.642  28.702  36.061  1.00  0.00     0.041 A 
ATOM     67  F   UNL A   1      45.761  30.144  34.433  1.00  0.00    -0.206 F 
ATOM     68  C   UNL A   1      46.462  27.698  37.010  1.00  0.00     0.022 A 
BRANCH  65  69
ATOM     69  S   UNL A   1      44.920  25.884  38.463  1.00  0.00     0.124 S 
ATOM     70  O   UNL A   1      43.968  26.541  39.353  1.00  0.00    -0.237 OA
ATOM     71  O   UNL A   1      44.399  24.765  37.685  1.00  0.00    -0.237 OA
ATOM     72  O   UNL A   1      46.252  25.676  39.026  1.00  0.00    -0.744 OA
ENDBRANCH  65  69
ENDBRANCH  39  62
ENDBRANCH  13  14
ENDBRANCH   6   8
ENDBRANCH   3   4
ENDBRANCH   2   3
ENDBRANCH   1   2
BRANCH   1  73
ATOM     73  C   UNL A   1      31.969  29.361  26.576  1.00  0.00     0.002 C 
BRANCH  73  74
ATOM     74  C   UNL A   1      33.088  28.543  25.919  1.00  0.00     0.021 C 
BRANCH  74  75
ATOM     75  C   UNL A   1      33.774  29.178  24.709  1.00  0.00     0.116 C 
BRANCH  75  76
ATOM     76  N   UNL A   1      34.045  28.232  23.637  1.00  0.00    -0.352 N 
ATOM     77  C   UNL A   1      33.176  27.641  22.759  1.00  0.00     0.253 C 
ATOM     78  H   UNL A   1      34.990  27.981  23.527  1.00  0.00     0.163 HD
ATOM     79  O   UNL A   1      33.609  26.904  21.873  1.00  0.00    -0.269 OA
BRANCH  77  80
ATOM     80  C   UNL A   1      31.715  27.815  22.871  1.00  0.00     0.065 A 
ATOM     81  C   UNL A   1      31.186  29.037  22.425  1.00  0.00     0.016 A 
ATOM     82  C   UNL A   1      30.870  26.864  23.452  1.00  0.00     0.076 A 
ATOM     83  C   UNL A   1      29.815  29.293  22.507  1.00  0.00     0.001 A 
ATOM     84  C   UNL A   1      29.493  27.134  23.517  1.00  0.00     0.029 A 
ATOM     85  C   UNL A   1      28.966  28.336  23.050  1.00  0.00     0.002 A 
BRANCH  82  86
ATOM     86  N   UNL A   1      31.251  25.593  23.878  1.00  0.00    -0.255 NA
ATOM     87  C   UNL A   1      30.502  24.565  23.645  1.00  0.00     0.127 C 
BRANCH  87  88
ATOM     88  C   UNL A   1      31.127  23.246  23.845  1.00  0.00     0.076 A 
ATOM     89  C   UNL A   1      32.079  22.962  22.943  1.00  0.00     0.209 A 
ATOM     90  C   UNL A   1      31.333  22.716  25.209  1.00  0.00     0.201 A 
ATOM     91  O   UNL A   1      33.251  22.293  23.255  1.00  0.00    -0.463 OA
ATOM     92  C   UNL A   1      32.747  22.649  25.591  1.00  0.00     0.065 A 
ATOM     93  O   UNL A   1      30.417  22.454  25.970  1.00  0.00    -0.288 OA
ATOM     94  C   UNL A   1      33.668  22.476  24.558  1.00  0.00     0.137 A 
ATOM     95  C   UNL A   1      33.151  22.901  26.899  1.00  0.00     0.016 A 
ATOM     96  C   UNL A   1      35.025  22.559  24.829  1.00  0.00     0.048 A 
ATOM     97  C   UNL A   1      34.513  23.013  27.165  1.00  0.00     0.001 A 
ATOM     98  C   UNL A   1      35.444  22.847  26.132  1.00  0.00     0.004 A 
ENDBRANCH  87  88
ENDBRANCH  82  86
ENDBRANCH  77  80
ENDBRANCH  75  76
ENDBRANCH  74  75
ENDBRANCH  73  74
ENDBRANCH   1  73
TORSDOF 18
ENDMDL
MODEL 3
REMARK VINA RESULT:     -11.6      3.500      8.867
REMARK SMILES O=C(NCCCCCCNC(=O)c1ccccc1/N=C/c1coc2ccccc2c1=O)c1ccc(-c2c3nc(c(-c4cc(S(=O)(=O)[O-])ccc4F)c4ccc([nH]4)c(-c4cc(S(=O)(=O)[O-])ccc4F)c4nc(c(-c5cc(S(=O)(=O)[O-])ccc5F)c5ccc2[nH]5)C=C4)C=C3)cc1
REMARK SMILES IDX 6 1 5 2 4 3 3 4 1 5 2 6 32 8 33 9 94 10 34 11 93 12 35 13
REMARK SMILES IDX 36 14 37 15 87 16 38 17 92 18 86 19 88 20 39 21 91 22 85 23
REMARK SMILES IDX 84 24 40 26 72 27 52 28 71 29 53 30 56 31 70 32 89 33 54 34
REMARK SMILES IDX 55 35 69 37 90 38 57 39 41 40 42 41 50 42 43 43 49 44 51 45
REMARK SMILES IDX 48 46 44 47 45 48 46 49 47 50 73 51 74 52 82 53 75 54 81 55
REMARK SMILES IDX 83 56 80 57 76 58 77 59 78 60 79 61 58 62 59 63 67 64 60 65
REMARK SMILES IDX 66 66 68 67 65 68 61 69 62 70 63 71 64 72 7 73 8 74 9 75
REMARK SMILES IDX 10 76 11 77 12 79 13 80 14 81 18 82 15 83 17 84 16 85 19 86
REMARK SMILES IDX 20 87 21 88 22 89 30 90 23 91 29 92 31 93 24 94 28 95 25 96
REMARK SMILES IDX 27 97 26 98
REMARK H PARENT 3 7 88 25 56 36 10 78
REMARK Flexibility Score: inf
ROOT
ATOM      1  C   UNL A   1      37.455  21.100  24.515  1.00  0.00     0.002 C 
ENDROOT
BRANCH   1   2
ATOM      2  C   UNL A   1      38.229  19.853  24.951  1.00  0.00     0.021 C 
BRANCH   2   3
ATOM      3  C   UNL A   1      39.227  20.035  26.093  1.00  0.00     0.116 C 
BRANCH   3   4
ATOM      4  N   UNL A   1      40.378  19.156  25.992  1.00  0.00    -0.352 N 
ATOM      5  O   UNL A   1      42.527  18.534  25.838  1.00  0.00    -0.269 OA
ATOM      6  C   UNL A   1      41.720  19.434  26.065  1.00  0.00     0.251 C 
ATOM      7  H   UNL A   1      40.161  18.207  25.846  1.00  0.00     0.163 HD
BRANCH   6   8
ATOM      8  C   UNL A   1      42.217  20.794  26.390  1.00  0.00     0.039 A 
ATOM      9  C   UNL A   1      42.618  21.155  27.680  1.00  0.00     0.014 A 
ATOM     10  C   UNL A   1      42.353  21.716  25.343  1.00  0.00     0.014 A 
ATOM     11  C   UNL A   1      43.067  22.452  27.938  1.00  0.00     0.010 A 
ATOM     12  C   UNL A   1      42.841  23.002  25.594  1.00  0.00     0.010 A 
ATOM     13  C   UNL A   1      43.181  23.387  26.897  1.00  0.00    -0.014 A 
BRANCH  13  14
ATOM     14  C   UNL A   1      43.682  24.756  27.176  1.00  0.00     0.031 A 
ATOM     15  C   UNL A   1      42.762  25.809  27.731  1.00  0.00     0.074 A 
ATOM     16  C   UNL A   1      44.968  25.058  26.918  1.00  0.00     0.049 A 
ATOM     17  N   UNL A   1      43.019  27.059  28.025  1.00  0.00    -0.248 NA
ATOM     18  C   UNL A   1      41.371  25.404  27.977  1.00  0.00     0.031 C 
ATOM     19  C   UNL A   1      45.954  24.138  26.350  1.00  0.00     0.029 A 
ATOM     20  N   UNL A   1      45.664  26.224  27.102  1.00  0.00    -0.354 N 
ATOM     21  C   UNL A   1      41.820  27.599  28.472  1.00  0.00     0.074 A 
ATOM     22  C   UNL A   1      40.831  26.541  28.397  1.00  0.00     0.031 C 
ATOM     23  C   UNL A   1      47.133  24.773  26.243  1.00  0.00     0.029 A 
ATOM     24  C   UNL A   1      46.979  26.144  26.717  1.00  0.00     0.049 A 
ATOM     25  H   UNL A   1      45.260  27.041  27.475  1.00  0.00     0.167 HD
ATOM     26  C   UNL A   1      41.563  28.858  28.907  1.00  0.00     0.034 A 
ATOM     27  C   UNL A   1      47.952  27.074  26.735  1.00  0.00     0.034 A 
ATOM     28  C   UNL A   1      42.547  29.907  28.996  1.00  0.00     0.049 A 
ATOM     29  C   UNL A   1      47.653  28.454  27.243  1.00  0.00     0.074 A 
ATOM     30  C   UNL A   1      42.395  31.200  29.469  1.00  0.00     0.029 A 
ATOM     31  N   UNL A   1      43.871  29.786  28.597  1.00  0.00    -0.354 N 
ATOM     32  N   UNL A   1      46.514  28.945  27.668  1.00  0.00    -0.248 NA
ATOM     33  C   UNL A   1      48.774  29.402  27.271  1.00  0.00     0.031 C 
ATOM     34  C   UNL A   1      43.618  31.869  29.328  1.00  0.00     0.029 A 
ATOM     35  C   UNL A   1      44.541  30.984  28.798  1.00  0.00     0.049 A 
ATOM     36  H   UNL A   1      44.275  28.970  28.225  1.00  0.00     0.167 HD
ATOM     37  C   UNL A   1      46.780  30.264  28.012  1.00  0.00     0.074 A 
ATOM     38  C   UNL A   1      48.188  30.492  27.752  1.00  0.00     0.031 C 
ATOM     39  C   UNL A   1      45.934  31.202  28.504  1.00  0.00     0.034 A 
BRANCH  26  40
ATOM     40  C   UNL A   1      40.140  29.169  29.279  1.00  0.00     0.023 A 
ATOM     41  C   UNL A   1      39.720  29.189  30.619  1.00  0.00     0.031 A 
ATOM     42  C   UNL A   1      39.185  29.407  28.276  1.00  0.00     0.131 A 
ATOM     43  C   UNL A   1      38.365  29.395  30.920  1.00  0.00     0.055 A 
ATOM     44  C   UNL A   1      37.847  29.658  28.585  1.00  0.00     0.041 A 
ATOM     45  F   UNL A   1      39.535  29.378  26.981  1.00  0.00    -0.206 F 
ATOM     46  C   UNL A   1      37.428  29.641  29.913  1.00  0.00     0.022 A 
BRANCH  43  47
ATOM     47  S   UNL A   1      37.822  29.223  32.642  1.00  0.00     0.124 S 
ATOM     48  O   UNL A   1      36.531  29.906  32.621  1.00  0.00    -0.237 OA
ATOM     49  O   UNL A   1      37.776  27.776  32.814  1.00  0.00    -0.237 OA
ATOM     50  O   UNL A   1      38.867  29.908  33.401  1.00  0.00    -0.744 OA
ENDBRANCH  43  47
ENDBRANCH  26  40
BRANCH  27  51
ATOM     51  C   UNL A   1      49.299  26.735  26.217  1.00  0.00     0.023 A 
ATOM     52  C   UNL A   1      49.693  27.117  24.928  1.00  0.00     0.031 A 
ATOM     53  C   UNL A   1      50.211  26.033  27.022  1.00  0.00     0.131 A 
ATOM     54  C   UNL A   1      50.975  26.777  24.472  1.00  0.00     0.055 A 
ATOM     55  C   UNL A   1      51.488  25.710  26.569  1.00  0.00     0.041 A 
ATOM     56  F   UNL A   1      49.869  25.663  28.267  1.00  0.00    -0.206 F 
ATOM     57  C   UNL A   1      51.876  26.082  25.284  1.00  0.00     0.022 A 
BRANCH  54  58
ATOM     58  S   UNL A   1      51.461  27.273  22.798  1.00  0.00     0.124 S 
ATOM     59  O   UNL A   1      50.286  26.893  22.022  1.00  0.00    -0.237 OA
ATOM     60  O   UNL A   1      51.690  28.705  22.956  1.00  0.00    -0.237 OA
ATOM     61  O   UNL A   1      52.662  26.479  22.545  1.00  0.00    -0.744 OA
ENDBRANCH  54  58
ENDBRANCH  27  51
BRANCH  39  62
ATOM     62  C   UNL A   1      46.527  32.550  28.797  1.00  0.00     0.023 A 
ATOM     63  C   UNL A   1      46.538  33.565  27.826  1.00  0.00     0.031 A 
ATOM     64  C   UNL A   1      47.113  32.809  30.047  1.00  0.00     0.131 A 
ATOM     65  C   UNL A   1      47.154  34.792  28.113  1.00  0.00     0.055 A 
ATOM     66  C   UNL A   1      47.703  34.040  30.335  1.00  0.00     0.041 A 
ATOM     67  F   UNL A   1      47.130  31.863  30.999  1.00  0.00    -0.206 F 
ATOM     68  C   UNL A   1      47.731  35.037  29.364  1.00  0.00     0.022 A 
BRANCH  65  69
ATOM     69  S   UNL A   1      47.230  36.056  26.817  1.00  0.00     0.124 S 
ATOM     70  O   UNL A   1      45.854  36.077  26.330  1.00  0.00    -0.237 OA
ATOM     71  O   UNL A   1      47.664  37.238  27.555  1.00  0.00    -0.237 OA
ATOM     72  O   UNL A   1      48.212  35.524  25.875  1.00  0.00    -0.744 OA
ENDBRANCH  65  69
ENDBRANCH  39  62
ENDBRANCH  13  14
ENDBRANCH   6   8
ENDBRANCH   3   4
ENDBRANCH   2   3
ENDBRANCH   1   2
BRANCH   1  73
ATOM     73  C   UNL A   1      36.407  21.622  25.501  1.00  0.00     0.002 C 
BRANCH  73  74
ATOM     74  C   UNL A   1      36.413  23.131  25.771  1.00  0.00     0.021 C 
BRANCH  74  75
ATOM     75  C   UNL A   1      35.093  23.868  25.545  1.00  0.00     0.116 C 
BRANCH  75  76
ATOM     76  N   UNL A   1      34.129  23.667  26.615  1.00  0.00    -0.352 N 
ATOM     77  C   UNL A   1      33.185  22.685  26.762  1.00  0.00     0.253 C 
ATOM     78  H   UNL A   1      34.158  24.334  27.338  1.00  0.00     0.163 HD
ATOM     79  O   UNL A   1      32.492  22.651  27.780  1.00  0.00    -0.269 OA
BRANCH  77  80
ATOM     80  C   UNL A   1      32.929  21.686  25.708  1.00  0.00     0.065 A 
ATOM     81  C   UNL A   1      33.235  20.350  26.012  1.00  0.00     0.016 A 
ATOM     82  C   UNL A   1      32.470  22.019  24.429  1.00  0.00     0.076 A 
ATOM     83  C   UNL A   1      33.038  19.340  25.067  1.00  0.00     0.001 A 
ATOM     84  C   UNL A   1      32.268  20.989  23.495  1.00  0.00     0.029 A 
ATOM     85  C   UNL A   1      32.548  19.661  23.807  1.00  0.00     0.002 A 
BRANCH  82  86
ATOM     86  N   UNL A   1      32.073  23.289  24.015  1.00  0.00    -0.255 NA
ATOM     87  C   UNL A   1      32.645  23.865  23.008  1.00  0.00     0.127 C 
BRANCH  87  88
ATOM     88  C   UNL A   1      31.956  25.043  22.454  1.00  0.00     0.076 A 
ATOM     89  C   UNL A   1      30.746  25.258  22.994  1.00  0.00     0.209 A 
ATOM     90  C   UNL A   1      32.725  26.244  22.064  1.00  0.00     0.201 A 
ATOM     91  O   UNL A   1      30.246  26.520  23.271  1.00  0.00    -0.463 OA
ATOM     92  C   UNL A   1      32.473  27.395  22.937  1.00  0.00     0.065 A 
ATOM     93  O   UNL A   1      33.554  26.246  21.171  1.00  0.00    -0.288 OA
ATOM     94  C   UNL A   1      31.221  27.457  23.548  1.00  0.00     0.137 A 
ATOM     95  C   UNL A   1      33.489  28.292  23.254  1.00  0.00     0.016 A 
ATOM     96  C   UNL A   1      30.972  28.432  24.502  1.00  0.00     0.048 A 
ATOM     97  C   UNL A   1      33.248  29.252  24.233  1.00  0.00     0.001 A 
ATOM     98  C   UNL A   1      31.995  29.317  24.857  1.00  0.00     0.004 A 
ENDBRANCH  87  88
ENDBRANCH  82  86
ENDBRANCH  77  80
ENDBRANCH  75  76
ENDBRANCH  74  75
ENDBRANCH  73  74
ENDBRANCH   1  73
TORSDOF 18
ENDMDL
