MODEL 1
REMARK VINA RESULT:      -7.9      0.000      0.000
REMARK SMILES CCCCCCNC(=O)Oc1cccc(-c2ccc([C@@H](C)C(=O)NCCCCCCNC(=O)c3ccc(-c4c5nc(c(-c6cc(S(=O)(=O)[O-])ccc6F)c6ccc([nH]6)c(-c6cc(S(=O)(=O)[O-])ccc6F)c6nc(c(-c7cc(S(=O)(=O)[O-])ccc7F)c7ccc4[nH]7)C=C6)C=C5)cc3)cc2)c1
REMARK SMILES IDX 22 1 23 2 24 3 20 5 21 6 19 7 16 8 17 9 98 10 18 11 97 12
REMARK SMILES IDX 15 13 11 14 12 15 99 16 13 17 14 18 10 19 8 20 7 21 9 23
REMARK SMILES IDX 6 24 5 25 4 26 3 27 2 28 1 29 25 30 26 31 27 32 28 33 29 34
REMARK SMILES IDX 30 35 31 36 32 37 33 39 34 40 35 41 96 42 36 43 95 44 37 45
REMARK SMILES IDX 38 46 39 47 89 48 40 49 94 50 88 51 90 52 41 53 93 54 87 55
REMARK SMILES IDX 86 56 42 58 74 59 54 60 73 61 55 62 58 63 72 64 91 65 56 66
REMARK SMILES IDX 57 67 71 69 92 70 59 71 43 72 44 73 52 74 45 75 51 76 53 77
REMARK SMILES IDX 50 78 46 79 47 80 48 81 49 82 75 83 76 84 84 85 77 86 83 87
REMARK SMILES IDX 85 88 82 89 78 90 79 91 80 92 81 93 60 94 61 95 69 96 62 97
REMARK SMILES IDX 68 98 70 99 67 100 63 101 64 102 65 103 66 104
REMARK H PARENT 24 4 7 22 31 38 90 57 58 68
REMARK Flexibility Score: inf
ROOT
ATOM      1  C   UNL A   1      47.070  25.140  25.181  1.00  0.00     0.227 C 
ATOM      2  O   UNL A   1      48.131  25.774  25.267  1.00  0.00    -0.274 OA
ATOM      3  N   UNL A   1      47.146  23.905  24.614  1.00  0.00    -0.356 N 
ATOM      4  H   UNL A   1      48.061  23.619  24.392  1.00  0.00     0.163 HD
ENDROOT
BRANCH   1   5
ATOM      5  C   UNL A   1      45.770  25.750  25.729  1.00  0.00     0.105 C 
ATOM      6  C   UNL A   1      45.587  27.227  25.383  1.00  0.00     0.023 C 
BRANCH   5   7
ATOM      7  C   UNL A   1      45.472  25.364  27.170  1.00  0.00    -0.036 A 
ATOM      8  C   UNL A   1      44.898  24.824  29.917  1.00  0.00    -0.018 A 
ATOM      9  C   UNL A   1      44.011  24.461  28.894  1.00  0.00     0.009 A 
ATOM     10  C   UNL A   1      46.102  25.432  29.528  1.00  0.00     0.009 A 
ATOM     11  C   UNL A   1      44.310  24.689  27.548  1.00  0.00     0.005 A 
ATOM     12  C   UNL A   1      46.374  25.717  28.183  1.00  0.00     0.005 A 
BRANCH   8  13
ATOM     13  C   UNL A   1      44.557  24.577  31.336  1.00  0.00    -0.015 A 
ATOM     14  C   UNL A   1      44.159  25.363  33.601  1.00  0.00     0.133 A 
ATOM     15  C   UNL A   1      43.844  24.078  34.031  1.00  0.00     0.047 A 
ATOM     16  C   UNL A   1      44.515  25.620  32.275  1.00  0.00     0.056 A 
ATOM     17  C   UNL A   1      43.880  23.031  33.120  1.00  0.00     0.004 A 
ATOM     18  C   UNL A   1      44.244  23.279  31.792  1.00  0.00     0.009 A 
BRANCH  14  19
ATOM     19  O   UNL A   1      44.233  26.352  34.594  1.00  0.00    -0.410 OA
BRANCH  19  20
ATOM     20  C   UNL A   1      43.080  26.989  35.021  1.00  0.00     0.412 C 
ATOM     21  N   UNL A   1      43.341  28.135  35.720  1.00  0.00    -0.321 N 
ATOM     22  H   UNL A   1      42.567  28.619  36.087  1.00  0.00     0.167 HD
ATOM     23  O   UNL A   1      41.929  26.617  34.827  1.00  0.00    -0.224 OA
BRANCH  21  24
ATOM     24  C   UNL A   1      44.649  28.706  35.974  1.00  0.00     0.119 C 
BRANCH  24  25
ATOM     25  C   UNL A   1      44.898  28.899  37.470  1.00  0.00     0.021 C 
BRANCH  25  26
ATOM     26  C   UNL A   1      45.872  27.890  38.089  1.00  0.00     0.002 C 
BRANCH  26  27
ATOM     27  C   UNL A   1      46.216  26.685  37.206  1.00  0.00    -0.000 C 
BRANCH  27  28
ATOM     28  C   UNL A   1      45.648  25.345  37.678  1.00  0.00    -0.003 C 
ATOM     29  C   UNL A   1      44.699  25.478  38.859  1.00  0.00     0.004 C 
ENDBRANCH  27  28
ENDBRANCH  26  27
ENDBRANCH  25  26
ENDBRANCH  24  25
ENDBRANCH  21  24
ENDBRANCH  19  20
ENDBRANCH  14  19
ENDBRANCH   8  13
ENDBRANCH   5   7
ENDBRANCH   1   5
BRANCH   3  30
ATOM     30  C   UNL A   1      46.122  22.938  24.280  1.00  0.00     0.116 C 
BRANCH  30  31
ATOM     31  C   UNL A   1      45.830  21.996  25.450  1.00  0.00     0.021 C 
BRANCH  31  32
ATOM     32  C   UNL A   1      44.389  21.477  25.476  1.00  0.00     0.002 C 
BRANCH  32  33
ATOM     33  C   UNL A   1      43.382  22.329  24.691  1.00  0.00     0.002 C 
BRANCH  33  34
ATOM     34  C   UNL A   1      42.505  23.255  25.541  1.00  0.00     0.021 C 
BRANCH  34  35
ATOM     35  C   UNL A   1      41.565  22.530  26.501  1.00  0.00     0.116 C 
BRANCH  35  36
ATOM     36  N   UNL A   1      40.191  22.563  26.027  1.00  0.00    -0.352 N 
ATOM     37  C   UNL A   1      39.182  23.441  26.332  1.00  0.00     0.251 C 
ATOM     38  H   UNL A   1      39.948  21.850  25.393  1.00  0.00     0.163 HD
ATOM     39  O   UNL A   1      38.021  23.153  26.057  1.00  0.00    -0.269 OA
BRANCH  37  40
ATOM     40  C   UNL A   1      39.495  24.723  27.001  1.00  0.00     0.039 A 
ATOM     41  C   UNL A   1      39.247  24.855  28.369  1.00  0.00     0.014 A 
ATOM     42  C   UNL A   1      40.003  25.802  26.273  1.00  0.00     0.014 A 
ATOM     43  C   UNL A   1      39.559  26.053  29.017  1.00  0.00     0.010 A 
ATOM     44  C   UNL A   1      40.381  26.969  26.932  1.00  0.00     0.010 A 
ATOM     45  C   UNL A   1      40.156  27.110  28.310  1.00  0.00    -0.014 A 
BRANCH  45  46
ATOM     46  C   UNL A   1      40.538  28.375  28.991  1.00  0.00     0.031 A 
ATOM     47  C   UNL A   1      41.989  28.677  29.259  1.00  0.00     0.074 A 
ATOM     48  C   UNL A   1      39.579  29.219  29.418  1.00  0.00     0.049 A 
ATOM     49  N   UNL A   1      42.518  29.682  29.906  1.00  0.00    -0.248 NA
ATOM     50  C   UNL A   1      42.968  27.700  28.760  1.00  0.00     0.031 C 
ATOM     51  C   UNL A   1      38.138  29.014  29.247  1.00  0.00     0.029 A 
ATOM     52  N   UNL A   1      39.665  30.412  30.090  1.00  0.00    -0.354 N 
ATOM     53  C   UNL A   1      43.892  29.456  29.902  1.00  0.00     0.074 A 
ATOM     54  C   UNL A   1      44.102  28.183  29.245  1.00  0.00     0.031 C 
ATOM     55  C   UNL A   1      37.480  30.057  29.778  1.00  0.00     0.029 A 
ATOM     56  C   UNL A   1      38.443  30.979  30.370  1.00  0.00     0.049 A 
ATOM     57  H   UNL A   1      40.522  30.824  30.348  1.00  0.00     0.167 HD
ATOM     58  C   UNL A   1      44.884  30.245  30.384  1.00  0.00     0.034 A 
ATOM     59  C   UNL A   1      38.133  32.107  31.042  1.00  0.00     0.034 A 
ATOM     60  C   UNL A   1      44.653  31.517  31.027  1.00  0.00     0.049 A 
ATOM     61  C   UNL A   1      39.253  32.955  31.592  1.00  0.00     0.074 A 
ATOM     62  C   UNL A   1      45.585  32.422  31.504  1.00  0.00     0.029 A 
ATOM     63  N   UNL A   1      43.402  32.059  31.294  1.00  0.00    -0.354 N 
ATOM     64  N   UNL A   1      40.548  32.750  31.538  1.00  0.00    -0.248 NA
ATOM     65  C   UNL A   1      38.867  34.192  32.282  1.00  0.00     0.031 C 
ATOM     66  C   UNL A   1      44.899  33.472  32.123  1.00  0.00     0.029 A 
ATOM     67  C   UNL A   1      43.538  33.269  31.957  1.00  0.00     0.049 A 
ATOM     68  H   UNL A   1      42.543  31.645  31.047  1.00  0.00     0.167 HD
ATOM     69  C   UNL A   1      41.133  33.852  32.157  1.00  0.00     0.074 A 
ATOM     70  C   UNL A   1      40.048  34.722  32.562  1.00  0.00     0.031 C 
ATOM     71  C   UNL A   1      42.446  34.123  32.366  1.00  0.00     0.034 A 
BRANCH  58  72
ATOM     72  C   UNL A   1      46.302  29.739  30.254  1.00  0.00     0.023 A 
ATOM     73  C   UNL A   1      47.104  30.054  29.142  1.00  0.00     0.031 A 
ATOM     74  C   UNL A   1      46.855  28.910  31.247  1.00  0.00     0.131 A 
ATOM     75  C   UNL A   1      48.379  29.484  29.011  1.00  0.00     0.055 A 
ATOM     76  C   UNL A   1      48.158  28.416  31.152  1.00  0.00     0.041 A 
ATOM     77  F   UNL A   1      46.134  28.556  32.322  1.00  0.00    -0.206 F 
ATOM     78  C   UNL A   1      48.922  28.688  30.022  1.00  0.00     0.022 A 
BRANCH  75  79
ATOM     79  S   UNL A   1      49.255  29.675  27.436  1.00  0.00     0.124 S 
ATOM     80  O   UNL A   1      49.264  28.303  26.935  1.00  0.00    -0.237 OA
ATOM     81  O   UNL A   1      48.406  30.614  26.713  1.00  0.00    -0.237 OA
ATOM     82  O   UNL A   1      50.563  30.194  27.832  1.00  0.00    -0.744 OA
ENDBRANCH  75  79
ENDBRANCH  58  72
BRANCH  59  83
ATOM     83  C   UNL A   1      36.708  32.496  31.247  1.00  0.00     0.023 A 
ATOM     84  C   UNL A   1      35.954  33.059  30.205  1.00  0.00     0.031 A 
ATOM     85  C   UNL A   1      36.089  32.351  32.502  1.00  0.00     0.131 A 
ATOM     86  C   UNL A   1      34.644  33.501  30.447  1.00  0.00     0.055 A 
ATOM     87  C   UNL A   1      34.767  32.739  32.724  1.00  0.00     0.041 A 
ATOM     88  F   UNL A   1      36.762  31.815  33.533  1.00  0.00    -0.206 F 
ATOM     89  C   UNL A   1      34.040  33.332  31.696  1.00  0.00     0.022 A 
BRANCH  86  90
ATOM     90  S   UNL A   1      33.769  34.389  29.130  1.00  0.00     0.124 S 
ATOM     91  O   UNL A   1      34.774  35.358  28.707  1.00  0.00    -0.237 OA
ATOM     92  O   UNL A   1      33.473  33.316  28.187  1.00  0.00    -0.237 OA
ATOM     93  O   UNL A   1      32.607  34.953  29.814  1.00  0.00    -0.744 OA
ENDBRANCH  86  90
ENDBRANCH  59  83
BRANCH  71  94
ATOM     94  C   UNL A   1      42.781  35.442  33.021  1.00  0.00     0.023 A 
ATOM     95  C   UNL A   1      43.202  36.557  32.274  1.00  0.00     0.031 A 
ATOM     96  C   UNL A   1      42.688  35.580  34.417  1.00  0.00     0.131 A 
ATOM     97  C   UNL A   1      43.568  37.741  32.931  1.00  0.00     0.055 A 
ATOM     98  C   UNL A   1      42.990  36.781  35.060  1.00  0.00     0.041 A 
ATOM     99  F   UNL A   1      42.296  34.548  35.182  1.00  0.00    -0.206 F 
ATOM    100  C   UNL A   1      43.446  37.867  34.317  1.00  0.00     0.022 A 
BRANCH  97 101
ATOM    101  S   UNL A   1      44.299  39.086  31.960  1.00  0.00     0.124 S 
ATOM    102  O   UNL A   1      44.180  38.577  30.598  1.00  0.00    -0.237 OA
ATOM    103  O   UNL A   1      43.439  40.217  32.295  1.00  0.00    -0.237 OA
ATOM    104  O   UNL A   1      45.666  39.176  32.471  1.00  0.00    -0.744 OA
ENDBRANCH  97 101
ENDBRANCH  71  94
ENDBRANCH  45  46
ENDBRANCH  37  40
ENDBRANCH  35  36
ENDBRANCH  34  35
ENDBRANCH  33  34
ENDBRANCH  32  33
ENDBRANCH  31  32
ENDBRANCH  30  31
ENDBRANCH   3  30
TORSDOF 25
ENDMDL
MODEL 2
REMARK VINA RESULT:      -7.3      4.662     11.152
REMARK SMILES CCCCCCNC(=O)Oc1cccc(-c2ccc([C@@H](C)C(=O)NCCCCCCNC(=O)c3ccc(-c4c5nc(c(-c6cc(S(=O)(=O)[O-])ccc6F)c6ccc([nH]6)c(-c6cc(S(=O)(=O)[O-])ccc6F)c6nc(c(-c7cc(S(=O)(=O)[O-])ccc7F)c7ccc4[nH]7)C=C6)C=C5)cc3)cc2)c1
REMARK SMILES IDX 22 1 23 2 24 3 20 5 21 6 19 7 16 8 17 9 98 10 18 11 97 12
REMARK SMILES IDX 15 13 11 14 12 15 99 16 13 17 14 18 10 19 8 20 7 21 9 23
REMARK SMILES IDX 6 24 5 25 4 26 3 27 2 28 1 29 25 30 26 31 27 32 28 33 29 34
REMARK SMILES IDX 30 35 31 36 32 37 33 39 34 40 35 41 96 42 36 43 95 44 37 45
REMARK SMILES IDX 38 46 39 47 89 48 40 49 94 50 88 51 90 52 41 53 93 54 87 55
REMARK SMILES IDX 86 56 42 58 74 59 54 60 73 61 55 62 58 63 72 64 91 65 56 66
REMARK SMILES IDX 57 67 71 69 92 70 59 71 43 72 44 73 52 74 45 75 51 76 53 77
REMARK SMILES IDX 50 78 46 79 47 80 48 81 49 82 75 83 76 84 84 85 77 86 83 87
REMARK SMILES IDX 85 88 82 89 78 90 79 91 80 92 81 93 60 94 61 95 69 96 62 97
REMARK SMILES IDX 68 98 70 99 67 100 63 101 64 102 65 103 66 104
REMARK H PARENT 24 4 7 22 31 38 90 57 58 68
REMARK Flexibility Score: inf
ROOT
ATOM      1  C   UNL A   1      41.580  29.357  28.912  1.00  0.00     0.227 C 
ATOM      2  O   UNL A   1      42.380  30.262  29.188  1.00  0.00    -0.274 OA
ATOM      3  N   UNL A   1      41.032  28.692  29.966  1.00  0.00    -0.356 N 
ATOM      4  H   UNL A   1      41.283  29.054  30.846  1.00  0.00     0.163 HD
ENDROOT
BRANCH   1   5
ATOM      5  C   UNL A   1      41.238  29.061  27.444  1.00  0.00     0.105 C 
ATOM      6  C   UNL A   1      39.739  28.955  27.168  1.00  0.00     0.023 C 
BRANCH   5   7
ATOM      7  C   UNL A   1      42.106  27.981  26.817  1.00  0.00    -0.036 A 
ATOM      8  C   UNL A   1      43.722  25.852  25.803  1.00  0.00    -0.018 A 
ATOM      9  C   UNL A   1      42.466  26.149  25.256  1.00  0.00     0.009 A 
ATOM     10  C   UNL A   1      44.169  26.673  26.850  1.00  0.00     0.009 A 
ATOM     11  C   UNL A   1      41.694  27.216  25.725  1.00  0.00     0.005 A 
ATOM     12  C   UNL A   1      43.368  27.704  27.363  1.00  0.00     0.005 A 
BRANCH   8  13
ATOM     13  C   UNL A   1      44.519  24.715  25.292  1.00  0.00    -0.015 A 
ATOM     14  C   UNL A   1      44.696  22.436  24.468  1.00  0.00     0.133 A 
ATOM     15  C   UNL A   1      46.064  22.577  24.261  1.00  0.00     0.047 A 
ATOM     16  C   UNL A   1      43.925  23.482  24.979  1.00  0.00     0.056 A 
ATOM     17  C   UNL A   1      46.673  23.787  24.565  1.00  0.00     0.004 A 
ATOM     18  C   UNL A   1      45.909  24.837  25.084  1.00  0.00     0.009 A 
BRANCH  14  19
ATOM     19  O   UNL A   1      44.164  21.152  24.267  1.00  0.00    -0.410 OA
BRANCH  19  20
ATOM     20  C   UNL A   1      44.679  20.074  24.968  1.00  0.00     0.412 C 
ATOM     21  N   UNL A   1      43.747  19.476  25.770  1.00  0.00    -0.321 N 
ATOM     22  H   UNL A   1      44.055  18.725  26.327  1.00  0.00     0.167 HD
ATOM     23  O   UNL A   1      45.830  19.658  24.919  1.00  0.00    -0.224 OA
BRANCH  21  24
ATOM     24  C   UNL A   1      42.349  19.841  25.881  1.00  0.00     0.119 C 
BRANCH  24  25
ATOM     25  C   UNL A   1      42.150  21.035  26.814  1.00  0.00     0.021 C 
BRANCH  25  26
ATOM     26  C   UNL A   1      41.354  22.194  26.204  1.00  0.00     0.002 C 
BRANCH  26  27
ATOM     27  C   UNL A   1      40.029  22.518  26.904  1.00  0.00    -0.000 C 
BRANCH  27  28
ATOM     28  C   UNL A   1      39.983  23.865  27.627  1.00  0.00    -0.003 C 
ATOM     29  C   UNL A   1      41.343  24.323  28.130  1.00  0.00     0.004 C 
ENDBRANCH  27  28
ENDBRANCH  26  27
ENDBRANCH  25  26
ENDBRANCH  24  25
ENDBRANCH  21  24
ENDBRANCH  19  20
ENDBRANCH  14  19
ENDBRANCH   8  13
ENDBRANCH   5   7
ENDBRANCH   1   5
BRANCH   3  30
ATOM     30  C   UNL A   1      40.145  27.549  30.023  1.00  0.00     0.116 C 
BRANCH  30  31
ATOM     31  C   UNL A   1      38.945  27.809  30.935  1.00  0.00     0.021 C 
BRANCH  31  32
ATOM     32  C   UNL A   1      37.811  28.582  30.254  1.00  0.00     0.002 C 
BRANCH  32  33
ATOM     33  C   UNL A   1      37.801  30.091  30.532  1.00  0.00     0.002 C 
BRANCH  33  34
ATOM     34  C   UNL A   1      36.590  30.850  29.978  1.00  0.00     0.021 C 
BRANCH  34  35
ATOM     35  C   UNL A   1      36.874  32.299  29.591  1.00  0.00     0.116 C 
BRANCH  35  36
ATOM     36  N   UNL A   1      35.990  33.220  30.288  1.00  0.00    -0.352 N 
ATOM     37  C   UNL A   1      35.910  33.508  31.627  1.00  0.00     0.251 C 
ATOM     38  H   UNL A   1      35.357  33.709  29.715  1.00  0.00     0.163 HD
ATOM     39  O   UNL A   1      34.925  34.097  32.064  1.00  0.00    -0.269 OA
BRANCH  37  40
ATOM     40  C   UNL A   1      37.001  33.098  32.538  1.00  0.00     0.039 A 
ATOM     41  C   UNL A   1      38.302  33.539  32.282  1.00  0.00     0.014 A 
ATOM     42  C   UNL A   1      36.746  32.257  33.625  1.00  0.00     0.014 A 
ATOM     43  C   UNL A   1      39.338  33.178  33.148  1.00  0.00     0.010 A 
ATOM     44  C   UNL A   1      37.764  31.959  34.526  1.00  0.00     0.010 A 
ATOM     45  C   UNL A   1      39.072  32.409  34.294  1.00  0.00    -0.014 A 
BRANCH  45  46
ATOM     46  C   UNL A   1      40.154  32.054  35.251  1.00  0.00     0.031 A 
ATOM     47  C   UNL A   1      40.659  33.080  36.229  1.00  0.00     0.074 A 
ATOM     48  C   UNL A   1      40.715  30.831  35.199  1.00  0.00     0.049 A 
ATOM     49  N   UNL A   1      41.642  32.992  37.087  1.00  0.00    -0.248 NA
ATOM     50  C   UNL A   1      39.989  34.390  36.216  1.00  0.00     0.031 C 
ATOM     51  C   UNL A   1      40.332  29.765  34.269  1.00  0.00     0.029 A 
ATOM     52  N   UNL A   1      41.733  30.277  35.935  1.00  0.00    -0.354 N 
ATOM     53  C   UNL A   1      41.717  34.235  37.708  1.00  0.00     0.074 A 
ATOM     54  C   UNL A   1      40.722  35.077  37.079  1.00  0.00     0.031 C 
ATOM     55  C   UNL A   1      41.088  28.681  34.508  1.00  0.00     0.029 A 
ATOM     56  C   UNL A   1      42.041  28.986  35.570  1.00  0.00     0.049 A 
ATOM     57  H   UNL A   1      42.198  30.758  36.657  1.00  0.00     0.167 HD
ATOM     58  C   UNL A   1      42.527  34.630  38.722  1.00  0.00     0.034 A 
ATOM     59  C   UNL A   1      42.994  28.149  36.028  1.00  0.00     0.034 A 
ATOM     60  C   UNL A   1      43.507  33.771  39.343  1.00  0.00     0.049 A 
ATOM     61  C   UNL A   1      43.901  28.620  37.138  1.00  0.00     0.074 A 
ATOM     62  C   UNL A   1      44.342  34.049  40.411  1.00  0.00     0.029 A 
ATOM     63  N   UNL A   1      43.792  32.470  38.947  1.00  0.00    -0.354 N 
ATOM     64  N   UNL A   1      43.927  29.782  37.747  1.00  0.00    -0.248 NA
ATOM     65  C   UNL A   1      44.897  27.660  37.629  1.00  0.00     0.031 C 
ATOM     66  C   UNL A   1      45.181  32.947  40.612  1.00  0.00     0.029 A 
ATOM     67  C   UNL A   1      44.812  31.947  39.727  1.00  0.00     0.049 A 
ATOM     68  H   UNL A   1      43.336  31.990  38.219  1.00  0.00     0.167 HD
ATOM     69  C   UNL A   1      44.920  29.680  38.718  1.00  0.00     0.074 A 
ATOM     70  C   UNL A   1      45.457  28.339  38.620  1.00  0.00     0.031 C 
ATOM     71  C   UNL A   1      45.346  30.608  39.612  1.00  0.00     0.034 A 
BRANCH  58  72
ATOM     72  C   UNL A   1      42.402  36.058  39.199  1.00  0.00     0.023 A 
ATOM     73  C   UNL A   1      41.548  36.415  40.258  1.00  0.00     0.031 A 
ATOM     74  C   UNL A   1      43.130  37.085  38.571  1.00  0.00     0.131 A 
ATOM     75  C   UNL A   1      41.383  37.764  40.604  1.00  0.00     0.055 A 
ATOM     76  C   UNL A   1      43.028  38.416  38.978  1.00  0.00     0.041 A 
ATOM     77  F   UNL A   1      43.947  36.813  37.541  1.00  0.00    -0.206 F 
ATOM     78  C   UNL A   1      42.139  38.765  39.990  1.00  0.00     0.022 A 
BRANCH  75  79
ATOM     79  S   UNL A   1      40.062  38.206  41.764  1.00  0.00     0.124 S 
ATOM     80  O   UNL A   1      39.220  39.068  40.938  1.00  0.00    -0.237 OA
ATOM     81  O   UNL A   1      39.499  36.907  42.113  1.00  0.00    -0.237 OA
ATOM     82  O   UNL A   1      40.769  38.891  42.845  1.00  0.00    -0.744 OA
ENDBRANCH  75  79
ENDBRANCH  58  72
BRANCH  59  83
ATOM     83  C   UNL A   1      43.154  26.790  35.435  1.00  0.00     0.023 A 
ATOM     84  C   UNL A   1      43.917  26.591  34.274  1.00  0.00     0.031 A 
ATOM     85  C   UNL A   1      42.510  25.673  35.999  1.00  0.00     0.131 A 
ATOM     86  C   UNL A   1      43.976  25.319  33.684  1.00  0.00     0.055 A 
ATOM     87  C   UNL A   1      42.620  24.398  35.442  1.00  0.00     0.041 A 
ATOM     88  F   UNL A   1      41.772  25.805  37.112  1.00  0.00    -0.206 F 
ATOM     89  C   UNL A   1      43.345  24.218  34.268  1.00  0.00     0.022 A 
BRANCH  86  90
ATOM     90  S   UNL A   1      44.816  25.140  32.086  1.00  0.00     0.124 S 
ATOM     91  O   UNL A   1      44.295  26.286  31.348  1.00  0.00    -0.237 OA
ATOM     92  O   UNL A   1      46.221  25.210  32.474  1.00  0.00    -0.237 OA
ATOM     93  O   UNL A   1      44.367  23.833  31.610  1.00  0.00    -0.744 OA
ENDBRANCH  86  90
ENDBRANCH  59  83
BRANCH  71  94
ATOM     94  C   UNL A   1      46.413  30.181  40.592  1.00  0.00     0.023 A 
ATOM     95  C   UNL A   1      46.097  29.737  41.888  1.00  0.00     0.031 A 
ATOM     96  C   UNL A   1      47.769  30.231  40.223  1.00  0.00     0.131 A 
ATOM     97  C   UNL A   1      47.126  29.416  42.787  1.00  0.00     0.055 A 
ATOM     98  C   UNL A   1      48.785  29.846  41.099  1.00  0.00     0.041 A 
ATOM     99  F   UNL A   1      48.130  30.650  38.999  1.00  0.00    -0.206 F 
ATOM    100  C   UNL A   1      48.466  29.449  42.394  1.00  0.00     0.022 A 
BRANCH  97 101
ATOM    101  S   UNL A   1      46.695  29.047  44.509  1.00  0.00     0.124 S 
ATOM    102  O   UNL A   1      45.531  29.903  44.720  1.00  0.00    -0.237 OA
ATOM    103  O   UNL A   1      46.430  27.612  44.464  1.00  0.00    -0.237 OA
ATOM    104  O   UNL A   1      47.892  29.433  45.253  1.00  0.00    -0.744 OA
ENDBRANCH  97 101
ENDBRANCH  71  94
ENDBRANCH  45  46
ENDBRANCH  37  40
ENDBRANCH  35  36
ENDBRANCH  34  35
ENDBRANCH  33  34
ENDBRANCH  32  33
ENDBRANCH  31  32
ENDBRANCH  30  31
ENDBRANCH   3  30
TORSDOF 25
ENDMDL
MODEL 3
REMARK VINA RESULT:      -7.2      5.229     10.153
REMARK SMILES CCCCCCNC(=O)Oc1cccc(-c2ccc([C@@H](C)C(=O)NCCCCCCNC(=O)c3ccc(-c4c5nc(c(-c6cc(S(=O)(=O)[O-])ccc6F)c6ccc([nH]6)c(-c6cc(S(=O)(=O)[O-])ccc6F)c6nc(c(-c7cc(S(=O)(=O)[O-])ccc7F)c7ccc4[nH]7)C=C6)C=C5)cc3)cc2)c1
REMARK SMILES IDX 22 1 23 2 24 3 20 5 21 6 19 7 16 8 17 9 98 10 18 11 97 12
REMARK SMILES IDX 15 13 11 14 12 15 99 16 13 17 14 18 10 19 8 20 7 21 9 23
REMARK SMILES IDX 6 24 5 25 4 26 3 27 2 28 1 29 25 30 26 31 27 32 28 33 29 34
REMARK SMILES IDX 30 35 31 36 32 37 33 39 34 40 35 41 96 42 36 43 95 44 37 45
REMARK SMILES IDX 38 46 39 47 89 48 40 49 94 50 88 51 90 52 41 53 93 54 87 55
REMARK SMILES IDX 86 56 42 58 74 59 54 60 73 61 55 62 58 63 72 64 91 65 56 66
REMARK SMILES IDX 57 67 71 69 92 70 59 71 43 72 44 73 52 74 45 75 51 76 53 77
REMARK SMILES IDX 50 78 46 79 47 80 48 81 49 82 75 83 76 84 84 85 77 86 83 87
REMARK SMILES IDX 85 88 82 89 78 90 79 91 80 92 81 93 60 94 61 95 69 96 62 97
REMARK SMILES IDX 68 98 70 99 67 100 63 101 64 102 65 103 66 104
REMARK H PARENT 24 4 7 22 31 38 90 57 58 68
REMARK Flexibility Score: inf
ROOT
ATOM      1  C   UNL A   1      42.859  26.077  27.836  1.00  0.00     0.227 C 
ATOM      2  O   UNL A   1      43.671  25.945  26.910  1.00  0.00    -0.274 OA
ATOM      3  N   UNL A   1      42.542  27.354  28.185  1.00  0.00    -0.356 N 
ATOM      4  H   UNL A   1      42.947  28.043  27.610  1.00  0.00     0.163 HD
ENDROOT
BRANCH   1   5
ATOM      5  C   UNL A   1      42.249  24.833  28.500  1.00  0.00     0.105 C 
ATOM      6  C   UNL A   1      43.265  23.731  28.797  1.00  0.00     0.023 C 
BRANCH   5   7
ATOM      7  C   UNL A   1      40.943  24.379  27.867  1.00  0.00    -0.036 A 
ATOM      8  C   UNL A   1      38.514  23.659  26.544  1.00  0.00    -0.018 A 
ATOM      9  C   UNL A   1      39.607  22.784  26.605  1.00  0.00     0.009 A 
ATOM     10  C   UNL A   1      38.651  24.894  27.197  1.00  0.00     0.009 A 
ATOM     11  C   UNL A   1      40.780  23.120  27.287  1.00  0.00     0.005 A 
ATOM     12  C   UNL A   1      39.851  25.257  27.827  1.00  0.00     0.005 A 
BRANCH   8  13
ATOM     13  C   UNL A   1      37.284  23.282  25.812  1.00  0.00    -0.015 A 
ATOM     14  C   UNL A   1      34.880  23.402  25.481  1.00  0.00     0.133 A 
ATOM     15  C   UNL A   1      34.956  22.589  24.355  1.00  0.00     0.047 A 
ATOM     16  C   UNL A   1      36.020  23.747  26.209  1.00  0.00     0.056 A 
ATOM     17  C   UNL A   1      36.196  22.117  23.945  1.00  0.00     0.004 A 
ATOM     18  C   UNL A   1      37.342  22.452  24.674  1.00  0.00     0.009 A 
BRANCH  14  19
ATOM     19  O   UNL A   1      33.589  23.738  25.920  1.00  0.00    -0.410 OA
BRANCH  19  20
ATOM     20  C   UNL A   1      33.099  25.016  25.709  1.00  0.00     0.412 C 
ATOM     21  N   UNL A   1      32.006  25.030  24.888  1.00  0.00    -0.321 N 
ATOM     22  H   UNL A   1      31.629  25.911  24.664  1.00  0.00     0.167 HD
ATOM     23  O   UNL A   1      33.551  26.054  26.176  1.00  0.00    -0.224 OA
BRANCH  21  24
ATOM     24  C   UNL A   1      31.349  23.874  24.313  1.00  0.00     0.119 C 
BRANCH  24  25
ATOM     25  C   UNL A   1      31.550  23.806  22.799  1.00  0.00     0.021 C 
BRANCH  25  26
ATOM     26  C   UNL A   1      32.854  24.437  22.300  1.00  0.00     0.002 C 
BRANCH  26  27
ATOM     27  C   UNL A   1      32.692  25.748  21.522  1.00  0.00    -0.000 C 
BRANCH  27  28
ATOM     28  C   UNL A   1      33.420  26.956  22.115  1.00  0.00    -0.003 C 
ATOM     29  C   UNL A   1      32.484  27.954  22.779  1.00  0.00     0.004 C 
ENDBRANCH  27  28
ENDBRANCH  26  27
ENDBRANCH  25  26
ENDBRANCH  24  25
ENDBRANCH  21  24
ENDBRANCH  19  20
ENDBRANCH  14  19
ENDBRANCH   8  13
ENDBRANCH   5   7
ENDBRANCH   1   5
BRANCH   3  30
ATOM     30  C   UNL A   1      41.714  27.881  29.250  1.00  0.00     0.116 C 
BRANCH  30  31
ATOM     31  C   UNL A   1      40.939  29.122  28.804  1.00  0.00     0.021 C 
BRANCH  31  32
ATOM     32  C   UNL A   1      40.152  28.921  27.505  1.00  0.00     0.002 C 
BRANCH  32  33
ATOM     33  C   UNL A   1      38.656  29.248  27.600  1.00  0.00     0.002 C 
BRANCH  33  34
ATOM     34  C   UNL A   1      38.170  29.696  28.983  1.00  0.00     0.021 C 
BRANCH  34  35
ATOM     35  C   UNL A   1      36.717  29.341  29.288  1.00  0.00     0.116 C 
BRANCH  35  36
ATOM     36  N   UNL A   1      35.920  30.531  29.542  1.00  0.00    -0.352 N 
ATOM     37  C   UNL A   1      35.895  31.346  30.646  1.00  0.00     0.251 C 
ATOM     38  H   UNL A   1      35.310  30.791  28.815  1.00  0.00     0.163 HD
ATOM     39  O   UNL A   1      34.967  32.135  30.797  1.00  0.00    -0.269 OA
BRANCH  37  40
ATOM     40  C   UNL A   1      36.976  31.262  31.652  1.00  0.00     0.039 A 
ATOM     41  C   UNL A   1      38.047  32.156  31.576  1.00  0.00     0.014 A 
ATOM     42  C   UNL A   1      36.949  30.283  32.648  1.00  0.00     0.014 A 
ATOM     43  C   UNL A   1      39.064  32.101  32.533  1.00  0.00     0.010 A 
ATOM     44  C   UNL A   1      37.923  30.277  33.643  1.00  0.00     0.010 A 
ATOM     45  C   UNL A   1      38.995  31.180  33.592  1.00  0.00    -0.014 A 
BRANCH  45  46
ATOM     46  C   UNL A   1      40.043  31.138  34.646  1.00  0.00     0.031 A 
ATOM     47  C   UNL A   1      41.230  30.225  34.491  1.00  0.00     0.074 A 
ATOM     48  C   UNL A   1      39.896  31.877  35.762  1.00  0.00     0.049 A 
ATOM     49  N   UNL A   1      42.206  29.987  35.328  1.00  0.00    -0.248 NA
ATOM     50  C   UNL A   1      41.309  29.454  33.240  1.00  0.00     0.031 C 
ATOM     51  C   UNL A   1      38.770  32.773  36.040  1.00  0.00     0.029 A 
ATOM     52  N   UNL A   1      40.689  31.989  36.877  1.00  0.00    -0.354 N 
ATOM     53  C   UNL A   1      43.010  29.032  34.713  1.00  0.00     0.074 A 
ATOM     54  C   UNL A   1      42.368  28.690  33.462  1.00  0.00     0.031 C 
ATOM     55  C   UNL A   1      38.958  33.357  37.233  1.00  0.00     0.029 A 
ATOM     56  C   UNL A   1      40.187  32.846  37.830  1.00  0.00     0.049 A 
ATOM     57  H   UNL A   1      41.538  31.501  36.985  1.00  0.00     0.167 HD
ATOM     58  C   UNL A   1      44.184  28.506  35.143  1.00  0.00     0.034 A 
ATOM     59  C   UNL A   1      40.656  33.170  39.052  1.00  0.00     0.034 A 
ATOM     60  C   UNL A   1      44.813  28.869  36.391  1.00  0.00     0.049 A 
ATOM     61  C   UNL A   1      41.950  32.552  39.520  1.00  0.00     0.074 A 
ATOM     62  C   UNL A   1      46.026  28.440  36.900  1.00  0.00     0.029 A 
ATOM     63  N   UNL A   1      44.275  29.740  37.330  1.00  0.00    -0.354 N 
ATOM     64  N   UNL A   1      42.722  31.686  38.906  1.00  0.00    -0.248 NA
ATOM     65  C   UNL A   1      42.440  32.965  40.841  1.00  0.00     0.031 C 
ATOM     66  C   UNL A   1      46.186  28.991  38.176  1.00  0.00     0.029 A 
ATOM     67  C   UNL A   1      45.116  29.834  38.429  1.00  0.00     0.049 A 
ATOM     68  H   UNL A   1      43.422  30.221  37.230  1.00  0.00     0.167 HD
ATOM     69  C   UNL A   1      43.809  31.479  39.753  1.00  0.00     0.074 A 
ATOM     70  C   UNL A   1      43.595  32.320  40.912  1.00  0.00     0.031 C 
ATOM     71  C   UNL A   1      44.886  30.671  39.585  1.00  0.00     0.034 A 
BRANCH  58  72
ATOM     72  C   UNL A   1      44.843  27.465  34.269  1.00  0.00     0.023 A 
ATOM     73  C   UNL A   1      44.501  26.102  34.351  1.00  0.00     0.031 A 
ATOM     74  C   UNL A   1      45.844  27.834  33.353  1.00  0.00     0.131 A 
ATOM     75  C   UNL A   1      45.205  25.155  33.594  1.00  0.00     0.055 A 
ATOM     76  C   UNL A   1      46.481  26.896  32.539  1.00  0.00     0.041 A 
ATOM     77  F   UNL A   1      46.230  29.115  33.241  1.00  0.00    -0.206 F 
ATOM     78  C   UNL A   1      46.175  25.545  32.668  1.00  0.00     0.022 A 
BRANCH  75  79
ATOM     79  S   UNL A   1      44.940  23.395  33.946  1.00  0.00     0.124 S 
ATOM     80  O   UNL A   1      44.368  22.926  32.686  1.00  0.00    -0.237 OA
ATOM     81  O   UNL A   1      46.286  22.927  34.250  1.00  0.00    -0.237 OA
ATOM     82  O   UNL A   1      44.012  23.408  35.075  1.00  0.00    -0.744 OA
ENDBRANCH  75  79
ENDBRANCH  58  72
BRANCH  59  83
ATOM     83  C   UNL A   1      39.899  34.112  39.926  1.00  0.00     0.023 A 
ATOM     84  C   UNL A   1      39.956  35.499  39.716  1.00  0.00     0.031 A 
ATOM     85  C   UNL A   1      39.140  33.642  41.013  1.00  0.00     0.131 A 
ATOM     86  C   UNL A   1      39.309  36.370  40.607  1.00  0.00     0.055 A 
ATOM     87  C   UNL A   1      38.451  34.509  41.863  1.00  0.00     0.041 A 
ATOM     88  F   UNL A   1      39.048  32.326  41.258  1.00  0.00    -0.206 F 
ATOM     89  C   UNL A   1      38.545  35.884  41.670  1.00  0.00     0.022 A 
BRANCH  86  90
ATOM     90  S   UNL A   1      39.558  38.156  40.411  1.00  0.00     0.124 S 
ATOM     91  O   UNL A   1      38.431  38.520  39.559  1.00  0.00    -0.237 OA
ATOM     92  O   UNL A   1      39.497  38.623  41.792  1.00  0.00    -0.237 OA
ATOM     93  O   UNL A   1      40.874  38.248  39.781  1.00  0.00    -0.744 OA
ENDBRANCH  86  90
ENDBRANCH  59  83
BRANCH  71  94
ATOM     94  C   UNL A   1      45.943  30.701  40.663  1.00  0.00     0.023 A 
ATOM     95  C   UNL A   1      47.024  31.599  40.619  1.00  0.00     0.031 A 
ATOM     96  C   UNL A   1      45.871  29.807  41.747  1.00  0.00     0.131 A 
ATOM     97  C   UNL A   1      48.019  31.544  41.607  1.00  0.00     0.055 A 
ATOM     98  C   UNL A   1      46.828  29.803  42.762  1.00  0.00     0.041 A 
ATOM     99  F   UNL A   1      44.863  28.925  41.840  1.00  0.00    -0.206 F 
ATOM    100  C   UNL A   1      47.918  30.666  42.688  1.00  0.00     0.022 A 
BRANCH  97 101
ATOM    101  S   UNL A   1      49.501  32.571  41.409  1.00  0.00     0.124 S 
ATOM    102  O   UNL A   1      49.445  32.914  39.992  1.00  0.00    -0.237 OA
ATOM    103  O   UNL A   1      49.249  33.666  42.340  1.00  0.00    -0.237 OA
ATOM    104  O   UNL A   1      50.593  31.676  41.788  1.00  0.00    -0.744 OA
ENDBRANCH  97 101
ENDBRANCH  71  94
ENDBRANCH  45  46
ENDBRANCH  37  40
ENDBRANCH  35  36
ENDBRANCH  34  35
ENDBRANCH  33  34
ENDBRANCH  32  33
ENDBRANCH  31  32
ENDBRANCH  30  31
ENDBRANCH   3  30
TORSDOF 25
ENDMDL
