MODEL 1
REMARK VINA RESULT:     -12.1      0.000      0.000
REMARK SMILES CC(C)(C)OC(=O)N1C[C@@H](C(=O)NCCCCCCNC(=O)c2ccc(-c3c4nc(c(-c5cc(S(=O)(=O)[O-])ccc5F)c5ccc([nH]5)c(-c5cc(S(=O)(=O)[O-])ccc5F)c5nc(c(-c6cc(S(=O)(=O)[O-])ccc6F)c6ccc3[nH]6)C=C5)C=C4)cc2)[C@@]2(C1)C(=O)Nc1ccccc12
REMARK SMILES IDX 16 1 15 2 14 3 13 4 11 5 12 6 10 8 8 9 9 10 87 11 86 12
REMARK SMILES IDX 88 13 96 14 89 15 90 16 91 17 95 18 92 20 94 21 93 22 6 23
REMARK SMILES IDX 7 24 5 25 2 26 1 27 3 28 4 29 17 30 18 31 19 32 20 33 21 34
REMARK SMILES IDX 22 36 23 37 24 38 85 39 25 40 84 41 26 42 27 43 28 44 78 45
REMARK SMILES IDX 29 46 83 47 77 48 79 49 30 50 82 51 76 52 75 53 31 55 63 56
REMARK SMILES IDX 43 57 62 58 44 59 47 60 61 61 80 62 45 63 46 64 60 66 81 67
REMARK SMILES IDX 48 68 32 69 33 70 41 71 34 72 40 73 42 74 39 75 35 76 36 77
REMARK SMILES IDX 37 78 38 79 64 80 65 81 73 82 66 83 72 84 74 85 71 86 67 87
REMARK SMILES IDX 68 88 69 89 70 90 49 91 50 92 58 93 51 94 57 95 59 96 56 97
REMARK SMILES IDX 52 98 53 99 54 100 55 101
REMARK H PARENT 13 7 90 19 20 35 79 54 47 65
REMARK Flexibility Score: inf
ROOT
ATOM      1  C   UNL A   1      32.024  28.748  23.443  1.00  0.00     0.002 C 
ENDROOT
BRANCH   1   2
ATOM      2  C   UNL A   1      32.488  27.694  22.431  1.00  0.00     0.021 C 
BRANCH   2   3
ATOM      3  C   UNL A   1      33.645  26.820  22.923  1.00  0.00     0.116 C 
BRANCH   3   4
ATOM      4  N   UNL A   1      33.671  25.511  22.286  1.00  0.00    -0.356 N 
ATOM      5  C   UNL A   1      33.732  24.231  22.729  1.00  0.00     0.226 C 
ATOM      6  O   UNL A   1      33.723  23.366  21.842  1.00  0.00    -0.275 OA
ATOM      7  H   UNL A   1      33.637  25.570  21.304  1.00  0.00     0.163 HD
BRANCH   5   8
ATOM      8  C   UNL A   1      33.821  23.781  24.182  1.00  0.00     0.120 C 
ATOM      9  N   UNL A   1      33.817  21.464  24.683  1.00  0.00    -0.306 N 
ATOM     10  C   UNL A   1      34.706  22.564  24.365  1.00  0.00     0.138 C 
ATOM     11  C   UNL A   1      32.429  21.906  24.868  1.00  0.00     0.145 C 
ATOM     12  C   UNL A   1      32.533  23.447  24.950  1.00  0.00     0.107 C 
ATOM     13  C   UNL A   1      32.747  23.728  26.476  1.00  0.00     0.237 C 
ATOM     14  C   UNL A   1      31.319  24.324  24.689  1.00  0.00    -0.006 A 
ATOM     15  O   UNL A   1      33.675  23.363  27.180  1.00  0.00    -0.274 OA
ATOM     16  N   UNL A   1      31.676  24.471  26.933  1.00  0.00    -0.325 N 
ATOM     17  C   UNL A   1      30.855  24.857  25.895  1.00  0.00     0.045 A 
ATOM     18  C   UNL A   1      30.725  24.772  23.519  1.00  0.00     0.007 A 
ATOM     19  H   UNL A   1      31.519  24.695  27.879  1.00  0.00     0.169 HD
ATOM     20  C   UNL A   1      29.798  25.744  25.995  1.00  0.00     0.026 A 
ATOM     21  C   UNL A   1      29.662  25.684  23.582  1.00  0.00     0.000 A 
ATOM     22  C   UNL A   1      29.192  26.159  24.813  1.00  0.00     0.002 A 
BRANCH   9  23
ATOM     23  C   UNL A   1      34.375  20.230  24.940  1.00  0.00     0.410 C 
ATOM     24  O   UNL A   1      35.573  20.030  24.791  1.00  0.00    -0.224 OA
BRANCH  23  25
ATOM     25  O   UNL A   1      33.470  19.288  25.304  1.00  0.00    -0.444 OA
BRANCH  25  26
ATOM     26  C   UNL A   1      33.259  18.110  24.464  1.00  0.00     0.106 C 
ATOM     27  C   UNL A   1      32.572  18.623  23.190  1.00  0.00     0.056 C 
ATOM     28  C   UNL A   1      32.314  17.160  25.206  1.00  0.00     0.056 C 
ATOM     29  C   UNL A   1      34.535  17.365  24.024  1.00  0.00     0.056 C 
ENDBRANCH  25  26
ENDBRANCH  23  25
ENDBRANCH   9  23
ENDBRANCH   5   8
ENDBRANCH   3   4
ENDBRANCH   2   3
ENDBRANCH   1   2
BRANCH   1  30
ATOM     30  C   UNL A   1      32.896  28.845  24.697  1.00  0.00     0.002 C 
BRANCH  30  31
ATOM     31  C   UNL A   1      32.150  28.656  26.022  1.00  0.00     0.021 C 
BRANCH  31  32
ATOM     32  C   UNL A   1      32.786  29.361  27.218  1.00  0.00     0.116 C 
BRANCH  32  33
ATOM     33  N   UNL A   1      32.911  30.790  26.989  1.00  0.00    -0.352 N 
ATOM     34  C   UNL A   1      33.868  31.654  27.458  1.00  0.00     0.251 C 
ATOM     35  H   UNL A   1      32.215  31.193  26.421  1.00  0.00     0.163 HD
ATOM     36  O   UNL A   1      33.684  32.866  27.388  1.00  0.00    -0.269 OA
BRANCH  34  37
ATOM     37  C   UNL A   1      35.111  31.119  28.058  1.00  0.00     0.039 A 
ATOM     38  C   UNL A   1      36.268  31.901  28.033  1.00  0.00     0.014 A 
ATOM     39  C   UNL A   1      35.140  29.837  28.618  1.00  0.00     0.014 A 
ATOM     40  C   UNL A   1      37.444  31.414  28.608  1.00  0.00     0.010 A 
ATOM     41  C   UNL A   1      36.297  29.378  29.241  1.00  0.00     0.010 A 
ATOM     42  C   UNL A   1      37.465  30.156  29.234  1.00  0.00    -0.014 A 
BRANCH  42  43
ATOM     43  C   UNL A   1      38.707  29.634  29.861  1.00  0.00     0.031 A 
ATOM     44  C   UNL A   1      39.140  30.141  31.211  1.00  0.00     0.074 A 
ATOM     45  C   UNL A   1      39.466  28.742  29.196  1.00  0.00     0.049 A 
ATOM     46  N   UNL A   1      40.212  29.847  31.901  1.00  0.00    -0.248 NA
ATOM     47  C   UNL A   1      38.264  31.133  31.853  1.00  0.00     0.031 C 
ATOM     48  C   UNL A   1      39.169  28.208  27.865  1.00  0.00     0.029 A 
ATOM     49  N   UNL A   1      40.643  28.129  29.545  1.00  0.00    -0.354 N 
ATOM     50  C   UNL A   1      40.146  30.623  33.054  1.00  0.00     0.074 A 
ATOM     51  C   UNL A   1      38.960  31.446  32.935  1.00  0.00     0.031 C 
ATOM     52  C   UNL A   1      40.128  27.334  27.519  1.00  0.00     0.029 A 
ATOM     53  C   UNL A   1      41.124  27.270  28.584  1.00  0.00     0.049 A 
ATOM     54  H   UNL A   1      41.101  28.289  30.401  1.00  0.00     0.167 HD
ATOM     55  C   UNL A   1      40.983  30.633  34.121  1.00  0.00     0.034 A 
ATOM     56  C   UNL A   1      42.244  26.519  28.562  1.00  0.00     0.034 A 
ATOM     57  C   UNL A   1      42.155  29.797  34.228  1.00  0.00     0.049 A 
ATOM     58  C   UNL A   1      43.164  26.551  29.756  1.00  0.00     0.074 A 
ATOM     59  C   UNL A   1      43.043  29.686  35.284  1.00  0.00     0.029 A 
ATOM     60  N   UNL A   1      42.606  28.931  33.239  1.00  0.00    -0.354 N 
ATOM     61  N   UNL A   1      43.060  27.253  30.861  1.00  0.00    -0.248 NA
ATOM     62  C   UNL A   1      44.343  25.678  29.704  1.00  0.00     0.031 C 
ATOM     63  C   UNL A   1      44.062  28.801  34.910  1.00  0.00     0.029 A 
ATOM     64  C   UNL A   1      43.774  28.304  33.650  1.00  0.00     0.049 A 
ATOM     65  H   UNL A   1      42.162  28.784  32.373  1.00  0.00     0.167 HD
ATOM     66  C   UNL A   1      44.146  26.882  31.648  1.00  0.00     0.074 A 
ATOM     67  C   UNL A   1      44.881  25.884  30.898  1.00  0.00     0.031 C 
ATOM     68  C   UNL A   1      44.502  27.322  32.883  1.00  0.00     0.034 A 
BRANCH  55  69
ATOM     69  C   UNL A   1      40.669  31.599  35.240  1.00  0.00     0.023 A 
ATOM     70  C   UNL A   1      39.629  31.354  36.156  1.00  0.00     0.031 A 
ATOM     71  C   UNL A   1      41.396  32.794  35.377  1.00  0.00     0.131 A 
ATOM     72  C   UNL A   1      39.293  32.325  37.112  1.00  0.00     0.055 A 
ATOM     73  C   UNL A   1      41.110  33.719  36.384  1.00  0.00     0.041 A 
ATOM     74  F   UNL A   1      42.387  33.093  34.523  1.00  0.00    -0.206 F 
ATOM     75  C   UNL A   1      40.043  33.495  37.249  1.00  0.00     0.022 A 
BRANCH  72  76
ATOM     76  S   UNL A   1      37.771  32.103  38.073  1.00  0.00     0.124 S 
ATOM     77  O   UNL A   1      36.899  33.116  37.482  1.00  0.00    -0.237 OA
ATOM     78  O   UNL A   1      37.421  30.716  37.794  1.00  0.00    -0.237 OA
ATOM     79  O   UNL A   1      38.191  32.378  39.446  1.00  0.00    -0.744 OA
ENDBRANCH  72  76
ENDBRANCH  55  69
BRANCH  56  80
ATOM     80  C   UNL A   1      42.564  25.676  27.375  1.00  0.00     0.023 A 
ATOM     81  C   UNL A   1      42.160  24.334  27.312  1.00  0.00     0.031 A 
ATOM     82  C   UNL A   1      43.312  26.192  26.302  1.00  0.00     0.131 A 
ATOM     83  C   UNL A   1      42.544  23.538  26.222  1.00  0.00     0.055 A 
ATOM     84  C   UNL A   1      43.649  25.411  25.196  1.00  0.00     0.041 A 
ATOM     85  F   UNL A   1      43.716  27.472  26.309  1.00  0.00    -0.206 F 
ATOM     86  C   UNL A   1      43.276  24.071  25.158  1.00  0.00     0.022 A 
BRANCH  83  87
ATOM     87  S   UNL A   1      42.137  21.771  26.251  1.00  0.00     0.124 S 
ATOM     88  O   UNL A   1      40.716  21.787  25.925  1.00  0.00    -0.237 OA
ATOM     89  O   UNL A   1      43.026  21.240  25.223  1.00  0.00    -0.237 OA
ATOM     90  O   UNL A   1      42.460  21.371  27.619  1.00  0.00    -0.744 OA
ENDBRANCH  83  87
ENDBRANCH  56  80
BRANCH  68  91
ATOM     91  C   UNL A   1      45.723  26.689  33.506  1.00  0.00     0.023 A 
ATOM     92  C   UNL A   1      45.643  25.493  34.239  1.00  0.00     0.031 A 
ATOM     93  C   UNL A   1      46.980  27.307  33.380  1.00  0.00     0.131 A 
ATOM     94  C   UNL A   1      46.788  24.981  34.867  1.00  0.00     0.055 A 
ATOM     95  C   UNL A   1      48.127  26.762  33.959  1.00  0.00     0.041 A 
ATOM     96  F   UNL A   1      47.113  28.453  32.693  1.00  0.00    -0.206 F 
ATOM     97  C   UNL A   1      48.032  25.600  34.719  1.00  0.00     0.022 A 
BRANCH  94  98
ATOM     98  S   UNL A   1      46.613  23.545  35.962  1.00  0.00     0.124 S 
ATOM     99  O   UNL A   1      47.217  22.481  35.165  1.00  0.00    -0.237 OA
ATOM    100  O   UNL A   1      47.363  23.961  37.143  1.00  0.00    -0.237 OA
ATOM    101  O   UNL A   1      45.169  23.433  36.152  1.00  0.00    -0.744 OA
ENDBRANCH  94  98
ENDBRANCH  68  91
ENDBRANCH  42  43
ENDBRANCH  34  37
ENDBRANCH  32  33
ENDBRANCH  31  32
ENDBRANCH  30  31
ENDBRANCH   1  30
TORSDOF 19
ENDMDL
MODEL 2
REMARK VINA RESULT:     -12.1      2.928      8.356
REMARK SMILES CC(C)(C)OC(=O)N1C[C@@H](C(=O)NCCCCCCNC(=O)c2ccc(-c3c4nc(c(-c5cc(S(=O)(=O)[O-])ccc5F)c5ccc([nH]5)c(-c5cc(S(=O)(=O)[O-])ccc5F)c5nc(c(-c6cc(S(=O)(=O)[O-])ccc6F)c6ccc3[nH]6)C=C5)C=C4)cc2)[C@@]2(C1)C(=O)Nc1ccccc12
REMARK SMILES IDX 16 1 15 2 14 3 13 4 11 5 12 6 10 8 8 9 9 10 87 11 86 12
REMARK SMILES IDX 88 13 96 14 89 15 90 16 91 17 95 18 92 20 94 21 93 22 6 23
REMARK SMILES IDX 7 24 5 25 2 26 1 27 3 28 4 29 17 30 18 31 19 32 20 33 21 34
REMARK SMILES IDX 22 36 23 37 24 38 85 39 25 40 84 41 26 42 27 43 28 44 78 45
REMARK SMILES IDX 29 46 83 47 77 48 79 49 30 50 82 51 76 52 75 53 31 55 63 56
REMARK SMILES IDX 43 57 62 58 44 59 47 60 61 61 80 62 45 63 46 64 60 66 81 67
REMARK SMILES IDX 48 68 32 69 33 70 41 71 34 72 40 73 42 74 39 75 35 76 36 77
REMARK SMILES IDX 37 78 38 79 64 80 65 81 73 82 66 83 72 84 74 85 71 86 67 87
REMARK SMILES IDX 68 88 69 89 70 90 49 91 50 92 58 93 51 94 57 95 59 96 56 97
REMARK SMILES IDX 52 98 53 99 54 100 55 101
REMARK H PARENT 13 7 90 19 20 35 79 54 47 65
REMARK Flexibility Score: inf
ROOT
ATOM      1  C   UNL A   1      33.845  29.879  27.238  1.00  0.00     0.002 C 
ENDROOT
BRANCH   1   2
ATOM      2  C   UNL A   1      32.326  29.672  27.203  1.00  0.00     0.021 C 
BRANCH   2   3
ATOM      3  C   UNL A   1      31.654  30.175  25.923  1.00  0.00     0.116 C 
BRANCH   3   4
ATOM      4  N   UNL A   1      32.447  29.908  24.731  1.00  0.00    -0.356 N 
ATOM      5  C   UNL A   1      32.708  28.809  23.980  1.00  0.00     0.226 C 
ATOM      6  O   UNL A   1      33.447  29.001  23.006  1.00  0.00    -0.275 OA
ATOM      7  H   UNL A   1      32.899  30.713  24.391  1.00  0.00     0.163 HD
BRANCH   5   8
ATOM      8  C   UNL A   1      32.193  27.397  24.236  1.00  0.00     0.120 C 
ATOM      9  N   UNL A   1      32.971  25.614  22.880  1.00  0.00    -0.306 N 
ATOM     10  C   UNL A   1      33.275  26.345  24.094  1.00  0.00     0.138 C 
ATOM     11  C   UNL A   1      31.684  26.016  22.297  1.00  0.00     0.145 C 
ATOM     12  C   UNL A   1      31.016  26.861  23.407  1.00  0.00     0.107 C 
ATOM     13  C   UNL A   1      30.220  25.809  24.251  1.00  0.00     0.237 C 
ATOM     14  C   UNL A   1      29.895  27.834  23.076  1.00  0.00    -0.006 A 
ATOM     15  O   UNL A   1      30.666  24.859  24.875  1.00  0.00    -0.274 OA
ATOM     16  N   UNL A   1      28.876  26.118  24.172  1.00  0.00    -0.325 N 
ATOM     17  C   UNL A   1      28.676  27.317  23.522  1.00  0.00     0.045 A 
ATOM     18  C   UNL A   1      29.900  29.127  22.575  1.00  0.00     0.007 A 
ATOM     19  H   UNL A   1      28.154  25.554  24.532  1.00  0.00     0.169 HD
ATOM     20  C   UNL A   1      27.468  27.986  23.425  1.00  0.00     0.026 A 
ATOM     21  C   UNL A   1      28.697  29.841  22.479  1.00  0.00     0.000 A 
ATOM     22  C   UNL A   1      27.486  29.270  22.890  1.00  0.00     0.002 A 
BRANCH   9  23
ATOM     23  C   UNL A   1      33.788  24.561  22.533  1.00  0.00     0.410 C 
ATOM     24  O   UNL A   1      33.414  23.695  21.752  1.00  0.00    -0.224 OA
BRANCH  23  25
ATOM     25  O   UNL A   1      34.981  24.561  23.179  1.00  0.00    -0.444 OA
BRANCH  25  26
ATOM     26  C   UNL A   1      35.400  23.391  23.947  1.00  0.00     0.106 C 
ATOM     27  C   UNL A   1      35.990  23.939  25.255  1.00  0.00     0.056 C 
ATOM     28  C   UNL A   1      36.496  22.670  23.156  1.00  0.00     0.056 C 
ATOM     29  C   UNL A   1      34.279  22.406  24.333  1.00  0.00     0.056 C 
ENDBRANCH  25  26
ENDBRANCH  23  25
ENDBRANCH   9  23
ENDBRANCH   5   8
ENDBRANCH   3   4
ENDBRANCH   2   3
ENDBRANCH   1   2
BRANCH   1  30
ATOM     30  C   UNL A   1      34.291  31.141  27.980  1.00  0.00     0.002 C 
BRANCH  30  31
ATOM     31  C   UNL A   1      33.896  32.461  27.310  1.00  0.00     0.021 C 
BRANCH  31  32
ATOM     32  C   UNL A   1      32.606  33.083  27.838  1.00  0.00     0.116 C 
BRANCH  32  33
ATOM     33  N   UNL A   1      32.727  34.524  27.976  1.00  0.00    -0.352 N 
ATOM     34  C   UNL A   1      33.523  35.239  28.836  1.00  0.00     0.251 C 
ATOM     35  H   UNL A   1      32.162  35.059  27.373  1.00  0.00     0.163 HD
ATOM     36  O   UNL A   1      33.316  36.438  29.005  1.00  0.00    -0.269 OA
BRANCH  34  37
ATOM     37  C   UNL A   1      34.618  34.559  29.563  1.00  0.00     0.039 A 
ATOM     38  C   UNL A   1      35.915  34.621  29.049  1.00  0.00     0.014 A 
ATOM     39  C   UNL A   1      34.358  33.839  30.734  1.00  0.00     0.014 A 
ATOM     40  C   UNL A   1      36.960  33.995  29.733  1.00  0.00     0.010 A 
ATOM     41  C   UNL A   1      35.410  33.265  31.444  1.00  0.00     0.010 A 
ATOM     42  C   UNL A   1      36.720  33.328  30.946  1.00  0.00    -0.014 A 
BRANCH  42  43
ATOM     43  C   UNL A   1      37.826  32.671  31.689  1.00  0.00     0.031 A 
ATOM     44  C   UNL A   1      38.578  31.526  31.065  1.00  0.00     0.074 A 
ATOM     45  C   UNL A   1      38.121  33.073  32.941  1.00  0.00     0.049 A 
ATOM     46  N   UNL A   1      39.538  30.792  31.569  1.00  0.00    -0.248 NA
ATOM     47  C   UNL A   1      38.173  31.136  29.707  1.00  0.00     0.031 C 
ATOM     48  C   UNL A   1      37.434  34.145  33.666  1.00  0.00     0.029 A 
ATOM     49  N   UNL A   1      39.069  32.628  33.827  1.00  0.00    -0.354 N 
ATOM     50  C   UNL A   1      39.846  29.849  30.593  1.00  0.00     0.074 A 
ATOM     51  C   UNL A   1      38.925  30.066  29.497  1.00  0.00     0.031 C 
ATOM     52  C   UNL A   1      37.997  34.287  34.877  1.00  0.00     0.029 A 
ATOM     53  C   UNL A   1      39.058  33.296  35.030  1.00  0.00     0.049 A 
ATOM     54  H   UNL A   1      39.697  31.899  33.623  1.00  0.00     0.167 HD
ATOM     55  C   UNL A   1      40.820  28.904  30.602  1.00  0.00     0.034 A 
ATOM     56  C   UNL A   1      39.815  33.126  36.133  1.00  0.00     0.034 A 
ATOM     57  C   UNL A   1      41.738  28.709  31.699  1.00  0.00     0.049 A 
ATOM     58  C   UNL A   1      40.886  32.065  36.123  1.00  0.00     0.074 A 
ATOM     59  C   UNL A   1      42.795  27.821  31.793  1.00  0.00     0.029 A 
ATOM     60  N   UNL A   1      41.704  29.412  32.897  1.00  0.00    -0.354 N 
ATOM     61  N   UNL A   1      41.199  31.215  35.172  1.00  0.00    -0.248 NA
ATOM     62  C   UNL A   1      41.716  31.954  37.329  1.00  0.00     0.031 C 
ATOM     63  C   UNL A   1      43.360  27.943  33.068  1.00  0.00     0.029 A 
ATOM     64  C   UNL A   1      42.703  28.958  33.746  1.00  0.00     0.049 A 
ATOM     65  H   UNL A   1      41.063  30.128  33.114  1.00  0.00     0.167 HD
ATOM     66  C   UNL A   1      42.282  30.487  35.657  1.00  0.00     0.074 A 
ATOM     67  C   UNL A   1      42.577  31.010  36.975  1.00  0.00     0.031 C 
ATOM     68  C   UNL A   1      42.974  29.481  35.064  1.00  0.00     0.034 A 
BRANCH  55  69
ATOM     69  C   UNL A   1      40.918  27.998  29.397  1.00  0.00     0.023 A 
ATOM     70  C   UNL A   1      41.850  28.234  28.370  1.00  0.00     0.031 A 
ATOM     71  C   UNL A   1      40.049  26.903  29.255  1.00  0.00     0.131 A 
ATOM     72  C   UNL A   1      41.837  27.439  27.213  1.00  0.00     0.055 A 
ATOM     73  C   UNL A   1      40.096  26.064  28.138  1.00  0.00     0.041 A 
ATOM     74  F   UNL A   1      39.124  26.637  30.191  1.00  0.00    -0.206 F 
ATOM     75  C   UNL A   1      40.983  26.339  27.102  1.00  0.00     0.022 A 
BRANCH  72  76
ATOM     76  S   UNL A   1      42.847  27.953  25.798  1.00  0.00     0.124 S 
ATOM     77  O   UNL A   1      44.149  27.389  26.146  1.00  0.00    -0.237 OA
ATOM     78  O   UNL A   1      42.158  27.329  24.675  1.00  0.00    -0.237 OA
ATOM     79  O   UNL A   1      42.777  29.413  25.840  1.00  0.00    -0.744 OA
ENDBRANCH  72  76
ENDBRANCH  55  69
BRANCH  56  80
ATOM     80  C   UNL A   1      39.591  33.972  37.339  1.00  0.00     0.023 A 
ATOM     81  C   UNL A   1      38.922  33.465  38.464  1.00  0.00     0.031 A 
ATOM     82  C   UNL A   1      40.012  35.313  37.369  1.00  0.00     0.131 A 
ATOM     83  C   UNL A   1      38.651  34.305  39.555  1.00  0.00     0.055 A 
ATOM     84  C   UNL A   1      39.784  36.132  38.477  1.00  0.00     0.041 A 
ATOM     85  F   UNL A   1      40.663  35.845  36.323  1.00  0.00    -0.206 F 
ATOM     86  C   UNL A   1      39.088  35.632  39.573  1.00  0.00     0.022 A 
BRANCH  83  87
ATOM     87  S   UNL A   1      37.649  33.658  40.921  1.00  0.00     0.124 S 
ATOM     88  O   UNL A   1      37.271  34.882  41.618  1.00  0.00    -0.237 OA
ATOM     89  O   UNL A   1      36.578  32.969  40.209  1.00  0.00    -0.237 OA
ATOM     90  O   UNL A   1      38.577  32.789  41.641  1.00  0.00    -0.744 OA
ENDBRANCH  83  87
ENDBRANCH  56  80
BRANCH  68  91
ATOM     91  C   UNL A   1      44.144  28.914  35.832  1.00  0.00     0.023 A 
ATOM     92  C   UNL A   1      44.004  27.799  36.676  1.00  0.00     0.031 A 
ATOM     93  C   UNL A   1      45.412  29.513  35.731  1.00  0.00     0.131 A 
ATOM     94  C   UNL A   1      45.098  27.352  37.431  1.00  0.00     0.055 A 
ATOM     95  C   UNL A   1      46.511  29.029  36.440  1.00  0.00     0.041 A 
ATOM     96  F   UNL A   1      45.601  30.582  34.941  1.00  0.00    -0.206 F 
ATOM     97  C   UNL A   1      46.355  27.950  37.307  1.00  0.00     0.022 A 
BRANCH  94  98
ATOM     98  S   UNL A   1      44.836  26.036  38.652  1.00  0.00     0.124 S 
ATOM     99  O   UNL A   1      44.454  26.796  39.839  1.00  0.00    -0.237 OA
ATOM    100  O   UNL A   1      43.776  25.245  38.034  1.00  0.00    -0.237 OA
ATOM    101  O   UNL A   1      46.137  25.376  38.730  1.00  0.00    -0.744 OA
ENDBRANCH  94  98
ENDBRANCH  68  91
ENDBRANCH  42  43
ENDBRANCH  34  37
ENDBRANCH  32  33
ENDBRANCH  31  32
ENDBRANCH  30  31
ENDBRANCH   1  30
TORSDOF 19
ENDMDL
MODEL 3
REMARK VINA RESULT:     -12.0      2.484      3.625
REMARK SMILES CC(C)(C)OC(=O)N1C[C@@H](C(=O)NCCCCCCNC(=O)c2ccc(-c3c4nc(c(-c5cc(S(=O)(=O)[O-])ccc5F)c5ccc([nH]5)c(-c5cc(S(=O)(=O)[O-])ccc5F)c5nc(c(-c6cc(S(=O)(=O)[O-])ccc6F)c6ccc3[nH]6)C=C5)C=C4)cc2)[C@@]2(C1)C(=O)Nc1ccccc12
REMARK SMILES IDX 16 1 15 2 14 3 13 4 11 5 12 6 10 8 8 9 9 10 87 11 86 12
REMARK SMILES IDX 88 13 96 14 89 15 90 16 91 17 95 18 92 20 94 21 93 22 6 23
REMARK SMILES IDX 7 24 5 25 2 26 1 27 3 28 4 29 17 30 18 31 19 32 20 33 21 34
REMARK SMILES IDX 22 36 23 37 24 38 85 39 25 40 84 41 26 42 27 43 28 44 78 45
REMARK SMILES IDX 29 46 83 47 77 48 79 49 30 50 82 51 76 52 75 53 31 55 63 56
REMARK SMILES IDX 43 57 62 58 44 59 47 60 61 61 80 62 45 63 46 64 60 66 81 67
REMARK SMILES IDX 48 68 32 69 33 70 41 71 34 72 40 73 42 74 39 75 35 76 36 77
REMARK SMILES IDX 37 78 38 79 64 80 65 81 73 82 66 83 72 84 74 85 71 86 67 87
REMARK SMILES IDX 68 88 69 89 70 90 49 91 50 92 58 93 51 94 57 95 59 96 56 97
REMARK SMILES IDX 52 98 53 99 54 100 55 101
REMARK H PARENT 13 7 90 19 20 35 79 54 47 65
REMARK Flexibility Score: inf
ROOT
ATOM      1  C   UNL A   1      34.054  29.898  27.320  1.00  0.00     0.002 C 
ENDROOT
BRANCH   1   2
ATOM      2  C   UNL A   1      32.553  29.737  27.053  1.00  0.00     0.021 C 
BRANCH   2   3
ATOM      3  C   UNL A   1      32.101  30.251  25.685  1.00  0.00     0.116 C 
BRANCH   3   4
ATOM      4  N   UNL A   1      32.914  29.731  24.593  1.00  0.00    -0.356 N 
ATOM      5  C   UNL A   1      33.058  28.521  23.998  1.00  0.00     0.226 C 
ATOM      6  O   UNL A   1      33.872  28.487  23.065  1.00  0.00    -0.275 OA
ATOM      7  H   UNL A   1      33.494  30.419  24.196  1.00  0.00     0.163 HD
BRANCH   5   8
ATOM      8  C   UNL A   1      32.335  27.235  24.379  1.00  0.00     0.120 C 
ATOM      9  N   UNL A   1      32.945  25.202  23.323  1.00  0.00    -0.306 N 
ATOM     10  C   UNL A   1      33.266  26.041  24.461  1.00  0.00     0.138 C 
ATOM     11  C   UNL A   1      31.770  25.687  22.587  1.00  0.00     0.145 C 
ATOM     12  C   UNL A   1      31.153  26.751  23.525  1.00  0.00     0.107 C 
ATOM     13  C   UNL A   1      30.162  25.933  24.420  1.00  0.00     0.237 C 
ATOM     14  C   UNL A   1      30.205  27.809  22.983  1.00  0.00    -0.006 A 
ATOM     15  O   UNL A   1      30.427  25.025  25.191  1.00  0.00    -0.274 OA
ATOM     16  N   UNL A   1      28.883  26.401  24.189  1.00  0.00    -0.325 N 
ATOM     17  C   UNL A   1      28.898  27.519  23.382  1.00  0.00     0.045 A 
ATOM     18  C   UNL A   1      30.425  29.013  22.330  1.00  0.00     0.007 A 
ATOM     19  H   UNL A   1      28.066  25.989  24.552  1.00  0.00     0.169 HD
ATOM     20  C   UNL A   1      27.806  28.322  23.101  1.00  0.00     0.026 A 
ATOM     21  C   UNL A   1      29.344  29.859  22.045  1.00  0.00     0.000 A 
ATOM     22  C   UNL A   1      28.039  29.510  22.417  1.00  0.00     0.002 A 
BRANCH   9  23
ATOM     23  C   UNL A   1      33.628  24.014  23.179  1.00  0.00     0.410 C 
ATOM     24  O   UNL A   1      34.781  23.988  22.769  1.00  0.00    -0.224 OA
BRANCH  23  25
ATOM     25  O   UNL A   1      32.884  22.919  23.473  1.00  0.00    -0.444 OA
BRANCH  25  26
ATOM     26  C   UNL A   1      33.260  22.054  24.590  1.00  0.00     0.106 C 
ATOM     27  C   UNL A   1      32.260  20.887  24.569  1.00  0.00     0.056 C 
ATOM     28  C   UNL A   1      33.089  22.849  25.886  1.00  0.00     0.056 C 
ATOM     29  C   UNL A   1      34.673  21.442  24.515  1.00  0.00     0.056 C 
ENDBRANCH  25  26
ENDBRANCH  23  25
ENDBRANCH   9  23
ENDBRANCH   5   8
ENDBRANCH   3   4
ENDBRANCH   2   3
ENDBRANCH   1   2
BRANCH   1  30
ATOM     30  C   UNL A   1      34.466  31.301  27.774  1.00  0.00     0.002 C 
BRANCH  30  31
ATOM     31  C   UNL A   1      33.304  32.272  28.013  1.00  0.00     0.021 C 
BRANCH  31  32
ATOM     32  C   UNL A   1      33.601  33.724  27.648  1.00  0.00     0.116 C 
BRANCH  32  33
ATOM     33  N   UNL A   1      33.140  34.637  28.680  1.00  0.00    -0.352 N 
ATOM     34  C   UNL A   1      33.489  34.680  30.007  1.00  0.00     0.251 C 
ATOM     35  H   UNL A   1      32.490  35.316  28.388  1.00  0.00     0.163 HD
ATOM     36  O   UNL A   1      32.817  35.341  30.793  1.00  0.00    -0.269 OA
BRANCH  34  37
ATOM     37  C   UNL A   1      34.666  33.918  30.482  1.00  0.00     0.039 A 
ATOM     38  C   UNL A   1      35.925  34.216  29.956  1.00  0.00     0.014 A 
ATOM     39  C   UNL A   1      34.520  32.895  31.426  1.00  0.00     0.014 A 
ATOM     40  C   UNL A   1      37.045  33.514  30.407  1.00  0.00     0.010 A 
ATOM     41  C   UNL A   1      35.646  32.238  31.916  1.00  0.00     0.010 A 
ATOM     42  C   UNL A   1      36.919  32.532  31.404  1.00  0.00    -0.014 A 
BRANCH  42  43
ATOM     43  C   UNL A   1      38.106  31.790  31.901  1.00  0.00     0.031 A 
ATOM     44  C   UNL A   1      38.727  32.159  33.222  1.00  0.00     0.074 A 
ATOM     45  C   UNL A   1      38.652  30.819  31.143  1.00  0.00     0.049 A 
ATOM     46  N   UNL A   1      39.790  31.666  33.804  1.00  0.00    -0.248 NA
ATOM     47  C   UNL A   1      38.082  33.248  33.970  1.00  0.00     0.031 C 
ATOM     48  C   UNL A   1      38.163  30.401  29.827  1.00  0.00     0.029 A 
ATOM     49  N   UNL A   1      39.738  30.010  31.366  1.00  0.00    -0.354 N 
ATOM     50  C   UNL A   1      39.948  32.389  34.983  1.00  0.00     0.074 A 
ATOM     51  C   UNL A   1      38.906  33.395  34.996  1.00  0.00     0.031 C 
ATOM     52  C   UNL A   1      38.934  29.401  29.369  1.00  0.00     0.029 A 
ATOM     53  C   UNL A   1      39.991  29.130  30.339  1.00  0.00     0.049 A 
ATOM     54  H   UNL A   1      40.285  30.055  32.182  1.00  0.00     0.167 HD
ATOM     55  C   UNL A   1      40.861  32.216  35.971  1.00  0.00     0.034 A 
ATOM     56  C   UNL A   1      40.967  28.211  30.194  1.00  0.00     0.034 A 
ATOM     57  C   UNL A   1      41.885  31.199  35.946  1.00  0.00     0.049 A 
ATOM     58  C   UNL A   1      41.976  28.041  31.301  1.00  0.00     0.074 A 
ATOM     59  C   UNL A   1      42.827  30.899  36.915  1.00  0.00     0.029 A 
ATOM     60  N   UNL A   1      42.105  30.318  34.894  1.00  0.00    -0.354 N 
ATOM     61  N   UNL A   1      42.080  28.699  32.433  1.00  0.00    -0.248 NA
ATOM     62  C   UNL A   1      42.988  26.994  31.117  1.00  0.00     0.031 C 
ATOM     63  C   UNL A   1      43.654  29.881  36.423  1.00  0.00     0.029 A 
ATOM     64  C   UNL A   1      43.184  29.494  35.178  1.00  0.00     0.049 A 
ATOM     65  H   UNL A   1      41.573  30.284  34.066  1.00  0.00     0.167 HD
ATOM     66  C   UNL A   1      43.153  28.124  33.108  1.00  0.00     0.074 A 
ATOM     67  C   UNL A   1      43.650  27.057  32.264  1.00  0.00     0.031 C 
ATOM     68  C   UNL A   1      43.677  28.444  34.319  1.00  0.00     0.034 A 
BRANCH  55  69
ATOM     69  C   UNL A   1      40.802  33.167  37.143  1.00  0.00     0.023 A 
ATOM     70  C   UNL A   1      40.049  32.874  38.295  1.00  0.00     0.031 A 
ATOM     71  C   UNL A   1      41.482  34.397  37.099  1.00  0.00     0.131 A 
ATOM     72  C   UNL A   1      39.927  33.829  39.315  1.00  0.00     0.055 A 
ATOM     73  C   UNL A   1      41.424  35.309  38.156  1.00  0.00     0.041 A 
ATOM     74  F   UNL A   1      42.201  34.743  36.020  1.00  0.00    -0.206 F 
ATOM     75  C   UNL A   1      40.630  35.035  39.266  1.00  0.00     0.022 A 
BRANCH  72  76
ATOM     76  S   UNL A   1      38.720  33.535  40.636  1.00  0.00     0.124 S 
ATOM     77  O   UNL A   1      39.326  32.407  41.342  1.00  0.00    -0.237 OA
ATOM     78  O   UNL A   1      38.715  34.806  41.349  1.00  0.00    -0.237 OA
ATOM     79  O   UNL A   1      37.490  33.218  39.912  1.00  0.00    -0.744 OA
ENDBRANCH  72  76
ENDBRANCH  55  69
BRANCH  56  80
ATOM     80  C   UNL A   1      41.046  27.383  28.957  1.00  0.00     0.023 A 
ATOM     81  C   UNL A   1      42.029  27.625  27.986  1.00  0.00     0.031 A 
ATOM     82  C   UNL A   1      40.113  26.359  28.713  1.00  0.00     0.131 A 
ATOM     83  C   UNL A   1      42.031  26.885  26.793  1.00  0.00     0.055 A 
ATOM     84  C   UNL A   1      40.150  25.592  27.548  1.00  0.00     0.041 A 
ATOM     85  F   UNL A   1      39.158  26.081  29.614  1.00  0.00    -0.206 F 
ATOM     86  C   UNL A   1      41.105  25.863  26.573  1.00  0.00     0.022 A 
BRANCH  83  87
ATOM     87  S   UNL A   1      43.218  27.332  25.497  1.00  0.00     0.124 S 
ATOM     88  O   UNL A   1      43.607  26.024  24.985  1.00  0.00    -0.237 OA
ATOM     89  O   UNL A   1      42.400  28.152  24.609  1.00  0.00    -0.237 OA
ATOM     90  O   UNL A   1      44.260  28.053  26.225  1.00  0.00    -0.744 OA
ENDBRANCH  83  87
ENDBRANCH  56  80
BRANCH  68  91
ATOM     91  C   UNL A   1      44.825  27.597  34.811  1.00  0.00     0.023 A 
ATOM     92  C   UNL A   1      44.612  26.400  35.515  1.00  0.00     0.031 A 
ATOM     93  C   UNL A   1      46.151  28.007  34.587  1.00  0.00     0.131 A 
ATOM     94  C   UNL A   1      45.706  25.683  36.022  1.00  0.00     0.055 A 
ATOM     95  C   UNL A   1      47.237  27.260  35.043  1.00  0.00     0.041 A 
ATOM     96  F   UNL A   1      46.412  29.143  33.922  1.00  0.00    -0.206 F 
ATOM     97  C   UNL A   1      47.018  26.097  35.778  1.00  0.00     0.022 A 
BRANCH  94  98
ATOM     98  S   UNL A   1      45.390  24.250  37.089  1.00  0.00     0.124 S 
ATOM     99  O   UNL A   1      44.725  23.330  36.172  1.00  0.00    -0.237 OA
ATOM    100  O   UNL A   1      46.736  23.872  37.507  1.00  0.00    -0.237 OA
ATOM    101  O   UNL A   1      44.542  24.792  38.148  1.00  0.00    -0.744 OA
ENDBRANCH  94  98
ENDBRANCH  68  91
ENDBRANCH  42  43
ENDBRANCH  34  37
ENDBRANCH  32  33
ENDBRANCH  31  32
ENDBRANCH  30  31
ENDBRANCH   1  30
TORSDOF 19
ENDMDL
