MODEL 1
REMARK VINA RESULT:     -10.9      0.000      0.000
REMARK SMILES CCN(CC(C)(C)O)C(=O)[C@H]1CC=CC[C@H]1C(=O)NCCCCCCNC(=O)c1ccc(-c2c3nc(c(-c4cc(S(=O)(=O)[O-])ccc4F)c4ccc([nH]4)c(-c4cc(S(=O)(=O)[O-])ccc4F)c4nc(c(-c5cc(S(=O)(=O)[O-])ccc5F)c5ccc2[nH]5)C=C4)C=C3)cc1
REMARK SMILES IDX 21 1 20 2 19 3 17 4 18 5 16 7 11 8 12 9 13 10 15 11 14 12
REMARK SMILES IDX 9 13 10 14 3 15 2 16 1 17 4 18 5 19 6 20 7 21 8 22 22 24
REMARK SMILES IDX 23 25 24 26 25 27 26 28 27 29 28 31 29 32 30 33 91 34 31 35
REMARK SMILES IDX 90 36 32 37 33 38 34 39 84 40 35 41 89 42 83 43 85 44 36 45
REMARK SMILES IDX 88 46 82 47 81 48 37 50 69 51 49 52 68 53 50 54 53 55 67 56
REMARK SMILES IDX 86 57 51 58 52 59 66 61 87 62 54 63 38 64 39 65 47 66 40 67
REMARK SMILES IDX 46 68 48 69 45 70 41 71 42 72 43 73 44 74 70 75 71 76 79 77
REMARK SMILES IDX 72 78 78 79 80 80 77 81 73 82 74 83 75 84 76 85 55 86 56 87
REMARK SMILES IDX 64 88 57 89 63 90 65 91 62 92 58 93 59 94 60 95 61 96
REMARK H PARENT 19 6 8 23 26 30 85 49 53 60
REMARK Flexibility Score: inf
ROOT
ATOM      1  C   UNL A   1      30.408  25.724  26.059  1.00  0.00     0.021 C 
ENDROOT
BRANCH   1   2
ATOM      2  C   UNL A   1      30.551  24.197  26.036  1.00  0.00     0.116 C 
BRANCH   2   3
ATOM      3  N   UNL A   1      31.396  23.759  27.129  1.00  0.00    -0.356 N 
ATOM      4  C   UNL A   1      32.542  23.038  27.162  1.00  0.00     0.224 C 
ATOM      5  O   UNL A   1      32.864  22.594  28.274  1.00  0.00    -0.275 OA
ATOM      6  H   UNL A   1      31.075  24.040  28.017  1.00  0.00     0.163 HD
BRANCH   4   7
ATOM      7  C   UNL A   1      33.515  22.866  25.992  1.00  0.00     0.095 C 
ATOM      8  C   UNL A   1      33.785  21.470  25.340  1.00  0.00     0.095 C 
ATOM      9  C   UNL A   1      35.032  21.569  24.441  1.00  0.00     0.041 C 
ATOM     10  C   UNL A   1      35.226  22.870  23.712  1.00  0.00    -0.030 C 
ATOM     11  C   UNL A   1      33.456  24.055  25.024  1.00  0.00     0.041 C 
ATOM     12  C   UNL A   1      34.521  23.983  23.966  1.00  0.00    -0.030 C 
BRANCH   8  13
ATOM     13  C   UNL A   1      32.538  20.593  25.021  1.00  0.00     0.226 C 
ATOM     14  O   UNL A   1      31.501  20.982  25.575  1.00  0.00    -0.275 OA
BRANCH  13  15
ATOM     15  N   UNL A   1      32.464  19.485  24.187  1.00  0.00    -0.340 N 
BRANCH  15  16
ATOM     16  C   UNL A   1      32.295  19.669  22.730  1.00  0.00     0.116 C 
ATOM     17  C   UNL A   1      32.011  21.079  22.230  1.00  0.00     0.027 C 
ENDBRANCH  15  16
BRANCH  15  18
ATOM     18  C   UNL A   1      32.455  18.074  24.581  1.00  0.00     0.154 C 
BRANCH  18  19
ATOM     19  C   UNL A   1      33.817  17.331  24.459  1.00  0.00     0.077 C 
ATOM     20  C   UNL A   1      33.952  16.145  25.410  1.00  0.00     0.043 C 
ATOM     21  C   UNL A   1      34.039  16.935  22.996  1.00  0.00     0.043 C 
BRANCH  19  22
ATOM     22  O   UNL A   1      34.873  18.238  24.812  1.00  0.00    -0.389 OA
ATOM     23  H   UNL A   1      35.249  17.978  25.667  1.00  0.00     0.211 HD
ENDBRANCH  19  22
ENDBRANCH  18  19
ENDBRANCH  15  18
ENDBRANCH  13  15
ENDBRANCH   8  13
ENDBRANCH   4   7
ENDBRANCH   2   3
ENDBRANCH   1   2
BRANCH   1  24
ATOM     24  C   UNL A   1      30.385  26.448  24.718  1.00  0.00     0.002 C 
BRANCH  24  25
ATOM     25  C   UNL A   1      31.035  27.832  24.711  1.00  0.00     0.002 C 
BRANCH  25  26
ATOM     26  C   UNL A   1      32.258  28.020  25.618  1.00  0.00     0.021 C 
BRANCH  26  27
ATOM     27  C   UNL A   1      33.178  29.194  25.277  1.00  0.00     0.116 C 
BRANCH  27  28
ATOM     28  N   UNL A   1      32.671  30.458  25.782  1.00  0.00    -0.352 N 
ATOM     29  C   UNL A   1      33.070  31.200  26.864  1.00  0.00     0.251 C 
ATOM     30  H   UNL A   1      31.926  30.842  25.267  1.00  0.00     0.163 HD
ATOM     31  O   UNL A   1      32.361  32.136  27.244  1.00  0.00    -0.269 OA
BRANCH  29  32
ATOM     32  C   UNL A   1      34.320  30.881  27.591  1.00  0.00     0.039 A 
ATOM     33  C   UNL A   1      35.310  31.864  27.688  1.00  0.00     0.014 A 
ATOM     34  C   UNL A   1      34.544  29.615  28.141  1.00  0.00     0.014 A 
ATOM     35  C   UNL A   1      36.493  31.597  28.384  1.00  0.00     0.010 A 
ATOM     36  C   UNL A   1      35.697  29.373  28.892  1.00  0.00     0.010 A 
ATOM     37  C   UNL A   1      36.685  30.361  29.024  1.00  0.00    -0.014 A 
BRANCH  37  38
ATOM     38  C   UNL A   1      37.911  30.097  29.828  1.00  0.00     0.031 A 
ATOM     39  C   UNL A   1      38.948  29.119  29.339  1.00  0.00     0.074 A 
ATOM     40  C   UNL A   1      38.080  30.715  31.015  1.00  0.00     0.049 A 
ATOM     41  N   UNL A   1      40.043  28.709  29.929  1.00  0.00    -0.248 NA
ATOM     42  C   UNL A   1      38.714  28.510  28.020  1.00  0.00     0.031 C 
ATOM     43  C   UNL A   1      37.141  31.670  31.610  1.00  0.00     0.029 A 
ATOM     44  N   UNL A   1      39.093  30.634  31.941  1.00  0.00    -0.354 N 
ATOM     45  C   UNL A   1      40.632  27.803  29.053  1.00  0.00     0.074 A 
ATOM     46  C   UNL A   1      39.736  27.673  27.922  1.00  0.00     0.031 C 
ATOM     47  C   UNL A   1      37.632  32.099  32.784  1.00  0.00     0.029 A 
ATOM     48  C   UNL A   1      38.891  31.413  33.058  1.00  0.00     0.049 A 
ATOM     49  H   UNL A   1      39.891  30.070  31.816  1.00  0.00     0.167 HD
ATOM     50  C   UNL A   1      41.823  27.163  29.164  1.00  0.00     0.034 A 
ATOM     51  C   UNL A   1      39.622  31.546  34.184  1.00  0.00     0.034 A 
ATOM     52  C   UNL A   1      42.708  27.297  30.295  1.00  0.00     0.049 A 
ATOM     53  C   UNL A   1      40.910  30.764  34.312  1.00  0.00     0.074 A 
ATOM     54  C   UNL A   1      43.939  26.697  30.500  1.00  0.00     0.029 A 
ATOM     55  N   UNL A   1      42.462  28.084  31.412  1.00  0.00    -0.354 N 
ATOM     56  N   UNL A   1      41.463  29.934  33.457  1.00  0.00    -0.248 NA
ATOM     57  C   UNL A   1      41.680  30.949  35.550  1.00  0.00     0.031 C 
ATOM     58  C   UNL A   1      44.405  27.067  31.765  1.00  0.00     0.029 A 
ATOM     59  C   UNL A   1      43.506  27.965  32.317  1.00  0.00     0.049 A 
ATOM     60  H   UNL A   1      41.662  28.643  31.543  1.00  0.00     0.167 HD
ATOM     61  C   UNL A   1      42.663  29.534  34.040  1.00  0.00     0.074 A 
ATOM     62  C   UNL A   1      42.764  30.228  35.304  1.00  0.00     0.031 C 
ATOM     63  C   UNL A   1      43.600  28.669  33.572  1.00  0.00     0.034 A 
BRANCH  50  64
ATOM     64  C   UNL A   1      42.235  26.251  28.033  1.00  0.00     0.023 A 
ATOM     65  C   UNL A   1      41.760  24.930  27.949  1.00  0.00     0.031 A 
ATOM     66  C   UNL A   1      43.098  26.706  27.021  1.00  0.00     0.131 A 
ATOM     67  C   UNL A   1      42.192  24.095  26.908  1.00  0.00     0.055 A 
ATOM     68  C   UNL A   1      43.464  25.894  25.945  1.00  0.00     0.041 A 
ATOM     69  F   UNL A   1      43.600  27.951  27.059  1.00  0.00    -0.206 F 
ATOM     70  C   UNL A   1      43.019  24.577  25.890  1.00  0.00     0.022 A 
BRANCH  67  71
ATOM     71  S   UNL A   1      41.750  22.338  26.968  1.00  0.00     0.124 S 
ATOM     72  O   UNL A   1      41.860  21.960  25.560  1.00  0.00    -0.237 OA
ATOM     73  O   UNL A   1      42.764  21.787  27.859  1.00  0.00    -0.237 OA
ATOM     74  O   UNL A   1      40.389  22.345  27.499  1.00  0.00    -0.744 OA
ENDBRANCH  67  71
ENDBRANCH  50  64
BRANCH  51  75
ATOM     75  C   UNL A   1      39.159  32.420  35.304  1.00  0.00     0.023 A 
ATOM     76  C   UNL A   1      39.607  33.745  35.422  1.00  0.00     0.031 A 
ATOM     77  C   UNL A   1      38.341  31.912  36.330  1.00  0.00     0.131 A 
ATOM     78  C   UNL A   1      39.308  34.486  36.576  1.00  0.00     0.055 A 
ATOM     79  C   UNL A   1      37.982  32.681  37.439  1.00  0.00     0.041 A 
ATOM     80  F   UNL A   1      37.883  30.651  36.275  1.00  0.00    -0.206 F 
ATOM     81  C   UNL A   1      38.485  33.969  37.577  1.00  0.00     0.022 A 
BRANCH  78  82
ATOM     82  S   UNL A   1      40.142  36.080  36.821  1.00  0.00     0.124 S 
ATOM     83  O   UNL A   1      41.536  35.669  36.931  1.00  0.00    -0.237 OA
ATOM     84  O   UNL A   1      39.777  36.801  35.605  1.00  0.00    -0.237 OA
ATOM     85  O   UNL A   1      39.541  36.591  38.051  1.00  0.00    -0.744 OA
ENDBRANCH  78  82
ENDBRANCH  51  75
BRANCH  63  86
ATOM     86  C   UNL A   1      44.844  28.481  34.407  1.00  0.00     0.023 A 
ATOM     87  C   UNL A   1      45.985  29.284  34.233  1.00  0.00     0.031 A 
ATOM     88  C   UNL A   1      44.891  27.471  35.385  1.00  0.00     0.131 A 
ATOM     89  C   UNL A   1      47.144  29.025  34.981  1.00  0.00     0.055 A 
ATOM     90  C   UNL A   1      46.024  27.262  36.174  1.00  0.00     0.041 A 
ATOM     91  F   UNL A   1      43.833  26.672  35.593  1.00  0.00    -0.206 F 
ATOM     92  C   UNL A   1      47.164  28.032  35.964  1.00  0.00     0.022 A 
BRANCH  89  93
ATOM     93  S   UNL A   1      48.660  29.938  34.583  1.00  0.00     0.124 S 
ATOM     94  O   UNL A   1      48.165  31.304  34.453  1.00  0.00    -0.237 OA
ATOM     95  O   UNL A   1      49.499  29.672  35.748  1.00  0.00    -0.237 OA
ATOM     96  O   UNL A   1      49.116  29.322  33.339  1.00  0.00    -0.744 OA
ENDBRANCH  89  93
ENDBRANCH  63  86
ENDBRANCH  37  38
ENDBRANCH  29  32
ENDBRANCH  27  28
ENDBRANCH  26  27
ENDBRANCH  25  26
ENDBRANCH  24  25
ENDBRANCH   1  24
TORSDOF 22
ENDMDL
MODEL 2
REMARK VINA RESULT:     -10.7      2.256      3.073
REMARK SMILES CCN(CC(C)(C)O)C(=O)[C@H]1CC=CC[C@H]1C(=O)NCCCCCCNC(=O)c1ccc(-c2c3nc(c(-c4cc(S(=O)(=O)[O-])ccc4F)c4ccc([nH]4)c(-c4cc(S(=O)(=O)[O-])ccc4F)c4nc(c(-c5cc(S(=O)(=O)[O-])ccc5F)c5ccc2[nH]5)C=C4)C=C3)cc1
REMARK SMILES IDX 21 1 20 2 19 3 17 4 18 5 16 7 11 8 12 9 13 10 15 11 14 12
REMARK SMILES IDX 9 13 10 14 3 15 2 16 1 17 4 18 5 19 6 20 7 21 8 22 22 24
REMARK SMILES IDX 23 25 24 26 25 27 26 28 27 29 28 31 29 32 30 33 91 34 31 35
REMARK SMILES IDX 90 36 32 37 33 38 34 39 84 40 35 41 89 42 83 43 85 44 36 45
REMARK SMILES IDX 88 46 82 47 81 48 37 50 69 51 49 52 68 53 50 54 53 55 67 56
REMARK SMILES IDX 86 57 51 58 52 59 66 61 87 62 54 63 38 64 39 65 47 66 40 67
REMARK SMILES IDX 46 68 48 69 45 70 41 71 42 72 43 73 44 74 70 75 71 76 79 77
REMARK SMILES IDX 72 78 78 79 80 80 77 81 73 82 74 83 75 84 76 85 55 86 56 87
REMARK SMILES IDX 64 88 57 89 63 90 65 91 62 92 58 93 59 94 60 95 61 96
REMARK H PARENT 19 6 8 23 26 30 85 49 53 60
REMARK Flexibility Score: inf
ROOT
ATOM      1  C   UNL A   1      30.307  26.131  25.649  1.00  0.00     0.021 C 
ENDROOT
BRANCH   1   2
ATOM      2  C   UNL A   1      30.409  24.608  25.500  1.00  0.00     0.116 C 
BRANCH   2   3
ATOM      3  N   UNL A   1      31.444  24.091  26.374  1.00  0.00    -0.356 N 
ATOM      4  C   UNL A   1      32.086  22.899  26.419  1.00  0.00     0.224 C 
ATOM      5  O   UNL A   1      32.718  22.670  27.460  1.00  0.00    -0.275 OA
ATOM      6  H   UNL A   1      31.735  24.728  27.066  1.00  0.00     0.163 HD
BRANCH   4   7
ATOM      7  C   UNL A   1      32.209  21.914  25.253  1.00  0.00     0.095 C 
ATOM      8  C   UNL A   1      32.757  22.351  23.854  1.00  0.00     0.095 C 
ATOM      9  C   UNL A   1      32.444  21.249  22.826  1.00  0.00     0.041 C 
ATOM     10  C   UNL A   1      32.504  19.832  23.329  1.00  0.00    -0.030 C 
ATOM     11  C   UNL A   1      32.633  20.518  25.731  1.00  0.00     0.041 C 
ATOM     12  C   UNL A   1      32.593  19.500  24.625  1.00  0.00    -0.030 C 
BRANCH   8  13
ATOM     13  C   UNL A   1      34.052  23.216  23.850  1.00  0.00     0.226 C 
ATOM     14  O   UNL A   1      34.361  23.645  22.729  1.00  0.00    -0.275 OA
BRANCH  13  15
ATOM     15  N   UNL A   1      34.846  23.572  24.933  1.00  0.00    -0.340 N 
BRANCH  15  16
ATOM     16  C   UNL A   1      34.892  24.980  25.382  1.00  0.00     0.116 C 
ATOM     17  C   UNL A   1      33.978  25.971  24.675  1.00  0.00     0.027 C 
ENDBRANCH  15  16
BRANCH  15  18
ATOM     18  C   UNL A   1      35.754  22.708  25.692  1.00  0.00     0.154 C 
BRANCH  18  19
ATOM     19  C   UNL A   1      37.140  22.442  25.035  1.00  0.00     0.077 C 
ATOM     20  C   UNL A   1      38.298  23.123  25.758  1.00  0.00     0.043 C 
ATOM     21  C   UNL A   1      37.343  20.930  24.899  1.00  0.00     0.043 C 
BRANCH  19  22
ATOM     22  O   UNL A   1      37.134  22.985  23.706  1.00  0.00    -0.389 OA
ATOM     23  H   UNL A   1      36.879  23.920  23.740  1.00  0.00     0.211 HD
ENDBRANCH  19  22
ENDBRANCH  18  19
ENDBRANCH  15  18
ENDBRANCH  13  15
ENDBRANCH   8  13
ENDBRANCH   4   7
ENDBRANCH   2   3
ENDBRANCH   1   2
BRANCH   1  24
ATOM     24  C   UNL A   1      30.418  26.970  24.381  1.00  0.00     0.002 C 
BRANCH  24  25
ATOM     25  C   UNL A   1      30.862  28.417  24.590  1.00  0.00     0.002 C 
BRANCH  25  26
ATOM     26  C   UNL A   1      31.619  28.722  25.889  1.00  0.00     0.021 C 
BRANCH  26  27
ATOM     27  C   UNL A   1      32.834  29.644  25.765  1.00  0.00     0.116 C 
BRANCH  27  28
ATOM     28  N   UNL A   1      32.539  31.004  26.179  1.00  0.00    -0.352 N 
ATOM     29  C   UNL A   1      33.111  31.770  27.162  1.00  0.00     0.251 C 
ATOM     30  H   UNL A   1      31.818  31.445  25.675  1.00  0.00     0.163 HD
ATOM     31  O   UNL A   1      32.564  32.825  27.495  1.00  0.00    -0.269 OA
BRANCH  29  32
ATOM     32  C   UNL A   1      34.354  31.341  27.841  1.00  0.00     0.039 A 
ATOM     33  C   UNL A   1      35.394  32.265  27.986  1.00  0.00     0.014 A 
ATOM     34  C   UNL A   1      34.523  30.030  28.299  1.00  0.00     0.014 A 
ATOM     35  C   UNL A   1      36.573  31.893  28.638  1.00  0.00     0.010 A 
ATOM     36  C   UNL A   1      35.675  29.680  29.008  1.00  0.00     0.010 A 
ATOM     37  C   UNL A   1      36.713  30.607  29.188  1.00  0.00    -0.014 A 
BRANCH  37  38
ATOM     38  C   UNL A   1      37.937  30.227  29.948  1.00  0.00     0.031 A 
ATOM     39  C   UNL A   1      38.923  29.247  29.367  1.00  0.00     0.074 A 
ATOM     40  C   UNL A   1      38.151  30.744  31.177  1.00  0.00     0.049 A 
ATOM     41  N   UNL A   1      40.006  28.744  29.905  1.00  0.00    -0.248 NA
ATOM     42  C   UNL A   1      38.642  28.753  28.010  1.00  0.00     0.031 C 
ATOM     43  C   UNL A   1      37.264  31.689  31.859  1.00  0.00     0.029 A 
ATOM     44  N   UNL A   1      39.172  30.546  32.075  1.00  0.00    -0.354 N 
ATOM     45  C   UNL A   1      40.541  27.884  28.951  1.00  0.00     0.074 A 
ATOM     46  C   UNL A   1      39.625  27.882  27.829  1.00  0.00     0.031 C 
ATOM     47  C   UNL A   1      37.790  32.004  33.054  1.00  0.00     0.029 A 
ATOM     48  C   UNL A   1      39.020  31.245  33.253  1.00  0.00     0.049 A 
ATOM     49  H   UNL A   1      39.941  29.959  31.893  1.00  0.00     0.167 HD
ATOM     50  C   UNL A   1      41.703  27.185  28.992  1.00  0.00     0.034 A 
ATOM     51  C   UNL A   1      39.773  31.257  34.372  1.00  0.00     0.034 A 
ATOM     52  C   UNL A   1      42.610  27.193  30.114  1.00  0.00     0.049 A 
ATOM     53  C   UNL A   1      41.026  30.412  34.417  1.00  0.00     0.074 A 
ATOM     54  C   UNL A   1      43.815  26.525  30.252  1.00  0.00     0.029 A 
ATOM     55  N   UNL A   1      42.414  27.900  31.293  1.00  0.00    -0.354 N 
ATOM     56  N   UNL A   1      41.528  29.627  33.491  1.00  0.00    -0.248 NA
ATOM     57  C   UNL A   1      41.820  30.466  35.652  1.00  0.00     0.031 C 
ATOM     58  C   UNL A   1      44.315  26.775  31.532  1.00  0.00     0.029 A 
ATOM     59  C   UNL A   1      43.465  27.666  32.167  1.00  0.00     0.049 A 
ATOM     60  H   UNL A   1      41.643  28.482  31.480  1.00  0.00     0.167 HD
ATOM     61  C   UNL A   1      42.717  29.132  34.021  1.00  0.00     0.074 A 
ATOM     62  C   UNL A   1      42.867  29.721  35.333  1.00  0.00     0.031 C 
ATOM     63  C   UNL A   1      43.608  28.266  33.472  1.00  0.00     0.034 A 
BRANCH  50  64
ATOM     64  C   UNL A   1      42.058  26.347  27.787  1.00  0.00     0.023 A 
ATOM     65  C   UNL A   1      41.838  24.959  27.772  1.00  0.00     0.031 A 
ATOM     66  C   UNL A   1      42.608  26.939  26.636  1.00  0.00     0.131 A 
ATOM     67  C   UNL A   1      42.214  24.201  26.653  1.00  0.00     0.055 A 
ATOM     68  C   UNL A   1      42.910  26.191  25.497  1.00  0.00     0.041 A 
ATOM     69  F   UNL A   1      42.860  28.257  26.600  1.00  0.00    -0.206 F 
ATOM     70  C   UNL A   1      42.723  24.812  25.505  1.00  0.00     0.022 A 
BRANCH  67  71
ATOM     71  S   UNL A   1      42.136  22.394  26.766  1.00  0.00     0.124 S 
ATOM     72  O   UNL A   1      43.456  22.077  27.309  1.00  0.00    -0.237 OA
ATOM     73  O   UNL A   1      41.007  22.180  27.664  1.00  0.00    -0.237 OA
ATOM     74  O   UNL A   1      41.923  21.973  25.382  1.00  0.00    -0.744 OA
ENDBRANCH  67  71
ENDBRANCH  50  64
BRANCH  51  75
ATOM     75  C   UNL A   1      39.365  32.061  35.565  1.00  0.00     0.023 A 
ATOM     76  C   UNL A   1      38.682  31.468  36.639  1.00  0.00     0.031 A 
ATOM     77  C   UNL A   1      39.561  33.453  35.603  1.00  0.00     0.131 A 
ATOM     78  C   UNL A   1      38.148  32.270  37.658  1.00  0.00     0.055 A 
ATOM     79  C   UNL A   1      39.095  34.238  36.660  1.00  0.00     0.041 A 
ATOM     80  F   UNL A   1      40.205  34.078  34.604  1.00  0.00    -0.206 F 
ATOM     81  C   UNL A   1      38.363  33.649  37.685  1.00  0.00     0.022 A 
BRANCH  78  82
ATOM     82  S   UNL A   1      37.031  31.504  38.867  1.00  0.00     0.124 S 
ATOM     83  O   UNL A   1      36.897  30.155  38.330  1.00  0.00    -0.237 OA
ATOM     84  O   UNL A   1      37.792  31.632  40.105  1.00  0.00    -0.237 OA
ATOM     85  O   UNL A   1      35.828  32.330  38.787  1.00  0.00    -0.744 OA
ENDBRANCH  78  82
ENDBRANCH  51  75
BRANCH  63  86
ATOM     86  C   UNL A   1      44.854  27.959  34.268  1.00  0.00     0.023 A 
ATOM     87  C   UNL A   1      44.973  26.792  35.043  1.00  0.00     0.031 A 
ATOM     88  C   UNL A   1      45.935  28.858  34.260  1.00  0.00     0.131 A 
ATOM     89  C   UNL A   1      46.120  26.585  35.825  1.00  0.00     0.055 A 
ATOM     90  C   UNL A   1      47.102  28.613  34.985  1.00  0.00     0.041 A 
ATOM     91  F   UNL A   1      45.877  29.990  33.540  1.00  0.00    -0.206 F 
ATOM     92  C   UNL A   1      47.193  27.478  35.786  1.00  0.00     0.022 A 
BRANCH  89  93
ATOM     93  S   UNL A   1      46.150  25.181  36.973  1.00  0.00     0.124 S 
ATOM     94  O   UNL A   1      47.315  25.487  37.796  1.00  0.00    -0.237 OA
ATOM     95  O   UNL A   1      44.855  25.292  37.637  1.00  0.00    -0.237 OA
ATOM     96  O   UNL A   1      46.298  24.022  36.094  1.00  0.00    -0.744 OA
ENDBRANCH  89  93
ENDBRANCH  63  86
ENDBRANCH  37  38
ENDBRANCH  29  32
ENDBRANCH  27  28
ENDBRANCH  26  27
ENDBRANCH  25  26
ENDBRANCH  24  25
ENDBRANCH   1  24
TORSDOF 22
ENDMDL
MODEL 3
REMARK VINA RESULT:     -10.6      2.170      2.771
REMARK SMILES CCN(CC(C)(C)O)C(=O)[C@H]1CC=CC[C@H]1C(=O)NCCCCCCNC(=O)c1ccc(-c2c3nc(c(-c4cc(S(=O)(=O)[O-])ccc4F)c4ccc([nH]4)c(-c4cc(S(=O)(=O)[O-])ccc4F)c4nc(c(-c5cc(S(=O)(=O)[O-])ccc5F)c5ccc2[nH]5)C=C4)C=C3)cc1
REMARK SMILES IDX 21 1 20 2 19 3 17 4 18 5 16 7 11 8 12 9 13 10 15 11 14 12
REMARK SMILES IDX 9 13 10 14 3 15 2 16 1 17 4 18 5 19 6 20 7 21 8 22 22 24
REMARK SMILES IDX 23 25 24 26 25 27 26 28 27 29 28 31 29 32 30 33 91 34 31 35
REMARK SMILES IDX 90 36 32 37 33 38 34 39 84 40 35 41 89 42 83 43 85 44 36 45
REMARK SMILES IDX 88 46 82 47 81 48 37 50 69 51 49 52 68 53 50 54 53 55 67 56
REMARK SMILES IDX 86 57 51 58 52 59 66 61 87 62 54 63 38 64 39 65 47 66 40 67
REMARK SMILES IDX 46 68 48 69 45 70 41 71 42 72 43 73 44 74 70 75 71 76 79 77
REMARK SMILES IDX 72 78 78 79 80 80 77 81 73 82 74 83 75 84 76 85 55 86 56 87
REMARK SMILES IDX 64 88 57 89 63 90 65 91 62 92 58 93 59 94 60 95 61 96
REMARK H PARENT 19 6 8 23 26 30 85 49 53 60
REMARK Flexibility Score: inf
ROOT
ATOM      1  C   UNL A   1      31.003  26.492  22.831  1.00  0.00     0.021 C 
ENDROOT
BRANCH   1   2
ATOM      2  C   UNL A   1      31.885  26.566  21.578  1.00  0.00     0.116 C 
BRANCH   2   3
ATOM      3  N   UNL A   1      32.871  25.504  21.601  1.00  0.00    -0.356 N 
ATOM      4  C   UNL A   1      33.375  24.750  22.607  1.00  0.00     0.224 C 
ATOM      5  O   UNL A   1      34.409  24.120  22.340  1.00  0.00    -0.275 OA
ATOM      6  H   UNL A   1      33.245  25.289  20.716  1.00  0.00     0.163 HD
BRANCH   4   7
ATOM      7  C   UNL A   1      32.698  24.510  23.960  1.00  0.00     0.095 C 
ATOM      8  C   UNL A   1      31.805  23.253  24.226  1.00  0.00     0.095 C 
ATOM      9  C   UNL A   1      31.012  23.467  25.529  1.00  0.00     0.041 C 
ATOM     10  C   UNL A   1      31.719  24.222  26.621  1.00  0.00    -0.030 C 
ATOM     11  C   UNL A   1      33.586  24.957  25.128  1.00  0.00     0.041 C 
ATOM     12  C   UNL A   1      32.871  24.886  26.449  1.00  0.00    -0.030 C 
BRANCH   8  13
ATOM     13  C   UNL A   1      32.371  21.880  23.756  1.00  0.00     0.226 C 
ATOM     14  O   UNL A   1      32.198  21.656  22.549  1.00  0.00    -0.275 OA
BRANCH  13  15
ATOM     15  N   UNL A   1      33.052  20.933  24.510  1.00  0.00    -0.340 N 
BRANCH  15  16
ATOM     16  C   UNL A   1      34.513  21.056  24.702  1.00  0.00     0.116 C 
ATOM     17  C   UNL A   1      35.004  21.531  26.063  1.00  0.00     0.027 C 
ENDBRANCH  15  16
BRANCH  15  18
ATOM     18  C   UNL A   1      32.504  19.718  25.118  1.00  0.00     0.154 C 
BRANCH  18  19
ATOM     19  C   UNL A   1      32.694  18.409  24.298  1.00  0.00     0.077 C 
ATOM     20  C   UNL A   1      32.389  18.570  22.811  1.00  0.00     0.043 C 
ATOM     21  C   UNL A   1      34.105  17.865  24.548  1.00  0.00     0.043 C 
BRANCH  19  22
ATOM     22  O   UNL A   1      31.773  17.420  24.782  1.00  0.00    -0.389 OA
ATOM     23  H   UNL A   1      32.150  16.982  25.561  1.00  0.00     0.211 HD
ENDBRANCH  19  22
ENDBRANCH  18  19
ENDBRANCH  15  18
ENDBRANCH  13  15
ENDBRANCH   8  13
ENDBRANCH   4   7
ENDBRANCH   2   3
ENDBRANCH   1   2
BRANCH   1  24
ATOM     24  C   UNL A   1      30.196  27.733  23.196  1.00  0.00     0.002 C 
BRANCH  24  25
ATOM     25  C   UNL A   1      30.839  28.649  24.237  1.00  0.00     0.002 C 
BRANCH  25  26
ATOM     26  C   UNL A   1      32.371  28.738  24.219  1.00  0.00     0.021 C 
BRANCH  26  27
ATOM     27  C   UNL A   1      33.040  29.142  25.535  1.00  0.00     0.116 C 
BRANCH  27  28
ATOM     28  N   UNL A   1      32.620  30.456  25.987  1.00  0.00    -0.352 N 
ATOM     29  C   UNL A   1      33.128  31.251  26.982  1.00  0.00     0.251 C 
ATOM     30  H   UNL A   1      31.851  30.836  25.504  1.00  0.00     0.163 HD
ATOM     31  O   UNL A   1      32.486  32.239  27.348  1.00  0.00    -0.269 OA
BRANCH  29  32
ATOM     32  C   UNL A   1      34.418  30.931  27.633  1.00  0.00     0.039 A 
ATOM     33  C   UNL A   1      35.375  31.942  27.762  1.00  0.00     0.014 A 
ATOM     34  C   UNL A   1      34.712  29.638  28.080  1.00  0.00     0.014 A 
ATOM     35  C   UNL A   1      36.596  31.673  28.389  1.00  0.00     0.010 A 
ATOM     36  C   UNL A   1      35.904  29.388  28.764  1.00  0.00     0.010 A 
ATOM     37  C   UNL A   1      36.860  30.402  28.929  1.00  0.00    -0.014 A 
BRANCH  37  38
ATOM     38  C   UNL A   1      38.128  30.129  29.662  1.00  0.00     0.031 A 
ATOM     39  C   UNL A   1      39.147  29.175  29.095  1.00  0.00     0.074 A 
ATOM     40  C   UNL A   1      38.353  30.718  30.855  1.00  0.00     0.049 A 
ATOM     41  N   UNL A   1      40.274  28.760  29.617  1.00  0.00    -0.248 NA
ATOM     42  C   UNL A   1      38.850  28.598  27.774  1.00  0.00     0.031 C 
ATOM     43  C   UNL A   1      37.437  31.647  31.522  1.00  0.00     0.029 A 
ATOM     44  N   UNL A   1      39.412  30.622  31.725  1.00  0.00    -0.354 N 
ATOM     45  C   UNL A   1      40.824  27.883  28.688  1.00  0.00     0.074 A 
ATOM     46  C   UNL A   1      39.873  27.774  27.601  1.00  0.00     0.031 C 
ATOM     47  C   UNL A   1      37.984  32.050  32.680  1.00  0.00     0.029 A 
ATOM     48  C   UNL A   1      39.261  31.371  32.872  1.00  0.00     0.049 A 
ATOM     49  H   UNL A   1      40.207  30.070  31.545  1.00  0.00     0.167 HD
ATOM     50  C   UNL A   1      42.025  27.252  28.721  1.00  0.00     0.034 A 
ATOM     51  C   UNL A   1      40.048  31.481  33.962  1.00  0.00     0.034 A 
ATOM     52  C   UNL A   1      42.966  27.365  29.808  1.00  0.00     0.049 A 
ATOM     53  C   UNL A   1      41.348  30.708  34.003  1.00  0.00     0.074 A 
ATOM     54  C   UNL A   1      44.211  26.773  29.934  1.00  0.00     0.029 A 
ATOM     55  N   UNL A   1      42.771  28.120  30.957  1.00  0.00    -0.354 N 
ATOM     56  N   UNL A   1      41.863  29.906  33.099  1.00  0.00    -0.248 NA
ATOM     57  C   UNL A   1      42.178  30.868  35.204  1.00  0.00     0.031 C 
ATOM     58  C   UNL A   1      44.738  27.114  31.183  1.00  0.00     0.029 A 
ATOM     59  C   UNL A   1      43.861  27.988  31.804  1.00  0.00     0.049 A 
ATOM     60  H   UNL A   1      41.974  28.668  31.144  1.00  0.00     0.167 HD
ATOM     61  C   UNL A   1      43.094  29.504  33.609  1.00  0.00     0.074 A 
ATOM     62  C   UNL A   1      43.254  30.166  34.884  1.00  0.00     0.031 C 
ATOM     63  C   UNL A   1      44.013  28.660  33.071  1.00  0.00     0.034 A 
BRANCH  50  64
ATOM     64  C   UNL A   1      42.386  26.374  27.547  1.00  0.00     0.023 A 
ATOM     65  C   UNL A   1      41.967  25.034  27.479  1.00  0.00     0.031 A 
ATOM     66  C   UNL A   1      43.144  26.881  26.476  1.00  0.00     0.131 A 
ATOM     67  C   UNL A   1      42.351  24.233  26.394  1.00  0.00     0.055 A 
ATOM     68  C   UNL A   1      43.459  26.100  25.362  1.00  0.00     0.041 A 
ATOM     69  F   UNL A   1      43.590  28.148  26.494  1.00  0.00    -0.206 F 
ATOM     70  C   UNL A   1      43.071  24.764  25.322  1.00  0.00     0.022 A 
BRANCH  67  71
ATOM     71  S   UNL A   1      41.996  22.456  26.461  1.00  0.00     0.124 S 
ATOM     72  O   UNL A   1      40.540  22.452  26.579  1.00  0.00    -0.237 OA
ATOM     73  O   UNL A   1      42.537  21.977  25.195  1.00  0.00    -0.237 OA
ATOM     74  O   UNL A   1      42.712  22.009  27.655  1.00  0.00    -0.744 OA
ENDBRANCH  67  71
ENDBRANCH  50  64
BRANCH  51  75
ATOM     75  C   UNL A   1      39.636  32.320  35.127  1.00  0.00     0.023 A 
ATOM     76  C   UNL A   1      38.980  31.754  36.232  1.00  0.00     0.031 A 
ATOM     77  C   UNL A   1      39.800  33.717  35.109  1.00  0.00     0.131 A 
ATOM     78  C   UNL A   1      38.439  32.583  37.226  1.00  0.00     0.055 A 
ATOM     79  C   UNL A   1      39.328  34.531  36.141  1.00  0.00     0.041 A 
ATOM     80  F   UNL A   1      40.417  34.317  34.079  1.00  0.00    -0.206 F 
ATOM     81  C   UNL A   1      38.622  33.966  37.197  1.00  0.00     0.022 A 
BRANCH  78  82
ATOM     82  S   UNL A   1      37.354  31.838  38.477  1.00  0.00     0.124 S 
ATOM     83  O   UNL A   1      37.168  30.494  37.944  1.00  0.00    -0.237 OA
ATOM     84  O   UNL A   1      38.168  31.946  39.684  1.00  0.00    -0.237 OA
ATOM     85  O   UNL A   1      36.169  32.692  38.449  1.00  0.00    -0.744 OA
ENDBRANCH  78  82
ENDBRANCH  51  75
BRANCH  63  86
ATOM     86  C   UNL A   1      45.300  28.463  33.836  1.00  0.00     0.023 A 
ATOM     87  C   UNL A   1      45.507  27.350  34.670  1.00  0.00     0.031 A 
ATOM     88  C   UNL A   1      46.332  29.413  33.737  1.00  0.00     0.131 A 
ATOM     89  C   UNL A   1      46.689  27.246  35.419  1.00  0.00     0.055 A 
ATOM     90  C   UNL A   1      47.535  29.269  34.431  1.00  0.00     0.041 A 
ATOM     91  F   UNL A   1      46.191  30.497  32.959  1.00  0.00    -0.206 F 
ATOM     92  C   UNL A   1      47.712  28.188  35.290  1.00  0.00     0.022 A 
BRANCH  89  93
ATOM     93  S   UNL A   1      46.832  25.913  36.641  1.00  0.00     0.124 S 
ATOM     94  O   UNL A   1      47.403  24.832  35.845  1.00  0.00    -0.237 OA
ATOM     95  O   UNL A   1      47.717  26.502  37.642  1.00  0.00    -0.237 OA
ATOM     96  O   UNL A   1      45.455  25.701  37.081  1.00  0.00    -0.744 OA
ENDBRANCH  89  93
ENDBRANCH  63  86
ENDBRANCH  37  38
ENDBRANCH  29  32
ENDBRANCH  27  28
ENDBRANCH  26  27
ENDBRANCH  25  26
ENDBRANCH  24  25
ENDBRANCH   1  24
TORSDOF 22
ENDMDL
