MODEL 1
REMARK VINA RESULT:     -10.9      0.000      0.000
REMARK SMILES Nc1nc(-c2cccs2)c(CC(=O)NCCCCCCNC(=O)c2ccc(-c3c4nc(c(-c5cc(S(=O)(=O)[O-])ccc5F)c5ccc([nH]5)c(-c5cc(S(=O)(=O)[O-])ccc5F)c5nc(c(-c6cc(S(=O)(=O)[O-])ccc6F)c6ccc3[nH]6)C=C5)C=C4)cc2)s1
REMARK SMILES IDX 18 1 17 2 16 3 15 4 14 5 12 6 13 7 11 9 10 10 2 11 3 12
REMARK SMILES IDX 87 13 4 14 1 15 5 18 6 19 9 20 7 21 8 22 19 23 20 24 21 25
REMARK SMILES IDX 22 26 23 28 24 29 25 30 86 31 26 32 85 33 27 34 28 35 29 36
REMARK SMILES IDX 79 37 30 38 84 39 78 40 80 41 31 42 83 43 77 44 76 45 32 47
REMARK SMILES IDX 64 48 44 49 63 50 45 51 48 52 62 53 81 54 46 55 47 56 61 58
REMARK SMILES IDX 82 59 49 60 33 61 34 62 42 63 35 64 41 65 43 66 40 67 36 68
REMARK SMILES IDX 37 69 38 70 39 71 65 72 66 73 74 74 67 75 73 76 75 77 72 78
REMARK SMILES IDX 68 79 69 80 70 81 71 82 50 83 51 84 59 85 52 86 58 87 60 88
REMARK SMILES IDX 57 89 53 90 54 91 55 92 56 93
REMARK H PARENT 14 8 1 16 1 17 21 27 80 46 48 57
REMARK Flexibility Score: inf
ROOT
ATOM      1  C   UNL A   1      37.338  20.152  24.847  1.00  0.00     0.002 C 
ENDROOT
BRANCH   1   2
ATOM      2  C   UNL A   1      37.548  21.662  25.006  1.00  0.00     0.002 C 
BRANCH   2   3
ATOM      3  C   UNL A   1      36.892  22.520  23.916  1.00  0.00     0.021 C 
BRANCH   3   4
ATOM      4  C   UNL A   1      35.372  22.623  24.060  1.00  0.00     0.116 C 
BRANCH   4   5
ATOM      5  N   UNL A   1      34.873  23.843  23.457  1.00  0.00    -0.356 N 
ATOM      6  C   UNL A   1      34.135  24.851  24.010  1.00  0.00     0.225 C 
ATOM      7  O   UNL A   1      33.750  25.759  23.269  1.00  0.00    -0.275 OA
ATOM      8  H   UNL A   1      35.099  23.964  22.506  1.00  0.00     0.163 HD
BRANCH   6   9
ATOM      9  C   UNL A   1      33.883  24.905  25.512  1.00  0.00     0.149 C 
BRANCH   9  10
ATOM     10  C   UNL A   1      32.463  24.603  25.873  1.00  0.00     0.045 A 
ATOM     11  C   UNL A   1      30.443  23.511  26.665  1.00  0.00     0.180 A 
ATOM     12  N   UNL A   1      30.305  24.808  26.747  1.00  0.00    -0.219 NA
ATOM     13  S   UNL A   1      31.932  22.970  26.015  1.00  0.00    -0.101 S 
ATOM     14  C   UNL A   1      31.407  25.444  26.201  1.00  0.00     0.097 A 
BRANCH  11  15
ATOM     15  N   UNL A   1      29.504  22.648  27.065  1.00  0.00    -0.375 N 
ATOM     16  H   UNL A   1      28.560  22.808  26.838  1.00  0.00     0.159 HD
ATOM     17  H   UNL A   1      29.756  21.852  27.587  1.00  0.00     0.159 HD
ENDBRANCH  11  15
BRANCH  14  18
ATOM     18  C   UNL A   1      31.446  26.946  26.141  1.00  0.00     0.054 A 
ATOM     19  C   UNL A   1      31.647  27.735  27.255  1.00  0.00     0.022 A 
ATOM     20  S   UNL A   1      31.267  27.887  24.725  1.00  0.00    -0.142 S 
ATOM     21  C   UNL A   1      31.774  29.117  26.918  1.00  0.00     0.012 A 
ATOM     22  C   UNL A   1      31.561  29.341  25.575  1.00  0.00     0.065 A 
ENDBRANCH  14  18
ENDBRANCH   9  10
ENDBRANCH   6   9
ENDBRANCH   4   5
ENDBRANCH   3   4
ENDBRANCH   2   3
ENDBRANCH   1   2
BRANCH   1  23
ATOM     23  C   UNL A   1      38.505  19.285  25.326  1.00  0.00     0.021 C 
BRANCH  23  24
ATOM     24  C   UNL A   1      39.649  20.066  25.968  1.00  0.00     0.116 C 
BRANCH  24  25
ATOM     25  N   UNL A   1      40.858  19.263  26.073  1.00  0.00    -0.352 N 
ATOM     26  C   UNL A   1      42.164  19.668  26.188  1.00  0.00     0.251 C 
ATOM     27  H   UNL A   1      40.719  18.289  26.060  1.00  0.00     0.163 HD
ATOM     28  O   UNL A   1      43.070  18.850  26.030  1.00  0.00    -0.269 OA
BRANCH  26  29
ATOM     29  C   UNL A   1      42.477  21.082  26.480  1.00  0.00     0.039 A 
ATOM     30  C   UNL A   1      42.628  21.484  27.808  1.00  0.00     0.014 A 
ATOM     31  C   UNL A   1      42.617  22.011  25.444  1.00  0.00     0.014 A 
ATOM     32  C   UNL A   1      42.984  22.804  28.095  1.00  0.00     0.010 A 
ATOM     33  C   UNL A   1      43.047  23.305  25.728  1.00  0.00     0.010 A 
ATOM     34  C   UNL A   1      43.235  23.716  27.056  1.00  0.00    -0.014 A 
BRANCH  34  35
ATOM     35  C   UNL A   1      43.702  25.099  27.342  1.00  0.00     0.031 A 
ATOM     36  C   UNL A   1      42.742  26.127  27.875  1.00  0.00     0.074 A 
ATOM     37  C   UNL A   1      44.977  25.439  27.067  1.00  0.00     0.049 A 
ATOM     38  N   UNL A   1      42.943  27.396  28.122  1.00  0.00    -0.248 NA
ATOM     39  C   UNL A   1      41.368  25.675  28.138  1.00  0.00     0.031 C 
ATOM     40  C   UNL A   1      45.990  24.538  26.514  1.00  0.00     0.029 A 
ATOM     41  N   UNL A   1      45.639  26.633  27.207  1.00  0.00    -0.354 N 
ATOM     42  C   UNL A   1      41.722  27.897  28.561  1.00  0.00     0.074 A 
ATOM     43  C   UNL A   1      40.772  26.807  28.482  1.00  0.00     0.031 C 
ATOM     44  C   UNL A   1      47.150  25.203  26.390  1.00  0.00     0.029 A 
ATOM     45  C   UNL A   1      46.953  26.589  26.800  1.00  0.00     0.049 A 
ATOM     46  H   UNL A   1      45.214  27.446  27.565  1.00  0.00     0.167 HD
ATOM     47  C   UNL A   1      41.426  29.143  29.008  1.00  0.00     0.034 A 
ATOM     48  C   UNL A   1      47.890  27.557  26.747  1.00  0.00     0.034 A 
ATOM     49  C   UNL A   1      42.388  30.217  29.082  1.00  0.00     0.049 A 
ATOM     50  C   UNL A   1      47.526  28.946  27.211  1.00  0.00     0.074 A 
ATOM     51  C   UNL A   1      42.210  31.501  29.568  1.00  0.00     0.029 A 
ATOM     52  N   UNL A   1      43.707  30.139  28.650  1.00  0.00    -0.354 N 
ATOM     53  N   UNL A   1      46.379  29.390  27.672  1.00  0.00    -0.248 NA
ATOM     54  C   UNL A   1      48.585  29.961  27.157  1.00  0.00     0.031 C 
ATOM     55  C   UNL A   1      43.389  32.220  29.353  1.00  0.00     0.029 A 
ATOM     56  C   UNL A   1      44.338  31.362  28.820  1.00  0.00     0.049 A 
ATOM     57  H   UNL A   1      44.131  29.332  28.277  1.00  0.00     0.167 HD
ATOM     58  C   UNL A   1      46.591  30.728  27.994  1.00  0.00     0.074 A 
ATOM     59  C   UNL A   1      47.979  31.011  27.690  1.00  0.00     0.031 C 
ATOM     60  C   UNL A   1      45.721  31.638  28.501  1.00  0.00     0.034 A 
BRANCH  47  61
ATOM     61  C   UNL A   1      39.998  29.416  29.422  1.00  0.00     0.023 A 
ATOM     62  C   UNL A   1      39.631  29.550  30.773  1.00  0.00     0.031 A 
ATOM     63  C   UNL A   1      38.984  29.524  28.454  1.00  0.00     0.131 A 
ATOM     64  C   UNL A   1      38.281  29.708  31.121  1.00  0.00     0.055 A 
ATOM     65  C   UNL A   1      37.654  29.768  28.802  1.00  0.00     0.041 A 
ATOM     66  F   UNL A   1      39.266  29.382  27.148  1.00  0.00    -0.206 F 
ATOM     67  C   UNL A   1      37.293  29.846  30.144  1.00  0.00     0.022 A 
BRANCH  64  68
ATOM     68  S   UNL A   1      37.817  29.574  32.870  1.00  0.00     0.124 S 
ATOM     69  O   UNL A   1      37.467  28.160  32.975  1.00  0.00    -0.237 OA
ATOM     70  O   UNL A   1      39.039  29.984  33.552  1.00  0.00    -0.237 OA
ATOM     71  O   UNL A   1      36.692  30.498  32.997  1.00  0.00    -0.744 OA
ENDBRANCH  64  68
ENDBRANCH  47  61
BRANCH  48  72
ATOM     72  C   UNL A   1      49.256  27.261  26.224  1.00  0.00     0.023 A 
ATOM     73  C   UNL A   1      49.610  27.577  24.903  1.00  0.00     0.031 A 
ATOM     74  C   UNL A   1      50.214  26.615  27.026  1.00  0.00     0.131 A 
ATOM     75  C   UNL A   1      50.868  27.200  24.406  1.00  0.00     0.055 A 
ATOM     76  C   UNL A   1      51.486  26.298  26.546  1.00  0.00     0.041 A 
ATOM     77  F   UNL A   1      49.931  26.291  28.298  1.00  0.00    -0.206 F 
ATOM     78  C   UNL A   1      51.814  26.578  25.224  1.00  0.00     0.022 A 
BRANCH  75  79
ATOM     79  S   UNL A   1      51.215  27.450  22.644  1.00  0.00     0.124 S 
ATOM     80  O   UNL A   1      51.249  28.904  22.553  1.00  0.00    -0.237 OA
ATOM     81  O   UNL A   1      52.493  26.765  22.488  1.00  0.00    -0.237 OA
ATOM     82  O   UNL A   1      50.081  26.809  21.981  1.00  0.00    -0.744 OA
ENDBRANCH  75  79
ENDBRANCH  48  72
BRANCH  60  83
ATOM     83  C   UNL A   1      46.263  33.015  28.805  1.00  0.00     0.023 A 
ATOM     84  C   UNL A   1      46.323  34.022  27.825  1.00  0.00     0.031 A 
ATOM     85  C   UNL A   1      46.735  33.319  30.095  1.00  0.00     0.131 A 
ATOM     86  C   UNL A   1      46.899  35.265  28.136  1.00  0.00     0.055 A 
ATOM     87  C   UNL A   1      47.242  34.578  30.415  1.00  0.00     0.041 A 
ATOM     88  F   UNL A   1      46.706  32.395  31.068  1.00  0.00    -0.206 F 
ATOM     89  C   UNL A   1      47.340  35.555  29.429  1.00  0.00     0.022 A 
BRANCH  86  90
ATOM     90  S   UNL A   1      47.160  36.461  26.798  1.00  0.00     0.124 S 
ATOM     91  O   UNL A   1      46.773  37.716  27.435  1.00  0.00    -0.237 OA
ATOM     92  O   UNL A   1      48.582  36.304  26.511  1.00  0.00    -0.237 OA
ATOM     93  O   UNL A   1      46.260  35.999  25.743  1.00  0.00    -0.744 OA
ENDBRANCH  86  90
ENDBRANCH  60  83
ENDBRANCH  34  35
ENDBRANCH  26  29
ENDBRANCH  24  25
ENDBRANCH  23  24
ENDBRANCH   1  23
TORSDOF 19
ENDMDL
MODEL 2
REMARK VINA RESULT:     -10.9      2.600      3.591
REMARK SMILES Nc1nc(-c2cccs2)c(CC(=O)NCCCCCCNC(=O)c2ccc(-c3c4nc(c(-c5cc(S(=O)(=O)[O-])ccc5F)c5ccc([nH]5)c(-c5cc(S(=O)(=O)[O-])ccc5F)c5nc(c(-c6cc(S(=O)(=O)[O-])ccc6F)c6ccc3[nH]6)C=C5)C=C4)cc2)s1
REMARK SMILES IDX 18 1 17 2 16 3 15 4 14 5 12 6 13 7 11 9 10 10 2 11 3 12
REMARK SMILES IDX 87 13 4 14 1 15 5 18 6 19 9 20 7 21 8 22 19 23 20 24 21 25
REMARK SMILES IDX 22 26 23 28 24 29 25 30 86 31 26 32 85 33 27 34 28 35 29 36
REMARK SMILES IDX 79 37 30 38 84 39 78 40 80 41 31 42 83 43 77 44 76 45 32 47
REMARK SMILES IDX 64 48 44 49 63 50 45 51 48 52 62 53 81 54 46 55 47 56 61 58
REMARK SMILES IDX 82 59 49 60 33 61 34 62 42 63 35 64 41 65 43 66 40 67 36 68
REMARK SMILES IDX 37 69 38 70 39 71 65 72 66 73 74 74 67 75 73 76 75 77 72 78
REMARK SMILES IDX 68 79 69 80 70 81 71 82 50 83 51 84 59 85 52 86 58 87 60 88
REMARK SMILES IDX 57 89 53 90 54 91 55 92 56 93
REMARK H PARENT 14 8 1 16 1 17 21 27 80 46 48 57
REMARK Flexibility Score: inf
ROOT
ATOM      1  C   UNL A   1      33.963  20.768  24.855  1.00  0.00     0.002 C 
ENDROOT
BRANCH   1   2
ATOM      2  C   UNL A   1      32.528  21.081  24.416  1.00  0.00     0.002 C 
BRANCH   2   3
ATOM      3  C   UNL A   1      32.395  21.601  22.978  1.00  0.00     0.021 C 
BRANCH   3   4
ATOM      4  C   UNL A   1      31.821  23.017  22.899  1.00  0.00     0.116 C 
BRANCH   4   5
ATOM      5  N   UNL A   1      32.813  23.954  22.407  1.00  0.00    -0.356 N 
ATOM      6  C   UNL A   1      32.673  25.265  22.052  1.00  0.00     0.225 C 
ATOM      7  O   UNL A   1      33.654  25.843  21.575  1.00  0.00    -0.275 OA
ATOM      8  H   UNL A   1      33.723  23.590  22.315  1.00  0.00     0.163 HD
BRANCH   6   9
ATOM      9  C   UNL A   1      31.379  26.019  22.330  1.00  0.00     0.149 C 
BRANCH   9  10
ATOM     10  C   UNL A   1      31.532  27.064  23.391  1.00  0.00     0.045 A 
ATOM     11  C   UNL A   1      31.471  29.154  24.627  1.00  0.00     0.180 A 
ATOM     12  N   UNL A   1      31.480  28.148  25.460  1.00  0.00    -0.219 NA
ATOM     13  S   UNL A   1      31.541  28.734  22.968  1.00  0.00    -0.101 S 
ATOM     14  C   UNL A   1      31.621  26.955  24.773  1.00  0.00     0.097 A 
BRANCH  11  15
ATOM     15  N   UNL A   1      31.404  30.430  25.019  1.00  0.00    -0.375 N 
ATOM     16  H   UNL A   1      31.655  30.676  25.939  1.00  0.00     0.159 HD
ATOM     17  H   UNL A   1      31.103  31.124  24.389  1.00  0.00     0.159 HD
ENDBRANCH  11  15
BRANCH  14  18
ATOM     18  C   UNL A   1      31.706  25.661  25.535  1.00  0.00     0.054 A 
ATOM     19  C   UNL A   1      32.906  25.086  25.901  1.00  0.00     0.022 A 
ATOM     20  S   UNL A   1      30.373  24.732  26.066  1.00  0.00    -0.142 S 
ATOM     21  C   UNL A   1      32.720  23.937  26.727  1.00  0.00     0.012 A 
ATOM     22  C   UNL A   1      31.387  23.619  26.874  1.00  0.00     0.065 A 
ENDBRANCH  14  18
ENDBRANCH   9  10
ENDBRANCH   6   9
ENDBRANCH   4   5
ENDBRANCH   3   4
ENDBRANCH   2   3
ENDBRANCH   1   2
BRANCH   1  23
ATOM     23  C   UNL A   1      34.974  21.891  24.605  1.00  0.00     0.021 C 
BRANCH  23  24
ATOM     24  C   UNL A   1      36.039  22.032  25.690  1.00  0.00     0.116 C 
BRANCH  24  25
ATOM     25  N   UNL A   1      37.025  20.964  25.619  1.00  0.00    -0.352 N 
ATOM     26  C   UNL A   1      38.389  21.031  25.749  1.00  0.00     0.251 C 
ATOM     27  H   UNL A   1      36.661  20.066  25.454  1.00  0.00     0.163 HD
ATOM     28  O   UNL A   1      39.079  20.063  25.427  1.00  0.00    -0.269 OA
BRANCH  26  29
ATOM     29  C   UNL A   1      39.025  22.266  26.254  1.00  0.00     0.039 A 
ATOM     30  C   UNL A   1      40.081  22.164  27.161  1.00  0.00     0.014 A 
ATOM     31  C   UNL A   1      38.577  23.522  25.835  1.00  0.00     0.014 A 
ATOM     32  C   UNL A   1      40.731  23.320  27.599  1.00  0.00     0.010 A 
ATOM     33  C   UNL A   1      39.274  24.668  26.213  1.00  0.00     0.010 A 
ATOM     34  C   UNL A   1      40.359  24.579  27.098  1.00  0.00    -0.014 A 
BRANCH  34  35
ATOM     35  C   UNL A   1      41.099  25.810  27.485  1.00  0.00     0.031 A 
ATOM     36  C   UNL A   1      40.394  26.919  28.217  1.00  0.00     0.074 A 
ATOM     37  C   UNL A   1      42.390  25.949  27.125  1.00  0.00     0.049 A 
ATOM     38  N   UNL A   1      40.849  28.091  28.579  1.00  0.00    -0.248 NA
ATOM     39  C   UNL A   1      38.983  26.690  28.563  1.00  0.00     0.031 C 
ATOM     40  C   UNL A   1      43.170  24.957  26.381  1.00  0.00     0.029 A 
ATOM     41  N   UNL A   1      43.275  26.979  27.327  1.00  0.00    -0.354 N 
ATOM     42  C   UNL A   1      39.781  28.743  29.187  1.00  0.00     0.074 A 
ATOM     43  C   UNL A   1      38.639  27.858  29.084  1.00  0.00     0.031 C 
ATOM     44  C   UNL A   1      44.422  25.415  26.217  1.00  0.00     0.029 A 
ATOM     45  C   UNL A   1      44.522  26.752  26.792  1.00  0.00     0.049 A 
ATOM     46  H   UNL A   1      43.039  27.804  27.811  1.00  0.00     0.167 HD
ATOM     47  C   UNL A   1      39.760  29.956  29.793  1.00  0.00     0.034 A 
ATOM     48  C   UNL A   1      45.618  27.537  26.752  1.00  0.00     0.034 A 
ATOM     49  C   UNL A   1      40.910  30.823  29.888  1.00  0.00     0.049 A 
ATOM     50  C   UNL A   1      45.558  28.899  27.397  1.00  0.00     0.074 A 
ATOM     51  C   UNL A   1      41.015  32.049  30.524  1.00  0.00     0.029 A 
ATOM     52  N   UNL A   1      42.154  30.566  29.322  1.00  0.00    -0.354 N 
ATOM     53  N   UNL A   1      44.554  29.480  28.013  1.00  0.00    -0.248 NA
ATOM     54  C   UNL A   1      46.783  29.708  27.349  1.00  0.00     0.031 C 
ATOM     55  C   UNL A   1      42.289  32.567  30.274  1.00  0.00     0.029 A 
ATOM     56  C   UNL A   1      43.015  31.626  29.562  1.00  0.00     0.049 A 
ATOM     57  H   UNL A   1      42.389  29.749  28.825  1.00  0.00     0.167 HD
ATOM     58  C   UNL A   1      45.039  30.708  28.456  1.00  0.00     0.074 A 
ATOM     59  C   UNL A   1      46.428  30.775  28.049  1.00  0.00     0.031 C 
ATOM     60  C   UNL A   1      44.397  31.688  29.141  1.00  0.00     0.034 A 
BRANCH  47  61
ATOM     61  C   UNL A   1      38.445  30.426  30.371  1.00  0.00     0.023 A 
ATOM     62  C   UNL A   1      37.485  31.087  29.586  1.00  0.00     0.031 A 
ATOM     63  C   UNL A   1      38.153  30.227  31.733  1.00  0.00     0.131 A 
ATOM     64  C   UNL A   1      36.318  31.592  30.180  1.00  0.00     0.055 A 
ATOM     65  C   UNL A   1      36.952  30.655  32.300  1.00  0.00     0.041 A 
ATOM     66  F   UNL A   1      39.039  29.622  32.541  1.00  0.00    -0.206 F 
ATOM     67  C   UNL A   1      36.031  31.355  31.526  1.00  0.00     0.022 A 
BRANCH  64  68
ATOM     68  S   UNL A   1      35.256  32.693  29.204  1.00  0.00     0.124 S 
ATOM     69  O   UNL A   1      34.537  31.739  28.363  1.00  0.00    -0.237 OA
ATOM     70  O   UNL A   1      34.467  33.362  30.232  1.00  0.00    -0.237 OA
ATOM     71  O   UNL A   1      36.208  33.545  28.494  1.00  0.00    -0.744 OA
ENDBRANCH  64  68
ENDBRANCH  47  61
BRANCH  48  72
ATOM     72  C   UNL A   1      46.859  27.069  26.069  1.00  0.00     0.023 A 
ATOM     73  C   UNL A   1      47.876  26.415  26.782  1.00  0.00     0.031 A 
ATOM     74  C   UNL A   1      47.067  27.311  24.699  1.00  0.00     0.131 A 
ATOM     75  C   UNL A   1      49.075  26.072  26.136  1.00  0.00     0.055 A 
ATOM     76  C   UNL A   1      48.235  26.912  24.047  1.00  0.00     0.041 A 
ATOM     77  F   UNL A   1      46.127  27.931  23.967  1.00  0.00    -0.206 F 
ATOM     78  C   UNL A   1      49.254  26.301  24.770  1.00  0.00     0.022 A 
BRANCH  75  79
ATOM     79  S   UNL A   1      50.437  25.407  27.131  1.00  0.00     0.124 S 
ATOM     80  O   UNL A   1      50.827  26.573  27.915  1.00  0.00    -0.237 OA
ATOM     81  O   UNL A   1      49.781  24.330  27.863  1.00  0.00    -0.237 OA
ATOM     82  O   UNL A   1      51.410  24.975  26.128  1.00  0.00    -0.744 OA
ENDBRANCH  75  79
ENDBRANCH  48  72
BRANCH  60  83
ATOM     83  C   UNL A   1      45.211  32.898  29.537  1.00  0.00     0.023 A 
ATOM     84  C   UNL A   1      45.293  34.039  28.718  1.00  0.00     0.031 A 
ATOM     85  C   UNL A   1      45.922  32.903  30.750  1.00  0.00     0.131 A 
ATOM     86  C   UNL A   1      46.117  35.111  29.095  1.00  0.00     0.055 A 
ATOM     87  C   UNL A   1      46.684  34.001  31.152  1.00  0.00     0.041 A 
ATOM     88  F   UNL A   1      45.884  31.841  31.570  1.00  0.00    -0.206 F 
ATOM     89  C   UNL A   1      46.796  35.108  30.316  1.00  0.00     0.022 A 
BRANCH  86  90
ATOM     90  S   UNL A   1      46.372  36.468  27.919  1.00  0.00     0.124 S 
ATOM     91  O   UNL A   1      45.128  36.445  27.155  1.00  0.00    -0.237 OA
ATOM     92  O   UNL A   1      46.558  37.616  28.801  1.00  0.00    -0.237 OA
ATOM     93  O   UNL A   1      47.563  36.059  27.176  1.00  0.00    -0.744 OA
ENDBRANCH  86  90
ENDBRANCH  60  83
ENDBRANCH  34  35
ENDBRANCH  26  29
ENDBRANCH  24  25
ENDBRANCH  23  24
ENDBRANCH   1  23
TORSDOF 19
ENDMDL
MODEL 3
REMARK VINA RESULT:     -10.8      2.731      3.731
REMARK SMILES Nc1nc(-c2cccs2)c(CC(=O)NCCCCCCNC(=O)c2ccc(-c3c4nc(c(-c5cc(S(=O)(=O)[O-])ccc5F)c5ccc([nH]5)c(-c5cc(S(=O)(=O)[O-])ccc5F)c5nc(c(-c6cc(S(=O)(=O)[O-])ccc6F)c6ccc3[nH]6)C=C5)C=C4)cc2)s1
REMARK SMILES IDX 18 1 17 2 16 3 15 4 14 5 12 6 13 7 11 9 10 10 2 11 3 12
REMARK SMILES IDX 87 13 4 14 1 15 5 18 6 19 9 20 7 21 8 22 19 23 20 24 21 25
REMARK SMILES IDX 22 26 23 28 24 29 25 30 86 31 26 32 85 33 27 34 28 35 29 36
REMARK SMILES IDX 79 37 30 38 84 39 78 40 80 41 31 42 83 43 77 44 76 45 32 47
REMARK SMILES IDX 64 48 44 49 63 50 45 51 48 52 62 53 81 54 46 55 47 56 61 58
REMARK SMILES IDX 82 59 49 60 33 61 34 62 42 63 35 64 41 65 43 66 40 67 36 68
REMARK SMILES IDX 37 69 38 70 39 71 65 72 66 73 74 74 67 75 73 76 75 77 72 78
REMARK SMILES IDX 68 79 69 80 70 81 71 82 50 83 51 84 59 85 52 86 58 87 60 88
REMARK SMILES IDX 57 89 53 90 54 91 55 92 56 93
REMARK H PARENT 14 8 1 16 1 17 21 27 80 46 48 57
REMARK Flexibility Score: inf
ROOT
ATOM      1  C   UNL A   1      34.388  22.807  24.309  1.00  0.00     0.002 C 
ENDROOT
BRANCH   1   2
ATOM      2  C   UNL A   1      33.293  22.091  23.511  1.00  0.00     0.002 C 
BRANCH   2   3
ATOM      3  C   UNL A   1      31.883  22.666  23.696  1.00  0.00     0.021 C 
BRANCH   3   4
ATOM      4  C   UNL A   1      31.425  22.684  25.157  1.00  0.00     0.116 C 
BRANCH   4   5
ATOM      5  N   UNL A   1      30.562  23.820  25.418  1.00  0.00    -0.356 N 
ATOM      6  C   UNL A   1      30.857  25.025  25.989  1.00  0.00     0.225 C 
ATOM      7  O   UNL A   1      29.928  25.813  26.187  1.00  0.00    -0.275 OA
ATOM      8  H   UNL A   1      29.624  23.706  25.143  1.00  0.00     0.163 HD
BRANCH   6   9
ATOM      9  C   UNL A   1      32.298  25.425  26.278  1.00  0.00     0.149 C 
BRANCH   9  10
ATOM     10  C   UNL A   1      32.576  26.862  25.965  1.00  0.00     0.045 A 
ATOM     11  C   UNL A   1      33.296  29.178  26.101  1.00  0.00     0.180 A 
ATOM     12  N   UNL A   1      33.273  28.794  24.852  1.00  0.00    -0.219 NA
ATOM     13  S   UNL A   1      32.797  28.000  27.240  1.00  0.00    -0.101 S 
ATOM     14  C   UNL A   1      32.764  27.511  24.752  1.00  0.00     0.097 A 
BRANCH  11  15
ATOM     15  N   UNL A   1      33.689  30.396  26.487  1.00  0.00    -0.375 N 
ATOM     16  H   UNL A   1      33.583  31.162  25.879  1.00  0.00     0.159 HD
ATOM     17  H   UNL A   1      34.083  30.526  27.380  1.00  0.00     0.159 HD
ENDBRANCH  11  15
BRANCH  14  18
ATOM     18  C   UNL A   1      32.596  26.880  23.398  1.00  0.00     0.054 A 
ATOM     19  C   UNL A   1      33.567  26.091  22.814  1.00  0.00     0.022 A 
ATOM     20  S   UNL A   1      31.215  27.022  22.400  1.00  0.00    -0.142 S 
ATOM     21  C   UNL A   1      33.118  25.505  21.592  1.00  0.00     0.012 A 
ATOM     22  C   UNL A   1      31.863  25.949  21.238  1.00  0.00     0.065 A 
ENDBRANCH  14  18
ENDBRANCH   9  10
ENDBRANCH   6   9
ENDBRANCH   4   5
ENDBRANCH   3   4
ENDBRANCH   2   3
ENDBRANCH   1   2
BRANCH   1  23
ATOM     23  C   UNL A   1      35.751  22.111  24.303  1.00  0.00     0.021 C 
BRANCH  23  24
ATOM     24  C   UNL A   1      36.453  22.089  25.659  1.00  0.00     0.116 C 
BRANCH  24  25
ATOM     25  N   UNL A   1      37.443  21.025  25.736  1.00  0.00    -0.352 N 
ATOM     26  C   UNL A   1      38.794  21.108  25.959  1.00  0.00     0.251 C 
ATOM     27  H   UNL A   1      37.093  20.114  25.611  1.00  0.00     0.163 HD
ATOM     28  O   UNL A   1      39.506  20.124  25.758  1.00  0.00    -0.269 OA
BRANCH  26  29
ATOM     29  C   UNL A   1      39.391  22.381  26.416  1.00  0.00     0.039 A 
ATOM     30  C   UNL A   1      40.424  22.347  27.354  1.00  0.00     0.014 A 
ATOM     31  C   UNL A   1      38.930  23.605  25.923  1.00  0.00     0.014 A 
ATOM     32  C   UNL A   1      41.039  23.537  27.750  1.00  0.00     0.010 A 
ATOM     33  C   UNL A   1      39.593  24.782  26.260  1.00  0.00     0.010 A 
ATOM     34  C   UNL A   1      40.655  24.761  27.177  1.00  0.00    -0.014 A 
BRANCH  34  35
ATOM     35  C   UNL A   1      41.359  26.025  27.520  1.00  0.00     0.031 A 
ATOM     36  C   UNL A   1      40.645  27.108  28.282  1.00  0.00     0.074 A 
ATOM     37  C   UNL A   1      42.623  26.218  27.093  1.00  0.00     0.049 A 
ATOM     38  N   UNL A   1      41.066  28.301  28.615  1.00  0.00    -0.248 NA
ATOM     39  C   UNL A   1      39.265  26.821  28.700  1.00  0.00     0.031 C 
ATOM     40  C   UNL A   1      43.407  25.256  26.315  1.00  0.00     0.029 A 
ATOM     41  N   UNL A   1      43.471  27.287  27.245  1.00  0.00    -0.354 N 
ATOM     42  C   UNL A   1      40.004  28.910  29.274  1.00  0.00     0.074 A 
ATOM     43  C   UNL A   1      38.898  27.976  29.233  1.00  0.00     0.031 C 
ATOM     44  C   UNL A   1      44.627  25.766  26.084  1.00  0.00     0.029 A 
ATOM     45  C   UNL A   1      44.698  27.110  26.648  1.00  0.00     0.049 A 
ATOM     46  H   UNL A   1      43.225  28.104  27.737  1.00  0.00     0.167 HD
ATOM     47  C   UNL A   1      39.961  30.125  29.875  1.00  0.00     0.034 A 
ATOM     48  C   UNL A   1      45.755  27.942  26.549  1.00  0.00     0.034 A 
ATOM     49  C   UNL A   1      41.075  31.042  29.907  1.00  0.00     0.049 A 
ATOM     50  C   UNL A   1      45.670  29.305  27.189  1.00  0.00     0.074 A 
ATOM     51  C   UNL A   1      41.159  32.275  30.532  1.00  0.00     0.029 A 
ATOM     52  N   UNL A   1      42.298  30.835  29.279  1.00  0.00    -0.354 N 
ATOM     53  N   UNL A   1      44.674  29.845  27.854  1.00  0.00    -0.248 NA
ATOM     54  C   UNL A   1      46.854  30.165  27.075  1.00  0.00     0.031 C 
ATOM     55  C   UNL A   1      42.395  32.846  30.214  1.00  0.00     0.029 A 
ATOM     56  C   UNL A   1      43.124  31.933  29.470  1.00  0.00     0.049 A 
ATOM     57  H   UNL A   1      42.543  30.026  28.774  1.00  0.00     0.167 HD
ATOM     58  C   UNL A   1      45.127  31.096  28.265  1.00  0.00     0.074 A 
ATOM     59  C   UNL A   1      46.489  31.221  27.788  1.00  0.00     0.031 C 
ATOM     60  C   UNL A   1      44.479  32.052  28.978  1.00  0.00     0.034 A 
BRANCH  47  61
ATOM     61  C   UNL A   1      38.657  30.541  30.518  1.00  0.00     0.023 A 
ATOM     62  C   UNL A   1      37.661  31.222  29.797  1.00  0.00     0.031 A 
ATOM     63  C   UNL A   1      38.414  30.270  31.876  1.00  0.00     0.131 A 
ATOM     64  C   UNL A   1      36.506  31.676  30.453  1.00  0.00     0.055 A 
ATOM     65  C   UNL A   1      37.225  30.647  32.502  1.00  0.00     0.041 A 
ATOM     66  F   UNL A   1      39.337  29.643  32.625  1.00  0.00    -0.206 F 
ATOM     67  C   UNL A   1      36.268  31.368  31.795  1.00  0.00     0.022 A 
BRANCH  64  68
ATOM     68  S   UNL A   1      35.394  32.803  29.568  1.00  0.00     0.124 S 
ATOM     69  O   UNL A   1      36.133  34.062  29.640  1.00  0.00    -0.237 OA
ATOM     70  O   UNL A   1      35.305  32.188  28.249  1.00  0.00    -0.237 OA
ATOM     71  O   UNL A   1      34.166  32.764  30.360  1.00  0.00    -0.744 OA
ENDBRANCH  64  68
ENDBRANCH  47  61
BRANCH  48  72
ATOM     72  C   UNL A   1      46.980  27.524  25.805  1.00  0.00     0.023 A 
ATOM     73  C   UNL A   1      47.165  27.875  24.459  1.00  0.00     0.031 A 
ATOM     74  C   UNL A   1      47.962  26.725  26.418  1.00  0.00     0.131 A 
ATOM     75  C   UNL A   1      48.278  27.389  23.755  1.00  0.00     0.055 A 
ATOM     76  C   UNL A   1      49.099  26.295  25.731  1.00  0.00     0.041 A 
ATOM     77  F   UNL A   1      47.837  26.360  27.704  1.00  0.00    -0.206 F 
ATOM     78  C   UNL A   1      49.254  26.614  24.386  1.00  0.00     0.022 A 
BRANCH  75  79
ATOM     79  S   UNL A   1      48.382  27.702  21.972  1.00  0.00     0.124 S 
ATOM     80  O   UNL A   1      47.092  28.327  21.706  1.00  0.00    -0.237 OA
ATOM     81  O   UNL A   1      49.549  28.572  21.885  1.00  0.00    -0.237 OA
ATOM     82  O   UNL A   1      48.558  26.367  21.402  1.00  0.00    -0.744 OA
ENDBRANCH  75  79
ENDBRANCH  48  72
BRANCH  60  83
ATOM     83  C   UNL A   1      45.258  33.299  29.326  1.00  0.00     0.023 A 
ATOM     84  C   UNL A   1      46.019  33.395  30.505  1.00  0.00     0.031 A 
ATOM     85  C   UNL A   1      45.228  34.412  28.466  1.00  0.00     0.131 A 
ATOM     86  C   UNL A   1      46.670  34.598  30.819  1.00  0.00     0.055 A 
ATOM     87  C   UNL A   1      45.934  35.581  28.751  1.00  0.00     0.041 A 
ATOM     88  F   UNL A   1      44.515  34.379  27.330  1.00  0.00    -0.206 F 
ATOM     89  C   UNL A   1      46.649  35.684  29.941  1.00  0.00     0.022 A 
BRANCH  86  90
ATOM     90  S   UNL A   1      47.460  34.761  32.444  1.00  0.00     0.124 S 
ATOM     91  O   UNL A   1      47.721  33.369  32.795  1.00  0.00    -0.237 OA
ATOM     92  O   UNL A   1      48.634  35.573  32.141  1.00  0.00    -0.237 OA
ATOM     93  O   UNL A   1      46.441  35.424  33.256  1.00  0.00    -0.744 OA
ENDBRANCH  86  90
ENDBRANCH  60  83
ENDBRANCH  34  35
ENDBRANCH  26  29
ENDBRANCH  24  25
ENDBRANCH  23  24
ENDBRANCH   1  23
TORSDOF 19
ENDMDL
