MODEL 1
REMARK VINA RESULT:     -11.1      0.000      0.000
REMARK SMILES Cc1cc([C@@H]([NH2+]CC[NH+](C)C)C(=O)NCCCCCCNC(=O)c2ccc(-c3c4nc(c(-c5cc(S(=O)(=O)[O-])ccc5F)c5ccc([nH]5)c(-c5cc(S(=O)(=O)[O-])ccc5F)c5nc(c(-c6cc(S(=O)(=O)[O-])ccc6F)c6ccc3[nH]6)C=C5)C=C4)cc2)ccc1Br
REMARK SMILES IDX 17 1 16 2 15 3 14 4 12 5 13 6 5 8 4 9 1 10 2 11 3 12 89 13
REMARK SMILES IDX 88 14 90 15 87 16 6 17 7 20 8 21 9 22 10 23 11 24 18 26
REMARK SMILES IDX 19 27 20 28 21 29 22 30 23 32 24 33 25 34 86 35 26 36 85 37
REMARK SMILES IDX 27 38 28 39 29 40 79 41 30 42 84 43 78 44 80 45 31 46 83 47
REMARK SMILES IDX 77 48 76 49 32 51 64 52 44 53 63 54 45 55 48 56 62 57 81 58
REMARK SMILES IDX 46 59 47 60 61 62 82 63 49 64 33 65 34 66 42 67 35 68 41 69
REMARK SMILES IDX 43 70 40 71 36 72 37 73 38 74 39 75 65 76 66 77 74 78 67 79
REMARK SMILES IDX 73 80 75 81 72 82 68 83 69 84 70 85 71 86 50 87 51 88 59 89
REMARK SMILES IDX 52 90 58 91 60 92 57 93 53 94 54 95 55 96 56 97
REMARK H PARENT 14 7 6 18 6 19 9 25 21 31 80 50 48 61
REMARK Flexibility Score: inf
ROOT
ATOM      1  C   UNL A   1      32.952  29.345  26.680  1.00  0.00     0.002 C 
ENDROOT
BRANCH   1   2
ATOM      2  C   UNL A   1      33.307  28.932  25.251  1.00  0.00     0.021 C 
BRANCH   2   3
ATOM      3  C   UNL A   1      33.625  27.442  25.122  1.00  0.00     0.116 C 
BRANCH   3   4
ATOM      4  N   UNL A   1      33.968  27.120  23.755  1.00  0.00    -0.351 N 
ATOM      5  C   UNL A   1      33.401  26.208  22.912  1.00  0.00     0.283 C 
ATOM      6  O   UNL A   1      33.954  26.036  21.817  1.00  0.00    -0.268 OA
ATOM      7  H   UNL A   1      34.718  27.633  23.376  1.00  0.00     0.163 HD
BRANCH   5   8
ATOM      8  C   UNL A   1      32.106  25.431  23.263  1.00  0.00     0.304 C 
BRANCH   8   9
ATOM      9  C   UNL A   1      30.845  26.291  23.281  1.00  0.00     0.019 A 
ATOM     10  C   UNL A   1      29.878  29.775  22.048  1.00  0.00     0.045 C 
ATOM     11  C   UNL A   1      29.752  28.405  22.651  1.00  0.00    -0.036 A 
ATOM     12  C   UNL A   1      30.871  27.552  22.654  1.00  0.00     0.015 A 
ATOM     13  C   UNL A   1      28.561  27.946  23.225  1.00  0.00     0.020 A 
ATOM     14  C   UNL A   1      28.519  26.708  23.864  1.00  0.00     0.016 A 
ATOM     15  Br  UNL A   1      26.961  28.966  23.177  1.00  0.00    -0.051 Br
ATOM     16  C   UNL A   1      29.662  25.908  23.921  1.00  0.00     0.011 A 
ENDBRANCH   8   9
BRANCH   8  17
ATOM     17  N   UNL A   1      31.949  24.190  22.475  1.00  0.00    -0.328 N 
ATOM     18  H   UNL A   1      32.689  24.159  21.774  1.00  0.00     0.347 HD
ATOM     19  H   UNL A   1      31.016  24.221  22.062  1.00  0.00     0.347 HD
BRANCH  17  20
ATOM     20  C   UNL A   1      32.018  22.957  23.275  1.00  0.00     0.323 C 
BRANCH  20  21
ATOM     21  C   UNL A   1      33.383  22.237  23.457  1.00  0.00     0.323 C 
BRANCH  21  22
ATOM     22  N   UNL A   1      33.455  21.093  24.391  1.00  0.00    -0.335 N 
ATOM     23  C   UNL A   1      34.407  21.410  25.462  1.00  0.00     0.332 C 
ATOM     24  C   UNL A   1      32.176  20.720  24.988  1.00  0.00     0.332 C 
ATOM     25  H   UNL A   1      33.756  20.292  23.836  1.00  0.00     0.347 HD
ENDBRANCH  21  22
ENDBRANCH  20  21
ENDBRANCH  17  20
ENDBRANCH   8  17
ENDBRANCH   5   8
ENDBRANCH   3   4
ENDBRANCH   2   3
ENDBRANCH   1   2
BRANCH   1  26
ATOM     26  C   UNL A   1      31.626  30.107  26.803  1.00  0.00     0.002 C 
BRANCH  26  27
ATOM     27  C   UNL A   1      31.730  31.622  26.596  1.00  0.00     0.021 C 
BRANCH  27  28
ATOM     28  C   UNL A   1      32.933  32.264  27.279  1.00  0.00     0.116 C 
BRANCH  28  29
ATOM     29  N   UNL A   1      32.694  33.672  27.556  1.00  0.00    -0.352 N 
ATOM     30  C   UNL A   1      33.195  34.451  28.570  1.00  0.00     0.251 C 
ATOM     31  H   UNL A   1      32.088  34.129  26.930  1.00  0.00     0.163 HD
ATOM     32  O   UNL A   1      32.671  35.528  28.831  1.00  0.00    -0.269 OA
BRANCH  30  33
ATOM     33  C   UNL A   1      34.359  33.973  29.342  1.00  0.00     0.039 A 
ATOM     34  C   UNL A   1      34.150  33.191  30.479  1.00  0.00     0.014 A 
ATOM     35  C   UNL A   1      35.657  34.302  28.938  1.00  0.00     0.014 A 
ATOM     36  C   UNL A   1      35.249  32.684  31.177  1.00  0.00     0.010 A 
ATOM     37  C   UNL A   1      36.747  33.739  29.592  1.00  0.00     0.010 A 
ATOM     38  C   UNL A   1      36.554  32.924  30.718  1.00  0.00    -0.014 A 
BRANCH  38  39
ATOM     39  C   UNL A   1      37.734  32.326  31.395  1.00  0.00     0.031 A 
ATOM     40  C   UNL A   1      38.476  31.190  30.749  1.00  0.00     0.074 A 
ATOM     41  C   UNL A   1      38.086  32.761  32.621  1.00  0.00     0.049 A 
ATOM     42  N   UNL A   1      39.464  30.473  31.220  1.00  0.00    -0.248 NA
ATOM     43  C   UNL A   1      38.027  30.789  29.406  1.00  0.00     0.031 C 
ATOM     44  C   UNL A   1      37.418  33.834  33.360  1.00  0.00     0.029 A 
ATOM     45  N   UNL A   1      39.082  32.347  33.470  1.00  0.00    -0.354 N 
ATOM     46  C   UNL A   1      39.749  29.530  30.238  1.00  0.00     0.074 A 
ATOM     47  C   UNL A   1      38.788  29.729  29.174  1.00  0.00     0.031 C 
ATOM     48  C   UNL A   1      38.037  34.009  34.538  1.00  0.00     0.029 A 
ATOM     49  C   UNL A   1      39.108  33.026  34.666  1.00  0.00     0.049 A 
ATOM     50  H   UNL A   1      39.720  31.632  33.242  1.00  0.00     0.167 HD
ATOM     51  C   UNL A   1      40.734  28.599  30.219  1.00  0.00     0.034 A 
ATOM     52  C   UNL A   1      39.892  32.861  35.751  1.00  0.00     0.034 A 
ATOM     53  C   UNL A   1      41.686  28.419  31.289  1.00  0.00     0.049 A 
ATOM     54  C   UNL A   1      40.950  31.789  35.724  1.00  0.00     0.074 A 
ATOM     55  C   UNL A   1      42.757  27.546  31.351  1.00  0.00     0.029 A 
ATOM     56  N   UNL A   1      41.674  29.117  32.490  1.00  0.00    -0.354 N 
ATOM     57  N   UNL A   1      41.240  30.937  34.767  1.00  0.00    -0.248 NA
ATOM     58  C   UNL A   1      41.791  31.658  36.921  1.00  0.00     0.031 C 
ATOM     59  C   UNL A   1      43.344  27.660  32.616  1.00  0.00     0.029 A 
ATOM     60  C   UNL A   1      42.695  28.666  33.315  1.00  0.00     0.049 A 
ATOM     61  H   UNL A   1      41.035  29.828  32.724  1.00  0.00     0.167 HD
ATOM     62  C   UNL A   1      42.318  30.192  35.237  1.00  0.00     0.074 A 
ATOM     63  C   UNL A   1      42.634  30.704  36.555  1.00  0.00     0.031 C 
ATOM     64  C   UNL A   1      42.990  29.177  34.633  1.00  0.00     0.034 A 
BRANCH  51  65
ATOM     65  C   UNL A   1      40.810  27.687  29.017  1.00  0.00     0.023 A 
ATOM     66  C   UNL A   1      41.758  27.885  27.997  1.00  0.00     0.031 A 
ATOM     67  C   UNL A   1      39.908  26.617  28.875  1.00  0.00     0.131 A 
ATOM     68  C   UNL A   1      41.735  27.077  26.850  1.00  0.00     0.055 A 
ATOM     69  C   UNL A   1      39.945  25.763  27.770  1.00  0.00     0.041 A 
ATOM     70  F   UNL A   1      38.966  26.389  29.804  1.00  0.00    -0.206 F 
ATOM     71  C   UNL A   1      40.852  26.000  26.742  1.00  0.00     0.022 A 
BRANCH  68  72
ATOM     72  S   UNL A   1      42.773  27.546  25.439  1.00  0.00     0.124 S 
ATOM     73  O   UNL A   1      42.823  26.298  24.681  1.00  0.00    -0.237 OA
ATOM     74  O   UNL A   1      42.011  28.632  24.834  1.00  0.00    -0.237 OA
ATOM     75  O   UNL A   1      44.036  27.940  26.060  1.00  0.00    -0.744 OA
ENDBRANCH  68  72
ENDBRANCH  51  65
BRANCH  52  76
ATOM     76  C   UNL A   1      39.696  33.713  36.960  1.00  0.00     0.023 A 
ATOM     77  C   UNL A   1      39.137  33.184  38.134  1.00  0.00     0.031 A 
ATOM     78  C   UNL A   1      40.026  35.080  36.946  1.00  0.00     0.131 A 
ATOM     79  C   UNL A   1      38.879  34.025  39.227  1.00  0.00     0.055 A 
ATOM     80  C   UNL A   1      39.822  35.900  38.058  1.00  0.00     0.041 A 
ATOM     81  F   UNL A   1      40.567  35.638  35.852  1.00  0.00    -0.206 F 
ATOM     82  C   UNL A   1      39.232  35.376  39.203  1.00  0.00     0.022 A 
BRANCH  79  83
ATOM     83  S   UNL A   1      37.988  33.344  40.654  1.00  0.00     0.124 S 
ATOM     84  O   UNL A   1      38.717  32.104  40.894  1.00  0.00    -0.237 OA
ATOM     85  O   UNL A   1      38.163  34.396  41.649  1.00  0.00    -0.237 OA
ATOM     86  O   UNL A   1      36.625  33.180  40.155  1.00  0.00    -0.744 OA
ENDBRANCH  79  83
ENDBRANCH  52  76
BRANCH  64  87
ATOM     87  C   UNL A   1      44.161  28.588  35.380  1.00  0.00     0.023 A 
ATOM     88  C   UNL A   1      44.003  27.532  36.292  1.00  0.00     0.031 A 
ATOM     89  C   UNL A   1      45.457  29.094  35.172  1.00  0.00     0.131 A 
ATOM     90  C   UNL A   1      45.113  27.048  37.002  1.00  0.00     0.055 A 
ATOM     91  C   UNL A   1      46.566  28.567  35.834  1.00  0.00     0.041 A 
ATOM     92  F   UNL A   1      45.667  30.106  34.315  1.00  0.00    -0.206 F 
ATOM     93  C   UNL A   1      46.397  27.547  36.763  1.00  0.00     0.022 A 
BRANCH  90  94
ATOM     94  S   UNL A   1      44.846  25.816  38.305  1.00  0.00     0.124 S 
ATOM     95  O   UNL A   1      46.214  25.450  38.661  1.00  0.00    -0.237 OA
ATOM     96  O   UNL A   1      44.108  26.576  39.309  1.00  0.00    -0.237 OA
ATOM     97  O   UNL A   1      44.078  24.768  37.636  1.00  0.00    -0.744 OA
ENDBRANCH  90  94
ENDBRANCH  64  87
ENDBRANCH  38  39
ENDBRANCH  30  33
ENDBRANCH  28  29
ENDBRANCH  27  28
ENDBRANCH  26  27
ENDBRANCH   1  26
TORSDOF 21
ENDMDL
MODEL 2
REMARK VINA RESULT:     -10.9      1.660      2.041
REMARK SMILES Cc1cc([C@@H]([NH2+]CC[NH+](C)C)C(=O)NCCCCCCNC(=O)c2ccc(-c3c4nc(c(-c5cc(S(=O)(=O)[O-])ccc5F)c5ccc([nH]5)c(-c5cc(S(=O)(=O)[O-])ccc5F)c5nc(c(-c6cc(S(=O)(=O)[O-])ccc6F)c6ccc3[nH]6)C=C5)C=C4)cc2)ccc1Br
REMARK SMILES IDX 17 1 16 2 15 3 14 4 12 5 13 6 5 8 4 9 1 10 2 11 3 12 89 13
REMARK SMILES IDX 88 14 90 15 87 16 6 17 7 20 8 21 9 22 10 23 11 24 18 26
REMARK SMILES IDX 19 27 20 28 21 29 22 30 23 32 24 33 25 34 86 35 26 36 85 37
REMARK SMILES IDX 27 38 28 39 29 40 79 41 30 42 84 43 78 44 80 45 31 46 83 47
REMARK SMILES IDX 77 48 76 49 32 51 64 52 44 53 63 54 45 55 48 56 62 57 81 58
REMARK SMILES IDX 46 59 47 60 61 62 82 63 49 64 33 65 34 66 42 67 35 68 41 69
REMARK SMILES IDX 43 70 40 71 36 72 37 73 38 74 39 75 65 76 66 77 74 78 67 79
REMARK SMILES IDX 73 80 75 81 72 82 68 83 69 84 70 85 71 86 50 87 51 88 59 89
REMARK SMILES IDX 52 90 58 91 60 92 57 93 53 94 54 95 55 96 56 97
REMARK H PARENT 14 7 6 18 6 19 9 25 21 31 80 50 48 61
REMARK Flexibility Score: inf
ROOT
ATOM      1  C   UNL A   1      32.904  29.514  25.743  1.00  0.00     0.002 C 
ENDROOT
BRANCH   1   2
ATOM      2  C   UNL A   1      33.429  28.400  26.651  1.00  0.00     0.021 C 
BRANCH   2   3
ATOM      3  C   UNL A   1      33.359  27.018  26.001  1.00  0.00     0.116 C 
BRANCH   3   4
ATOM      4  N   UNL A   1      32.215  26.287  26.501  1.00  0.00    -0.351 N 
ATOM      5  C   UNL A   1      31.162  25.755  25.816  1.00  0.00     0.283 C 
ATOM      6  O   UNL A   1      30.242  25.270  26.489  1.00  0.00    -0.268 OA
ATOM      7  H   UNL A   1      32.195  26.151  27.476  1.00  0.00     0.163 HD
BRANCH   5   8
ATOM      8  C   UNL A   1      31.102  25.712  24.267  1.00  0.00     0.304 C 
BRANCH   8   9
ATOM      9  C   UNL A   1      30.558  26.986  23.626  1.00  0.00     0.019 A 
ATOM     10  C   UNL A   1      27.116  28.578  23.172  1.00  0.00     0.045 C 
ATOM     11  C   UNL A   1      28.606  28.399  23.125  1.00  0.00    -0.036 A 
ATOM     12  C   UNL A   1      29.179  27.256  23.711  1.00  0.00     0.015 A 
ATOM     13  C   UNL A   1      29.453  29.326  22.504  1.00  0.00     0.020 A 
ATOM     14  C   UNL A   1      30.818  29.069  22.395  1.00  0.00     0.016 A 
ATOM     15  Br  UNL A   1      28.803  30.956  21.780  1.00  0.00    -0.051 Br
ATOM     16  C   UNL A   1      31.356  27.892  22.919  1.00  0.00     0.011 A 
ENDBRANCH   8   9
BRANCH   8  17
ATOM     17  N   UNL A   1      32.367  25.251  23.655  1.00  0.00    -0.328 N 
ATOM     18  H   UNL A   1      33.101  25.299  24.362  1.00  0.00     0.347 HD
ATOM     19  H   UNL A   1      32.547  25.862  22.857  1.00  0.00     0.347 HD
BRANCH  17  20
ATOM     20  C   UNL A   1      32.317  23.876  23.134  1.00  0.00     0.323 C 
BRANCH  20  21
ATOM     21  C   UNL A   1      33.106  22.752  23.862  1.00  0.00     0.323 C 
BRANCH  21  22
ATOM     22  N   UNL A   1      33.174  22.784  25.339  1.00  0.00    -0.335 N 
ATOM     23  C   UNL A   1      32.946  21.429  25.856  1.00  0.00     0.332 C 
ATOM     24  C   UNL A   1      34.436  23.289  25.873  1.00  0.00     0.332 C 
ATOM     25  H   UNL A   1      32.452  23.437  25.643  1.00  0.00     0.347 HD
ENDBRANCH  21  22
ENDBRANCH  20  21
ENDBRANCH  17  20
ENDBRANCH   8  17
ENDBRANCH   5   8
ENDBRANCH   3   4
ENDBRANCH   2   3
ENDBRANCH   1   2
BRANCH   1  26
ATOM     26  C   UNL A   1      31.499  30.012  26.107  1.00  0.00     0.002 C 
BRANCH  26  27
ATOM     27  C   UNL A   1      31.405  31.511  26.411  1.00  0.00     0.021 C 
BRANCH  27  28
ATOM     28  C   UNL A   1      32.668  32.103  27.028  1.00  0.00     0.116 C 
BRANCH  28  29
ATOM     29  N   UNL A   1      32.511  33.525  27.292  1.00  0.00    -0.352 N 
ATOM     30  C   UNL A   1      33.083  34.290  28.278  1.00  0.00     0.251 C 
ATOM     31  H   UNL A   1      31.910  34.005  26.679  1.00  0.00     0.163 HD
ATOM     32  O   UNL A   1      32.624  35.396  28.540  1.00  0.00    -0.269 OA
BRANCH  30  33
ATOM     33  C   UNL A   1      34.245  33.762  29.021  1.00  0.00     0.039 A 
ATOM     34  C   UNL A   1      34.042  32.815  30.026  1.00  0.00     0.014 A 
ATOM     35  C   UNL A   1      35.537  34.208  28.720  1.00  0.00     0.014 A 
ATOM     36  C   UNL A   1      35.142  32.266  30.687  1.00  0.00     0.010 A 
ATOM     37  C   UNL A   1      36.633  33.609  29.330  1.00  0.00     0.010 A 
ATOM     38  C   UNL A   1      36.448  32.632  30.319  1.00  0.00    -0.014 A 
BRANCH  38  39
ATOM     39  C   UNL A   1      37.635  32.000  30.951  1.00  0.00     0.031 A 
ATOM     40  C   UNL A   1      38.416  30.955  30.206  1.00  0.00     0.074 A 
ATOM     41  C   UNL A   1      37.959  32.318  32.220  1.00  0.00     0.049 A 
ATOM     42  N   UNL A   1      39.418  30.221  30.617  1.00  0.00    -0.248 NA
ATOM     43  C   UNL A   1      37.996  30.680  28.823  1.00  0.00     0.031 C 
ATOM     44  C   UNL A   1      37.252  33.293  33.053  1.00  0.00     0.029 A 
ATOM     45  N   UNL A   1      38.955  31.847  33.038  1.00  0.00    -0.354 N 
ATOM     46  C   UNL A   1      39.741  29.389  29.550  1.00  0.00     0.074 A 
ATOM     47  C   UNL A   1      38.788  29.670  28.496  1.00  0.00     0.031 C 
ATOM     48  C   UNL A   1      37.850  33.363  34.252  1.00  0.00     0.029 A 
ATOM     49  C   UNL A   1      38.947  32.402  34.297  1.00  0.00     0.049 A 
ATOM     50  H   UNL A   1      39.615  31.175  32.749  1.00  0.00     0.167 HD
ATOM     51  C   UNL A   1      40.752  28.491  29.452  1.00  0.00     0.034 A 
ATOM     52  C   UNL A   1      39.721  32.149  35.371  1.00  0.00     0.034 A 
ATOM     53  C   UNL A   1      41.695  28.230  30.514  1.00  0.00     0.049 A 
ATOM     54  C   UNL A   1      40.809  31.113  35.254  1.00  0.00     0.074 A 
ATOM     55  C   UNL A   1      42.789  27.383  30.504  1.00  0.00     0.029 A 
ATOM     56  N   UNL A   1      41.648  28.802  31.779  1.00  0.00    -0.354 N 
ATOM     57  N   UNL A   1      41.135  30.370  34.220  1.00  0.00    -0.248 NA
ATOM     58  C   UNL A   1      41.638  30.884  36.444  1.00  0.00     0.031 C 
ATOM     59  C   UNL A   1      43.356  27.384  31.783  1.00  0.00     0.029 A 
ATOM     60  C   UNL A   1      42.671  28.297  32.569  1.00  0.00     0.049 A 
ATOM     61  H   UNL A   1      40.987  29.469  32.072  1.00  0.00     0.167 HD
ATOM     62  C   UNL A   1      42.227  29.610  34.629  1.00  0.00     0.074 A 
ATOM     63  C   UNL A   1      42.512  29.994  35.996  1.00  0.00     0.031 C 
ATOM     64  C   UNL A   1      42.934  28.680  33.936  1.00  0.00     0.034 A 
BRANCH  51  65
ATOM     65  C   UNL A   1      40.868  27.708  28.166  1.00  0.00     0.023 A 
ATOM     66  C   UNL A   1      40.439  26.373  28.071  1.00  0.00     0.031 A 
ATOM     67  C   UNL A   1      41.435  28.298  27.021  1.00  0.00     0.131 A 
ATOM     68  C   UNL A   1      40.652  25.649  26.888  1.00  0.00     0.055 A 
ATOM     69  C   UNL A   1      41.566  27.597  25.819  1.00  0.00     0.041 A 
ATOM     70  F   UNL A   1      41.883  29.563  27.053  1.00  0.00    -0.206 F 
ATOM     71  C   UNL A   1      41.188  26.260  25.752  1.00  0.00     0.022 A 
BRANCH  68  72
ATOM     72  S   UNL A   1      40.355  23.859  26.903  1.00  0.00     0.124 S 
ATOM     73  O   UNL A   1      40.579  23.535  28.310  1.00  0.00    -0.237 OA
ATOM     74  O   UNL A   1      38.977  23.764  26.437  1.00  0.00    -0.237 OA
ATOM     75  O   UNL A   1      41.364  23.338  25.983  1.00  0.00    -0.744 OA
ENDBRANCH  68  72
ENDBRANCH  51  65
BRANCH  52  76
ATOM     76  C   UNL A   1      39.486  32.869  36.657  1.00  0.00     0.023 A 
ATOM     77  C   UNL A   1      38.629  32.340  37.635  1.00  0.00     0.031 A 
ATOM     78  C   UNL A   1      40.083  34.116  36.910  1.00  0.00     0.131 A 
ATOM     79  C   UNL A   1      38.354  33.077  38.796  1.00  0.00     0.055 A 
ATOM     80  C   UNL A   1      39.851  34.820  38.094  1.00  0.00     0.041 A 
ATOM     81  F   UNL A   1      40.914  34.667  36.011  1.00  0.00    -0.206 F 
ATOM     82  C   UNL A   1      38.970  34.307  39.040  1.00  0.00     0.022 A 
BRANCH  79  83
ATOM     83  S   UNL A   1      37.101  32.447  39.948  1.00  0.00     0.124 S 
ATOM     84  O   UNL A   1      37.030  33.525  40.927  1.00  0.00    -0.237 OA
ATOM     85  O   UNL A   1      35.941  32.291  39.077  1.00  0.00    -0.237 OA
ATOM     86  O   UNL A   1      37.685  31.199  40.434  1.00  0.00    -0.744 OA
ENDBRANCH  79  83
ENDBRANCH  52  76
BRANCH  64  87
ATOM     87  C   UNL A   1      44.112  28.049  34.638  1.00  0.00     0.023 A 
ATOM     88  C   UNL A   1      43.998  26.832  35.331  1.00  0.00     0.031 A 
ATOM     89  C   UNL A   1      45.369  28.679  34.612  1.00  0.00     0.131 A 
ATOM     90  C   UNL A   1      45.107  26.308  36.011  1.00  0.00     0.055 A 
ATOM     91  C   UNL A   1      46.485  28.121  35.237  1.00  0.00     0.041 A 
ATOM     92  F   UNL A   1      45.536  29.846  33.969  1.00  0.00    -0.206 F 
ATOM     93  C   UNL A   1      46.355  26.935  35.952  1.00  0.00     0.022 A 
BRANCH  90  94
ATOM     94  S   UNL A   1      44.880  24.837  37.047  1.00  0.00     0.124 S 
ATOM     95  O   UNL A   1      46.184  24.718  37.694  1.00  0.00    -0.237 OA
ATOM     96  O   UNL A   1      43.773  25.232  37.912  1.00  0.00    -0.237 OA
ATOM     97  O   UNL A   1      44.567  23.783  36.085  1.00  0.00    -0.744 OA
ENDBRANCH  90  94
ENDBRANCH  64  87
ENDBRANCH  38  39
ENDBRANCH  30  33
ENDBRANCH  28  29
ENDBRANCH  27  28
ENDBRANCH  26  27
ENDBRANCH   1  26
TORSDOF 21
ENDMDL
MODEL 3
REMARK VINA RESULT:     -10.8      1.555      2.990
REMARK SMILES Cc1cc([C@@H]([NH2+]CC[NH+](C)C)C(=O)NCCCCCCNC(=O)c2ccc(-c3c4nc(c(-c5cc(S(=O)(=O)[O-])ccc5F)c5ccc([nH]5)c(-c5cc(S(=O)(=O)[O-])ccc5F)c5nc(c(-c6cc(S(=O)(=O)[O-])ccc6F)c6ccc3[nH]6)C=C5)C=C4)cc2)ccc1Br
REMARK SMILES IDX 17 1 16 2 15 3 14 4 12 5 13 6 5 8 4 9 1 10 2 11 3 12 89 13
REMARK SMILES IDX 88 14 90 15 87 16 6 17 7 20 8 21 9 22 10 23 11 24 18 26
REMARK SMILES IDX 19 27 20 28 21 29 22 30 23 32 24 33 25 34 86 35 26 36 85 37
REMARK SMILES IDX 27 38 28 39 29 40 79 41 30 42 84 43 78 44 80 45 31 46 83 47
REMARK SMILES IDX 77 48 76 49 32 51 64 52 44 53 63 54 45 55 48 56 62 57 81 58
REMARK SMILES IDX 46 59 47 60 61 62 82 63 49 64 33 65 34 66 42 67 35 68 41 69
REMARK SMILES IDX 43 70 40 71 36 72 37 73 38 74 39 75 65 76 66 77 74 78 67 79
REMARK SMILES IDX 73 80 75 81 72 82 68 83 69 84 70 85 71 86 50 87 51 88 59 89
REMARK SMILES IDX 52 90 58 91 60 92 57 93 53 94 54 95 55 96 56 97
REMARK H PARENT 14 7 6 18 6 19 9 25 21 31 80 50 48 61
REMARK Flexibility Score: inf
ROOT
ATOM      1  C   UNL A   1      33.776  29.524  27.222  1.00  0.00     0.002 C 
ENDROOT
BRANCH   1   2
ATOM      2  C   UNL A   1      34.281  28.450  26.257  1.00  0.00     0.021 C 
BRANCH   2   3
ATOM      3  C   UNL A   1      33.259  28.087  25.179  1.00  0.00     0.116 C 
BRANCH   3   4
ATOM      4  N   UNL A   1      33.812  28.327  23.864  1.00  0.00    -0.351 N 
ATOM      5  C   UNL A   1      33.400  27.852  22.653  1.00  0.00     0.283 C 
ATOM      6  O   UNL A   1      34.115  28.112  21.675  1.00  0.00    -0.268 OA
ATOM      7  H   UNL A   1      34.597  28.920  23.838  1.00  0.00     0.163 HD
BRANCH   5   8
ATOM      8  C   UNL A   1      32.086  27.050  22.467  1.00  0.00     0.304 C 
BRANCH   8   9
ATOM      9  C   UNL A   1      32.203  25.568  22.810  1.00  0.00     0.019 A 
ATOM     10  C   UNL A   1      35.050  23.046  23.161  1.00  0.00     0.045 C 
ATOM     11  C   UNL A   1      33.664  23.622  23.183  1.00  0.00    -0.036 A 
ATOM     12  C   UNL A   1      33.483  24.986  22.892  1.00  0.00     0.015 A 
ATOM     13  C   UNL A   1      32.534  22.845  23.470  1.00  0.00     0.020 A 
ATOM     14  C   UNL A   1      31.259  23.397  23.378  1.00  0.00     0.016 A 
ATOM     15  Br  UNL A   1      32.670  21.023  23.984  1.00  0.00    -0.051 Br
ATOM     16  C   UNL A   1      31.097  24.737  23.016  1.00  0.00     0.011 A 
ENDBRANCH   8   9
BRANCH   8  17
ATOM     17  N   UNL A   1      30.920  27.701  23.104  1.00  0.00    -0.328 N 
ATOM     18  H   UNL A   1      31.107  27.788  24.102  1.00  0.00     0.347 HD
ATOM     19  H   UNL A   1      30.110  27.112  22.904  1.00  0.00     0.347 HD
BRANCH  17  20
ATOM     20  C   UNL A   1      30.613  29.038  22.573  1.00  0.00     0.323 C 
BRANCH  20  21
ATOM     21  C   UNL A   1      29.624  29.959  23.340  1.00  0.00     0.323 C 
BRANCH  21  22
ATOM     22  N   UNL A   1      28.305  30.237  22.730  1.00  0.00    -0.335 N 
ATOM     23  C   UNL A   1      27.426  29.082  22.947  1.00  0.00     0.332 C 
ATOM     24  C   UNL A   1      27.647  31.437  23.239  1.00  0.00     0.332 C 
ATOM     25  H   UNL A   1      28.481  30.404  21.739  1.00  0.00     0.347 HD
ENDBRANCH  21  22
ENDBRANCH  20  21
ENDBRANCH  17  20
ENDBRANCH   8  17
ENDBRANCH   5   8
ENDBRANCH   3   4
ENDBRANCH   2   3
ENDBRANCH   1   2
BRANCH   1  26
ATOM     26  C   UNL A   1      32.305  29.909  27.020  1.00  0.00     0.002 C 
BRANCH  26  27
ATOM     27  C   UNL A   1      32.037  31.415  26.940  1.00  0.00     0.021 C 
BRANCH  27  28
ATOM     28  C   UNL A   1      33.272  32.281  27.160  1.00  0.00     0.116 C 
BRANCH  28  29
ATOM     29  N   UNL A   1      32.909  33.619  27.601  1.00  0.00    -0.352 N 
ATOM     30  C   UNL A   1      33.306  34.298  28.726  1.00  0.00     0.251 C 
ATOM     31  H   UNL A   1      32.291  34.106  27.009  1.00  0.00     0.163 HD
ATOM     32  O   UNL A   1      32.686  35.288  29.096  1.00  0.00    -0.269 OA
BRANCH  30  33
ATOM     33  C   UNL A   1      34.476  33.815  29.486  1.00  0.00     0.039 A 
ATOM     34  C   UNL A   1      34.285  32.926  30.545  1.00  0.00     0.014 A 
ATOM     35  C   UNL A   1      35.764  34.245  29.148  1.00  0.00     0.014 A 
ATOM     36  C   UNL A   1      35.393  32.417  31.226  1.00  0.00     0.010 A 
ATOM     37  C   UNL A   1      36.868  33.684  29.780  1.00  0.00     0.010 A 
ATOM     38  C   UNL A   1      36.694  32.765  30.825  1.00  0.00    -0.014 A 
BRANCH  38  39
ATOM     39  C   UNL A   1      37.889  32.172  31.480  1.00  0.00     0.031 A 
ATOM     40  C   UNL A   1      38.647  31.065  30.802  1.00  0.00     0.074 A 
ATOM     41  C   UNL A   1      38.241  32.582  32.714  1.00  0.00     0.049 A 
ATOM     42  N   UNL A   1      39.650  30.355  31.248  1.00  0.00    -0.248 NA
ATOM     43  C   UNL A   1      38.196  30.689  29.452  1.00  0.00     0.031 C 
ATOM     44  C   UNL A   1      37.559  33.625  33.484  1.00  0.00     0.029 A 
ATOM     45  N   UNL A   1      39.250  32.166  33.546  1.00  0.00    -0.354 N 
ATOM     46  C   UNL A   1      39.946  29.441  30.242  1.00  0.00     0.074 A 
ATOM     47  C   UNL A   1      38.974  29.649  29.189  1.00  0.00     0.031 C 
ATOM     48  C   UNL A   1      38.182  33.782  34.662  1.00  0.00     0.029 A 
ATOM     49  C   UNL A   1      39.272  32.816  34.758  1.00  0.00     0.049 A 
ATOM     50  H   UNL A   1      39.899  31.468  33.297  1.00  0.00     0.167 HD
ATOM     51  C   UNL A   1      40.947  28.529  30.193  1.00  0.00     0.034 A 
ATOM     52  C   UNL A   1      40.066  32.639  35.834  1.00  0.00     0.034 A 
ATOM     53  C   UNL A   1      41.910  28.341  31.253  1.00  0.00     0.049 A 
ATOM     54  C   UNL A   1      41.143  31.587  35.775  1.00  0.00     0.074 A 
ATOM     55  C   UNL A   1      42.997  27.485  31.287  1.00  0.00     0.029 A 
ATOM     56  N   UNL A   1      41.893  29.008  32.471  1.00  0.00    -0.354 N 
ATOM     57  N   UNL A   1      41.442  30.764  34.795  1.00  0.00    -0.248 NA
ATOM     58  C   UNL A   1      41.994  31.442  36.963  1.00  0.00     0.031 C 
ATOM     59  C   UNL A   1      43.590  27.579  32.550  1.00  0.00     0.029 A 
ATOM     60  C   UNL A   1      42.927  28.556  33.278  1.00  0.00     0.049 A 
ATOM     61  H   UNL A   1      41.243  29.702  32.726  1.00  0.00     0.167 HD
ATOM     62  C   UNL A   1      42.536  30.027  35.240  1.00  0.00     0.074 A 
ATOM     63  C   UNL A   1      42.851  30.512  36.567  1.00  0.00     0.031 C 
ATOM     64  C   UNL A   1      43.222  29.040  34.606  1.00  0.00     0.034 A 
BRANCH  51  65
ATOM     65  C   UNL A   1      41.031  27.649  28.969  1.00  0.00     0.023 A 
ATOM     66  C   UNL A   1      42.010  27.850  27.979  1.00  0.00     0.031 A 
ATOM     67  C   UNL A   1      40.108  26.606  28.776  1.00  0.00     0.131 A 
ATOM     68  C   UNL A   1      41.996  27.074  26.810  1.00  0.00     0.055 A 
ATOM     69  C   UNL A   1      40.152  25.781  27.649  1.00  0.00     0.041 A 
ATOM     70  F   UNL A   1      39.137  26.376  29.674  1.00  0.00    -0.206 F 
ATOM     71  C   UNL A   1      41.090  26.023  26.650  1.00  0.00     0.022 A 
BRANCH  68  72
ATOM     72  S   UNL A   1      43.081  27.555  25.439  1.00  0.00     0.124 S 
ATOM     73  O   UNL A   1      43.455  26.254  24.887  1.00  0.00    -0.237 OA
ATOM     74  O   UNL A   1      42.201  28.372  24.611  1.00  0.00    -0.237 OA
ATOM     75  O   UNL A   1      44.167  28.278  26.099  1.00  0.00    -0.744 OA
ENDBRANCH  68  72
ENDBRANCH  51  65
BRANCH  52  76
ATOM     76  C   UNL A   1      39.863  33.457  37.065  1.00  0.00     0.023 A 
ATOM     77  C   UNL A   1      39.162  32.942  38.167  1.00  0.00     0.031 A 
ATOM     78  C   UNL A   1      40.330  34.781  37.142  1.00  0.00     0.131 A 
ATOM     79  C   UNL A   1      38.906  33.761  39.277  1.00  0.00     0.055 A 
ATOM     80  C   UNL A   1      40.124  35.573  38.274  1.00  0.00     0.041 A 
ATOM     81  F   UNL A   1      41.010  35.322  36.119  1.00  0.00    -0.206 F 
ATOM     82  C   UNL A   1      39.395  35.068  39.345  1.00  0.00     0.022 A 
BRANCH  79  83
ATOM     83  S   UNL A   1      37.841  33.121  40.600  1.00  0.00     0.124 S 
ATOM     84  O   UNL A   1      38.477  31.844  40.900  1.00  0.00    -0.237 OA
ATOM     85  O   UNL A   1      37.967  34.157  41.618  1.00  0.00    -0.237 OA
ATOM     86  O   UNL A   1      36.528  33.031  39.964  1.00  0.00    -0.744 OA
ENDBRANCH  79  83
ENDBRANCH  52  76
BRANCH  64  87
ATOM     87  C   UNL A   1      44.408  28.454  35.331  1.00  0.00     0.023 A 
ATOM     88  C   UNL A   1      44.278  27.361  36.205  1.00  0.00     0.031 A 
ATOM     89  C   UNL A   1      45.691  29.000  35.142  1.00  0.00     0.131 A 
ATOM     90  C   UNL A   1      45.401  26.881  36.896  1.00  0.00     0.055 A 
ATOM     91  C   UNL A   1      46.814  28.478  35.784  1.00  0.00     0.041 A 
ATOM     92  F   UNL A   1      45.874  30.047  34.322  1.00  0.00    -0.206 F 
ATOM     93  C   UNL A   1      46.671  27.420  36.676  1.00  0.00     0.022 A 
BRANCH  90  94
ATOM     94  S   UNL A   1      45.167  25.596  38.154  1.00  0.00     0.124 S 
ATOM     95  O   UNL A   1      46.465  24.929  38.152  1.00  0.00    -0.237 OA
ATOM     96  O   UNL A   1      44.853  26.377  39.346  1.00  0.00    -0.237 OA
ATOM     97  O   UNL A   1      44.060  24.798  37.629  1.00  0.00    -0.744 OA
ENDBRANCH  90  94
ENDBRANCH  64  87
ENDBRANCH  38  39
ENDBRANCH  30  33
ENDBRANCH  28  29
ENDBRANCH  27  28
ENDBRANCH  26  27
ENDBRANCH   1  26
TORSDOF 21
ENDMDL
