MODEL 1
REMARK VINA RESULT:     -12.0      0.000      0.000
REMARK SMILES C[C@@H](NC(=O)[C@H]1CC=CC[C@@H]1C(=O)NCCCCCCNC(=O)c1ccc(-c2c3nc(c(-c4cc(S(=O)(=O)[O-])ccc4F)c4ccc([nH]4)c(-c4cc(S(=O)(=O)[O-])ccc4F)c4nc(c(-c5cc(S(=O)(=O)[O-])ccc5F)c5ccc2[nH]5)C=C4)C=C3)cc1)c1ccc(-n2ccnc2)cc1
REMARK SMILES IDX 17 1 16 2 15 3 14 4 12 5 13 6 11 8 6 9 7 10 8 11 10 12 9 13
REMARK SMILES IDX 4 14 3 15 5 17 2 18 1 19 87 20 88 21 97 22 89 23 96 24 90 25
REMARK SMILES IDX 91 26 92 27 95 28 93 29 94 30 18 31 19 32 20 33 21 34 22 35
REMARK SMILES IDX 23 37 24 38 25 39 86 40 26 41 85 42 27 43 28 44 29 45 79 46
REMARK SMILES IDX 30 47 84 48 78 49 80 50 31 51 83 52 77 53 76 54 32 56 64 57
REMARK SMILES IDX 44 58 63 59 45 60 48 61 62 62 81 63 46 64 47 65 61 67 82 68
REMARK SMILES IDX 49 69 33 70 34 71 42 72 35 73 41 74 43 75 40 76 36 77 37 78
REMARK SMILES IDX 38 79 39 80 65 81 66 82 74 83 67 84 73 85 75 86 72 87 68 88
REMARK SMILES IDX 69 89 70 90 71 91 50 92 51 93 59 94 52 95 58 96 60 97 57 98
REMARK SMILES IDX 53 99 54 100 55 101 56 102
REMARK H PARENT 14 7 3 16 21 36 80 55 48 66
REMARK Flexibility Score: inf
ROOT
ATOM      1  C   UNL A   1      31.944  27.047  26.315  1.00  0.00     0.002 C 
ENDROOT
BRANCH   1   2
ATOM      2  C   UNL A   1      30.637  26.295  26.601  1.00  0.00     0.021 C 
BRANCH   2   3
ATOM      3  C   UNL A   1      30.504  24.877  26.029  1.00  0.00     0.116 C 
BRANCH   3   4
ATOM      4  N   UNL A   1      30.958  23.820  26.921  1.00  0.00    -0.356 N 
ATOM      5  C   UNL A   1      32.193  23.299  27.170  1.00  0.00     0.224 C 
ATOM      6  O   UNL A   1      32.283  22.515  28.117  1.00  0.00    -0.275 OA
ATOM      7  H   UNL A   1      30.235  23.402  27.442  1.00  0.00     0.163 HD
BRANCH   5   8
ATOM      8  C   UNL A   1      33.398  23.668  26.306  1.00  0.00     0.095 C 
ATOM      9  C   UNL A   1      33.022  23.727  24.816  1.00  0.00     0.095 C 
ATOM     10  C   UNL A   1      32.810  22.328  24.193  1.00  0.00     0.041 C 
ATOM     11  C   UNL A   1      33.776  21.293  24.673  1.00  0.00    -0.030 C 
ATOM     12  C   UNL A   1      34.585  22.729  26.559  1.00  0.00     0.041 C 
ATOM     13  C   UNL A   1      34.585  21.481  25.725  1.00  0.00    -0.030 C 
BRANCH   9  14
ATOM     14  C   UNL A   1      33.972  24.579  23.947  1.00  0.00     0.224 C 
ATOM     15  N   UNL A   1      33.612  25.184  22.780  1.00  0.00    -0.349 N 
ATOM     16  H   UNL A   1      34.394  25.491  22.266  1.00  0.00     0.164 HD
ATOM     17  O   UNL A   1      35.174  24.681  24.226  1.00  0.00    -0.275 OA
BRANCH  15  18
ATOM     18  C   UNL A   1      32.344  25.496  22.093  1.00  0.00     0.109 C 
ATOM     19  C   UNL A   1      32.601  25.438  20.572  1.00  0.00     0.036 C 
BRANCH  18  20
ATOM     20  C   UNL A   1      31.610  26.698  22.670  1.00  0.00    -0.026 A 
ATOM     21  C   UNL A   1      32.279  27.912  22.877  1.00  0.00     0.008 A 
ATOM     22  C   UNL A   1      30.257  26.662  23.022  1.00  0.00     0.008 A 
ATOM     23  C   UNL A   1      31.562  29.109  22.950  1.00  0.00     0.027 A 
ATOM     24  C   UNL A   1      29.543  27.847  23.250  1.00  0.00     0.027 A 
ATOM     25  C   UNL A   1      30.176  29.070  23.035  1.00  0.00     0.046 A 
BRANCH  25  26
ATOM     26  N   UNL A   1      29.402  30.211  22.719  1.00  0.00    -0.306 N 
ATOM     27  C   UNL A   1      28.609  30.951  23.564  1.00  0.00     0.113 A 
ATOM     28  C   UNL A   1      29.136  30.678  21.448  1.00  0.00     0.204 A 
ATOM     29  C   UNL A   1      27.907  31.819  22.759  1.00  0.00     0.131 A 
ATOM     30  N   UNL A   1      28.239  31.641  21.446  1.00  0.00    -0.245 NA
ENDBRANCH  25  26
ENDBRANCH  18  20
ENDBRANCH  15  18
ENDBRANCH   9  14
ENDBRANCH   5   8
ENDBRANCH   3   4
ENDBRANCH   2   3
ENDBRANCH   1   2
BRANCH   1  31
ATOM     31  C   UNL A   1      32.242  28.204  27.271  1.00  0.00     0.002 C 
BRANCH  31  32
ATOM     32  C   UNL A   1      31.685  29.560  26.832  1.00  0.00     0.021 C 
BRANCH  32  33
ATOM     33  C   UNL A   1      32.715  30.492  26.201  1.00  0.00     0.116 C 
BRANCH  33  34
ATOM     34  N   UNL A   1      32.392  31.888  26.451  1.00  0.00    -0.352 N 
ATOM     35  C   UNL A   1      32.972  32.725  27.380  1.00  0.00     0.251 C 
ATOM     36  H   UNL A   1      31.679  32.278  25.896  1.00  0.00     0.163 HD
ATOM     37  O   UNL A   1      32.437  33.774  27.701  1.00  0.00    -0.269 OA
BRANCH  35  38
ATOM     38  C   UNL A   1      34.257  32.307  27.982  1.00  0.00     0.039 A 
ATOM     39  C   UNL A   1      35.346  33.180  27.973  1.00  0.00     0.014 A 
ATOM     40  C   UNL A   1      34.343  31.062  28.612  1.00  0.00     0.014 A 
ATOM     41  C   UNL A   1      36.518  32.819  28.644  1.00  0.00     0.010 A 
ATOM     42  C   UNL A   1      35.480  30.741  29.341  1.00  0.00     0.010 A 
ATOM     43  C   UNL A   1      36.586  31.609  29.354  1.00  0.00    -0.014 A 
BRANCH  43  44
ATOM     44  C   UNL A   1      37.816  31.186  30.076  1.00  0.00     0.031 A 
ATOM     45  C   UNL A   1      38.725  30.172  29.435  1.00  0.00     0.074 A 
ATOM     46  C   UNL A   1      38.068  31.633  31.320  1.00  0.00     0.049 A 
ATOM     47  N   UNL A   1      39.755  29.543  29.939  1.00  0.00    -0.248 NA
ATOM     48  C   UNL A   1      38.399  29.788  28.054  1.00  0.00     0.031 C 
ATOM     49  C   UNL A   1      37.251  32.600  32.055  1.00  0.00     0.029 A 
ATOM     50  N   UNL A   1      39.077  31.318  32.197  1.00  0.00    -0.354 N 
ATOM     51  C   UNL A   1      40.183  28.668  28.944  1.00  0.00     0.074 A 
ATOM     52  C   UNL A   1      39.253  28.801  27.842  1.00  0.00     0.031 C 
ATOM     53  C   UNL A   1      37.798  32.806  33.263  1.00  0.00     0.029 A 
ATOM     54  C   UNL A   1      38.971  31.950  33.413  1.00  0.00     0.049 A 
ATOM     55  H   UNL A   1      39.809  30.697  31.974  1.00  0.00     0.167 HD
ATOM     56  C   UNL A   1      41.264  27.850  28.941  1.00  0.00     0.034 A 
ATOM     57  C   UNL A   1      39.717  31.833  34.531  1.00  0.00     0.034 A 
ATOM     58  C   UNL A   1      42.182  27.743  30.049  1.00  0.00     0.049 A 
ATOM     59  C   UNL A   1      40.895  30.889  34.528  1.00  0.00     0.074 A 
ATOM     60  C   UNL A   1      43.335  26.984  30.143  1.00  0.00     0.029 A 
ATOM     61  N   UNL A   1      42.045  28.406  31.263  1.00  0.00    -0.354 N 
ATOM     62  N   UNL A   1      41.308  30.088  33.572  1.00  0.00    -0.248 NA
ATOM     63  C   UNL A   1      41.710  30.838  35.748  1.00  0.00     0.031 C 
ATOM     64  C   UNL A   1      43.847  27.123  31.436  1.00  0.00     0.029 A 
ATOM     65  C   UNL A   1      43.073  28.047  32.121  1.00  0.00     0.049 A 
ATOM     66  H   UNL A   1      41.323  29.039  31.481  1.00  0.00     0.167 HD
ATOM     67  C   UNL A   1      42.457  29.471  34.062  1.00  0.00     0.074 A 
ATOM     68  C   UNL A   1      42.666  29.989  35.399  1.00  0.00     0.031 C 
ATOM     69  C   UNL A   1      43.271  28.570  33.454  1.00  0.00     0.034 A 
BRANCH  56  70
ATOM     70  C   UNL A   1      41.475  26.987  27.717  1.00  0.00     0.023 A 
ATOM     71  C   UNL A   1      41.099  25.632  27.694  1.00  0.00     0.031 A 
ATOM     72  C   UNL A   1      42.120  27.506  26.580  1.00  0.00     0.131 A 
ATOM     73  C   UNL A   1      41.469  24.820  26.612  1.00  0.00     0.055 A 
ATOM     74  C   UNL A   1      42.389  26.716  25.460  1.00  0.00     0.041 A 
ATOM     75  F   UNL A   1      42.524  28.785  26.546  1.00  0.00    -0.206 F 
ATOM     76  C   UNL A   1      42.085  25.358  25.480  1.00  0.00     0.022 A 
BRANCH  73  77
ATOM     77  S   UNL A   1      41.314  23.021  26.794  1.00  0.00     0.124 S 
ATOM     78  O   UNL A   1      42.083  22.782  28.013  1.00  0.00    -0.237 OA
ATOM     79  O   UNL A   1      39.871  22.839  26.902  1.00  0.00    -0.237 OA
ATOM     80  O   UNL A   1      41.921  22.500  25.571  1.00  0.00    -0.744 OA
ENDBRANCH  73  77
ENDBRANCH  56  70
BRANCH  57  81
ATOM     81  C   UNL A   1      39.366  32.618  35.750  1.00  0.00     0.023 A 
ATOM     82  C   UNL A   1      39.793  33.946  35.907  1.00  0.00     0.031 A 
ATOM     83  C   UNL A   1      38.606  32.043  36.784  1.00  0.00     0.131 A 
ATOM     84  C   UNL A   1      39.485  34.645  37.086  1.00  0.00     0.055 A 
ATOM     85  C   UNL A   1      38.257  32.759  37.931  1.00  0.00     0.041 A 
ATOM     86  F   UNL A   1      38.168  30.778  36.684  1.00  0.00    -0.206 F 
ATOM     87  C   UNL A   1      38.706  34.066  38.091  1.00  0.00     0.022 A 
BRANCH  84  88
ATOM     88  S   UNL A   1      40.176  36.306  37.319  1.00  0.00     0.124 S 
ATOM     89  O   UNL A   1      41.539  36.003  37.738  1.00  0.00    -0.237 OA
ATOM     90  O   UNL A   1      40.026  36.885  35.989  1.00  0.00    -0.237 OA
ATOM     91  O   UNL A   1      39.319  36.887  38.350  1.00  0.00    -0.744 OA
ENDBRANCH  84  88
ENDBRANCH  57  81
BRANCH  69  92
ATOM     92  C   UNL A   1      44.511  28.137  34.200  1.00  0.00     0.023 A 
ATOM     93  C   UNL A   1      44.528  27.010  35.039  1.00  0.00     0.031 A 
ATOM     94  C   UNL A   1      45.709  28.858  34.037  1.00  0.00     0.131 A 
ATOM     95  C   UNL A   1      45.709  26.661  35.714  1.00  0.00     0.055 A 
ATOM     96  C   UNL A   1      46.894  28.469  34.661  1.00  0.00     0.041 A 
ATOM     97  F   UNL A   1      45.749  29.946  33.250  1.00  0.00    -0.206 F 
ATOM     98  C   UNL A   1      46.896  27.370  35.513  1.00  0.00     0.022 A 
BRANCH  95  99
ATOM     99  S   UNL A   1      45.658  25.310  36.924  1.00  0.00     0.124 S 
ATOM    100  O   UNL A   1      47.075  25.112  37.216  1.00  0.00    -0.237 OA
ATOM    101  O   UNL A   1      44.859  25.884  38.001  1.00  0.00    -0.237 OA
ATOM    102  O   UNL A   1      45.018  24.218  36.192  1.00  0.00    -0.744 OA
ENDBRANCH  95  99
ENDBRANCH  69  92
ENDBRANCH  43  44
ENDBRANCH  35  38
ENDBRANCH  33  34
ENDBRANCH  32  33
ENDBRANCH  31  32
ENDBRANCH   1  31
TORSDOF 20
ENDMDL
MODEL 2
REMARK VINA RESULT:     -11.8      1.806      2.098
REMARK SMILES C[C@@H](NC(=O)[C@H]1CC=CC[C@@H]1C(=O)NCCCCCCNC(=O)c1ccc(-c2c3nc(c(-c4cc(S(=O)(=O)[O-])ccc4F)c4ccc([nH]4)c(-c4cc(S(=O)(=O)[O-])ccc4F)c4nc(c(-c5cc(S(=O)(=O)[O-])ccc5F)c5ccc2[nH]5)C=C4)C=C3)cc1)c1ccc(-n2ccnc2)cc1
REMARK SMILES IDX 17 1 16 2 15 3 14 4 12 5 13 6 11 8 6 9 7 10 8 11 10 12 9 13
REMARK SMILES IDX 4 14 3 15 5 17 2 18 1 19 87 20 88 21 97 22 89 23 96 24 90 25
REMARK SMILES IDX 91 26 92 27 95 28 93 29 94 30 18 31 19 32 20 33 21 34 22 35
REMARK SMILES IDX 23 37 24 38 25 39 86 40 26 41 85 42 27 43 28 44 29 45 79 46
REMARK SMILES IDX 30 47 84 48 78 49 80 50 31 51 83 52 77 53 76 54 32 56 64 57
REMARK SMILES IDX 44 58 63 59 45 60 48 61 62 62 81 63 46 64 47 65 61 67 82 68
REMARK SMILES IDX 49 69 33 70 34 71 42 72 35 73 41 74 43 75 40 76 36 77 37 78
REMARK SMILES IDX 38 79 39 80 65 81 66 82 74 83 67 84 73 85 75 86 72 87 68 88
REMARK SMILES IDX 69 89 70 90 71 91 50 92 51 93 59 94 52 95 58 96 60 97 57 98
REMARK SMILES IDX 53 99 54 100 55 101 56 102
REMARK H PARENT 14 7 3 16 21 36 80 55 48 66
REMARK Flexibility Score: inf
ROOT
ATOM      1  C   UNL A   1      31.936  27.103  26.257  1.00  0.00     0.002 C 
ENDROOT
BRANCH   1   2
ATOM      2  C   UNL A   1      30.602  26.397  26.538  1.00  0.00     0.021 C 
BRANCH   2   3
ATOM      3  C   UNL A   1      30.416  24.991  25.952  1.00  0.00     0.116 C 
BRANCH   3   4
ATOM      4  N   UNL A   1      30.869  23.910  26.815  1.00  0.00    -0.356 N 
ATOM      5  C   UNL A   1      32.105  23.388  27.057  1.00  0.00     0.224 C 
ATOM      6  O   UNL A   1      32.193  22.577  27.981  1.00  0.00    -0.275 OA
ATOM      7  H   UNL A   1      30.145  23.474  27.319  1.00  0.00     0.163 HD
BRANCH   5   8
ATOM      8  C   UNL A   1      33.314  23.787  26.212  1.00  0.00     0.095 C 
ATOM      9  C   UNL A   1      32.960  23.835  24.716  1.00  0.00     0.095 C 
ATOM     10  C   UNL A   1      32.794  22.431  24.092  1.00  0.00     0.041 C 
ATOM     11  C   UNL A   1      33.780  21.422  24.588  1.00  0.00    -0.030 C 
ATOM     12  C   UNL A   1      34.520  22.880  26.485  1.00  0.00     0.041 C 
ATOM     13  C   UNL A   1      34.567  21.632  25.652  1.00  0.00    -0.030 C 
BRANCH   9  14
ATOM     14  C   UNL A   1      33.901  24.711  23.861  1.00  0.00     0.224 C 
ATOM     15  N   UNL A   1      33.538  25.323  22.699  1.00  0.00    -0.349 N 
ATOM     16  H   UNL A   1      34.318  25.648  22.193  1.00  0.00     0.164 HD
ATOM     17  O   UNL A   1      35.100  24.828  24.148  1.00  0.00    -0.275 OA
BRANCH  15  18
ATOM     18  C   UNL A   1      32.268  25.624  22.009  1.00  0.00     0.109 C 
ATOM     19  C   UNL A   1      32.531  25.576  20.489  1.00  0.00     0.036 C 
BRANCH  18  20
ATOM     20  C   UNL A   1      31.518  26.814  22.589  1.00  0.00    -0.026 A 
ATOM     21  C   UNL A   1      32.156  28.052  22.749  1.00  0.00     0.008 A 
ATOM     22  C   UNL A   1      30.181  26.745  22.990  1.00  0.00     0.008 A 
ATOM     23  C   UNL A   1      31.407  29.228  22.825  1.00  0.00     0.027 A 
ATOM     24  C   UNL A   1      29.439  27.913  23.221  1.00  0.00     0.027 A 
ATOM     25  C   UNL A   1      30.026  29.149  22.961  1.00  0.00     0.046 A 
BRANCH  25  26
ATOM     26  N   UNL A   1      29.206  30.260  22.651  1.00  0.00    -0.306 N 
ATOM     27  C   UNL A   1      28.869  30.735  21.405  1.00  0.00     0.113 A 
ATOM     28  C   UNL A   1      28.754  31.204  23.549  1.00  0.00     0.204 A 
ATOM     29  C   UNL A   1      28.238  31.939  21.619  1.00  0.00     0.131 A 
ATOM     30  N   UNL A   1      28.172  32.223  22.954  1.00  0.00    -0.245 NA
ENDBRANCH  25  26
ENDBRANCH  18  20
ENDBRANCH  15  18
ENDBRANCH   9  14
ENDBRANCH   5   8
ENDBRANCH   3   4
ENDBRANCH   2   3
ENDBRANCH   1   2
BRANCH   1  31
ATOM     31  C   UNL A   1      32.263  28.258  27.205  1.00  0.00     0.002 C 
BRANCH  31  32
ATOM     32  C   UNL A   1      31.735  29.624  26.761  1.00  0.00     0.021 C 
BRANCH  32  33
ATOM     33  C   UNL A   1      32.800  30.561  26.199  1.00  0.00     0.116 C 
BRANCH  33  34
ATOM     34  N   UNL A   1      32.486  31.952  26.484  1.00  0.00    -0.352 N 
ATOM     35  C   UNL A   1      33.067  32.761  27.438  1.00  0.00     0.251 C 
ATOM     36  H   UNL A   1      31.781  32.363  25.934  1.00  0.00     0.163 HD
ATOM     37  O   UNL A   1      32.537  33.805  27.783  1.00  0.00    -0.269 OA
BRANCH  35  38
ATOM     38  C   UNL A   1      34.343  32.316  28.038  1.00  0.00     0.039 A 
ATOM     39  C   UNL A   1      35.458  33.155  28.001  1.00  0.00     0.014 A 
ATOM     40  C   UNL A   1      34.397  31.084  28.695  1.00  0.00     0.014 A 
ATOM     41  C   UNL A   1      36.625  32.773  28.670  1.00  0.00     0.010 A 
ATOM     42  C   UNL A   1      35.531  30.744  29.421  1.00  0.00     0.010 A 
ATOM     43  C   UNL A   1      36.663  31.577  29.406  1.00  0.00    -0.014 A 
BRANCH  43  44
ATOM     44  C   UNL A   1      37.885  31.132  30.126  1.00  0.00     0.031 A 
ATOM     45  C   UNL A   1      38.804  30.143  29.461  1.00  0.00     0.074 A 
ATOM     46  C   UNL A   1      38.123  31.537  31.387  1.00  0.00     0.049 A 
ATOM     47  N   UNL A   1      39.830  29.499  29.954  1.00  0.00    -0.248 NA
ATOM     48  C   UNL A   1      38.494  29.806  28.064  1.00  0.00     0.031 C 
ATOM     49  C   UNL A   1      37.295  32.476  32.146  1.00  0.00     0.029 A 
ATOM     50  N   UNL A   1      39.123  31.194  32.264  1.00  0.00    -0.354 N 
ATOM     51  C   UNL A   1      40.271  28.660  28.935  1.00  0.00     0.074 A 
ATOM     52  C   UNL A   1      39.354  28.828  27.828  1.00  0.00     0.031 C 
ATOM     53  C   UNL A   1      37.828  32.642  33.367  1.00  0.00     0.029 A 
ATOM     54  C   UNL A   1      39.002  31.783  33.500  1.00  0.00     0.049 A 
ATOM     55  H   UNL A   1      39.859  30.582  32.029  1.00  0.00     0.167 HD
ATOM     56  C   UNL A   1      41.355  27.845  28.916  1.00  0.00     0.034 A 
ATOM     57  C   UNL A   1      39.736  31.630  34.622  1.00  0.00     0.034 A 
ATOM     58  C   UNL A   1      42.260  27.701  30.029  1.00  0.00     0.049 A 
ATOM     59  C   UNL A   1      40.916  30.689  34.599  1.00  0.00     0.074 A 
ATOM     60  C   UNL A   1      43.415  26.942  30.110  1.00  0.00     0.029 A 
ATOM     61  N   UNL A   1      42.108  28.323  31.263  1.00  0.00    -0.354 N 
ATOM     62  N   UNL A   1      41.342  29.923  33.621  1.00  0.00    -0.248 NA
ATOM     63  C   UNL A   1      41.717  30.598  35.826  1.00  0.00     0.031 C 
ATOM     64  C   UNL A   1      43.912  27.038  31.412  1.00  0.00     0.029 A 
ATOM     65  C   UNL A   1      43.128  27.936  32.120  1.00  0.00     0.049 A 
ATOM     66  H   UNL A   1      41.382  28.945  31.496  1.00  0.00     0.167 HD
ATOM     67  C   UNL A   1      42.487  29.292  34.102  1.00  0.00     0.074 A 
ATOM     68  C   UNL A   1      42.680  29.764  35.458  1.00  0.00     0.031 C 
ATOM     69  C   UNL A   1      43.309  28.414  33.472  1.00  0.00     0.034 A 
BRANCH  56  70
ATOM     70  C   UNL A   1      41.582  27.025  27.665  1.00  0.00     0.023 A 
ATOM     71  C   UNL A   1      41.250  25.659  27.606  1.00  0.00     0.031 A 
ATOM     72  C   UNL A   1      42.196  27.598  26.537  1.00  0.00     0.131 A 
ATOM     73  C   UNL A   1      41.635  24.891  26.497  1.00  0.00     0.055 A 
ATOM     74  C   UNL A   1      42.480  26.849  25.393  1.00  0.00     0.041 A 
ATOM     75  F   UNL A   1      42.557  28.890  26.536  1.00  0.00    -0.206 F 
ATOM     76  C   UNL A   1      42.221  25.482  25.376  1.00  0.00     0.022 A 
BRANCH  73  77
ATOM     77  S   UNL A   1      41.543  23.084  26.629  1.00  0.00     0.124 S 
ATOM     78  O   UNL A   1      40.099  22.861  26.600  1.00  0.00    -0.237 OA
ATOM     79  O   UNL A   1      42.281  22.644  25.451  1.00  0.00    -0.237 OA
ATOM     80  O   UNL A   1      42.183  22.801  27.911  1.00  0.00    -0.744 OA
ENDBRANCH  73  77
ENDBRANCH  56  70
BRANCH  57  81
ATOM     81  C   UNL A   1      39.369  32.372  35.862  1.00  0.00     0.023 A 
ATOM     82  C   UNL A   1      38.518  31.806  36.824  1.00  0.00     0.031 A 
ATOM     83  C   UNL A   1      39.859  33.670  36.097  1.00  0.00     0.131 A 
ATOM     84  C   UNL A   1      38.155  32.548  37.961  1.00  0.00     0.055 A 
ATOM     85  C   UNL A   1      39.538  34.383  37.254  1.00  0.00     0.041 A 
ATOM     86  F   UNL A   1      40.680  34.257  35.212  1.00  0.00    -0.206 F 
ATOM     87  C   UNL A   1      38.673  33.825  38.190  1.00  0.00     0.022 A 
BRANCH  84  88
ATOM     88  S   UNL A   1      36.940  31.844  39.108  1.00  0.00     0.124 S 
ATOM     89  O   UNL A   1      36.859  30.464  38.643  1.00  0.00    -0.237 OA
ATOM     90  O   UNL A   1      37.587  32.049  40.399  1.00  0.00    -0.237 OA
ATOM     91  O   UNL A   1      35.746  32.653  38.876  1.00  0.00    -0.744 OA
ENDBRANCH  84  88
ENDBRANCH  57  81
BRANCH  69  92
ATOM     92  C   UNL A   1      44.543  27.958  34.216  1.00  0.00     0.023 A 
ATOM     93  C   UNL A   1      45.745  28.685  34.196  1.00  0.00     0.031 A 
ATOM     94  C   UNL A   1      44.495  26.780  34.986  1.00  0.00     0.131 A 
ATOM     95  C   UNL A   1      46.862  28.205  34.900  1.00  0.00     0.055 A 
ATOM     96  C   UNL A   1      45.589  26.343  35.734  1.00  0.00     0.041 A 
ATOM     97  F   UNL A   1      43.374  26.043  35.038  1.00  0.00    -0.206 F 
ATOM     98  C   UNL A   1      46.784  27.052  35.685  1.00  0.00     0.022 A 
BRANCH  95  99
ATOM     99  S   UNL A   1      48.447  29.068  34.716  1.00  0.00     0.124 S 
ATOM    100  O   UNL A   1      48.162  29.997  33.626  1.00  0.00    -0.237 OA
ATOM    101  O   UNL A   1      48.631  29.669  36.033  1.00  0.00    -0.237 OA
ATOM    102  O   UNL A   1      49.385  27.996  34.388  1.00  0.00    -0.744 OA
ENDBRANCH  95  99
ENDBRANCH  69  92
ENDBRANCH  43  44
ENDBRANCH  35  38
ENDBRANCH  33  34
ENDBRANCH  32  33
ENDBRANCH  31  32
ENDBRANCH   1  31
TORSDOF 20
ENDMDL
MODEL 3
REMARK VINA RESULT:     -11.7      5.323     10.637
REMARK SMILES C[C@@H](NC(=O)[C@H]1CC=CC[C@@H]1C(=O)NCCCCCCNC(=O)c1ccc(-c2c3nc(c(-c4cc(S(=O)(=O)[O-])ccc4F)c4ccc([nH]4)c(-c4cc(S(=O)(=O)[O-])ccc4F)c4nc(c(-c5cc(S(=O)(=O)[O-])ccc5F)c5ccc2[nH]5)C=C4)C=C3)cc1)c1ccc(-n2ccnc2)cc1
REMARK SMILES IDX 17 1 16 2 15 3 14 4 12 5 13 6 11 8 6 9 7 10 8 11 10 12 9 13
REMARK SMILES IDX 4 14 3 15 5 17 2 18 1 19 87 20 88 21 97 22 89 23 96 24 90 25
REMARK SMILES IDX 91 26 92 27 95 28 93 29 94 30 18 31 19 32 20 33 21 34 22 35
REMARK SMILES IDX 23 37 24 38 25 39 86 40 26 41 85 42 27 43 28 44 29 45 79 46
REMARK SMILES IDX 30 47 84 48 78 49 80 50 31 51 83 52 77 53 76 54 32 56 64 57
REMARK SMILES IDX 44 58 63 59 45 60 48 61 62 62 81 63 46 64 47 65 61 67 82 68
REMARK SMILES IDX 49 69 33 70 34 71 42 72 35 73 41 74 43 75 40 76 36 77 37 78
REMARK SMILES IDX 38 79 39 80 65 81 66 82 74 83 67 84 73 85 75 86 72 87 68 88
REMARK SMILES IDX 69 89 70 90 71 91 50 92 51 93 59 94 52 95 58 96 60 97 57 98
REMARK SMILES IDX 53 99 54 100 55 101 56 102
REMARK H PARENT 14 7 3 16 21 36 80 55 48 66
REMARK Flexibility Score: inf
ROOT
ATOM      1  C   UNL A   1      36.453  22.833  24.708  1.00  0.00     0.002 C 
ENDROOT
BRANCH   1   2
ATOM      2  C   UNL A   1      35.868  23.225  23.343  1.00  0.00     0.021 C 
BRANCH   2   3
ATOM      3  C   UNL A   1      34.389  23.632  23.304  1.00  0.00     0.116 C 
BRANCH   3   4
ATOM      4  N   UNL A   1      34.109  24.819  22.510  1.00  0.00    -0.356 N 
ATOM      5  C   UNL A   1      33.723  26.081  22.853  1.00  0.00     0.224 C 
ATOM      6  O   UNL A   1      33.730  26.926  21.956  1.00  0.00    -0.275 OA
ATOM      7  H   UNL A   1      34.219  24.684  21.541  1.00  0.00     0.163 HD
BRANCH   5   8
ATOM      8  C   UNL A   1      33.296  26.419  24.281  1.00  0.00     0.095 C 
ATOM      9  C   UNL A   1      31.931  25.796  24.619  1.00  0.00     0.095 C 
ATOM     10  C   UNL A   1      30.752  26.521  23.931  1.00  0.00     0.041 C 
ATOM     11  C   UNL A   1      30.896  28.009  23.880  1.00  0.00    -0.030 C 
ATOM     12  C   UNL A   1      33.312  27.931  24.534  1.00  0.00     0.041 C 
ATOM     13  C   UNL A   1      32.041  28.642  24.168  1.00  0.00    -0.030 C 
BRANCH   9  14
ATOM     14  C   UNL A   1      31.662  25.618  26.128  1.00  0.00     0.224 C 
ATOM     15  N   UNL A   1      30.915  24.610  26.663  1.00  0.00    -0.349 N 
ATOM     16  H   UNL A   1      30.678  24.785  27.603  1.00  0.00     0.164 HD
ATOM     17  O   UNL A   1      32.045  26.461  26.949  1.00  0.00    -0.275 OA
BRANCH  15  18
ATOM     18  C   UNL A   1      30.374  23.322  26.188  1.00  0.00     0.109 C 
ATOM     19  C   UNL A   1      29.510  22.724  27.319  1.00  0.00     0.036 C 
BRANCH  18  20
ATOM     20  C   UNL A   1      31.405  22.436  25.502  1.00  0.00    -0.026 A 
ATOM     21  C   UNL A   1      32.423  21.820  26.243  1.00  0.00     0.008 A 
ATOM     22  C   UNL A   1      31.399  22.194  24.126  1.00  0.00     0.008 A 
ATOM     23  C   UNL A   1      33.062  20.680  25.749  1.00  0.00     0.027 A 
ATOM     24  C   UNL A   1      32.152  21.145  23.579  1.00  0.00     0.027 A 
ATOM     25  C   UNL A   1      32.841  20.288  24.434  1.00  0.00     0.046 A 
BRANCH  25  26
ATOM     26  N   UNL A   1      33.134  18.969  24.016  1.00  0.00    -0.306 N 
ATOM     27  C   UNL A   1      34.217  18.197  24.365  1.00  0.00     0.113 A 
ATOM     28  C   UNL A   1      32.487  18.279  23.012  1.00  0.00     0.204 A 
ATOM     29  C   UNL A   1      34.167  17.088  23.551  1.00  0.00     0.131 A 
ATOM     30  N   UNL A   1      33.090  17.148  22.713  1.00  0.00    -0.245 NA
ENDBRANCH  25  26
ENDBRANCH  18  20
ENDBRANCH  15  18
ENDBRANCH   9  14
ENDBRANCH   5   8
ENDBRANCH   3   4
ENDBRANCH   2   3
ENDBRANCH   1   2
BRANCH   1  31
ATOM     31  C   UNL A   1      36.267  21.364  25.089  1.00  0.00     0.002 C 
BRANCH  31  32
ATOM     32  C   UNL A   1      37.506  20.487  24.894  1.00  0.00     0.021 C 
BRANCH  32  33
ATOM     33  C   UNL A   1      38.718  20.913  25.717  1.00  0.00     0.116 C 
BRANCH  33  34
ATOM     34  N   UNL A   1      39.616  19.795  25.957  1.00  0.00    -0.352 N 
ATOM     35  C   UNL A   1      40.980  19.846  26.150  1.00  0.00     0.251 C 
ATOM     36  H   UNL A   1      39.204  18.902  25.986  1.00  0.00     0.163 HD
ATOM     37  O   UNL A   1      41.666  18.841  26.055  1.00  0.00    -0.269 OA
BRANCH  35  38
ATOM     38  C   UNL A   1      41.586  21.159  26.462  1.00  0.00     0.039 A 
ATOM     39  C   UNL A   1      41.982  22.007  25.426  1.00  0.00     0.014 A 
ATOM     40  C   UNL A   1      41.695  21.561  27.796  1.00  0.00     0.014 A 
ATOM     41  C   UNL A   1      42.448  23.288  25.731  1.00  0.00     0.010 A 
ATOM     42  C   UNL A   1      42.086  22.861  28.090  1.00  0.00     0.010 A 
ATOM     43  C   UNL A   1      42.480  23.735  27.063  1.00  0.00    -0.014 A 
BRANCH  43  44
ATOM     44  C   UNL A   1      42.974  25.089  27.429  1.00  0.00     0.031 A 
ATOM     45  C   UNL A   1      42.030  26.055  28.092  1.00  0.00     0.074 A 
ATOM     46  C   UNL A   1      44.218  25.478  27.093  1.00  0.00     0.049 A 
ATOM     47  N   UNL A   1      42.189  27.327  28.354  1.00  0.00    -0.248 NA
ATOM     48  C   UNL A   1      40.714  25.521  28.472  1.00  0.00     0.031 C 
ATOM     49  C   UNL A   1      45.217  24.640  26.429  1.00  0.00     0.029 A 
ATOM     50  N   UNL A   1      44.849  26.688  27.247  1.00  0.00    -0.354 N 
ATOM     51  C   UNL A   1      40.983  27.750  28.904  1.00  0.00     0.074 A 
ATOM     52  C   UNL A   1      40.085  26.615  28.867  1.00  0.00     0.031 C 
ATOM     53  C   UNL A   1      46.337  25.357  26.245  1.00  0.00     0.029 A 
ATOM     54  C   UNL A   1      46.121  26.719  26.726  1.00  0.00     0.049 A 
ATOM     55  H   UNL A   1      44.430  27.461  27.690  1.00  0.00     0.167 HD
ATOM     56  C   UNL A   1      40.664  28.965  29.415  1.00  0.00     0.034 A 
ATOM     57  C   UNL A   1      47.003  27.735  26.622  1.00  0.00     0.034 A 
ATOM     58  C   UNL A   1      41.580  30.078  29.450  1.00  0.00     0.049 A 
ATOM     59  C   UNL A   1      46.619  29.092  27.160  1.00  0.00     0.074 A 
ATOM     60  C   UNL A   1      41.384  31.340  29.983  1.00  0.00     0.029 A 
ATOM     61  N   UNL A   1      42.864  30.068  28.918  1.00  0.00    -0.354 N 
ATOM     62  N   UNL A   1      45.488  29.474  27.705  1.00  0.00    -0.248 NA
ATOM     63  C   UNL A   1      47.633  30.151  27.075  1.00  0.00     0.031 C 
ATOM     64  C   UNL A   1      42.513  32.115  29.701  1.00  0.00     0.029 A 
ATOM     65  C   UNL A   1      43.457  31.311  29.081  1.00  0.00     0.049 A 
ATOM     66  H   UNL A   1      43.291  29.292  28.489  1.00  0.00     0.167 HD
ATOM     67  C   UNL A   1      45.670  30.807  28.067  1.00  0.00     0.074 A 
ATOM     68  C   UNL A   1      47.018  31.162  27.674  1.00  0.00     0.031 C 
ATOM     69  C   UNL A   1      44.804  31.653  28.683  1.00  0.00     0.034 A 
BRANCH  56  70
ATOM     70  C   UNL A   1      39.255  29.148  29.935  1.00  0.00     0.023 A 
ATOM     71  C   UNL A   1      38.269  29.810  29.182  1.00  0.00     0.031 A 
ATOM     72  C   UNL A   1      38.907  28.712  31.226  1.00  0.00     0.131 A 
ATOM     73  C   UNL A   1      37.030  30.117  29.762  1.00  0.00     0.055 A 
ATOM     74  C   UNL A   1      37.634  28.927  31.759  1.00  0.00     0.041 A 
ATOM     75  F   UNL A   1      39.808  28.093  32.006  1.00  0.00    -0.206 F 
ATOM     76  C   UNL A   1      36.694  29.653  31.036  1.00  0.00     0.022 A 
BRANCH  73  77
ATOM     77  S   UNL A   1      35.948  31.298  28.909  1.00  0.00     0.124 S 
ATOM     78  O   UNL A   1      36.918  32.243  28.363  1.00  0.00    -0.237 OA
ATOM     79  O   UNL A   1      35.263  30.452  27.939  1.00  0.00    -0.237 OA
ATOM     80  O   UNL A   1      35.108  31.828  29.981  1.00  0.00    -0.744 OA
ENDBRANCH  73  77
ENDBRANCH  56  70
BRANCH  57  81
ATOM     81  C   UNL A   1      48.327  27.512  25.973  1.00  0.00     0.023 A 
ATOM     82  C   UNL A   1      48.485  27.627  24.583  1.00  0.00     0.031 A 
ATOM     83  C   UNL A   1      49.456  27.167  26.738  1.00  0.00     0.131 A 
ATOM     84  C   UNL A   1      49.734  27.367  23.996  1.00  0.00     0.055 A 
ATOM     85  C   UNL A   1      50.709  26.961  26.155  1.00  0.00     0.041 A 
ATOM     86  F   UNL A   1      49.363  27.047  28.072  1.00  0.00    -0.206 F 
ATOM     87  C   UNL A   1      50.850  27.051  24.775  1.00  0.00     0.022 A 
BRANCH  84  88
ATOM     88  S   UNL A   1      49.866  27.382  22.188  1.00  0.00     0.124 S 
ATOM     89  O   UNL A   1      51.272  27.047  21.991  1.00  0.00    -0.237 OA
ATOM     90  O   UNL A   1      48.902  26.355  21.805  1.00  0.00    -0.237 OA
ATOM     91  O   UNL A   1      49.493  28.748  21.831  1.00  0.00    -0.744 OA
ENDBRANCH  84  88
ENDBRANCH  57  81
BRANCH  69  92
ATOM     92  C   UNL A   1      45.311  33.031  29.039  1.00  0.00     0.023 A 
ATOM     93  C   UNL A   1      45.051  34.157  28.240  1.00  0.00     0.031 A 
ATOM     94  C   UNL A   1      46.045  33.217  30.226  1.00  0.00     0.131 A 
ATOM     95  C   UNL A   1      45.557  35.411  28.618  1.00  0.00     0.055 A 
ATOM     96  C   UNL A   1      46.491  34.476  30.627  1.00  0.00     0.041 A 
ATOM     97  F   UNL A   1      46.327  32.175  31.025  1.00  0.00    -0.206 F 
ATOM     98  C   UNL A   1      46.256  35.581  29.816  1.00  0.00     0.022 A 
BRANCH  95  99
ATOM     99  S   UNL A   1      45.358  36.813  27.483  1.00  0.00     0.124 S 
ATOM    100  O   UNL A   1      46.512  36.656  26.602  1.00  0.00    -0.237 OA
ATOM    101  O   UNL A   1      44.056  36.545  26.881  1.00  0.00    -0.237 OA
ATOM    102  O   UNL A   1      45.404  37.978  28.364  1.00  0.00    -0.744 OA
ENDBRANCH  95  99
ENDBRANCH  69  92
ENDBRANCH  43  44
ENDBRANCH  35  38
ENDBRANCH  33  34
ENDBRANCH  32  33
ENDBRANCH  31  32
ENDBRANCH   1  31
TORSDOF 20
ENDMDL
