MODEL 1
REMARK VINA RESULT:     -11.3      0.000      0.000
REMARK SMILES O=C(NCCCCCCNC(=O)[C@@H]1C[C@H]1C(=O)N[C@@H]1CONC1=O)c1ccc(-c2c3nc(c(-c4cc(S(=O)(=O)[O-])ccc4F)c4ccc([nH]4)c(-c4cc(S(=O)(=O)[O-])ccc4F)c4nc(c(-c5cc(S(=O)(=O)[O-])ccc5F)c5ccc2[nH]5)C=C4)C=C3)cc1
REMARK SMILES IDX 6 1 5 2 4 3 3 4 1 5 2 6 25 8 26 9 87 10 27 11 86 12 28 13
REMARK SMILES IDX 29 14 30 15 80 16 31 17 85 18 79 19 81 20 32 21 84 22 78 23
REMARK SMILES IDX 77 24 33 26 65 27 45 28 64 29 46 30 49 31 63 32 82 33 47 34
REMARK SMILES IDX 48 35 62 37 83 38 50 39 34 40 35 41 43 42 36 43 42 44 44 45
REMARK SMILES IDX 41 46 37 47 38 48 39 49 40 50 66 51 67 52 75 53 68 54 74 55
REMARK SMILES IDX 76 56 73 57 69 58 70 59 71 60 72 61 51 62 52 63 60 64 53 65
REMARK SMILES IDX 59 66 61 67 58 68 54 69 55 70 56 71 57 72 7 73 8 74 9 75
REMARK SMILES IDX 10 76 11 77 12 79 13 80 14 81 15 82 16 83 17 84 18 85 19 87
REMARK SMILES IDX 20 88 23 89 21 90 22 91 24 92
REMARK H PARENT 3 7 81 25 49 36 10 78 18 86 22 93
REMARK Flexibility Score: inf
ROOT
ATOM      1  C   UNL A   1      36.454  20.211  24.994  1.00  0.00     0.002 C 
ENDROOT
BRANCH   1   2
ATOM      2  C   UNL A   1      37.870  19.674  24.773  1.00  0.00     0.021 C 
BRANCH   2   3
ATOM      3  C   UNL A   1      38.899  20.179  25.778  1.00  0.00     0.116 C 
BRANCH   3   4
ATOM      4  N   UNL A   1      39.993  19.235  25.942  1.00  0.00    -0.352 N 
ATOM      5  O   UNL A   1      42.153  18.591  26.006  1.00  0.00    -0.269 OA
ATOM      6  C   UNL A   1      41.329  19.495  26.115  1.00  0.00     0.251 C 
ATOM      7  H   UNL A   1      39.742  18.283  25.928  1.00  0.00     0.163 HD
BRANCH   6   8
ATOM      8  C   UNL A   1      41.766  20.871  26.427  1.00  0.00     0.039 A 
ATOM      9  C   UNL A   1      41.909  21.818  25.407  1.00  0.00     0.014 A 
ATOM     10  C   UNL A   1      42.014  21.220  27.756  1.00  0.00     0.014 A 
ATOM     11  C   UNL A   1      42.386  23.090  25.706  1.00  0.00     0.010 A 
ATOM     12  C   UNL A   1      42.439  22.515  28.061  1.00  0.00     0.010 A 
ATOM     13  C   UNL A   1      42.643  23.454  27.037  1.00  0.00    -0.014 A 
BRANCH  13  14
ATOM     14  C   UNL A   1      43.077  24.835  27.358  1.00  0.00     0.031 A 
ATOM     15  C   UNL A   1      42.138  25.799  28.024  1.00  0.00     0.074 A 
ATOM     16  C   UNL A   1      44.325  25.218  27.025  1.00  0.00     0.049 A 
ATOM     17  N   UNL A   1      42.316  27.062  28.312  1.00  0.00    -0.248 NA
ATOM     18  C   UNL A   1      40.819  25.272  28.402  1.00  0.00     0.031 C 
ATOM     19  C   UNL A   1      45.321  24.363  26.375  1.00  0.00     0.029 A 
ATOM     20  N   UNL A   1      44.965  26.420  27.177  1.00  0.00    -0.354 N 
ATOM     21  C   UNL A   1      41.128  27.491  28.893  1.00  0.00     0.074 A 
ATOM     22  C   UNL A   1      40.227  26.356  28.882  1.00  0.00     0.031 C 
ATOM     23  C   UNL A   1      46.449  25.065  26.194  1.00  0.00     0.029 A 
ATOM     24  C   UNL A   1      46.239  26.431  26.659  1.00  0.00     0.049 A 
ATOM     25  H   UNL A   1      44.554  27.200  27.615  1.00  0.00     0.167 HD
ATOM     26  C   UNL A   1      40.824  28.717  29.391  1.00  0.00     0.034 A 
ATOM     27  C   UNL A   1      47.126  27.435  26.541  1.00  0.00     0.034 A 
ATOM     28  C   UNL A   1      41.737  29.835  29.381  1.00  0.00     0.049 A 
ATOM     29  C   UNL A   1      46.753  28.797  27.057  1.00  0.00     0.074 A 
ATOM     30  C   UNL A   1      41.545  31.114  29.876  1.00  0.00     0.029 A 
ATOM     31  N   UNL A   1      43.016  29.814  28.833  1.00  0.00    -0.354 N 
ATOM     32  N   UNL A   1      45.630  29.188  27.611  1.00  0.00    -0.248 NA
ATOM     33  C   UNL A   1      47.768  29.849  26.937  1.00  0.00     0.031 C 
ATOM     34  C   UNL A   1      42.680  31.879  29.577  1.00  0.00     0.029 A 
ATOM     35  C   UNL A   1      43.611  31.061  28.955  1.00  0.00     0.049 A 
ATOM     36  H   UNL A   1      43.437  29.027  28.419  1.00  0.00     0.167 HD
ATOM     37  C   UNL A   1      45.810  30.530  27.925  1.00  0.00     0.074 A 
ATOM     38  C   UNL A   1      47.153  30.878  27.505  1.00  0.00     0.031 C 
ATOM     39  C   UNL A   1      44.945  31.394  28.515  1.00  0.00     0.034 A 
BRANCH  26  40
ATOM     40  C   UNL A   1      39.428  28.912  29.936  1.00  0.00     0.023 A 
ATOM     41  C   UNL A   1      38.413  29.517  29.174  1.00  0.00     0.031 A 
ATOM     42  C   UNL A   1      39.121  28.532  31.255  1.00  0.00     0.131 A 
ATOM     43  C   UNL A   1      37.169  29.801  29.759  1.00  0.00     0.055 A 
ATOM     44  C   UNL A   1      37.856  28.745  31.807  1.00  0.00     0.041 A 
ATOM     45  F   UNL A   1      40.052  27.969  32.039  1.00  0.00    -0.206 F 
ATOM     46  C   UNL A   1      36.876  29.399  31.065  1.00  0.00     0.022 A 
BRANCH  43  47
ATOM     47  S   UNL A   1      36.001  30.849  28.849  1.00  0.00     0.124 S 
ATOM     48  O   UNL A   1      35.339  31.571  29.932  1.00  0.00    -0.237 OA
ATOM     49  O   UNL A   1      36.884  31.642  28.000  1.00  0.00    -0.237 OA
ATOM     50  O   UNL A   1      35.155  29.888  28.144  1.00  0.00    -0.744 OA
ENDBRANCH  43  47
ENDBRANCH  26  40
BRANCH  27  51
ATOM     51  C   UNL A   1      48.431  27.190  25.871  1.00  0.00     0.023 A 
ATOM     52  C   UNL A   1      48.580  27.366  24.487  1.00  0.00     0.031 A 
ATOM     53  C   UNL A   1      49.556  26.791  26.615  1.00  0.00     0.131 A 
ATOM     54  C   UNL A   1      49.825  27.121  23.885  1.00  0.00     0.055 A 
ATOM     55  C   UNL A   1      50.800  26.590  26.020  1.00  0.00     0.041 A 
ATOM     56  F   UNL A   1      49.464  26.622  27.944  1.00  0.00    -0.206 F 
ATOM     57  C   UNL A   1      50.938  26.748  24.643  1.00  0.00     0.022 A 
BRANCH  54  58
ATOM     58  S   UNL A   1      49.961  27.263  22.083  1.00  0.00     0.124 S 
ATOM     59  O   UNL A   1      49.778  28.696  21.882  1.00  0.00    -0.237 OA
ATOM     60  O   UNL A   1      51.304  26.747  21.839  1.00  0.00    -0.237 OA
ATOM     61  O   UNL A   1      48.874  26.420  21.592  1.00  0.00    -0.744 OA
ENDBRANCH  54  58
ENDBRANCH  27  51
BRANCH  39  62
ATOM     62  C   UNL A   1      45.455  32.788  28.778  1.00  0.00     0.023 A 
ATOM     63  C   UNL A   1      45.537  33.752  27.758  1.00  0.00     0.031 A 
ATOM     64  C   UNL A   1      45.875  33.150  30.070  1.00  0.00     0.131 A 
ATOM     65  C   UNL A   1      46.072  35.019  28.038  1.00  0.00     0.055 A 
ATOM     66  C   UNL A   1      46.361  34.426  30.353  1.00  0.00     0.041 A 
ATOM     67  F   UNL A   1      45.818  32.265  31.078  1.00  0.00    -0.206 F 
ATOM     68  C   UNL A   1      46.471  35.366  29.332  1.00  0.00     0.022 A 
BRANCH  65  69
ATOM     69  S   UNL A   1      46.305  36.189  26.672  1.00  0.00     0.124 S 
ATOM     70  O   UNL A   1      46.083  35.341  25.505  1.00  0.00    -0.237 OA
ATOM     71  O   UNL A   1      45.276  37.189  26.937  1.00  0.00    -0.237 OA
ATOM     72  O   UNL A   1      47.680  36.654  26.849  1.00  0.00    -0.744 OA
ENDBRANCH  65  69
ENDBRANCH  39  62
ENDBRANCH  13  14
ENDBRANCH   6   8
ENDBRANCH   3   4
ENDBRANCH   2   3
ENDBRANCH   1   2
BRANCH   1  73
ATOM     73  C   UNL A   1      36.259  21.685  24.622  1.00  0.00     0.002 C 
BRANCH  73  74
ATOM     74  C   UNL A   1      36.586  22.678  25.747  1.00  0.00     0.021 C 
BRANCH  74  75
ATOM     75  C   UNL A   1      35.419  23.608  26.084  1.00  0.00     0.116 C 
BRANCH  75  76
ATOM     76  N   UNL A   1      34.619  23.012  27.133  1.00  0.00    -0.356 N 
ATOM     77  C   UNL A   1      33.284  22.728  27.157  1.00  0.00     0.223 C 
ATOM     78  H   UNL A   1      35.111  22.777  27.952  1.00  0.00     0.163 HD
ATOM     79  O   UNL A   1      32.745  22.434  28.217  1.00  0.00    -0.275 OA
BRANCH  77  80
ATOM     80  C   UNL A   1      32.508  22.610  25.903  1.00  0.00     0.091 C 
ATOM     81  C   UNL A   1      31.044  22.253  25.748  1.00  0.00     0.028 C 
ATOM     82  C   UNL A   1      32.088  21.241  25.423  1.00  0.00     0.091 C 
BRANCH  82  83
ATOM     83  C   UNL A   1      32.423  20.724  24.082  1.00  0.00     0.224 C 
ATOM     84  O   UNL A   1      32.654  21.554  23.203  1.00  0.00    -0.275 OA
ATOM     85  N   UNL A   1      32.520  19.421  23.701  1.00  0.00    -0.342 N 
ATOM     86  H   UNL A   1      32.736  19.376  22.742  1.00  0.00     0.164 HD
BRANCH  85  87
ATOM     87  C   UNL A   1      32.411  18.070  24.240  1.00  0.00     0.202 C 
ATOM     88  C   UNL A   1      32.648  17.750  25.703  1.00  0.00     0.228 C 
ATOM     89  C   UNL A   1      33.181  16.939  23.601  1.00  0.00     0.268 C 
ATOM     90  O   UNL A   1      32.620  16.309  25.757  1.00  0.00    -0.271 OA
ATOM     91  N   UNL A   1      33.176  15.907  24.517  1.00  0.00    -0.233 N 
ATOM     92  O   UNL A   1      33.634  16.897  22.470  1.00  0.00    -0.270 OA
ATOM     93  H   UNL A   1      33.517  15.002  24.332  1.00  0.00     0.199 HD
ENDBRANCH  85  87
ENDBRANCH  82  83
ENDBRANCH  77  80
ENDBRANCH  75  76
ENDBRANCH  74  75
ENDBRANCH  73  74
ENDBRANCH   1  73
TORSDOF 18
ENDMDL
MODEL 2
REMARK VINA RESULT:     -11.2      1.966      7.933
REMARK SMILES O=C(NCCCCCCNC(=O)[C@@H]1C[C@H]1C(=O)N[C@@H]1CONC1=O)c1ccc(-c2c3nc(c(-c4cc(S(=O)(=O)[O-])ccc4F)c4ccc([nH]4)c(-c4cc(S(=O)(=O)[O-])ccc4F)c4nc(c(-c5cc(S(=O)(=O)[O-])ccc5F)c5ccc2[nH]5)C=C4)C=C3)cc1
REMARK SMILES IDX 6 1 5 2 4 3 3 4 1 5 2 6 25 8 26 9 87 10 27 11 86 12 28 13
REMARK SMILES IDX 29 14 30 15 80 16 31 17 85 18 79 19 81 20 32 21 84 22 78 23
REMARK SMILES IDX 77 24 33 26 65 27 45 28 64 29 46 30 49 31 63 32 82 33 47 34
REMARK SMILES IDX 48 35 62 37 83 38 50 39 34 40 35 41 43 42 36 43 42 44 44 45
REMARK SMILES IDX 41 46 37 47 38 48 39 49 40 50 66 51 67 52 75 53 68 54 74 55
REMARK SMILES IDX 76 56 73 57 69 58 70 59 71 60 72 61 51 62 52 63 60 64 53 65
REMARK SMILES IDX 59 66 61 67 58 68 54 69 55 70 56 71 57 72 7 73 8 74 9 75
REMARK SMILES IDX 10 76 11 77 12 79 13 80 14 81 15 82 16 83 17 84 18 85 19 87
REMARK SMILES IDX 20 88 23 89 21 90 22 91 24 92
REMARK H PARENT 3 7 81 25 49 36 10 78 18 86 22 93
REMARK Flexibility Score: inf
ROOT
ATOM      1  C   UNL A   1      40.480  21.787  27.433  1.00  0.00     0.002 C 
ENDROOT
BRANCH   1   2
ATOM      2  C   UNL A   1      40.736  20.470  26.698  1.00  0.00     0.021 C 
BRANCH   2   3
ATOM      3  C   UNL A   1      41.953  19.697  27.195  1.00  0.00     0.116 C 
BRANCH   3   4
ATOM      4  N   UNL A   1      42.836  19.330  26.100  1.00  0.00    -0.352 N 
ATOM      5  O   UNL A   1      44.105  19.709  24.275  1.00  0.00    -0.269 OA
ATOM      6  C   UNL A   1      43.594  20.149  25.301  1.00  0.00     0.251 C 
ATOM      7  H   UNL A   1      42.900  18.367  25.907  1.00  0.00     0.163 HD
BRANCH   6   8
ATOM      8  C   UNL A   1      43.785  21.563  25.684  1.00  0.00     0.039 A 
ATOM      9  C   UNL A   1      43.452  22.589  24.794  1.00  0.00     0.014 A 
ATOM     10  C   UNL A   1      44.282  21.862  26.954  1.00  0.00     0.014 A 
ATOM     11  C   UNL A   1      43.699  23.913  25.140  1.00  0.00     0.010 A 
ATOM     12  C   UNL A   1      44.478  23.195  27.321  1.00  0.00     0.010 A 
ATOM     13  C   UNL A   1      44.202  24.228  26.412  1.00  0.00    -0.014 A 
BRANCH  13  14
ATOM     14  C   UNL A   1      44.391  25.646  26.804  1.00  0.00     0.031 A 
ATOM     15  C   UNL A   1      45.743  26.292  26.714  1.00  0.00     0.074 A 
ATOM     16  C   UNL A   1      43.332  26.341  27.261  1.00  0.00     0.049 A 
ATOM     17  N   UNL A   1      46.113  27.491  27.081  1.00  0.00    -0.248 NA
ATOM     18  C   UNL A   1      46.824  25.473  26.148  1.00  0.00     0.031 C 
ATOM     19  C   UNL A   1      41.972  25.812  27.390  1.00  0.00     0.029 A 
ATOM     20  N   UNL A   1      43.232  27.632  27.710  1.00  0.00    -0.354 N 
ATOM     21  C   UNL A   1      47.474  27.572  26.807  1.00  0.00     0.074 A 
ATOM     22  C   UNL A   1      47.865  26.282  26.273  1.00  0.00     0.031 C 
ATOM     23  C   UNL A   1      41.172  26.774  27.874  1.00  0.00     0.029 A 
ATOM     24  C   UNL A   1      41.970  27.964  28.144  1.00  0.00     0.049 A 
ATOM     25  H   UNL A   1      43.988  28.261  27.719  1.00  0.00     0.167 HD
ATOM     26  C   UNL A   1      48.312  28.625  26.981  1.00  0.00     0.034 A 
ATOM     27  C   UNL A   1      41.513  29.088  28.726  1.00  0.00     0.034 A 
ATOM     28  C   UNL A   1      47.898  29.897  27.525  1.00  0.00     0.049 A 
ATOM     29  C   UNL A   1      42.468  30.227  28.953  1.00  0.00     0.074 A 
ATOM     30  C   UNL A   1      48.655  31.040  27.726  1.00  0.00     0.029 A 
ATOM     31  N   UNL A   1      46.613  30.192  27.970  1.00  0.00    -0.354 N 
ATOM     32  N   UNL A   1      43.750  30.292  28.682  1.00  0.00    -0.248 NA
ATOM     33  C   UNL A   1      41.913  31.443  29.558  1.00  0.00     0.031 C 
ATOM     34  C   UNL A   1      47.845  32.002  28.344  1.00  0.00     0.029 A 
ATOM     35  C   UNL A   1      46.564  31.486  28.467  1.00  0.00     0.049 A 
ATOM     36  H   UNL A   1      45.850  29.573  27.936  1.00  0.00     0.167 HD
ATOM     37  C   UNL A   1      44.153  31.566  29.066  1.00  0.00     0.074 A 
ATOM     38  C   UNL A   1      42.974  32.237  29.580  1.00  0.00     0.031 C 
ATOM     39  C   UNL A   1      45.384  32.133  28.992  1.00  0.00     0.034 A 
BRANCH  26  40
ATOM     40  C   UNL A   1      49.766  28.415  26.626  1.00  0.00     0.023 A 
ATOM     41  C   UNL A   1      50.244  28.613  25.318  1.00  0.00     0.031 A 
ATOM     42  C   UNL A   1      50.676  27.961  27.597  1.00  0.00     0.131 A 
ATOM     43  C   UNL A   1      51.570  28.280  24.997  1.00  0.00     0.055 A 
ATOM     44  C   UNL A   1      52.015  27.708  27.289  1.00  0.00     0.041 A 
ATOM     45  F   UNL A   1      50.276  27.733  28.857  1.00  0.00    -0.206 F 
ATOM     46  C   UNL A   1      52.465  27.849  25.980  1.00  0.00     0.022 A 
BRANCH  43  47
ATOM     47  S   UNL A   1      52.060  28.259  23.251  1.00  0.00     0.124 S 
ATOM     48  O   UNL A   1      51.802  29.641  22.851  1.00  0.00    -0.237 OA
ATOM     49  O   UNL A   1      53.463  27.868  23.321  1.00  0.00    -0.237 OA
ATOM     50  O   UNL A   1      51.165  27.270  22.654  1.00  0.00    -0.744 OA
ENDBRANCH  43  47
ENDBRANCH  26  40
BRANCH  27  51
ATOM     51  C   UNL A   1      40.094  29.165  29.168  1.00  0.00     0.023 A 
ATOM     52  C   UNL A   1      39.750  29.055  30.523  1.00  0.00     0.031 A 
ATOM     53  C   UNL A   1      39.063  29.368  28.233  1.00  0.00     0.131 A 
ATOM     54  C   UNL A   1      38.400  29.127  30.905  1.00  0.00     0.055 A 
ATOM     55  C   UNL A   1      37.729  29.480  28.621  1.00  0.00     0.041 A 
ATOM     56  F   UNL A   1      39.347  29.491  26.927  1.00  0.00    -0.206 F 
ATOM     57  C   UNL A   1      37.390  29.352  29.965  1.00  0.00     0.022 A 
BRANCH  54  58
ATOM     58  S   UNL A   1      37.978  28.884  32.651  1.00  0.00     0.124 S 
ATOM     59  O   UNL A   1      36.625  29.426  32.708  1.00  0.00    -0.237 OA
ATOM     60  O   UNL A   1      38.095  27.436  32.793  1.00  0.00    -0.237 OA
ATOM     61  O   UNL A   1      38.993  29.661  33.358  1.00  0.00    -0.744 OA
ENDBRANCH  54  58
ENDBRANCH  27  51
BRANCH  39  62
ATOM     62  C   UNL A   1      45.497  33.567  29.440  1.00  0.00     0.023 A 
ATOM     63  C   UNL A   1      45.301  34.639  28.552  1.00  0.00     0.031 A 
ATOM     64  C   UNL A   1      45.818  33.862  30.777  1.00  0.00     0.131 A 
ATOM     65  C   UNL A   1      45.473  35.957  29.002  1.00  0.00     0.055 A 
ATOM     66  C   UNL A   1      45.940  35.175  31.230  1.00  0.00     0.041 A 
ATOM     67  F   UNL A   1      46.017  32.874  31.664  1.00  0.00    -0.206 F 
ATOM     68  C   UNL A   1      45.777  36.232  30.339  1.00  0.00     0.022 A 
BRANCH  65  69
ATOM     69  S   UNL A   1      45.361  37.312  27.801  1.00  0.00     0.124 S 
ATOM     70  O   UNL A   1      46.146  36.792  26.685  1.00  0.00    -0.237 OA
ATOM     71  O   UNL A   1      43.923  37.414  27.576  1.00  0.00    -0.237 OA
ATOM     72  O   UNL A   1      45.959  38.445  28.505  1.00  0.00    -0.744 OA
ENDBRANCH  65  69
ENDBRANCH  39  62
ENDBRANCH  13  14
ENDBRANCH   6   8
ENDBRANCH   3   4
ENDBRANCH   2   3
ENDBRANCH   1   2
BRANCH   1  73
ATOM     73  C   UNL A   1      40.191  22.986  26.523  1.00  0.00     0.002 C 
BRANCH  73  74
ATOM     74  C   UNL A   1      38.917  23.767  26.879  1.00  0.00     0.021 C 
BRANCH  74  75
ATOM     75  C   UNL A   1      37.837  23.676  25.798  1.00  0.00     0.116 C 
BRANCH  75  76
ATOM     76  N   UNL A   1      37.900  22.375  25.166  1.00  0.00    -0.356 N 
ATOM     77  C   UNL A   1      36.935  21.418  25.041  1.00  0.00     0.223 C 
ATOM     78  H   UNL A   1      38.770  22.146  24.767  1.00  0.00     0.163 HD
ATOM     79  O   UNL A   1      37.241  20.291  24.674  1.00  0.00    -0.275 OA
BRANCH  77  80
ATOM     80  C   UNL A   1      35.502  21.758  25.186  1.00  0.00     0.091 C 
ATOM     81  C   UNL A   1      34.616  21.546  26.396  1.00  0.00     0.028 C 
ATOM     82  C   UNL A   1      34.481  20.645  25.218  1.00  0.00     0.091 C 
BRANCH  82  83
ATOM     83  C   UNL A   1      33.337  20.581  24.288  1.00  0.00     0.224 C 
ATOM     84  O   UNL A   1      33.057  21.609  23.672  1.00  0.00    -0.275 OA
ATOM     85  N   UNL A   1      32.553  19.502  24.018  1.00  0.00    -0.342 N 
ATOM     86  H   UNL A   1      31.853  19.758  23.375  1.00  0.00     0.164 HD
BRANCH  85  87
ATOM     87  C   UNL A   1      32.404  18.092  24.364  1.00  0.00     0.202 C 
ATOM     88  C   UNL A   1      32.587  17.571  25.776  1.00  0.00     0.228 C 
ATOM     89  C   UNL A   1      33.174  17.042  23.599  1.00  0.00     0.268 C 
ATOM     90  O   UNL A   1      32.533  16.137  25.631  1.00  0.00    -0.271 OA
ATOM     91  N   UNL A   1      33.122  15.896  24.365  1.00  0.00    -0.233 N 
ATOM     92  O   UNL A   1      33.663  17.145  22.487  1.00  0.00    -0.270 OA
ATOM     93  H   UNL A   1      33.454  15.017  24.068  1.00  0.00     0.199 HD
ENDBRANCH  85  87
ENDBRANCH  82  83
ENDBRANCH  77  80
ENDBRANCH  75  76
ENDBRANCH  74  75
ENDBRANCH  73  74
ENDBRANCH   1  73
TORSDOF 18
ENDMDL
MODEL 3
REMARK VINA RESULT:     -11.1      2.533      4.085
REMARK SMILES O=C(NCCCCCCNC(=O)[C@@H]1C[C@H]1C(=O)N[C@@H]1CONC1=O)c1ccc(-c2c3nc(c(-c4cc(S(=O)(=O)[O-])ccc4F)c4ccc([nH]4)c(-c4cc(S(=O)(=O)[O-])ccc4F)c4nc(c(-c5cc(S(=O)(=O)[O-])ccc5F)c5ccc2[nH]5)C=C4)C=C3)cc1
REMARK SMILES IDX 6 1 5 2 4 3 3 4 1 5 2 6 25 8 26 9 87 10 27 11 86 12 28 13
REMARK SMILES IDX 29 14 30 15 80 16 31 17 85 18 79 19 81 20 32 21 84 22 78 23
REMARK SMILES IDX 77 24 33 26 65 27 45 28 64 29 46 30 49 31 63 32 82 33 47 34
REMARK SMILES IDX 48 35 62 37 83 38 50 39 34 40 35 41 43 42 36 43 42 44 44 45
REMARK SMILES IDX 41 46 37 47 38 48 39 49 40 50 66 51 67 52 75 53 68 54 74 55
REMARK SMILES IDX 76 56 73 57 69 58 70 59 71 60 72 61 51 62 52 63 60 64 53 65
REMARK SMILES IDX 59 66 61 67 58 68 54 69 55 70 56 71 57 72 7 73 8 74 9 75
REMARK SMILES IDX 10 76 11 77 12 79 13 80 14 81 15 82 16 83 17 84 18 85 19 87
REMARK SMILES IDX 20 88 23 89 21 90 22 91 24 92
REMARK H PARENT 3 7 81 25 49 36 10 78 18 86 22 93
REMARK Flexibility Score: inf
ROOT
ATOM      1  C   UNL A   1      34.204  20.704  25.633  1.00  0.00     0.002 C 
ENDROOT
BRANCH   1   2
ATOM      2  C   UNL A   1      34.716  22.037  26.184  1.00  0.00     0.021 C 
BRANCH   2   3
ATOM      3  C   UNL A   1      36.134  22.394  25.753  1.00  0.00     0.116 C 
BRANCH   3   4
ATOM      4  N   UNL A   1      37.008  21.232  25.779  1.00  0.00    -0.352 N 
ATOM      5  O   UNL A   1      38.983  20.149  25.669  1.00  0.00    -0.269 OA
ATOM      6  C   UNL A   1      38.374  21.191  25.897  1.00  0.00     0.251 C 
ATOM      7  H   UNL A   1      36.560  20.359  25.701  1.00  0.00     0.163 HD
BRANCH   6   8
ATOM      8  C   UNL A   1      39.105  22.411  26.296  1.00  0.00     0.039 A 
ATOM      9  C   UNL A   1      38.723  23.660  25.797  1.00  0.00     0.014 A 
ATOM     10  C   UNL A   1      40.169  22.303  27.194  1.00  0.00     0.014 A 
ATOM     11  C   UNL A   1      39.461  24.793  26.126  1.00  0.00     0.010 A 
ATOM     12  C   UNL A   1      40.874  23.449  27.568  1.00  0.00     0.010 A 
ATOM     13  C   UNL A   1      40.535  24.699  27.025  1.00  0.00    -0.014 A 
BRANCH  13  14
ATOM     14  C   UNL A   1      41.270  25.921  27.433  1.00  0.00     0.031 A 
ATOM     15  C   UNL A   1      40.611  26.961  28.292  1.00  0.00     0.074 A 
ATOM     16  C   UNL A   1      42.535  26.092  27.004  1.00  0.00     0.049 A 
ATOM     17  N   UNL A   1      41.069  28.121  28.684  1.00  0.00    -0.248 NA
ATOM     18  C   UNL A   1      39.251  26.657  28.760  1.00  0.00     0.031 C 
ATOM     19  C   UNL A   1      43.273  25.145  26.164  1.00  0.00     0.029 A 
ATOM     20  N   UNL A   1      43.419  27.120  27.203  1.00  0.00    -0.354 N 
ATOM     21  C   UNL A   1      40.051  28.699  29.434  1.00  0.00     0.074 A 
ATOM     22  C   UNL A   1      38.939  27.770  29.409  1.00  0.00     0.031 C 
ATOM     23  C   UNL A   1      44.501  25.631  25.931  1.00  0.00     0.029 A 
ATOM     24  C   UNL A   1      44.617  26.946  26.551  1.00  0.00     0.049 A 
ATOM     25  H   UNL A   1      43.217  27.906  27.760  1.00  0.00     0.167 HD
ATOM     26  C   UNL A   1      40.049  29.891  30.083  1.00  0.00     0.034 A 
ATOM     27  C   UNL A   1      45.678  27.766  26.437  1.00  0.00     0.034 A 
ATOM     28  C   UNL A   1      41.168  30.805  30.084  1.00  0.00     0.049 A 
ATOM     29  C   UNL A   1      45.639  29.102  27.125  1.00  0.00     0.074 A 
ATOM     30  C   UNL A   1      41.287  32.027  30.724  1.00  0.00     0.029 A 
ATOM     31  N   UNL A   1      42.362  30.602  29.398  1.00  0.00    -0.354 N 
ATOM     32  N   UNL A   1      44.673  29.633  27.837  1.00  0.00    -0.248 NA
ATOM     33  C   UNL A   1      46.834  29.944  27.000  1.00  0.00     0.031 C 
ATOM     34  C   UNL A   1      42.524  32.588  30.378  1.00  0.00     0.029 A 
ATOM     35  C   UNL A   1      43.208  31.686  29.578  1.00  0.00     0.049 A 
ATOM     36  H   UNL A   1      42.575  29.804  28.863  1.00  0.00     0.167 HD
ATOM     37  C   UNL A   1      45.152  30.867  28.262  1.00  0.00     0.074 A 
ATOM     38  C   UNL A   1      46.495  30.996  27.733  1.00  0.00     0.031 C 
ATOM     39  C   UNL A   1      44.538  31.805  29.029  1.00  0.00     0.034 A 
BRANCH  26  40
ATOM     40  C   UNL A   1      38.777  30.286  30.797  1.00  0.00     0.023 A 
ATOM     41  C   UNL A   1      37.724  30.936  30.128  1.00  0.00     0.031 A 
ATOM     42  C   UNL A   1      38.635  30.054  32.176  1.00  0.00     0.131 A 
ATOM     43  C   UNL A   1      36.617  31.405  30.852  1.00  0.00     0.055 A 
ATOM     44  C   UNL A   1      37.494  30.452  32.877  1.00  0.00     0.041 A 
ATOM     45  F   UNL A   1      39.614  29.456  32.874  1.00  0.00    -0.206 F 
ATOM     46  C   UNL A   1      36.484  31.148  32.219  1.00  0.00     0.022 A 
BRANCH  43  47
ATOM     47  S   UNL A   1      35.435  32.498  30.015  1.00  0.00     0.124 S 
ATOM     48  O   UNL A   1      34.413  32.677  31.044  1.00  0.00    -0.237 OA
ATOM     49  O   UNL A   1      36.248  33.671  29.714  1.00  0.00    -0.237 OA
ATOM     50  O   UNL A   1      35.008  31.719  28.855  1.00  0.00    -0.744 OA
ENDBRANCH  43  47
ENDBRANCH  26  40
BRANCH  27  51
ATOM     51  C   UNL A   1      46.840  27.355  25.604  1.00  0.00     0.023 A 
ATOM     52  C   UNL A   1      46.971  27.790  24.278  1.00  0.00     0.031 A 
ATOM     53  C   UNL A   1      47.848  26.532  26.137  1.00  0.00     0.131 A 
ATOM     54  C   UNL A   1      48.079  27.380  23.518  1.00  0.00     0.055 A 
ATOM     55  C   UNL A   1      48.967  26.161  25.393  1.00  0.00     0.041 A 
ATOM     56  F   UNL A   1      47.771  26.101  27.407  1.00  0.00    -0.206 F 
ATOM     57  C   UNL A   1      49.083  26.580  24.070  1.00  0.00     0.022 A 
BRANCH  54  58
ATOM     58  S   UNL A   1      48.171  27.878  21.778  1.00  0.00     0.124 S 
ATOM     59  O   UNL A   1      46.875  28.518  21.582  1.00  0.00    -0.237 OA
ATOM     60  O   UNL A   1      49.330  28.765  21.777  1.00  0.00    -0.237 OA
ATOM     61  O   UNL A   1      48.356  26.614  21.070  1.00  0.00    -0.744 OA
ENDBRANCH  54  58
ENDBRANCH  27  51
BRANCH  39  62
ATOM     62  C   UNL A   1      45.344  33.031  29.372  1.00  0.00     0.023 A 
ATOM     63  C   UNL A   1      45.382  34.154  28.526  1.00  0.00     0.031 A 
ATOM     64  C   UNL A   1      46.095  33.068  30.560  1.00  0.00     0.131 A 
ATOM     65  C   UNL A   1      46.192  35.250  28.860  1.00  0.00     0.055 A 
ATOM     66  C   UNL A   1      46.860  34.180  30.910  1.00  0.00     0.041 A 
ATOM     67  F   UNL A   1      46.094  32.021  31.400  1.00  0.00    -0.206 F 
ATOM     68  C   UNL A   1      46.920  35.276  30.053  1.00  0.00     0.022 A 
BRANCH  65  69
ATOM     69  S   UNL A   1      46.337  36.620  27.680  1.00  0.00     0.124 S 
ATOM     70  O   UNL A   1      47.235  37.532  28.383  1.00  0.00    -0.237 OA
ATOM     71  O   UNL A   1      46.892  35.962  26.502  1.00  0.00    -0.237 OA
ATOM     72  O   UNL A   1      44.962  37.094  27.534  1.00  0.00    -0.744 OA
ENDBRANCH  65  69
ENDBRANCH  39  62
ENDBRANCH  13  14
ENDBRANCH   6   8
ENDBRANCH   3   4
ENDBRANCH   2   3
ENDBRANCH   1   2
BRANCH   1  73
ATOM     73  C   UNL A   1      32.962  20.812  24.741  1.00  0.00     0.002 C 
BRANCH  73  74
ATOM     74  C   UNL A   1      32.934  22.047  23.829  1.00  0.00     0.021 C 
BRANCH  74  75
ATOM     75  C   UNL A   1      31.590  22.779  23.852  1.00  0.00     0.116 C 
BRANCH  75  76
ATOM     76  N   UNL A   1      31.154  22.938  25.224  1.00  0.00    -0.356 N 
ATOM     77  C   UNL A   1      31.370  23.967  26.094  1.00  0.00     0.223 C 
ATOM     78  H   UNL A   1      30.623  22.191  25.583  1.00  0.00     0.163 HD
ATOM     79  O   UNL A   1      31.116  23.820  27.283  1.00  0.00    -0.275 OA
BRANCH  77  80
ATOM     80  C   UNL A   1      31.754  25.310  25.606  1.00  0.00     0.091 C 
ATOM     81  C   UNL A   1      33.144  25.907  25.531  1.00  0.00     0.028 C 
ATOM     82  C   UNL A   1      32.207  26.353  26.600  1.00  0.00     0.091 C 
BRANCH  82  83
ATOM     83  C   UNL A   1      31.572  27.680  26.714  1.00  0.00     0.224 C 
ATOM     84  O   UNL A   1      31.420  28.132  27.849  1.00  0.00    -0.275 OA
ATOM     85  N   UNL A   1      31.142  28.479  25.700  1.00  0.00    -0.342 N 
ATOM     86  H   UNL A   1      30.739  29.295  26.075  1.00  0.00     0.164 HD
BRANCH  85  87
ATOM     87  C   UNL A   1      31.078  28.529  24.244  1.00  0.00     0.202 C 
ATOM     88  C   UNL A   1      30.298  27.520  23.422  1.00  0.00     0.228 C 
ATOM     89  C   UNL A   1      32.351  28.592  23.434  1.00  0.00     0.268 C 
ATOM     90  O   UNL A   1      30.652  27.828  22.059  1.00  0.00    -0.271 OA
ATOM     91  N   UNL A   1      31.999  28.260  22.142  1.00  0.00    -0.233 N 
ATOM     92  O   UNL A   1      33.452  28.955  23.812  1.00  0.00    -0.270 OA
ATOM     93  H   UNL A   1      32.610  28.317  21.371  1.00  0.00     0.199 HD
ENDBRANCH  85  87
ENDBRANCH  82  83
ENDBRANCH  77  80
ENDBRANCH  75  76
ENDBRANCH  74  75
ENDBRANCH  73  74
ENDBRANCH   1  73
TORSDOF 18
ENDMDL
