MODEL 1
REMARK VINA RESULT:     -10.4      0.000      0.000
REMARK SMILES C[C@@H]1C[N@@H+](CC(C)(C)C(=O)NCCCCCCNC(=O)c2ccc(-c3c4nc(c(-c5cc(S(=O)(=O)[O-])ccc5F)c5ccc([nH]5)c(-c5cc(S(=O)(=O)[O-])ccc5F)c5nc(c(-c6cc(S(=O)(=O)[O-])ccc6F)c6ccc3[nH]6)C=C5)C=C4)cc2)CC[C@@H]1[NH3+]
REMARK SMILES IDX 14 1 13 2 12 3 11 4 9 5 10 6 6 8 7 9 8 10 5 11 4 12 1 13
REMARK SMILES IDX 2 14 3 15 86 16 85 17 84 18 87 20 15 24 16 25 17 26 18 27
REMARK SMILES IDX 19 28 20 30 21 31 22 32 83 33 23 34 82 35 24 36 25 37 26 38
REMARK SMILES IDX 76 39 27 40 81 41 75 42 77 43 28 44 80 45 74 46 73 47 29 49
REMARK SMILES IDX 61 50 41 51 60 52 42 53 45 54 59 55 78 56 43 57 44 58 58 60
REMARK SMILES IDX 79 61 46 62 30 63 31 64 39 65 32 66 38 67 40 68 37 69 33 70
REMARK SMILES IDX 34 71 35 72 36 73 62 74 63 75 71 76 64 77 70 78 72 79 69 80
REMARK SMILES IDX 65 81 66 82 67 83 68 84 47 85 48 86 56 87 49 88 55 89 57 90
REMARK SMILES IDX 54 91 50 92 51 93 52 94 53 95
REMARK H PARENT 11 7 4 19 87 21 87 22 87 23 18 29 77 48 45 59
REMARK Flexibility Score: inf
ROOT
ATOM      1  C   UNL A   1      31.273  28.645  24.207  1.00  0.00     0.002 C 
ENDROOT
BRANCH   1   2
ATOM      2  C   UNL A   1      29.890  28.103  23.829  1.00  0.00     0.021 C 
BRANCH   2   3
ATOM      3  C   UNL A   1      29.791  26.579  23.848  1.00  0.00     0.116 C 
BRANCH   3   4
ATOM      4  N   UNL A   1      30.213  26.079  25.137  1.00  0.00    -0.355 N 
ATOM      5  C   UNL A   1      30.891  24.946  25.442  1.00  0.00     0.231 C 
ATOM      6  O   UNL A   1      30.583  24.418  26.516  1.00  0.00    -0.274 OA
ATOM      7  H   UNL A   1      29.975  26.645  25.905  1.00  0.00     0.163 HD
BRANCH   5   8
ATOM      8  C   UNL A   1      31.936  24.324  24.499  1.00  0.00     0.092 C 
ATOM      9  C   UNL A   1      32.800  25.330  23.719  1.00  0.00     0.027 C 
ATOM     10  C   UNL A   1      31.141  23.482  23.478  1.00  0.00     0.027 C 
BRANCH   8  11
ATOM     11  C   UNL A   1      32.854  23.348  25.338  1.00  0.00     0.278 C 
BRANCH  11  12
ATOM     12  N   UNL A   1      34.328  23.259  25.162  1.00  0.00    -0.333 N 
ATOM     13  C   UNL A   1      36.638  22.935  23.079  1.00  0.00     0.020 C 
ATOM     14  C   UNL A   1      36.271  21.968  24.210  1.00  0.00     0.099 C 
ATOM     15  C   UNL A   1      34.762  22.014  24.516  1.00  0.00     0.271 C 
ATOM     16  C   UNL A   1      37.030  22.213  25.527  1.00  0.00     0.194 C 
ATOM     17  C   UNL A   1      36.622  23.560  26.127  1.00  0.00     0.126 C 
ATOM     18  C   UNL A   1      35.109  23.593  26.353  1.00  0.00     0.268 C 
ATOM     19  H   UNL A   1      34.545  24.006  24.503  1.00  0.00     0.348 HD
BRANCH  16  20
ATOM     20  N   UNL A   1      38.485  22.125  25.386  1.00  0.00    -0.355 N 
ATOM     21  H   UNL A   1      38.931  22.735  26.070  1.00  0.00     0.344 HD
ATOM     22  H   UNL A   1      38.753  22.414  24.446  1.00  0.00     0.344 HD
ATOM     23  H   UNL A   1      38.783  21.162  25.543  1.00  0.00     0.344 HD
ENDBRANCH  16  20
ENDBRANCH  11  12
ENDBRANCH   8  11
ENDBRANCH   5   8
ENDBRANCH   3   4
ENDBRANCH   2   3
ENDBRANCH   1   2
BRANCH   1  24
ATOM     24  C   UNL A   1      31.431  29.027  25.681  1.00  0.00     0.002 C 
BRANCH  24  25
ATOM     25  C   UNL A   1      32.628  28.383  26.385  1.00  0.00     0.021 C 
BRANCH  25  26
ATOM     26  C   UNL A   1      33.937  29.144  26.222  1.00  0.00     0.116 C 
BRANCH  26  27
ATOM     27  N   UNL A   1      33.846  30.495  26.747  1.00  0.00    -0.352 N 
ATOM     28  C   UNL A   1      34.614  31.095  27.714  1.00  0.00     0.251 C 
ATOM     29  H   UNL A   1      33.137  31.055  26.358  1.00  0.00     0.163 HD
ATOM     30  O   UNL A   1      34.262  32.162  28.199  1.00  0.00    -0.269 OA
BRANCH  28  31
ATOM     31  C   UNL A   1      35.850  30.424  28.174  1.00  0.00     0.039 A 
ATOM     32  C   UNL A   1      37.027  30.607  27.449  1.00  0.00     0.014 A 
ATOM     33  C   UNL A   1      35.845  29.631  29.327  1.00  0.00     0.014 A 
ATOM     34  C   UNL A   1      38.214  30.035  27.910  1.00  0.00     0.010 A 
ATOM     35  C   UNL A   1      37.043  29.130  29.826  1.00  0.00     0.010 A 
ATOM     36  C   UNL A   1      38.239  29.319  29.119  1.00  0.00    -0.014 A 
BRANCH  36  37
ATOM     37  C   UNL A   1      39.506  28.753  29.649  1.00  0.00     0.031 A 
ATOM     38  C   UNL A   1      40.203  29.420  30.803  1.00  0.00     0.074 A 
ATOM     39  C   UNL A   1      40.052  27.670  29.059  1.00  0.00     0.049 A 
ATOM     40  N   UNL A   1      41.346  29.118  31.366  1.00  0.00    -0.248 NA
ATOM     41  C   UNL A   1      39.543  30.599  31.381  1.00  0.00     0.031 C 
ATOM     42  C   UNL A   1      39.485  26.959  27.910  1.00  0.00     0.029 A 
ATOM     43  N   UNL A   1      41.205  26.980  29.338  1.00  0.00    -0.354 N 
ATOM     44  C   UNL A   1      41.544  30.074  32.356  1.00  0.00     0.074 A 
ATOM     45  C   UNL A   1      40.438  31.003  32.270  1.00  0.00     0.031 C 
ATOM     46  C   UNL A   1      40.275  25.919  27.603  1.00  0.00     0.029 A 
ATOM     47  C   UNL A   1      41.432  25.917  28.494  1.00  0.00     0.049 A 
ATOM     48  H   UNL A   1      41.814  27.223  30.073  1.00  0.00     0.167 HD
ATOM     49  C   UNL A   1      42.545  30.156  33.269  1.00  0.00     0.034 A 
ATOM     50  C   UNL A   1      42.462  25.050  28.433  1.00  0.00     0.034 A 
ATOM     51  C   UNL A   1      43.637  29.215  33.344  1.00  0.00     0.049 A 
ATOM     52  C   UNL A   1      43.583  25.184  29.433  1.00  0.00     0.074 A 
ATOM     53  C   UNL A   1      44.674  29.171  34.258  1.00  0.00     0.029 A 
ATOM     54  N   UNL A   1      43.840  28.157  32.465  1.00  0.00    -0.354 N 
ATOM     55  N   UNL A   1      43.731  26.064  30.395  1.00  0.00    -0.248 NA
ATOM     56  C   UNL A   1      44.671  24.202  29.344  1.00  0.00     0.031 C 
ATOM     57  C   UNL A   1      45.546  28.144  33.884  1.00  0.00     0.029 A 
ATOM     58  C   UNL A   1      45.006  27.483  32.792  1.00  0.00     0.049 A 
ATOM     59  H   UNL A   1      43.243  27.922  31.718  1.00  0.00     0.167 HD
ATOM     60  C   UNL A   1      44.913  25.719  31.048  1.00  0.00     0.074 A 
ATOM     61  C   UNL A   1      45.426  24.542  30.378  1.00  0.00     0.031 C 
ATOM     62  C   UNL A   1      45.514  26.316  32.109  1.00  0.00     0.034 A 
BRANCH  49  63
ATOM     63  C   UNL A   1      42.516  31.317  34.235  1.00  0.00     0.023 A 
ATOM     64  C   UNL A   1      41.622  31.357  35.320  1.00  0.00     0.031 A 
ATOM     65  C   UNL A   1      43.381  32.411  34.058  1.00  0.00     0.131 A 
ATOM     66  C   UNL A   1      41.559  32.497  36.136  1.00  0.00     0.055 A 
ATOM     67  C   UNL A   1      43.376  33.504  34.927  1.00  0.00     0.041 A 
ATOM     68  F   UNL A   1      44.241  32.444  33.028  1.00  0.00    -0.206 F 
ATOM     69  C   UNL A   1      42.449  33.559  35.965  1.00  0.00     0.022 A 
BRANCH  66  70
ATOM     70  S   UNL A   1      40.198  32.635  37.327  1.00  0.00     0.124 S 
ATOM     71  O   UNL A   1      39.377  31.479  36.969  1.00  0.00    -0.237 OA
ATOM     72  O   UNL A   1      40.889  32.556  38.607  1.00  0.00    -0.237 OA
ATOM     73  O   UNL A   1      39.601  33.932  37.016  1.00  0.00    -0.744 OA
ENDBRANCH  66  70
ENDBRANCH  49  63
BRANCH  50  74
ATOM     74  C   UNL A   1      42.497  23.989  27.384  1.00  0.00     0.023 A 
ATOM     75  C   UNL A   1      41.872  22.747  27.586  1.00  0.00     0.031 A 
ATOM     76  C   UNL A   1      43.198  24.183  26.180  1.00  0.00     0.131 A 
ATOM     77  C   UNL A   1      42.005  21.732  26.626  1.00  0.00     0.055 A 
ATOM     78  C   UNL A   1      43.275  23.192  25.200  1.00  0.00     0.041 A 
ATOM     79  F   UNL A   1      43.814  25.351  25.933  1.00  0.00    -0.206 F 
ATOM     80  C   UNL A   1      42.688  21.951  25.427  1.00  0.00     0.022 A 
BRANCH  77  81
ATOM     81  S   UNL A   1      41.354  20.083  27.010  1.00  0.00     0.124 S 
ATOM     82  O   UNL A   1      40.812  20.285  28.348  1.00  0.00    -0.237 OA
ATOM     83  O   UNL A   1      40.378  19.887  25.944  1.00  0.00    -0.237 OA
ATOM     84  O   UNL A   1      42.536  19.226  26.938  1.00  0.00    -0.744 OA
ENDBRANCH  77  81
ENDBRANCH  50  74
BRANCH  62  85
ATOM     85  C   UNL A   1      46.774  25.672  32.639  1.00  0.00     0.023 A 
ATOM     86  C   UNL A   1      46.745  24.730  33.682  1.00  0.00     0.031 A 
ATOM     87  C   UNL A   1      48.024  26.015  32.094  1.00  0.00     0.131 A 
ATOM     88  C   UNL A   1      47.947  24.209  34.187  1.00  0.00     0.055 A 
ATOM     89  C   UNL A   1      49.210  25.441  32.553  1.00  0.00     0.041 A 
ATOM     90  F   UNL A   1      48.114  26.913  31.099  1.00  0.00    -0.206 F 
ATOM     91  C   UNL A   1      49.177  24.543  33.616  1.00  0.00     0.022 A 
BRANCH  88  92
ATOM     92  S   UNL A   1      47.889  23.168  35.670  1.00  0.00     0.124 S 
ATOM     93  O   UNL A   1      47.498  21.875  35.119  1.00  0.00    -0.237 OA
ATOM     94  O   UNL A   1      49.257  23.260  36.171  1.00  0.00    -0.237 OA
ATOM     95  O   UNL A   1      46.880  23.816  36.506  1.00  0.00    -0.744 OA
ENDBRANCH  88  92
ENDBRANCH  62  85
ENDBRANCH  36  37
ENDBRANCH  28  31
ENDBRANCH  26  27
ENDBRANCH  25  26
ENDBRANCH  24  25
ENDBRANCH   1  24
TORSDOF 19
ENDMDL
MODEL 2
REMARK VINA RESULT:     -10.4      2.392      3.471
REMARK SMILES C[C@@H]1C[N@@H+](CC(C)(C)C(=O)NCCCCCCNC(=O)c2ccc(-c3c4nc(c(-c5cc(S(=O)(=O)[O-])ccc5F)c5ccc([nH]5)c(-c5cc(S(=O)(=O)[O-])ccc5F)c5nc(c(-c6cc(S(=O)(=O)[O-])ccc6F)c6ccc3[nH]6)C=C5)C=C4)cc2)CC[C@@H]1[NH3+]
REMARK SMILES IDX 14 1 13 2 12 3 11 4 9 5 10 6 6 8 7 9 8 10 5 11 4 12 1 13
REMARK SMILES IDX 2 14 3 15 86 16 85 17 84 18 87 20 15 24 16 25 17 26 18 27
REMARK SMILES IDX 19 28 20 30 21 31 22 32 83 33 23 34 82 35 24 36 25 37 26 38
REMARK SMILES IDX 76 39 27 40 81 41 75 42 77 43 28 44 80 45 74 46 73 47 29 49
REMARK SMILES IDX 61 50 41 51 60 52 42 53 45 54 59 55 78 56 43 57 44 58 58 60
REMARK SMILES IDX 79 61 46 62 30 63 31 64 39 65 32 66 38 67 40 68 37 69 33 70
REMARK SMILES IDX 34 71 35 72 36 73 62 74 63 75 71 76 64 77 70 78 72 79 69 80
REMARK SMILES IDX 65 81 66 82 67 83 68 84 47 85 48 86 56 87 49 88 55 89 57 90
REMARK SMILES IDX 54 91 50 92 51 93 52 94 53 95
REMARK H PARENT 11 7 4 19 87 21 87 22 87 23 18 29 77 48 45 59
REMARK Flexibility Score: inf
ROOT
ATOM      1  C   UNL A   1      32.727  29.583  27.042  1.00  0.00     0.002 C 
ENDROOT
BRANCH   1   2
ATOM      2  C   UNL A   1      32.799  28.119  26.595  1.00  0.00     0.021 C 
BRANCH   2   3
ATOM      3  C   UNL A   1      31.436  27.463  26.389  1.00  0.00     0.116 C 
BRANCH   3   4
ATOM      4  N   UNL A   1      31.465  26.108  26.890  1.00  0.00    -0.355 N 
ATOM      5  C   UNL A   1      31.065  24.959  26.293  1.00  0.00     0.231 C 
ATOM      6  O   UNL A   1      30.584  24.109  27.051  1.00  0.00    -0.274 OA
ATOM      7  H   UNL A   1      31.831  26.005  27.798  1.00  0.00     0.163 HD
BRANCH   5   8
ATOM      8  C   UNL A   1      31.151  24.739  24.772  1.00  0.00     0.092 C 
ATOM      9  C   UNL A   1      30.105  25.498  23.938  1.00  0.00     0.027 C 
ATOM     10  C   UNL A   1      30.939  23.226  24.548  1.00  0.00     0.027 C 
BRANCH   8  11
ATOM     11  C   UNL A   1      32.611  25.111  24.292  1.00  0.00     0.278 C 
BRANCH  11  12
ATOM     12  N   UNL A   1      33.779  24.203  24.448  1.00  0.00    -0.333 N 
ATOM     13  C   UNL A   1      35.183  22.149  26.342  1.00  0.00     0.020 C 
ATOM     14  C   UNL A   1      35.735  23.499  25.871  1.00  0.00     0.099 C 
ATOM     15  C   UNL A   1      34.600  24.511  25.626  1.00  0.00     0.271 C 
ATOM     16  C   UNL A   1      36.589  23.425  24.592  1.00  0.00     0.194 C 
ATOM     17  C   UNL A   1      35.720  23.013  23.402  1.00  0.00     0.126 C 
ATOM     18  C   UNL A   1      34.567  24.003  23.232  1.00  0.00     0.268 C 
ATOM     19  H   UNL A   1      33.361  23.291  24.629  1.00  0.00     0.348 HD
BRANCH  16  20
ATOM     20  N   UNL A   1      37.751  22.543  24.719  1.00  0.00    -0.355 N 
ATOM     21  H   UNL A   1      37.480  21.691  25.208  1.00  0.00     0.344 HD
ATOM     22  H   UNL A   1      38.484  23.019  25.245  1.00  0.00     0.344 HD
ATOM     23  H   UNL A   1      38.101  22.306  23.790  1.00  0.00     0.344 HD
ENDBRANCH  16  20
ENDBRANCH  11  12
ENDBRANCH   8  11
ENDBRANCH   5   8
ENDBRANCH   3   4
ENDBRANCH   2   3
ENDBRANCH   1   2
BRANCH   1  24
ATOM     24  C   UNL A   1      31.687  30.430  26.304  1.00  0.00     0.002 C 
BRANCH  24  25
ATOM     25  C   UNL A   1      31.616  31.892  26.751  1.00  0.00     0.021 C 
BRANCH  25  26
ATOM     26  C   UNL A   1      32.939  32.462  27.247  1.00  0.00     0.116 C 
BRANCH  26  27
ATOM     27  N   UNL A   1      32.802  33.837  27.689  1.00  0.00    -0.352 N 
ATOM     28  C   UNL A   1      33.455  34.480  28.711  1.00  0.00     0.251 C 
ATOM     29  H   UNL A   1      32.153  34.383  27.189  1.00  0.00     0.163 HD
ATOM     30  O   UNL A   1      33.062  35.573  29.097  1.00  0.00    -0.269 OA
BRANCH  28  31
ATOM     31  C   UNL A   1      34.617  33.826  29.352  1.00  0.00     0.039 A 
ATOM     32  C   UNL A   1      34.392  32.832  30.304  1.00  0.00     0.014 A 
ATOM     33  C   UNL A   1      35.923  34.186  29.000  1.00  0.00     0.014 A 
ATOM     34  C   UNL A   1      35.479  32.160  30.867  1.00  0.00     0.010 A 
ATOM     35  C   UNL A   1      36.999  33.461  29.502  1.00  0.00     0.010 A 
ATOM     36  C   UNL A   1      36.789  32.446  30.448  1.00  0.00    -0.014 A 
BRANCH  36  37
ATOM     37  C   UNL A   1      37.951  31.700  30.998  1.00  0.00     0.031 A 
ATOM     38  C   UNL A   1      38.495  32.051  32.355  1.00  0.00     0.074 A 
ATOM     39  C   UNL A   1      38.542  30.743  30.255  1.00  0.00     0.049 A 
ATOM     40  N   UNL A   1      39.537  31.563  32.980  1.00  0.00    -0.248 NA
ATOM     41  C   UNL A   1      37.795  33.112  33.094  1.00  0.00     0.031 C 
ATOM     42  C   UNL A   1      38.124  30.340  28.910  1.00  0.00     0.029 A 
ATOM     43  N   UNL A   1      39.623  29.940  30.519  1.00  0.00    -0.354 N 
ATOM     44  C   UNL A   1      39.621  32.263  34.180  1.00  0.00     0.074 A 
ATOM     45  C   UNL A   1      38.566  33.253  34.161  1.00  0.00     0.031 C 
ATOM     46  C   UNL A   1      38.919  29.347  28.481  1.00  0.00     0.029 A 
ATOM     47  C   UNL A   1      39.936  29.078  29.493  1.00  0.00     0.049 A 
ATOM     48  H   UNL A   1      40.128  29.976  31.363  1.00  0.00     0.167 HD
ATOM     49  C   UNL A   1      40.483  32.079  35.211  1.00  0.00     0.034 A 
ATOM     50  C   UNL A   1      40.938  28.184  29.372  1.00  0.00     0.034 A 
ATOM     51  C   UNL A   1      41.525  31.080  35.213  1.00  0.00     0.049 A 
ATOM     52  C   UNL A   1      41.909  28.025  30.516  1.00  0.00     0.074 A 
ATOM     53  C   UNL A   1      42.420  30.773  36.222  1.00  0.00     0.029 A 
ATOM     54  N   UNL A   1      41.819  30.233  34.151  1.00  0.00    -0.354 N 
ATOM     55  N   UNL A   1      41.944  28.661  31.664  1.00  0.00    -0.248 NA
ATOM     56  C   UNL A   1      42.969  27.023  30.350  1.00  0.00     0.031 C 
ATOM     57  C   UNL A   1      43.305  29.802  35.743  1.00  0.00     0.029 A 
ATOM     58  C   UNL A   1      42.906  29.434  34.468  1.00  0.00     0.049 A 
ATOM     59  H   UNL A   1      41.328  30.206  33.298  1.00  0.00     0.167 HD
ATOM     60  C   UNL A   1      43.010  28.107  32.372  1.00  0.00     0.074 A 
ATOM     61  C   UNL A   1      43.579  27.079  31.525  1.00  0.00     0.031 C 
ATOM     62  C   UNL A   1      43.472  28.418  33.610  1.00  0.00     0.034 A 
BRANCH  49  63
ATOM     63  C   UNL A   1      40.351  32.998  36.404  1.00  0.00     0.023 A 
ATOM     64  C   UNL A   1      39.594  32.642  37.533  1.00  0.00     0.031 A 
ATOM     65  C   UNL A   1      40.975  34.258  36.403  1.00  0.00     0.131 A 
ATOM     66  C   UNL A   1      39.416  33.562  38.577  1.00  0.00     0.055 A 
ATOM     67  C   UNL A   1      40.868  35.135  37.485  1.00  0.00     0.041 A 
ATOM     68  F   UNL A   1      41.693  34.666  35.344  1.00  0.00    -0.206 F 
ATOM     69  C   UNL A   1      40.071  34.795  38.575  1.00  0.00     0.022 A 
BRANCH  66  70
ATOM     70  S   UNL A   1      38.195  33.185  39.865  1.00  0.00     0.124 S 
ATOM     71  O   UNL A   1      38.201  34.421  40.646  1.00  0.00    -0.237 OA
ATOM     72  O   UNL A   1      36.989  32.923  39.090  1.00  0.00    -0.237 OA
ATOM     73  O   UNL A   1      38.765  32.025  40.547  1.00  0.00    -0.744 OA
ENDBRANCH  66  70
ENDBRANCH  49  63
BRANCH  50  74
ATOM     74  C   UNL A   1      41.091  27.381  28.124  1.00  0.00     0.023 A 
ATOM     75  C   UNL A   1      40.805  26.007  28.105  1.00  0.00     0.031 A 
ATOM     76  C   UNL A   1      41.571  27.968  26.939  1.00  0.00     0.131 A 
ATOM     77  C   UNL A   1      41.053  25.255  26.946  1.00  0.00     0.055 A 
ATOM     78  C   UNL A   1      41.756  27.230  25.769  1.00  0.00     0.041 A 
ATOM     79  F   UNL A   1      41.859  29.280  26.898  1.00  0.00    -0.206 F 
ATOM     80  C   UNL A   1      41.510  25.860  25.773  1.00  0.00     0.022 A 
BRANCH  77  81
ATOM     81  S   UNL A   1      40.860  23.453  27.021  1.00  0.00     0.124 S 
ATOM     82  O   UNL A   1      41.637  23.025  25.864  1.00  0.00    -0.237 OA
ATOM     83  O   UNL A   1      41.429  23.142  28.328  1.00  0.00    -0.237 OA
ATOM     84  O   UNL A   1      39.415  23.261  26.910  1.00  0.00    -0.744 OA
ENDBRANCH  77  81
ENDBRANCH  50  74
BRANCH  62  85
ATOM     85  C   UNL A   1      44.624  27.597  34.141  1.00  0.00     0.023 A 
ATOM     86  C   UNL A   1      44.419  26.405  34.858  1.00  0.00     0.031 A 
ATOM     87  C   UNL A   1      45.948  28.022  33.932  1.00  0.00     0.131 A 
ATOM     88  C   UNL A   1      45.518  25.712  35.391  1.00  0.00     0.055 A 
ATOM     89  C   UNL A   1      47.040  27.291  34.403  1.00  0.00     0.041 A 
ATOM     90  F   UNL A   1      46.205  29.155  33.258  1.00  0.00    -0.206 F 
ATOM     91  C   UNL A   1      46.826  26.136  35.150  1.00  0.00     0.022 A 
BRANCH  88  92
ATOM     92  S   UNL A   1      45.208  24.305  36.491  1.00  0.00     0.124 S 
ATOM     93  O   UNL A   1      46.560  23.822  36.754  1.00  0.00    -0.237 OA
ATOM     94  O   UNL A   1      44.526  24.933  37.618  1.00  0.00    -0.237 OA
ATOM     95  O   UNL A   1      44.378  23.413  35.684  1.00  0.00    -0.744 OA
ENDBRANCH  88  92
ENDBRANCH  62  85
ENDBRANCH  36  37
ENDBRANCH  28  31
ENDBRANCH  26  27
ENDBRANCH  25  26
ENDBRANCH  24  25
ENDBRANCH   1  24
TORSDOF 19
ENDMDL
MODEL 3
REMARK VINA RESULT:     -10.4      4.517      9.848
REMARK SMILES C[C@@H]1C[N@@H+](CC(C)(C)C(=O)NCCCCCCNC(=O)c2ccc(-c3c4nc(c(-c5cc(S(=O)(=O)[O-])ccc5F)c5ccc([nH]5)c(-c5cc(S(=O)(=O)[O-])ccc5F)c5nc(c(-c6cc(S(=O)(=O)[O-])ccc6F)c6ccc3[nH]6)C=C5)C=C4)cc2)CC[C@@H]1[NH3+]
REMARK SMILES IDX 14 1 13 2 12 3 11 4 9 5 10 6 6 8 7 9 8 10 5 11 4 12 1 13
REMARK SMILES IDX 2 14 3 15 86 16 85 17 84 18 87 20 15 24 16 25 17 26 18 27
REMARK SMILES IDX 19 28 20 30 21 31 22 32 83 33 23 34 82 35 24 36 25 37 26 38
REMARK SMILES IDX 76 39 27 40 81 41 75 42 77 43 28 44 80 45 74 46 73 47 29 49
REMARK SMILES IDX 61 50 41 51 60 52 42 53 45 54 59 55 78 56 43 57 44 58 58 60
REMARK SMILES IDX 79 61 46 62 30 63 31 64 39 65 32 66 38 67 40 68 37 69 33 70
REMARK SMILES IDX 34 71 35 72 36 73 62 74 63 75 71 76 64 77 70 78 72 79 69 80
REMARK SMILES IDX 65 81 66 82 67 83 68 84 47 85 48 86 56 87 49 88 55 89 57 90
REMARK SMILES IDX 54 91 50 92 51 93 52 94 53 95
REMARK H PARENT 11 7 4 19 87 21 87 22 87 23 18 29 77 48 45 59
REMARK Flexibility Score: inf
ROOT
ATOM      1  C   UNL A   1      34.794  21.130  24.900  1.00  0.00     0.002 C 
ENDROOT
BRANCH   1   2
ATOM      2  C   UNL A   1      33.531  21.131  25.768  1.00  0.00     0.021 C 
BRANCH   2   3
ATOM      3  C   UNL A   1      32.232  21.278  24.978  1.00  0.00     0.116 C 
BRANCH   3   4
ATOM      4  N   UNL A   1      31.238  21.939  25.791  1.00  0.00    -0.355 N 
ATOM      5  C   UNL A   1      31.187  23.226  26.214  1.00  0.00     0.231 C 
ATOM      6  O   UNL A   1      30.688  23.396  27.332  1.00  0.00    -0.274 OA
ATOM      7  H   UNL A   1      30.487  21.373  26.079  1.00  0.00     0.163 HD
BRANCH   5   8
ATOM      8  C   UNL A   1      31.755  24.395  25.389  1.00  0.00     0.092 C 
ATOM      9  C   UNL A   1      31.972  24.100  23.895  1.00  0.00     0.027 C 
ATOM     10  C   UNL A   1      33.125  24.732  26.017  1.00  0.00     0.027 C 
BRANCH   8  11
ATOM     11  C   UNL A   1      30.806  25.646  25.569  1.00  0.00     0.278 C 
BRANCH  11  12
ATOM     12  N   UNL A   1      30.773  26.790  24.620  1.00  0.00    -0.333 N 
ATOM     13  C   UNL A   1      32.506  28.935  23.144  1.00  0.00     0.020 C 
ATOM     14  C   UNL A   1      31.402  29.190  24.178  1.00  0.00     0.099 C 
ATOM     15  C   UNL A   1      31.309  28.033  25.191  1.00  0.00     0.271 C 
ATOM     16  C   UNL A   1      30.003  29.405  23.573  1.00  0.00     0.194 C 
ATOM     17  C   UNL A   1      29.513  28.117  22.908  1.00  0.00     0.126 C 
ATOM     18  C   UNL A   1      29.498  26.977  23.927  1.00  0.00     0.268 C 
ATOM     19  H   UNL A   1      31.422  26.519  23.882  1.00  0.00     0.348 HD
BRANCH  16  20
ATOM     20  N   UNL A   1      29.939  30.531  22.640  1.00  0.00    -0.355 N 
ATOM     21  H   UNL A   1      29.003  30.587  22.238  1.00  0.00     0.344 HD
ATOM     22  H   UNL A   1      30.622  30.395  21.895  1.00  0.00     0.344 HD
ATOM     23  H   UNL A   1      30.148  31.397  23.137  1.00  0.00     0.344 HD
ENDBRANCH  16  20
ENDBRANCH  11  12
ENDBRANCH   8  11
ENDBRANCH   5   8
ENDBRANCH   3   4
ENDBRANCH   2   3
ENDBRANCH   1   2
BRANCH   1  24
ATOM     24  C   UNL A   1      34.999  22.395  24.062  1.00  0.00     0.002 C 
BRANCH  24  25
ATOM     25  C   UNL A   1      36.400  23.003  24.152  1.00  0.00     0.021 C 
BRANCH  25  26
ATOM     26  C   UNL A   1      36.895  23.231  25.574  1.00  0.00     0.116 C 
BRANCH  26  27
ATOM     27  N   UNL A   1      37.947  22.299  25.936  1.00  0.00    -0.352 N 
ATOM     28  C   UNL A   1      39.198  22.565  26.434  1.00  0.00     0.251 C 
ATOM     29  H   UNL A   1      37.735  21.347  25.805  1.00  0.00     0.163 HD
ATOM     30  O   UNL A   1      40.043  21.680  26.474  1.00  0.00    -0.269 OA
BRANCH  28  31
ATOM     31  C   UNL A   1      39.516  23.934  26.896  1.00  0.00     0.039 A 
ATOM     32  C   UNL A   1      39.308  24.260  28.236  1.00  0.00     0.014 A 
ATOM     33  C   UNL A   1      40.031  24.886  26.009  1.00  0.00     0.014 A 
ATOM     34  C   UNL A   1      39.665  25.527  28.700  1.00  0.00     0.010 A 
ATOM     35  C   UNL A   1      40.460  26.119  26.490  1.00  0.00     0.010 A 
ATOM     36  C   UNL A   1      40.274  26.456  27.839  1.00  0.00    -0.014 A 
BRANCH  36  37
ATOM     37  C   UNL A   1      40.711  27.788  28.333  1.00  0.00     0.031 A 
ATOM     38  C   UNL A   1      42.177  28.094  28.473  1.00  0.00     0.074 A 
ATOM     39  C   UNL A   1      39.788  28.699  28.700  1.00  0.00     0.049 A 
ATOM     40  N   UNL A   1      42.756  29.169  28.944  1.00  0.00    -0.248 NA
ATOM     41  C   UNL A   1      43.115  27.041  28.057  1.00  0.00     0.031 C 
ATOM     42  C   UNL A   1      38.337  28.502  28.642  1.00  0.00     0.029 A 
ATOM     43  N   UNL A   1      39.928  29.969  29.200  1.00  0.00    -0.354 N 
ATOM     44  C   UNL A   1      44.123  28.918  28.889  1.00  0.00     0.074 A 
ATOM     45  C   UNL A   1      44.281  27.564  28.403  1.00  0.00     0.031 C 
ATOM     46  C   UNL A   1      37.724  29.620  29.059  1.00  0.00     0.029 A 
ATOM     47  C   UNL A   1      38.732  30.595  29.466  1.00  0.00     0.049 A 
ATOM     48  H   UNL A   1      40.803  30.394  29.354  1.00  0.00     0.167 HD
ATOM     49  C   UNL A   1      45.152  29.749  29.193  1.00  0.00     0.034 A 
ATOM     50  C   UNL A   1      38.475  31.808  29.994  1.00  0.00     0.034 A 
ATOM     51  C   UNL A   1      44.974  31.100  29.669  1.00  0.00     0.049 A 
ATOM     52  C   UNL A   1      39.635  32.700  30.362  1.00  0.00     0.074 A 
ATOM     53  C   UNL A   1      45.942  32.045  29.958  1.00  0.00     0.029 A 
ATOM     54  N   UNL A   1      43.746  31.695  29.938  1.00  0.00    -0.354 N 
ATOM     55  N   UNL A   1      40.922  32.466  30.256  1.00  0.00    -0.248 NA
ATOM     56  C   UNL A   1      39.306  34.022  30.910  1.00  0.00     0.031 C 
ATOM     57  C   UNL A   1      45.308  33.178  30.479  1.00  0.00     0.029 A 
ATOM     58  C   UNL A   1      43.937  32.978  30.427  1.00  0.00     0.049 A 
ATOM     59  H   UNL A   1      42.870  31.268  29.802  1.00  0.00     0.167 HD
ATOM     60  C   UNL A   1      41.556  33.628  30.694  1.00  0.00     0.074 A 
ATOM     61  C   UNL A   1      40.508  34.562  31.047  1.00  0.00     0.031 C 
ATOM     62  C   UNL A   1      42.883  33.899  30.788  1.00  0.00     0.034 A 
BRANCH  49  63
ATOM     63  C   UNL A   1      46.555  29.207  29.046  1.00  0.00     0.023 A 
ATOM     64  C   UNL A   1      47.202  29.154  27.799  1.00  0.00     0.031 A 
ATOM     65  C   UNL A   1      47.248  28.716  30.166  1.00  0.00     0.131 A 
ATOM     66  C   UNL A   1      48.466  28.553  27.689  1.00  0.00     0.055 A 
ATOM     67  C   UNL A   1      48.542  28.201  30.065  1.00  0.00     0.041 A 
ATOM     68  F   UNL A   1      46.675  28.716  31.380  1.00  0.00    -0.206 F 
ATOM     69  C   UNL A   1      49.152  28.102  28.818  1.00  0.00     0.022 A 
BRANCH  66  70
ATOM     70  S   UNL A   1      49.131  28.234  26.032  1.00  0.00     0.124 S 
ATOM     71  O   UNL A   1      47.956  28.466  25.195  1.00  0.00    -0.237 OA
ATOM     72  O   UNL A   1      50.198  29.221  25.925  1.00  0.00    -0.237 OA
ATOM     73  O   UNL A   1      49.571  26.842  26.103  1.00  0.00    -0.744 OA
ENDBRANCH  66  70
ENDBRANCH  49  63
BRANCH  50  74
ATOM     74  C   UNL A   1      37.069  32.251  30.225  1.00  0.00     0.023 A 
ATOM     75  C   UNL A   1      36.337  32.901  29.217  1.00  0.00     0.031 A 
ATOM     76  C   UNL A   1      36.449  32.073  31.475  1.00  0.00     0.131 A 
ATOM     77  C   UNL A   1      35.053  33.396  29.492  1.00  0.00     0.055 A 
ATOM     78  C   UNL A   1      35.147  32.511  31.725  1.00  0.00     0.041 A 
ATOM     79  F   UNL A   1      37.100  31.457  32.475  1.00  0.00    -0.206 F 
ATOM     80  C   UNL A   1      34.446  33.191  30.733  1.00  0.00     0.022 A 
BRANCH  77  81
ATOM     81  S   UNL A   1      34.222  34.401  28.231  1.00  0.00     0.124 S 
ATOM     82  O   UNL A   1      35.239  34.468  27.189  1.00  0.00    -0.237 OA
ATOM     83  O   UNL A   1      33.044  33.594  27.929  1.00  0.00    -0.237 OA
ATOM     84  O   UNL A   1      33.953  35.660  28.924  1.00  0.00    -0.744 OA
ENDBRANCH  77  81
ENDBRANCH  50  74
BRANCH  62  85
ATOM     85  C   UNL A   1      43.273  35.283  31.249  1.00  0.00     0.023 A 
ATOM     86  C   UNL A   1      43.516  36.328  30.341  1.00  0.00     0.031 A 
ATOM     87  C   UNL A   1      43.411  35.556  32.621  1.00  0.00     0.131 A 
ATOM     88  C   UNL A   1      43.941  37.580  30.813  1.00  0.00     0.055 A 
ATOM     89  C   UNL A   1      43.766  36.823  33.089  1.00  0.00     0.041 A 
ATOM     90  F   UNL A   1      43.197  34.596  33.536  1.00  0.00    -0.206 F 
ATOM     91  C   UNL A   1      44.048  37.839  32.181  1.00  0.00     0.022 A 
BRANCH  88  92
ATOM     92  S   UNL A   1      44.455  38.836  29.610  1.00  0.00     0.124 S 
ATOM     93  O   UNL A   1      45.749  39.253  30.140  1.00  0.00    -0.237 OA
ATOM     94  O   UNL A   1      44.492  38.078  28.363  1.00  0.00    -0.237 OA
ATOM     95  O   UNL A   1      43.398  39.842  29.691  1.00  0.00    -0.744 OA
ENDBRANCH  88  92
ENDBRANCH  62  85
ENDBRANCH  36  37
ENDBRANCH  28  31
ENDBRANCH  26  27
ENDBRANCH  25  26
ENDBRANCH  24  25
ENDBRANCH   1  24
TORSDOF 19
ENDMDL
