MODEL 1
REMARK VINA RESULT:     -11.3      0.000      0.000
REMARK SMILES Cc1cc(C(=O)N[C@](C)(C(=O)NCCCCCCNC(=O)c2ccc(-c3c4nc(c(-c5cc(S(=O)(=O)[O-])ccc5F)c5ccc([nH]5)c(-c5cc(S(=O)(=O)[O-])ccc5F)c5nc(c(-c6cc(S(=O)(=O)[O-])ccc6F)c6ccc3[nH]6)C=C5)C=C4)cc2)C(F)(F)F)no1
REMARK SMILES IDX 16 1 15 2 14 3 13 4 12 5 10 6 11 7 8 9 9 10 7 11 5 12 6 13
REMARK SMILES IDX 4 15 1 16 2 17 3 18 90 19 89 20 85 21 86 22 87 23 88 24
REMARK SMILES IDX 17 25 18 26 19 27 20 28 21 30 22 31 23 32 84 33 24 34 83 35
REMARK SMILES IDX 25 36 26 37 27 38 77 39 28 40 82 41 76 42 78 43 29 44 81 45
REMARK SMILES IDX 75 46 74 47 30 49 62 50 42 51 61 52 43 53 46 54 60 55 79 56
REMARK SMILES IDX 44 57 45 58 59 60 80 61 47 62 31 63 32 64 40 65 33 66 39 67
REMARK SMILES IDX 41 68 38 69 34 70 35 71 36 72 37 73 63 74 64 75 72 76 65 77
REMARK SMILES IDX 71 78 73 79 70 80 66 81 67 82 68 83 69 84 48 85 49 86 57 87
REMARK SMILES IDX 50 88 56 89 58 90 55 91 51 92 52 93 53 94 54 95
REMARK H PARENT 12 8 7 14 19 29 78 48 46 59
REMARK Flexibility Score: inf
ROOT
ATOM      1  C   UNL A   1      35.112  23.057  23.853  1.00  0.00     0.002 C 
ENDROOT
BRANCH   1   2
ATOM      2  C   UNL A   1      34.012  23.186  22.796  1.00  0.00     0.002 C 
BRANCH   2   3
ATOM      3  C   UNL A   1      32.579  23.067  23.331  1.00  0.00     0.021 C 
BRANCH   3   4
ATOM      4  C   UNL A   1      31.732  24.318  23.115  1.00  0.00     0.116 C 
BRANCH   4   5
ATOM      5  N   UNL A   1      32.516  25.360  22.472  1.00  0.00    -0.354 N 
ATOM      6  C   UNL A   1      32.888  26.596  22.913  1.00  0.00     0.254 C 
ATOM      7  O   UNL A   1      33.524  27.287  22.113  1.00  0.00    -0.272 OA
ATOM      8  H   UNL A   1      32.831  25.137  21.566  1.00  0.00     0.163 HD
BRANCH   6   9
ATOM      9  C   UNL A   1      32.436  27.131  24.281  1.00  0.00     0.212 C 
ATOM     10  C   UNL A   1      32.853  28.626  24.332  1.00  0.00     0.056 C 
BRANCH   9  11
ATOM     11  N   UNL A   1      30.955  27.050  24.533  1.00  0.00    -0.329 N 
ATOM     12  C   UNL A   1      29.891  27.384  23.712  1.00  0.00     0.274 C 
ATOM     13  O   UNL A   1      28.924  26.623  23.732  1.00  0.00    -0.267 OA
ATOM     14  H   UNL A   1      30.703  26.707  25.420  1.00  0.00     0.165 HD
BRANCH  12  15
ATOM     15  C   UNL A   1      29.850  28.688  23.052  1.00  0.00     0.171 A 
ATOM     16  C   UNL A   1      28.622  31.972  22.016  1.00  0.00     0.091 C 
ATOM     17  C   UNL A   1      29.280  30.699  22.354  1.00  0.00     0.134 A 
ATOM     18  C   UNL A   1      29.407  29.957  23.503  1.00  0.00     0.082 A 
ATOM     19  O   UNL A   1      29.847  30.021  21.326  1.00  0.00    -0.361 OA
ATOM     20  N   UNL A   1      30.216  28.765  21.759  1.00  0.00    -0.074 NA
ENDBRANCH  12  15
ENDBRANCH   9  11
BRANCH   9  21
ATOM     21  C   UNL A   1      33.226  26.381  25.377  1.00  0.00     0.420 C 
ATOM     22  F   UNL A   1      32.606  25.271  25.830  1.00  0.00    -0.168 F 
ATOM     23  F   UNL A   1      34.422  25.970  24.873  1.00  0.00    -0.168 F 
ATOM     24  F   UNL A   1      33.507  27.172  26.436  1.00  0.00    -0.168 F 
ENDBRANCH   9  21
ENDBRANCH   6   9
ENDBRANCH   4   5
ENDBRANCH   3   4
ENDBRANCH   2   3
ENDBRANCH   1   2
BRANCH   1  25
ATOM     25  C   UNL A   1      34.651  22.597  25.234  1.00  0.00     0.021 C 
BRANCH  25  26
ATOM     26  C   UNL A   1      35.772  22.355  26.233  1.00  0.00     0.116 C 
BRANCH  26  27
ATOM     27  N   UNL A   1      36.704  21.329  25.795  1.00  0.00    -0.352 N 
ATOM     28  C   UNL A   1      38.073  21.400  25.721  1.00  0.00     0.251 C 
ATOM     29  H   UNL A   1      36.302  20.474  25.516  1.00  0.00     0.163 HD
ATOM     30  O   UNL A   1      38.714  20.492  25.201  1.00  0.00    -0.269 OA
BRANCH  28  31
ATOM     31  C   UNL A   1      38.754  22.605  26.241  1.00  0.00     0.039 A 
ATOM     32  C   UNL A   1      39.902  22.452  27.019  1.00  0.00     0.014 A 
ATOM     33  C   UNL A   1      38.287  23.879  25.909  1.00  0.00     0.014 A 
ATOM     34  C   UNL A   1      40.621  23.582  27.412  1.00  0.00     0.010 A 
ATOM     35  C   UNL A   1      39.047  24.998  26.235  1.00  0.00     0.010 A 
ATOM     36  C   UNL A   1      40.220  24.861  26.993  1.00  0.00    -0.014 A 
BRANCH  36  37
ATOM     37  C   UNL A   1      41.004  26.072  27.352  1.00  0.00     0.031 A 
ATOM     38  C   UNL A   1      40.360  27.165  28.161  1.00  0.00     0.074 A 
ATOM     39  C   UNL A   1      42.269  26.210  26.905  1.00  0.00     0.049 A 
ATOM     40  N   UNL A   1      40.838  28.331  28.509  1.00  0.00    -0.248 NA
ATOM     41  C   UNL A   1      38.979  26.924  28.610  1.00  0.00     0.031 C 
ATOM     42  C   UNL A   1      42.986  25.234  26.083  1.00  0.00     0.029 A 
ATOM     43  N   UNL A   1      43.174  27.228  27.074  1.00  0.00    -0.354 N 
ATOM     44  C   UNL A   1      39.818  28.966  29.208  1.00  0.00     0.074 A 
ATOM     45  C   UNL A   1      38.672  28.083  29.171  1.00  0.00     0.031 C 
ATOM     46  C   UNL A   1      44.229  25.686  25.847  1.00  0.00     0.029 A 
ATOM     47  C   UNL A   1      44.382  27.003  26.455  1.00  0.00     0.049 A 
ATOM     48  H   UNL A   1      42.977  28.043  27.589  1.00  0.00     0.167 HD
ATOM     49  C   UNL A   1      39.844  30.162  29.848  1.00  0.00     0.034 A 
ATOM     50  C   UNL A   1      45.484  27.777  26.381  1.00  0.00     0.034 A 
ATOM     51  C   UNL A   1      41.000  31.023  29.887  1.00  0.00     0.049 A 
ATOM     52  C   UNL A   1      45.476  29.119  27.072  1.00  0.00     0.074 A 
ATOM     53  C   UNL A   1      41.150  32.236  30.536  1.00  0.00     0.029 A 
ATOM     54  N   UNL A   1      42.207  30.762  29.248  1.00  0.00    -0.354 N 
ATOM     55  N   UNL A   1      44.515  29.687  27.764  1.00  0.00    -0.248 NA
ATOM     56  C   UNL A   1      46.706  29.918  26.983  1.00  0.00     0.031 C 
ATOM     57  C   UNL A   1      42.422  32.738  30.238  1.00  0.00     0.029 A 
ATOM     58  C   UNL A   1      43.095  31.804  29.466  1.00  0.00     0.049 A 
ATOM     59  H   UNL A   1      42.401  29.957  28.718  1.00  0.00     0.167 HD
ATOM     60  C   UNL A   1      45.041  30.892  28.223  1.00  0.00     0.074 A 
ATOM     61  C   UNL A   1      46.405  30.960  27.741  1.00  0.00     0.031 C 
ATOM     62  C   UNL A   1      44.452  31.855  28.977  1.00  0.00     0.034 A 
BRANCH  49  63
ATOM     63  C   UNL A   1      38.577  30.607  30.539  1.00  0.00     0.023 A 
ATOM     64  C   UNL A   1      37.558  31.284  29.847  1.00  0.00     0.031 A 
ATOM     65  C   UNL A   1      38.395  30.375  31.914  1.00  0.00     0.131 A 
ATOM     66  C   UNL A   1      36.441  31.770  30.541  1.00  0.00     0.055 A 
ATOM     67  C   UNL A   1      37.241  30.788  32.583  1.00  0.00     0.041 A 
ATOM     68  F   UNL A   1      39.342  29.755  32.635  1.00  0.00    -0.206 F 
ATOM     69  C   UNL A   1      36.261  31.503  31.900  1.00  0.00     0.022 A 
BRANCH  66  70
ATOM     70  S   UNL A   1      35.296  32.878  29.673  1.00  0.00     0.124 S 
ATOM     71  O   UNL A   1      36.218  33.691  28.883  1.00  0.00    -0.237 OA
ATOM     72  O   UNL A   1      34.463  31.946  28.922  1.00  0.00    -0.237 OA
ATOM     73  O   UNL A   1      34.620  33.589  30.755  1.00  0.00    -0.744 OA
ENDBRANCH  66  70
ENDBRANCH  49  63
BRANCH  50  74
ATOM     74  C   UNL A   1      46.687  27.322  25.624  1.00  0.00     0.023 A 
ATOM     75  C   UNL A   1      46.966  27.828  24.344  1.00  0.00     0.031 A 
ATOM     76  C   UNL A   1      47.540  26.330  26.139  1.00  0.00     0.131 A 
ATOM     77  C   UNL A   1      48.030  27.298  23.597  1.00  0.00     0.055 A 
ATOM     78  C   UNL A   1      48.633  25.849  25.416  1.00  0.00     0.041 A 
ATOM     79  F   UNL A   1      47.322  25.812  27.358  1.00  0.00    -0.206 F 
ATOM     80  C   UNL A   1      48.873  26.321  24.129  1.00  0.00     0.022 A 
BRANCH  77  81
ATOM     81  S   UNL A   1      48.226  27.827  21.873  1.00  0.00     0.124 S 
ATOM     82  O   UNL A   1      47.016  28.614  21.665  1.00  0.00    -0.237 OA
ATOM     83  O   UNL A   1      49.477  28.574  21.926  1.00  0.00    -0.237 OA
ATOM     84  O   UNL A   1      48.285  26.567  21.136  1.00  0.00    -0.744 OA
ENDBRANCH  77  81
ENDBRANCH  50  74
BRANCH  62  85
ATOM     85  C   UNL A   1      45.306  33.036  29.369  1.00  0.00     0.023 A 
ATOM     86  C   UNL A   1      45.357  34.206  28.591  1.00  0.00     0.031 A 
ATOM     87  C   UNL A   1      46.090  32.983  30.536  1.00  0.00     0.131 A 
ATOM     88  C   UNL A   1      46.217  35.251  28.958  1.00  0.00     0.055 A 
ATOM     89  C   UNL A   1      46.896  34.051  30.929  1.00  0.00     0.041 A 
ATOM     90  F   UNL A   1      46.080  31.890  31.316  1.00  0.00    -0.206 F 
ATOM     91  C   UNL A   1      46.974  35.189  30.131  1.00  0.00     0.022 A 
BRANCH  88  92
ATOM     92  S   UNL A   1      46.404  36.661  27.831  1.00  0.00     0.124 S 
ATOM     93  O   UNL A   1      45.281  36.471  26.919  1.00  0.00    -0.237 OA
ATOM     94  O   UNL A   1      46.303  37.800  28.737  1.00  0.00    -0.237 OA
ATOM     95  O   UNL A   1      47.725  36.454  27.241  1.00  0.00    -0.744 OA
ENDBRANCH  88  92
ENDBRANCH  62  85
ENDBRANCH  36  37
ENDBRANCH  28  31
ENDBRANCH  26  27
ENDBRANCH  25  26
ENDBRANCH   1  25
TORSDOF 19
ENDMDL
MODEL 2
REMARK VINA RESULT:     -11.2      5.075      7.699
REMARK SMILES Cc1cc(C(=O)N[C@](C)(C(=O)NCCCCCCNC(=O)c2ccc(-c3c4nc(c(-c5cc(S(=O)(=O)[O-])ccc5F)c5ccc([nH]5)c(-c5cc(S(=O)(=O)[O-])ccc5F)c5nc(c(-c6cc(S(=O)(=O)[O-])ccc6F)c6ccc3[nH]6)C=C5)C=C4)cc2)C(F)(F)F)no1
REMARK SMILES IDX 16 1 15 2 14 3 13 4 12 5 10 6 11 7 8 9 9 10 7 11 5 12 6 13
REMARK SMILES IDX 4 15 1 16 2 17 3 18 90 19 89 20 85 21 86 22 87 23 88 24
REMARK SMILES IDX 17 25 18 26 19 27 20 28 21 30 22 31 23 32 84 33 24 34 83 35
REMARK SMILES IDX 25 36 26 37 27 38 77 39 28 40 82 41 76 42 78 43 29 44 81 45
REMARK SMILES IDX 75 46 74 47 30 49 62 50 42 51 61 52 43 53 46 54 60 55 79 56
REMARK SMILES IDX 44 57 45 58 59 60 80 61 47 62 31 63 32 64 40 65 33 66 39 67
REMARK SMILES IDX 41 68 38 69 34 70 35 71 36 72 37 73 63 74 64 75 72 76 65 77
REMARK SMILES IDX 71 78 73 79 70 80 66 81 67 82 68 83 69 84 48 85 49 86 57 87
REMARK SMILES IDX 50 88 56 89 58 90 55 91 51 92 52 93 53 94 54 95
REMARK H PARENT 12 8 7 14 19 29 78 48 46 59
REMARK Flexibility Score: inf
ROOT
ATOM      1  C   UNL A   1      30.882  29.460  24.401  1.00  0.00     0.002 C 
ENDROOT
BRANCH   1   2
ATOM      2  C   UNL A   1      30.488  28.781  23.087  1.00  0.00     0.002 C 
BRANCH   2   3
ATOM      3  C   UNL A   1      29.514  27.604  23.229  1.00  0.00     0.021 C 
BRANCH   3   4
ATOM      4  C   UNL A   1      30.195  26.272  23.530  1.00  0.00     0.116 C 
BRANCH   4   5
ATOM      5  N   UNL A   1      29.976  25.888  24.915  1.00  0.00    -0.354 N 
ATOM      6  C   UNL A   1      30.711  25.096  25.747  1.00  0.00     0.254 C 
ATOM      7  O   UNL A   1      30.243  24.913  26.873  1.00  0.00    -0.272 OA
ATOM      8  H   UNL A   1      29.160  26.261  25.320  1.00  0.00     0.163 HD
BRANCH   6   9
ATOM      9  C   UNL A   1      31.984  24.385  25.262  1.00  0.00     0.212 C 
ATOM     10  C   UNL A   1      32.274  23.250  26.283  1.00  0.00     0.056 C 
BRANCH   9  11
ATOM     11  N   UNL A   1      31.882  23.768  23.894  1.00  0.00    -0.329 N 
ATOM     12  C   UNL A   1      32.553  22.684  23.352  1.00  0.00     0.274 C 
ATOM     13  O   UNL A   1      31.887  21.923  22.651  1.00  0.00    -0.267 OA
ATOM     14  H   UNL A   1      31.239  24.202  23.290  1.00  0.00     0.165 HD
BRANCH  12  15
ATOM     15  C   UNL A   1      34.010  22.602  23.435  1.00  0.00     0.171 A 
ATOM     16  C   UNL A   1      37.356  22.359  24.890  1.00  0.00     0.091 C 
ATOM     17  C   UNL A   1      36.092  22.429  24.137  1.00  0.00     0.134 A 
ATOM     18  C   UNL A   1      34.863  21.828  24.262  1.00  0.00     0.082 A 
ATOM     19  O   UNL A   1      36.044  23.326  23.121  1.00  0.00    -0.361 OA
ATOM     20  N   UNL A   1      34.745  23.430  22.670  1.00  0.00    -0.074 NA
ENDBRANCH  12  15
ENDBRANCH   9  11
BRANCH   9  21
ATOM     21  C   UNL A   1      33.155  25.392  25.329  1.00  0.00     0.420 C 
ATOM     22  F   UNL A   1      34.328  24.837  25.702  1.00  0.00    -0.168 F 
ATOM     23  F   UNL A   1      33.363  25.928  24.095  1.00  0.00    -0.168 F 
ATOM     24  F   UNL A   1      32.893  26.427  26.158  1.00  0.00    -0.168 F 
ENDBRANCH   9  21
ENDBRANCH   6   9
ENDBRANCH   4   5
ENDBRANCH   3   4
ENDBRANCH   2   3
ENDBRANCH   1   2
BRANCH   1  25
ATOM     25  C   UNL A   1      32.376  29.463  24.720  1.00  0.00     0.021 C 
BRANCH  25  26
ATOM     26  C   UNL A   1      32.718  29.797  26.164  1.00  0.00     0.116 C 
BRANCH  26  27
ATOM     27  N   UNL A   1      32.516  31.202  26.480  1.00  0.00    -0.352 N 
ATOM     28  C   UNL A   1      33.274  32.008  27.294  1.00  0.00     0.251 C 
ATOM     29  H   UNL A   1      31.737  31.631  26.056  1.00  0.00     0.163 HD
ATOM     30  O   UNL A   1      32.896  33.142  27.568  1.00  0.00    -0.269 OA
BRANCH  28  31
ATOM     31  C   UNL A   1      34.527  31.469  27.863  1.00  0.00     0.039 A 
ATOM     32  C   UNL A   1      35.621  32.322  28.022  1.00  0.00     0.014 A 
ATOM     33  C   UNL A   1      34.597  30.140  28.289  1.00  0.00     0.014 A 
ATOM     34  C   UNL A   1      36.766  31.856  28.670  1.00  0.00     0.010 A 
ATOM     35  C   UNL A   1      35.708  29.703  29.003  1.00  0.00     0.010 A 
ATOM     36  C   UNL A   1      36.806  30.555  29.198  1.00  0.00    -0.014 A 
BRANCH  36  37
ATOM     37  C   UNL A   1      37.993  30.060  29.942  1.00  0.00     0.031 A 
ATOM     38  C   UNL A   1      38.262  30.561  31.335  1.00  0.00     0.074 A 
ATOM     39  C   UNL A   1      38.852  29.208  29.347  1.00  0.00     0.049 A 
ATOM     40  N   UNL A   1      39.279  30.320  32.122  1.00  0.00    -0.248 NA
ATOM     41  C   UNL A   1      37.267  31.484  31.906  1.00  0.00     0.031 C 
ATOM     42  C   UNL A   1      38.715  28.681  27.988  1.00  0.00     0.029 A 
ATOM     43  N   UNL A   1      40.013  28.639  29.806  1.00  0.00    -0.354 N 
ATOM     44  C   UNL A   1      39.052  31.065  33.273  1.00  0.00     0.074 A 
ATOM     45  C   UNL A   1      37.838  31.822  33.052  1.00  0.00     0.031 C 
ATOM     46  C   UNL A   1      39.734  27.843  27.735  1.00  0.00     0.029 A 
ATOM     47  C   UNL A   1      40.623  27.809  28.892  1.00  0.00     0.049 A 
ATOM     48  H   UNL A   1      40.377  28.808  30.705  1.00  0.00     0.167 HD
ATOM     49  C   UNL A   1      39.774  31.094  34.421  1.00  0.00     0.034 A 
ATOM     50  C   UNL A   1      41.773  27.110  28.976  1.00  0.00     0.034 A 
ATOM     51  C   UNL A   1      40.974  30.322  34.631  1.00  0.00     0.049 A 
ATOM     52  C   UNL A   1      42.575  27.185  30.252  1.00  0.00     0.074 A 
ATOM     53  C   UNL A   1      41.762  30.245  35.766  1.00  0.00     0.029 A 
ATOM     54  N   UNL A   1      41.562  29.494  33.682  1.00  0.00    -0.354 N 
ATOM     55  N   UNL A   1      42.325  27.864  31.348  1.00  0.00    -0.248 NA
ATOM     56  C   UNL A   1      43.810  26.390  30.306  1.00  0.00     0.031 C 
ATOM     57  C   UNL A   1      42.858  29.423  35.483  1.00  0.00     0.029 A 
ATOM     58  C   UNL A   1      42.716  28.924  34.198  1.00  0.00     0.049 A 
ATOM     59  H   UNL A   1      41.211  29.336  32.777  1.00  0.00     0.167 HD
ATOM     60  C   UNL A   1      43.352  27.546  32.233  1.00  0.00     0.074 A 
ATOM     61  C   UNL A   1      44.213  26.605  31.549  1.00  0.00     0.031 C 
ATOM     62  C   UNL A   1      43.563  27.988  33.499  1.00  0.00     0.034 A 
BRANCH  49  63
ATOM     63  C   UNL A   1      39.286  32.002  35.526  1.00  0.00     0.023 A 
ATOM     64  C   UNL A   1      39.699  33.343  35.613  1.00  0.00     0.031 A 
ATOM     65  C   UNL A   1      38.418  31.516  36.519  1.00  0.00     0.131 A 
ATOM     66  C   UNL A   1      39.306  34.128  36.707  1.00  0.00     0.055 A 
ATOM     67  C   UNL A   1      37.962  32.327  37.559  1.00  0.00     0.041 A 
ATOM     68  F   UNL A   1      38.008  30.238  36.503  1.00  0.00    -0.206 F 
ATOM     69  C   UNL A   1      38.417  33.638  37.666  1.00  0.00     0.022 A 
BRANCH  66  70
ATOM     70  S   UNL A   1      40.083  35.751  36.932  1.00  0.00     0.124 S 
ATOM     71  O   UNL A   1      39.654  36.452  35.723  1.00  0.00    -0.237 OA
ATOM     72  O   UNL A   1      39.493  36.215  38.182  1.00  0.00    -0.237 OA
ATOM     73  O   UNL A   1      41.510  35.443  36.991  1.00  0.00    -0.744 OA
ENDBRANCH  66  70
ENDBRANCH  49  63
BRANCH  50  74
ATOM     74  C   UNL A   1      42.249  26.283  27.829  1.00  0.00     0.023 A 
ATOM     75  C   UNL A   1      41.803  24.962  27.660  1.00  0.00     0.031 A 
ATOM     76  C   UNL A   1      43.203  26.775  26.922  1.00  0.00     0.131 A 
ATOM     77  C   UNL A   1      42.354  24.159  26.649  1.00  0.00     0.055 A 
ATOM     78  C   UNL A   1      43.704  25.992  25.880  1.00  0.00     0.041 A 
ATOM     79  F   UNL A   1      43.664  28.031  27.034  1.00  0.00    -0.206 F 
ATOM     80  C   UNL A   1      43.292  24.669  25.750  1.00  0.00     0.022 A 
BRANCH  77  81
ATOM     81  S   UNL A   1      41.908  22.402  26.597  1.00  0.00     0.124 S 
ATOM     82  O   UNL A   1      42.582  21.961  25.381  1.00  0.00    -0.237 OA
ATOM     83  O   UNL A   1      42.464  21.912  27.854  1.00  0.00    -0.237 OA
ATOM     84  O   UNL A   1      40.449  22.424  26.530  1.00  0.00    -0.744 OA
ENDBRANCH  77  81
ENDBRANCH  50  74
BRANCH  62  85
ATOM     85  C   UNL A   1      44.745  27.410  34.238  1.00  0.00     0.023 A 
ATOM     86  C   UNL A   1      44.657  26.202  34.951  1.00  0.00     0.031 A 
ATOM     87  C   UNL A   1      45.978  28.088  34.235  1.00  0.00     0.131 A 
ATOM     88  C   UNL A   1      45.762  25.739  35.681  1.00  0.00     0.055 A 
ATOM     89  C   UNL A   1      47.092  27.590  34.910  1.00  0.00     0.041 A 
ATOM     90  F   UNL A   1      46.119  29.246  33.571  1.00  0.00    -0.206 F 
ATOM     91  C   UNL A   1      46.985  26.415  35.650  1.00  0.00     0.022 A 
BRANCH  88  92
ATOM     92  S   UNL A   1      45.556  24.285  36.745  1.00  0.00     0.124 S 
ATOM     93  O   UNL A   1      44.455  23.584  36.091  1.00  0.00    -0.237 OA
ATOM     94  O   UNL A   1      46.863  23.643  36.653  1.00  0.00    -0.237 OA
ATOM     95  O   UNL A   1      45.238  24.858  38.051  1.00  0.00    -0.744 OA
ENDBRANCH  88  92
ENDBRANCH  62  85
ENDBRANCH  36  37
ENDBRANCH  28  31
ENDBRANCH  26  27
ENDBRANCH  25  26
ENDBRANCH   1  25
TORSDOF 19
ENDMDL
MODEL 3
REMARK VINA RESULT:     -11.1      5.711     10.352
REMARK SMILES Cc1cc(C(=O)N[C@](C)(C(=O)NCCCCCCNC(=O)c2ccc(-c3c4nc(c(-c5cc(S(=O)(=O)[O-])ccc5F)c5ccc([nH]5)c(-c5cc(S(=O)(=O)[O-])ccc5F)c5nc(c(-c6cc(S(=O)(=O)[O-])ccc6F)c6ccc3[nH]6)C=C5)C=C4)cc2)C(F)(F)F)no1
REMARK SMILES IDX 16 1 15 2 14 3 13 4 12 5 10 6 11 7 8 9 9 10 7 11 5 12 6 13
REMARK SMILES IDX 4 15 1 16 2 17 3 18 90 19 89 20 85 21 86 22 87 23 88 24
REMARK SMILES IDX 17 25 18 26 19 27 20 28 21 30 22 31 23 32 84 33 24 34 83 35
REMARK SMILES IDX 25 36 26 37 27 38 77 39 28 40 82 41 76 42 78 43 29 44 81 45
REMARK SMILES IDX 75 46 74 47 30 49 62 50 42 51 61 52 43 53 46 54 60 55 79 56
REMARK SMILES IDX 44 57 45 58 59 60 80 61 47 62 31 63 32 64 40 65 33 66 39 67
REMARK SMILES IDX 41 68 38 69 34 70 35 71 36 72 37 73 63 74 64 75 72 76 65 77
REMARK SMILES IDX 71 78 73 79 70 80 66 81 67 82 68 83 69 84 48 85 49 86 57 87
REMARK SMILES IDX 50 88 56 89 58 90 55 91 51 92 52 93 53 94 54 95
REMARK H PARENT 12 8 7 14 19 29 78 48 46 59
REMARK Flexibility Score: inf
ROOT
ATOM      1  C   UNL A   1      32.166  30.392  26.256  1.00  0.00     0.002 C 
ENDROOT
BRANCH   1   2
ATOM      2  C   UNL A   1      32.643  29.182  27.065  1.00  0.00     0.002 C 
BRANCH   2   3
ATOM      3  C   UNL A   1      33.951  28.547  26.576  1.00  0.00     0.021 C 
BRANCH   3   4
ATOM      4  C   UNL A   1      33.806  27.095  26.130  1.00  0.00     0.116 C 
BRANCH   4   5
ATOM      5  N   UNL A   1      32.407  26.699  26.129  1.00  0.00    -0.354 N 
ATOM      6  C   UNL A   1      31.632  26.168  25.142  1.00  0.00     0.254 C 
ATOM      7  O   UNL A   1      30.447  25.975  25.427  1.00  0.00    -0.272 OA
ATOM      8  H   UNL A   1      31.940  26.838  26.986  1.00  0.00     0.163 HD
BRANCH   6   9
ATOM      9  C   UNL A   1      32.181  25.939  23.725  1.00  0.00     0.212 C 
ATOM     10  C   UNL A   1      30.980  25.480  22.852  1.00  0.00     0.056 C 
BRANCH   9  11
ATOM     11  N   UNL A   1      32.791  27.152  23.079  1.00  0.00    -0.329 N 
ATOM     12  C   UNL A   1      32.424  28.485  23.159  1.00  0.00     0.274 C 
ATOM     13  O   UNL A   1      33.340  29.302  23.241  1.00  0.00    -0.267 OA
ATOM     14  H   UNL A   1      33.573  26.971  22.510  1.00  0.00     0.165 HD
BRANCH  12  15
ATOM     15  C   UNL A   1      31.037  28.883  22.923  1.00  0.00     0.171 A 
ATOM     16  C   UNL A   1      27.384  28.859  23.093  1.00  0.00     0.091 C 
ATOM     17  C   UNL A   1      28.839  29.036  22.939  1.00  0.00     0.134 A 
ATOM     18  C   UNL A   1      29.915  28.938  23.788  1.00  0.00     0.082 A 
ATOM     19  O   UNL A   1      29.287  29.284  21.684  1.00  0.00    -0.361 OA
ATOM     20  N   UNL A   1      30.664  29.200  21.670  1.00  0.00    -0.074 NA
ENDBRANCH  12  15
ENDBRANCH   9  11
BRANCH   9  21
ATOM     21  C   UNL A   1      33.195  24.774  23.783  1.00  0.00     0.420 C 
ATOM     22  F   UNL A   1      34.481  25.177  23.860  1.00  0.00    -0.168 F 
ATOM     23  F   UNL A   1      32.964  24.027  24.898  1.00  0.00    -0.168 F 
ATOM     24  F   UNL A   1      33.074  23.937  22.729  1.00  0.00    -0.168 F 
ENDBRANCH   9  21
ENDBRANCH   6   9
ENDBRANCH   4   5
ENDBRANCH   3   4
ENDBRANCH   2   3
ENDBRANCH   1   2
BRANCH   1  25
ATOM     25  C   UNL A   1      31.863  31.650  27.067  1.00  0.00     0.021 C 
BRANCH  25  26
ATOM     26  C   UNL A   1      33.080  32.498  27.406  1.00  0.00     0.116 C 
BRANCH  26  27
ATOM     27  N   UNL A   1      32.739  33.884  27.685  1.00  0.00    -0.352 N 
ATOM     28  C   UNL A   1      33.262  34.709  28.650  1.00  0.00     0.251 C 
ATOM     29  H   UNL A   1      32.047  34.281  27.108  1.00  0.00     0.163 HD
ATOM     30  O   UNL A   1      32.774  35.817  28.849  1.00  0.00    -0.269 OA
BRANCH  28  31
ATOM     31  C   UNL A   1      34.391  34.222  29.470  1.00  0.00     0.039 A 
ATOM     32  C   UNL A   1      34.125  33.427  30.587  1.00  0.00     0.014 A 
ATOM     33  C   UNL A   1      35.709  34.505  29.099  1.00  0.00     0.014 A 
ATOM     34  C   UNL A   1      35.186  32.862  31.296  1.00  0.00     0.010 A 
ATOM     35  C   UNL A   1      36.760  33.877  29.759  1.00  0.00     0.010 A 
ATOM     36  C   UNL A   1      36.510  33.052  30.867  1.00  0.00    -0.014 A 
BRANCH  36  37
ATOM     37  C   UNL A   1      37.650  32.411  31.573  1.00  0.00     0.031 A 
ATOM     38  C   UNL A   1      38.398  31.285  30.912  1.00  0.00     0.074 A 
ATOM     39  C   UNL A   1      37.973  32.803  32.822  1.00  0.00     0.049 A 
ATOM     40  N   UNL A   1      39.363  30.540  31.385  1.00  0.00    -0.248 NA
ATOM     41  C   UNL A   1      37.980  30.930  29.546  1.00  0.00     0.031 C 
ATOM     42  C   UNL A   1      37.297  33.859  33.578  1.00  0.00     0.029 A 
ATOM     43  N   UNL A   1      38.948  32.357  33.678  1.00  0.00    -0.354 N 
ATOM     44  C   UNL A   1      39.662  29.625  30.382  1.00  0.00     0.074 A 
ATOM     45  C   UNL A   1      38.725  29.862  29.305  1.00  0.00     0.031 C 
ATOM     46  C   UNL A   1      37.897  33.999  34.772  1.00  0.00     0.029 A 
ATOM     47  C   UNL A   1      38.967  33.013  34.888  1.00  0.00     0.049 A 
ATOM     48  H   UNL A   1      39.575  31.634  33.449  1.00  0.00     0.167 HD
ATOM     49  C   UNL A   1      40.645  28.691  30.351  1.00  0.00     0.034 A 
ATOM     50  C   UNL A   1      39.751  32.833  35.970  1.00  0.00     0.034 A 
ATOM     51  C   UNL A   1      41.580  28.477  31.429  1.00  0.00     0.049 A 
ATOM     52  C   UNL A   1      40.816  31.764  35.922  1.00  0.00     0.074 A 
ATOM     53  C   UNL A   1      42.637  27.587  31.488  1.00  0.00     0.029 A 
ATOM     54  N   UNL A   1      41.567  29.161  32.638  1.00  0.00    -0.354 N 
ATOM     55  N   UNL A   1      41.111  30.933  34.949  1.00  0.00    -0.248 NA
ATOM     56  C   UNL A   1      41.661  31.618  37.115  1.00  0.00     0.031 C 
ATOM     57  C   UNL A   1      43.224  27.687  32.755  1.00  0.00     0.029 A 
ATOM     58  C   UNL A   1      42.582  28.693  33.459  1.00  0.00     0.049 A 
ATOM     59  H   UNL A   1      40.931  29.872  32.878  1.00  0.00     0.167 HD
ATOM     60  C   UNL A   1      42.201  30.193  35.401  1.00  0.00     0.074 A 
ATOM     61  C   UNL A   1      42.517  30.687  36.725  1.00  0.00     0.031 C 
ATOM     62  C   UNL A   1      42.882  29.198  34.778  1.00  0.00     0.034 A 
BRANCH  49  63
ATOM     63  C   UNL A   1      40.743  27.826  29.117  1.00  0.00     0.023 A 
ATOM     64  C   UNL A   1      41.659  28.110  28.089  1.00  0.00     0.031 A 
ATOM     65  C   UNL A   1      39.893  26.718  28.951  1.00  0.00     0.131 A 
ATOM     66  C   UNL A   1      41.654  27.346  26.913  1.00  0.00     0.055 A 
ATOM     67  C   UNL A   1      39.951  25.910  27.814  1.00  0.00     0.041 A 
ATOM     68  F   UNL A   1      38.981  26.410  29.886  1.00  0.00    -0.206 F 
ATOM     69  C   UNL A   1      40.825  26.230  26.780  1.00  0.00     0.022 A 
BRANCH  66  70
ATOM     70  S   UNL A   1      42.646  27.916  25.505  1.00  0.00     0.124 S 
ATOM     71  O   UNL A   1      42.694  26.714  24.676  1.00  0.00    -0.237 OA
ATOM     72  O   UNL A   1      41.850  29.021  24.984  1.00  0.00    -0.237 OA
ATOM     73  O   UNL A   1      43.919  28.296  26.114  1.00  0.00    -0.744 OA
ENDBRANCH  66  70
ENDBRANCH  49  63
BRANCH  50  74
ATOM     74  C   UNL A   1      39.568  33.666  37.193  1.00  0.00     0.023 A 
ATOM     75  C   UNL A   1      40.410  34.760  37.452  1.00  0.00     0.031 A 
ATOM     76  C   UNL A   1      38.592  33.347  38.154  1.00  0.00     0.131 A 
ATOM     77  C   UNL A   1      40.303  35.456  38.667  1.00  0.00     0.055 A 
ATOM     78  C   UNL A   1      38.449  34.080  39.333  1.00  0.00     0.041 A 
ATOM     79  F   UNL A   1      37.758  32.313  37.958  1.00  0.00    -0.206 F 
ATOM     80  C   UNL A   1      39.320  35.132  39.603  1.00  0.00     0.022 A 
BRANCH  77  81
ATOM     81  S   UNL A   1      41.543  36.722  39.052  1.00  0.00     0.124 S 
ATOM     82  O   UNL A   1      42.422  36.638  37.892  1.00  0.00    -0.237 OA
ATOM     83  O   UNL A   1      40.725  37.926  39.153  1.00  0.00    -0.237 OA
ATOM     84  O   UNL A   1      42.123  36.257  40.310  1.00  0.00    -0.744 OA
ENDBRANCH  77  81
ENDBRANCH  50  74
BRANCH  62  85
ATOM     85  C   UNL A   1      44.070  28.620  35.508  1.00  0.00     0.023 A 
ATOM     86  C   UNL A   1      43.935  27.566  36.428  1.00  0.00     0.031 A 
ATOM     87  C   UNL A   1      45.357  29.142  35.283  1.00  0.00     0.131 A 
ATOM     88  C   UNL A   1      45.058  27.107  37.133  1.00  0.00     0.055 A 
ATOM     89  C   UNL A   1      46.479  28.639  35.941  1.00  0.00     0.041 A 
ATOM     90  F   UNL A   1      45.544  30.149  34.415  1.00  0.00    -0.206 F 
ATOM     91  C   UNL A   1      46.332  27.624  36.883  1.00  0.00     0.022 A 
BRANCH  88  92
ATOM     92  S   UNL A   1      44.818  25.884  38.451  1.00  0.00     0.124 S 
ATOM     93  O   UNL A   1      46.191  25.594  38.850  1.00  0.00    -0.237 OA
ATOM     94  O   UNL A   1      44.015  26.623  39.420  1.00  0.00    -0.237 OA
ATOM     95  O   UNL A   1      44.122  24.788  37.778  1.00  0.00    -0.744 OA
ENDBRANCH  88  92
ENDBRANCH  62  85
ENDBRANCH  36  37
ENDBRANCH  28  31
ENDBRANCH  26  27
ENDBRANCH  25  26
ENDBRANCH   1  25
TORSDOF 19
ENDMDL
