MODEL 1
REMARK VINA RESULT:     -10.7      0.000      0.000
REMARK SMILES CCc1ccsc1CNC(=O)N1[C@H]2CC[C@@H]1[C@H](C(=O)NCCCCCCNC(=O)c1ccc(-c3c4nc(c(-c5cc(S(=O)(=O)[O-])ccc5F)c5ccc([nH]5)c(-c5cc(S(=O)(=O)[O-])ccc5F)c5nc(c(-c6cc(S(=O)(=O)[O-])ccc6F)c6ccc3[nH]6)C=C5)C=C4)cc1)C2
REMARK SMILES IDX 23 1 22 2 21 3 20 4 18 5 19 6 17 8 12 9 13 10 16 11 14 12
REMARK SMILES IDX 93 13 15 14 10 15 9 16 11 18 8 19 7 20 3 21 4 22 5 23 6 24
REMARK SMILES IDX 2 25 1 26 24 27 25 28 26 29 27 30 28 31 29 33 30 34 31 35
REMARK SMILES IDX 92 36 32 37 91 38 33 39 34 40 35 41 85 42 36 43 90 44 84 45
REMARK SMILES IDX 86 46 37 47 89 48 83 49 82 50 38 52 70 53 50 54 69 55 51 56
REMARK SMILES IDX 54 57 68 58 87 59 52 60 53 61 67 63 88 64 55 65 39 66 40 67
REMARK SMILES IDX 48 68 41 69 47 70 49 71 46 72 42 73 43 74 44 75 45 76 71 77
REMARK SMILES IDX 72 78 80 79 73 80 79 81 81 82 78 83 74 84 75 85 76 86 77 87
REMARK SMILES IDX 56 88 57 89 65 90 58 91 64 92 66 93 63 94 59 95 60 96 61 97
REMARK SMILES IDX 62 98
REMARK H PARENT 20 7 9 17 27 32 86 51 54 62
REMARK Flexibility Score: inf
ROOT
ATOM      1  C   UNL A   1      34.753  31.358  28.563  1.00  0.00     0.002 C 
ENDROOT
BRANCH   1   2
ATOM      2  C   UNL A   1      35.212  30.219  27.653  1.00  0.00     0.021 C 
BRANCH   2   3
ATOM      3  C   UNL A   1      34.072  29.349  27.130  1.00  0.00     0.116 C 
BRANCH   3   4
ATOM      4  N   UNL A   1      33.855  29.586  25.724  1.00  0.00    -0.356 N 
ATOM      5  C   UNL A   1      33.427  28.787  24.723  1.00  0.00     0.225 C 
ATOM      6  O   UNL A   1      33.499  29.269  23.585  1.00  0.00    -0.275 OA
ATOM      7  H   UNL A   1      34.058  30.507  25.440  1.00  0.00     0.163 HD
BRANCH   5   8
ATOM      8  C   UNL A   1      32.881  27.383  24.897  1.00  0.00     0.103 C 
ATOM      9  N   UNL A   1      31.367  25.765  25.293  1.00  0.00    -0.318 N 
ATOM     10  C   UNL A   1      31.738  25.519  23.911  1.00  0.00     0.088 C 
ATOM     11  C   UNL A   1      31.406  27.217  25.305  1.00  0.00     0.099 C 
ATOM     12  C   UNL A   1      30.651  26.335  23.192  1.00  0.00     0.027 C 
ATOM     13  C   UNL A   1      33.082  26.276  23.835  1.00  0.00     0.040 C 
ATOM     14  C   UNL A   1      30.410  27.504  24.175  1.00  0.00     0.028 C 
BRANCH   9  15
ATOM     15  C   UNL A   1      30.686  25.010  26.181  1.00  0.00     0.318 C 
ATOM     16  N   UNL A   1      31.334  24.007  26.816  1.00  0.00    -0.333 N 
ATOM     17  H   UNL A   1      30.758  23.339  27.253  1.00  0.00     0.165 HD
ATOM     18  O   UNL A   1      29.521  25.248  26.497  1.00  0.00    -0.249 OA
BRANCH  16  19
ATOM     19  C   UNL A   1      32.753  23.780  26.939  1.00  0.00     0.165 C 
BRANCH  19  20
ATOM     20  C   UNL A   1      33.274  22.795  25.924  1.00  0.00     0.027 A 
ATOM     21  C   UNL A   1      34.602  22.562  25.577  1.00  0.00    -0.033 A 
ATOM     22  C   UNL A   1      34.712  21.480  24.642  1.00  0.00     0.016 A 
ATOM     23  C   UNL A   1      33.497  20.923  24.324  1.00  0.00     0.065 A 
ATOM     24  S   UNL A   1      32.218  21.686  25.144  1.00  0.00    -0.147 S 
BRANCH  21  25
ATOM     25  C   UNL A   1      35.785  23.323  26.109  1.00  0.00     0.033 C 
ATOM     26  C   UNL A   1      36.796  23.683  25.029  1.00  0.00     0.009 C 
ENDBRANCH  21  25
ENDBRANCH  19  20
ENDBRANCH  16  19
ENDBRANCH   9  15
ENDBRANCH   5   8
ENDBRANCH   3   4
ENDBRANCH   2   3
ENDBRANCH   1   2
BRANCH   1  27
ATOM     27  C   UNL A   1      34.908  32.760  27.962  1.00  0.00     0.002 C 
BRANCH  27  28
ATOM     28  C   UNL A   1      33.656  33.640  28.026  1.00  0.00     0.021 C 
BRANCH  28  29
ATOM     29  C   UNL A   1      33.920  35.105  28.365  1.00  0.00     0.116 C 
BRANCH  29  30
ATOM     30  N   UNL A   1      33.227  35.508  29.576  1.00  0.00    -0.352 N 
ATOM     31  C   UNL A   1      33.382  35.054  30.861  1.00  0.00     0.251 C 
ATOM     32  H   UNL A   1      32.548  36.211  29.458  1.00  0.00     0.163 HD
ATOM     33  O   UNL A   1      32.538  35.325  31.708  1.00  0.00    -0.269 OA
BRANCH  31  34
ATOM     34  C   UNL A   1      34.559  34.230  31.211  1.00  0.00     0.039 A 
ATOM     35  C   UNL A   1      35.835  34.712  30.916  1.00  0.00     0.014 A 
ATOM     36  C   UNL A   1      34.398  32.978  31.811  1.00  0.00     0.014 A 
ATOM     37  C   UNL A   1      36.956  33.958  31.270  1.00  0.00     0.010 A 
ATOM     38  C   UNL A   1      35.517  32.261  32.225  1.00  0.00     0.010 A 
ATOM     39  C   UNL A   1      36.806  32.740  31.952  1.00  0.00    -0.014 A 
BRANCH  39  40
ATOM     40  C   UNL A   1      37.986  31.943  32.373  1.00  0.00     0.031 A 
ATOM     41  C   UNL A   1      38.666  32.244  33.681  1.00  0.00     0.074 A 
ATOM     42  C   UNL A   1      38.478  30.994  31.555  1.00  0.00     0.049 A 
ATOM     43  N   UNL A   1      39.753  31.725  34.190  1.00  0.00    -0.248 NA
ATOM     44  C   UNL A   1      38.052  33.291  34.512  1.00  0.00     0.031 C 
ATOM     45  C   UNL A   1      37.921  30.633  30.249  1.00  0.00     0.029 A 
ATOM     46  N   UNL A   1      39.561  30.163  31.692  1.00  0.00    -0.354 N 
ATOM     47  C   UNL A   1      39.962  32.387  35.395  1.00  0.00     0.074 A 
ATOM     48  C   UNL A   1      38.924  33.392  35.503  1.00  0.00     0.031 C 
ATOM     49  C   UNL A   1      38.651  29.638  29.720  1.00  0.00     0.029 A 
ATOM     50  C   UNL A   1      39.753  29.323  30.621  1.00  0.00     0.049 A 
ATOM     51  H   UNL A   1      40.147  30.169  32.484  1.00  0.00     0.167 HD
ATOM     52  C   UNL A   1      40.914  32.162  36.335  1.00  0.00     0.034 A 
ATOM     53  C   UNL A   1      40.716  28.408  30.389  1.00  0.00     0.034 A 
ATOM     54  C   UNL A   1      41.937  31.152  36.209  1.00  0.00     0.049 A 
ATOM     55  C   UNL A   1      41.790  28.204  31.426  1.00  0.00     0.074 A 
ATOM     56  C   UNL A   1      42.927  30.809  37.114  1.00  0.00     0.029 A 
ATOM     57  N   UNL A   1      42.108  30.326  35.105  1.00  0.00    -0.354 N 
ATOM     58  N   UNL A   1      41.953  28.813  32.579  1.00  0.00    -0.248 NA
ATOM     59  C   UNL A   1      42.804  27.182  31.136  1.00  0.00     0.031 C 
ATOM     60  C   UNL A   1      43.733  29.823  36.531  1.00  0.00     0.029 A 
ATOM     61  C   UNL A   1      43.202  29.496  35.293  1.00  0.00     0.049 A 
ATOM     62  H   UNL A   1      41.534  30.329  34.305  1.00  0.00     0.167 HD
ATOM     63  C   UNL A   1      43.070  28.223  33.164  1.00  0.00     0.074 A 
ATOM     64  C   UNL A   1      43.532  27.205  32.242  1.00  0.00     0.031 C 
ATOM     65  C   UNL A   1      43.657  28.493  34.358  1.00  0.00     0.034 A 
BRANCH  52  66
ATOM     66  C   UNL A   1      40.898  33.046  37.560  1.00  0.00     0.023 A 
ATOM     67  C   UNL A   1      40.184  32.686  38.719  1.00  0.00     0.031 A 
ATOM     68  C   UNL A   1      41.565  34.283  37.560  1.00  0.00     0.131 A 
ATOM     69  C   UNL A   1      40.080  33.588  39.787  1.00  0.00     0.055 A 
ATOM     70  C   UNL A   1      41.530  35.140  38.664  1.00  0.00     0.041 A 
ATOM     71  F   UNL A   1      42.246  34.693  36.478  1.00  0.00    -0.206 F 
ATOM     72  C   UNL A   1      40.769  34.802  39.779  1.00  0.00     0.022 A 
BRANCH  69  73
ATOM     73  S   UNL A   1      38.899  33.222  41.114  1.00  0.00     0.124 S 
ATOM     74  O   UNL A   1      37.626  33.538  40.470  1.00  0.00    -0.237 OA
ATOM     75  O   UNL A   1      39.148  31.809  41.376  1.00  0.00    -0.237 OA
ATOM     76  O   UNL A   1      39.291  34.135  42.184  1.00  0.00    -0.744 OA
ENDBRANCH  69  73
ENDBRANCH  52  66
BRANCH  53  77
ATOM     77  C   UNL A   1      40.717  27.619  29.124  1.00  0.00     0.023 A 
ATOM     78  C   UNL A   1      41.618  27.919  28.090  1.00  0.00     0.031 A 
ATOM     79  C   UNL A   1      39.797  26.577  28.916  1.00  0.00     0.131 A 
ATOM     80  C   UNL A   1      41.550  27.216  26.877  1.00  0.00     0.055 A 
ATOM     81  C   UNL A   1      39.766  25.846  27.727  1.00  0.00     0.041 A 
ATOM     82  F   UNL A   1      38.918  26.245  29.876  1.00  0.00    -0.206 F 
ATOM     83  C   UNL A   1      40.639  26.173  26.694  1.00  0.00     0.022 A 
BRANCH  80  84
ATOM     84  S   UNL A   1      42.621  27.739  25.510  1.00  0.00     0.124 S 
ATOM     85  O   UNL A   1      41.904  28.902  25.000  1.00  0.00    -0.237 OA
ATOM     86  O   UNL A   1      43.879  28.010  26.199  1.00  0.00    -0.237 OA
ATOM     87  O   UNL A   1      42.636  26.576  24.626  1.00  0.00    -0.744 OA
ENDBRANCH  80  84
ENDBRANCH  53  77
BRANCH  65  88
ATOM     88  C   UNL A   1      44.835  27.635  34.750  1.00  0.00     0.023 A 
ATOM     89  C   UNL A   1      44.667  26.371  35.341  1.00  0.00     0.031 A 
ATOM     90  C   UNL A   1      46.146  28.099  34.538  1.00  0.00     0.131 A 
ATOM     91  C   UNL A   1      45.791  25.637  35.749  1.00  0.00     0.055 A 
ATOM     92  C   UNL A   1      47.261  27.338  34.891  1.00  0.00     0.041 A 
ATOM     93  F   UNL A   1      46.364  29.301  33.980  1.00  0.00    -0.206 F 
ATOM     94  C   UNL A   1      47.087  26.104  35.512  1.00  0.00     0.022 A 
BRANCH  91  95
ATOM     95  S   UNL A   1      45.537  24.097  36.673  1.00  0.00     0.124 S 
ATOM     96  O   UNL A   1      46.860  23.485  36.613  1.00  0.00    -0.237 OA
ATOM     97  O   UNL A   1      45.119  24.584  37.984  1.00  0.00    -0.237 OA
ATOM     98  O   UNL A   1      44.499  23.406  35.910  1.00  0.00    -0.744 OA
ENDBRANCH  91  95
ENDBRANCH  65  88
ENDBRANCH  39  40
ENDBRANCH  31  34
ENDBRANCH  29  30
ENDBRANCH  28  29
ENDBRANCH  27  28
ENDBRANCH   1  27
TORSDOF 20
ENDMDL
MODEL 2
REMARK VINA RESULT:     -10.7      2.910      4.605
REMARK SMILES CCc1ccsc1CNC(=O)N1[C@H]2CC[C@@H]1[C@H](C(=O)NCCCCCCNC(=O)c1ccc(-c3c4nc(c(-c5cc(S(=O)(=O)[O-])ccc5F)c5ccc([nH]5)c(-c5cc(S(=O)(=O)[O-])ccc5F)c5nc(c(-c6cc(S(=O)(=O)[O-])ccc6F)c6ccc3[nH]6)C=C5)C=C4)cc1)C2
REMARK SMILES IDX 23 1 22 2 21 3 20 4 18 5 19 6 17 8 12 9 13 10 16 11 14 12
REMARK SMILES IDX 93 13 15 14 10 15 9 16 11 18 8 19 7 20 3 21 4 22 5 23 6 24
REMARK SMILES IDX 2 25 1 26 24 27 25 28 26 29 27 30 28 31 29 33 30 34 31 35
REMARK SMILES IDX 92 36 32 37 91 38 33 39 34 40 35 41 85 42 36 43 90 44 84 45
REMARK SMILES IDX 86 46 37 47 89 48 83 49 82 50 38 52 70 53 50 54 69 55 51 56
REMARK SMILES IDX 54 57 68 58 87 59 52 60 53 61 67 63 88 64 55 65 39 66 40 67
REMARK SMILES IDX 48 68 41 69 47 70 49 71 46 72 42 73 43 74 44 75 45 76 71 77
REMARK SMILES IDX 72 78 80 79 73 80 79 81 81 82 78 83 74 84 75 85 76 86 77 87
REMARK SMILES IDX 56 88 57 89 65 90 58 91 64 92 66 93 63 94 59 95 60 96 61 97
REMARK SMILES IDX 62 98
REMARK H PARENT 20 7 9 17 27 32 86 51 54 62
REMARK Flexibility Score: inf
ROOT
ATOM      1  C   UNL A   1      31.077  27.287  27.168  1.00  0.00     0.002 C 
ENDROOT
BRANCH   1   2
ATOM      2  C   UNL A   1      31.122  26.670  25.771  1.00  0.00     0.021 C 
BRANCH   2   3
ATOM      3  C   UNL A   1      29.921  25.781  25.451  1.00  0.00     0.116 C 
BRANCH   3   4
ATOM      4  N   UNL A   1      29.750  24.773  26.469  1.00  0.00    -0.356 N 
ATOM      5  C   UNL A   1      30.422  23.635  26.742  1.00  0.00     0.225 C 
ATOM      6  O   UNL A   1      29.914  22.907  27.605  1.00  0.00    -0.275 OA
ATOM      7  H   UNL A   1      28.999  24.950  27.081  1.00  0.00     0.163 HD
BRANCH   5   8
ATOM      8  C   UNL A   1      31.716  23.202  26.079  1.00  0.00     0.103 C 
ATOM      9  N   UNL A   1      33.924  22.825  25.859  1.00  0.00    -0.318 N 
ATOM     10  C   UNL A   1      33.366  21.486  25.791  1.00  0.00     0.088 C 
ATOM     11  C   UNL A   1      33.035  23.414  26.844  1.00  0.00     0.099 C 
ATOM     12  C   UNL A   1      33.464  21.080  27.271  1.00  0.00     0.027 C 
ATOM     13  C   UNL A   1      31.896  21.803  25.442  1.00  0.00     0.040 C 
ATOM     14  C   UNL A   1      33.252  22.427  27.998  1.00  0.00     0.028 C 
BRANCH   9  15
ATOM     15  C   UNL A   1      35.154  23.295  25.559  1.00  0.00     0.318 C 
ATOM     16  N   UNL A   1      35.258  24.433  24.835  1.00  0.00    -0.333 N 
ATOM     17  H   UNL A   1      36.141  24.601  24.433  1.00  0.00     0.165 HD
ATOM     18  O   UNL A   1      36.183  22.774  25.985  1.00  0.00    -0.249 OA
BRANCH  16  19
ATOM     19  C   UNL A   1      34.254  25.434  24.571  1.00  0.00     0.165 C 
BRANCH  19  20
ATOM     20  C   UNL A   1      33.611  25.269  23.217  1.00  0.00     0.027 A 
ATOM     21  C   UNL A   1      33.096  26.270  22.400  1.00  0.00    -0.033 A 
ATOM     22  C   UNL A   1      32.654  25.738  21.142  1.00  0.00     0.016 A 
ATOM     23  C   UNL A   1      32.856  24.383  21.036  1.00  0.00     0.065 A 
ATOM     24  S   UNL A   1      33.579  23.740  22.435  1.00  0.00    -0.147 S 
BRANCH  21  25
ATOM     25  C   UNL A   1      33.013  27.728  22.758  1.00  0.00     0.033 C 
ATOM     26  C   UNL A   1      34.165  28.547  22.189  1.00  0.00     0.009 C 
ENDBRANCH  21  25
ENDBRANCH  19  20
ENDBRANCH  16  19
ENDBRANCH   9  15
ENDBRANCH   5   8
ENDBRANCH   3   4
ENDBRANCH   2   3
ENDBRANCH   1   2
BRANCH   1  27
ATOM     27  C   UNL A   1      31.808  28.628  27.299  1.00  0.00     0.002 C 
BRANCH  27  28
ATOM     28  C   UNL A   1      32.701  29.005  26.113  1.00  0.00     0.021 C 
BRANCH  28  29
ATOM     29  C   UNL A   1      34.036  29.639  26.494  1.00  0.00     0.116 C 
BRANCH  29  30
ATOM     30  N   UNL A   1      33.867  30.997  26.981  1.00  0.00    -0.352 N 
ATOM     31  C   UNL A   1      34.526  31.648  27.992  1.00  0.00     0.251 C 
ATOM     32  H   UNL A   1      33.179  31.527  26.517  1.00  0.00     0.163 HD
ATOM     33  O   UNL A   1      34.078  32.701  28.432  1.00  0.00    -0.269 OA
BRANCH  31  34
ATOM     34  C   UNL A   1      35.765  31.069  28.552  1.00  0.00     0.039 A 
ATOM     35  C   UNL A   1      35.675  29.947  29.380  1.00  0.00     0.014 A 
ATOM     36  C   UNL A   1      37.009  31.643  28.275  1.00  0.00     0.014 A 
ATOM     37  C   UNL A   1      36.840  29.371  29.890  1.00  0.00     0.010 A 
ATOM     38  C   UNL A   1      38.172  31.026  28.728  1.00  0.00     0.010 A 
ATOM     39  C   UNL A   1      38.099  29.889  29.545  1.00  0.00    -0.014 A 
BRANCH  39  40
ATOM     40  C   UNL A   1      39.351  29.266  30.044  1.00  0.00     0.031 A 
ATOM     41  C   UNL A   1      40.038  29.832  31.257  1.00  0.00     0.074 A 
ATOM     42  C   UNL A   1      39.897  28.234  29.374  1.00  0.00     0.049 A 
ATOM     43  N   UNL A   1      41.178  29.490  31.800  1.00  0.00    -0.248 NA
ATOM     44  C   UNL A   1      39.363  30.953  31.929  1.00  0.00     0.031 C 
ATOM     45  C   UNL A   1      39.337  27.619  28.168  1.00  0.00     0.029 A 
ATOM     46  N   UNL A   1      41.048  27.524  29.603  1.00  0.00    -0.354 N 
ATOM     47  C   UNL A   1      41.363  30.359  32.871  1.00  0.00     0.074 A 
ATOM     48  C   UNL A   1      40.249  31.285  32.854  1.00  0.00     0.031 C 
ATOM     49  C   UNL A   1      40.132  26.609  27.781  1.00  0.00     0.029 A 
ATOM     50  C   UNL A   1      41.280  26.534  28.677  1.00  0.00     0.049 A 
ATOM     51  H   UNL A   1      41.652  27.707  30.359  1.00  0.00     0.167 HD
ATOM     52  C   UNL A   1      42.356  30.367  33.796  1.00  0.00     0.034 A 
ATOM     53  C   UNL A   1      42.308  25.670  28.560  1.00  0.00     0.034 A 
ATOM     54  C   UNL A   1      43.454  29.432  33.797  1.00  0.00     0.049 A 
ATOM     55  C   UNL A   1      43.423  25.725  29.573  1.00  0.00     0.074 A 
ATOM     56  C   UNL A   1      44.493  29.322  34.706  1.00  0.00     0.029 A 
ATOM     57  N   UNL A   1      43.663  28.449  32.838  1.00  0.00    -0.354 N 
ATOM     58  N   UNL A   1      43.566  26.528  30.603  1.00  0.00    -0.248 NA
ATOM     59  C   UNL A   1      44.509  24.750  29.415  1.00  0.00     0.031 C 
ATOM     60  C   UNL A   1      45.361  28.317  34.261  1.00  0.00     0.029 A 
ATOM     61  C   UNL A   1      44.827  27.748  33.115  1.00  0.00     0.049 A 
ATOM     62  H   UNL A   1      43.070  28.275  32.071  1.00  0.00     0.167 HD
ATOM     63  C   UNL A   1      44.743  26.132  31.231  1.00  0.00     0.074 A 
ATOM     64  C   UNL A   1      45.262  25.012  30.472  1.00  0.00     0.031 C 
ATOM     65  C   UNL A   1      45.337  26.641  32.341  1.00  0.00     0.034 A 
BRANCH  52  66
ATOM     66  C   UNL A   1      42.299  31.439  34.859  1.00  0.00     0.023 A 
ATOM     67  C   UNL A   1      41.278  31.463  35.828  1.00  0.00     0.031 A 
ATOM     68  C   UNL A   1      43.248  32.476  34.883  1.00  0.00     0.131 A 
ATOM     69  C   UNL A   1      41.178  32.544  36.716  1.00  0.00     0.055 A 
ATOM     70  C   UNL A   1      43.194  33.504  35.828  1.00  0.00     0.041 A 
ATOM     71  F   UNL A   1      44.234  32.521  33.974  1.00  0.00    -0.206 F 
ATOM     72  C   UNL A   1      42.144  33.552  36.740  1.00  0.00     0.022 A 
BRANCH  69  73
ATOM     73  S   UNL A   1      39.679  32.697  37.725  1.00  0.00     0.124 S 
ATOM     74  O   UNL A   1      40.229  32.653  39.078  1.00  0.00    -0.237 OA
ATOM     75  O   UNL A   1      39.140  33.982  37.296  1.00  0.00    -0.237 OA
ATOM     76  O   UNL A   1      38.889  31.529  37.344  1.00  0.00    -0.744 OA
ENDBRANCH  69  73
ENDBRANCH  52  66
BRANCH  53  77
ATOM     77  C   UNL A   1      42.341  24.683  27.443  1.00  0.00     0.023 A 
ATOM     78  C   UNL A   1      41.542  23.529  27.479  1.00  0.00     0.031 A 
ATOM     79  C   UNL A   1      43.197  24.858  26.342  1.00  0.00     0.131 A 
ATOM     80  C   UNL A   1      41.646  22.573  26.457  1.00  0.00     0.055 A 
ATOM     81  C   UNL A   1      43.260  23.930  25.302  1.00  0.00     0.041 A 
ATOM     82  F   UNL A   1      43.978  25.948  26.254  1.00  0.00    -0.206 F 
ATOM     83  C   UNL A   1      42.490  22.772  25.362  1.00  0.00     0.022 A 
BRANCH  80  84
ATOM     84  S   UNL A   1      40.718  21.024  26.620  1.00  0.00     0.124 S 
ATOM     85  O   UNL A   1      40.821  20.766  28.052  1.00  0.00    -0.237 OA
ATOM     86  O   UNL A   1      39.399  21.410  26.129  1.00  0.00    -0.237 OA
ATOM     87  O   UNL A   1      41.452  20.097  25.763  1.00  0.00    -0.744 OA
ENDBRANCH  80  84
ENDBRANCH  53  77
BRANCH  65  88
ATOM     88  C   UNL A   1      46.592  25.954  32.821  1.00  0.00     0.023 A 
ATOM     89  C   UNL A   1      46.546  24.854  33.695  1.00  0.00     0.031 A 
ATOM     90  C   UNL A   1      47.853  26.417  32.405  1.00  0.00     0.131 A 
ATOM     91  C   UNL A   1      47.740  24.288  34.167  1.00  0.00     0.055 A 
ATOM     92  C   UNL A   1      49.035  25.812  32.830  1.00  0.00     0.041 A 
ATOM     93  F   UNL A   1      47.955  27.466  31.572  1.00  0.00    -0.206 F 
ATOM     94  C   UNL A   1      48.984  24.748  33.727  1.00  0.00     0.022 A 
BRANCH  91  95
ATOM     95  S   UNL A   1      47.648  22.994  35.435  1.00  0.00     0.124 S 
ATOM     96  O   UNL A   1      48.740  23.367  36.328  1.00  0.00    -0.237 OA
ATOM     97  O   UNL A   1      46.301  23.170  35.966  1.00  0.00    -0.237 OA
ATOM     98  O   UNL A   1      47.859  21.759  34.681  1.00  0.00    -0.744 OA
ENDBRANCH  91  95
ENDBRANCH  65  88
ENDBRANCH  39  40
ENDBRANCH  31  34
ENDBRANCH  29  30
ENDBRANCH  28  29
ENDBRANCH  27  28
ENDBRANCH   1  27
TORSDOF 20
ENDMDL
MODEL 3
REMARK VINA RESULT:     -10.6      6.221     11.289
REMARK SMILES CCc1ccsc1CNC(=O)N1[C@H]2CC[C@@H]1[C@H](C(=O)NCCCCCCNC(=O)c1ccc(-c3c4nc(c(-c5cc(S(=O)(=O)[O-])ccc5F)c5ccc([nH]5)c(-c5cc(S(=O)(=O)[O-])ccc5F)c5nc(c(-c6cc(S(=O)(=O)[O-])ccc6F)c6ccc3[nH]6)C=C5)C=C4)cc1)C2
REMARK SMILES IDX 23 1 22 2 21 3 20 4 18 5 19 6 17 8 12 9 13 10 16 11 14 12
REMARK SMILES IDX 93 13 15 14 10 15 9 16 11 18 8 19 7 20 3 21 4 22 5 23 6 24
REMARK SMILES IDX 2 25 1 26 24 27 25 28 26 29 27 30 28 31 29 33 30 34 31 35
REMARK SMILES IDX 92 36 32 37 91 38 33 39 34 40 35 41 85 42 36 43 90 44 84 45
REMARK SMILES IDX 86 46 37 47 89 48 83 49 82 50 38 52 70 53 50 54 69 55 51 56
REMARK SMILES IDX 54 57 68 58 87 59 52 60 53 61 67 63 88 64 55 65 39 66 40 67
REMARK SMILES IDX 48 68 41 69 47 70 49 71 46 72 42 73 43 74 44 75 45 76 71 77
REMARK SMILES IDX 72 78 80 79 73 80 79 81 81 82 78 83 74 84 75 85 76 86 77 87
REMARK SMILES IDX 56 88 57 89 65 90 58 91 64 92 66 93 63 94 59 95 60 96 61 97
REMARK SMILES IDX 62 98
REMARK H PARENT 20 7 9 17 27 32 86 51 54 62
REMARK Flexibility Score: inf
ROOT
ATOM      1  C   UNL A   1      38.563  22.546  26.119  1.00  0.00     0.002 C 
ENDROOT
BRANCH   1   2
ATOM      2  C   UNL A   1      37.807  23.873  26.127  1.00  0.00     0.021 C 
BRANCH   2   3
ATOM      3  C   UNL A   1      36.546  23.871  25.264  1.00  0.00     0.116 C 
BRANCH   3   4
ATOM      4  N   UNL A   1      35.414  23.394  26.020  1.00  0.00    -0.356 N 
ATOM      5  C   UNL A   1      34.096  23.681  25.960  1.00  0.00     0.225 C 
ATOM      6  O   UNL A   1      33.402  23.204  26.867  1.00  0.00    -0.275 OA
ATOM      7  H   UNL A   1      35.647  22.733  26.711  1.00  0.00     0.163 HD
BRANCH   5   8
ATOM      8  C   UNL A   1      33.432  24.524  24.888  1.00  0.00     0.103 C 
ATOM      9  N   UNL A   1      32.724  25.110  22.833  1.00  0.00    -0.318 N 
ATOM     10  C   UNL A   1      31.478  24.938  23.560  1.00  0.00     0.088 C 
ATOM     11  C   UNL A   1      33.507  24.042  23.428  1.00  0.00     0.099 C 
ATOM     12  C   UNL A   1      31.173  23.468  23.225  1.00  0.00     0.027 C 
ATOM     13  C   UNL A   1      31.978  25.039  25.017  1.00  0.00     0.040 C 
ATOM     14  C   UNL A   1      32.588  22.854  23.115  1.00  0.00     0.028 C 
BRANCH   9  15
ATOM     15  C   UNL A   1      32.987  25.678  21.637  1.00  0.00     0.318 C 
ATOM     16  N   UNL A   1      33.252  27.003  21.589  1.00  0.00    -0.333 N 
ATOM     17  H   UNL A   1      33.190  27.417  20.697  1.00  0.00     0.165 HD
ATOM     18  O   UNL A   1      33.073  25.024  20.598  1.00  0.00    -0.249 OA
BRANCH  16  19
ATOM     19  C   UNL A   1      33.611  27.895  22.664  1.00  0.00     0.165 C 
BRANCH  19  20
ATOM     20  C   UNL A   1      32.411  28.535  23.314  1.00  0.00     0.027 A 
ATOM     21  C   UNL A   1      32.293  28.965  24.632  1.00  0.00    -0.033 A 
ATOM     22  C   UNL A   1      31.033  29.614  24.856  1.00  0.00     0.016 A 
ATOM     23  C   UNL A   1      30.254  29.671  23.726  1.00  0.00     0.065 A 
ATOM     24  S   UNL A   1      31.025  28.956  22.389  1.00  0.00    -0.147 S 
BRANCH  21  25
ATOM     25  C   UNL A   1      33.341  28.797  25.697  1.00  0.00     0.033 C 
ATOM     26  C   UNL A   1      32.830  28.048  26.922  1.00  0.00     0.009 C 
ENDBRANCH  21  25
ENDBRANCH  19  20
ENDBRANCH  16  19
ENDBRANCH   9  15
ENDBRANCH   5   8
ENDBRANCH   3   4
ENDBRANCH   2   3
ENDBRANCH   1   2
BRANCH   1  27
ATOM     27  C   UNL A   1      38.083  21.542  25.065  1.00  0.00     0.002 C 
BRANCH  27  28
ATOM     28  C   UNL A   1      38.671  20.133  25.189  1.00  0.00     0.021 C 
BRANCH  28  29
ATOM     29  C   UNL A   1      39.526  19.904  26.432  1.00  0.00     0.116 C 
BRANCH  29  30
ATOM     30  N   UNL A   1      40.727  19.147  26.126  1.00  0.00    -0.352 N 
ATOM     31  C   UNL A   1      42.000  19.595  25.879  1.00  0.00     0.251 C 
ATOM     32  H   UNL A   1      40.611  18.170  26.092  1.00  0.00     0.163 HD
ATOM     33  O   UNL A   1      42.828  18.836  25.389  1.00  0.00    -0.269 OA
BRANCH  31  34
ATOM     34  C   UNL A   1      42.359  20.994  26.194  1.00  0.00     0.039 A 
ATOM     35  C   UNL A   1      42.438  21.923  25.154  1.00  0.00     0.014 A 
ATOM     36  C   UNL A   1      42.632  21.382  27.509  1.00  0.00     0.014 A 
ATOM     37  C   UNL A   1      42.745  23.255  25.441  1.00  0.00     0.010 A 
ATOM     38  C   UNL A   1      42.869  22.721  27.800  1.00  0.00     0.010 A 
ATOM     39  C   UNL A   1      42.935  23.670  26.769  1.00  0.00    -0.014 A 
BRANCH  39  40
ATOM     40  C   UNL A   1      43.222  25.089  27.099  1.00  0.00     0.031 A 
ATOM     41  C   UNL A   1      44.587  25.660  26.827  1.00  0.00     0.074 A 
ATOM     42  C   UNL A   1      42.277  25.841  27.695  1.00  0.00     0.049 A 
ATOM     43  N   UNL A   1      45.064  26.844  27.117  1.00  0.00    -0.248 NA
ATOM     44  C   UNL A   1      45.551  24.768  26.166  1.00  0.00     0.031 C 
ATOM     45  C   UNL A   1      40.926  25.386  28.034  1.00  0.00     0.029 A 
ATOM     46  N   UNL A   1      42.307  27.141  28.129  1.00  0.00    -0.354 N 
ATOM     47  C   UNL A   1      46.386  26.836  26.684  1.00  0.00     0.074 A 
ATOM     48  C   UNL A   1      46.650  25.506  26.175  1.00  0.00     0.031 C 
ATOM     49  C   UNL A   1      40.251  26.400  28.599  1.00  0.00     0.029 A 
ATOM     50  C   UNL A   1      41.131  27.559  28.707  1.00  0.00     0.049 A 
ATOM     51  H   UNL A   1      43.097  27.722  28.036  1.00  0.00     0.167 HD
ATOM     52  C   UNL A   1      47.286  27.851  26.688  1.00  0.00     0.034 A 
ATOM     53  C   UNL A   1      40.803  28.739  29.269  1.00  0.00     0.034 A 
ATOM     54  C   UNL A   1      47.001  29.170  27.196  1.00  0.00     0.049 A 
ATOM     55  C   UNL A   1      41.834  29.839  29.302  1.00  0.00     0.074 A 
ATOM     56  C   UNL A   1      47.823  30.285  27.214  1.00  0.00     0.029 A 
ATOM     57  N   UNL A   1      45.802  29.554  27.784  1.00  0.00    -0.354 N 
ATOM     58  N   UNL A   1      43.068  29.829  28.855  1.00  0.00    -0.248 NA
ATOM     59  C   UNL A   1      41.422  31.112  29.906  1.00  0.00     0.031 C 
ATOM     60  C   UNL A   1      47.144  31.320  27.869  1.00  0.00     0.029 A 
ATOM     61  C   UNL A   1      45.872  30.877  28.194  1.00  0.00     0.049 A 
ATOM     62  H   UNL A   1      45.016  28.971  27.894  1.00  0.00     0.167 HD
ATOM     63  C   UNL A   1      43.569  31.105  29.096  1.00  0.00     0.074 A 
ATOM     64  C   UNL A   1      42.499  31.860  29.716  1.00  0.00     0.031 C 
ATOM     65  C   UNL A   1      44.799  31.612  28.823  1.00  0.00     0.034 A 
BRANCH  52  66
ATOM     66  C   UNL A   1      48.665  27.551  26.147  1.00  0.00     0.023 A 
ATOM     67  C   UNL A   1      49.002  27.806  24.805  1.00  0.00     0.031 A 
ATOM     68  C   UNL A   1      49.644  26.963  26.967  1.00  0.00     0.131 A 
ATOM     69  C   UNL A   1      50.245  27.394  24.302  1.00  0.00     0.055 A 
ATOM     70  C   UNL A   1      50.913  26.635  26.482  1.00  0.00     0.041 A 
ATOM     71  F   UNL A   1      49.378  26.676  28.251  1.00  0.00    -0.206 F 
ATOM     72  C   UNL A   1      51.213  26.834  25.137  1.00  0.00     0.022 A 
BRANCH  69  73
ATOM     73  S   UNL A   1      50.513  27.451  22.509  1.00  0.00     0.124 S 
ATOM     74  O   UNL A   1      51.784  26.742  22.379  1.00  0.00    -0.237 OA
ATOM     75  O   UNL A   1      49.339  26.756  21.993  1.00  0.00    -0.237 OA
ATOM     76  O   UNL A   1      50.573  28.881  22.217  1.00  0.00    -0.744 OA
ENDBRANCH  69  73
ENDBRANCH  52  66
BRANCH  53  77
ATOM     77  C   UNL A   1      39.447  28.947  29.852  1.00  0.00     0.023 A 
ATOM     78  C   UNL A   1      38.482  29.708  29.173  1.00  0.00     0.031 A 
ATOM     79  C   UNL A   1      39.107  28.420  31.110  1.00  0.00     0.131 A 
ATOM     80  C   UNL A   1      37.239  29.959  29.774  1.00  0.00     0.055 A 
ATOM     81  C   UNL A   1      37.851  28.629  31.682  1.00  0.00     0.041 A 
ATOM     82  F   UNL A   1      39.991  27.679  31.798  1.00  0.00    -0.206 F 
ATOM     83  C   UNL A   1      36.912  29.414  31.018  1.00  0.00     0.022 A 
BRANCH  80  84
ATOM     84  S   UNL A   1      36.081  31.077  28.939  1.00  0.00     0.124 S 
ATOM     85  O   UNL A   1      35.251  31.527  30.051  1.00  0.00    -0.237 OA
ATOM     86  O   UNL A   1      36.982  32.071  28.366  1.00  0.00    -0.237 OA
ATOM     87  O   UNL A   1      35.413  30.212  27.970  1.00  0.00    -0.744 OA
ENDBRANCH  80  84
ENDBRANCH  53  77
BRANCH  65  88
ATOM     88  C   UNL A   1      45.029  33.066  29.153  1.00  0.00     0.023 A 
ATOM     89  C   UNL A   1      44.587  34.096  28.305  1.00  0.00     0.031 A 
ATOM     90  C   UNL A   1      45.712  33.423  30.329  1.00  0.00     0.131 A 
ATOM     91  C   UNL A   1      44.880  35.432  28.619  1.00  0.00     0.055 A 
ATOM     92  C   UNL A   1      45.947  34.756  30.667  1.00  0.00     0.041 A 
ATOM     93  F   UNL A   1      46.158  32.478  31.173  1.00  0.00    -0.206 F 
ATOM     94  C   UNL A   1      45.542  35.770  29.803  1.00  0.00     0.022 A 
BRANCH  91  95
ATOM     95  S   UNL A   1      44.460  36.722  27.416  1.00  0.00     0.124 S 
ATOM     96  O   UNL A   1      45.769  37.063  26.867  1.00  0.00    -0.237 OA
ATOM     97  O   UNL A   1      43.552  36.024  26.512  1.00  0.00    -0.237 OA
ATOM     98  O   UNL A   1      43.840  37.765  28.232  1.00  0.00    -0.744 OA
ENDBRANCH  91  95
ENDBRANCH  65  88
ENDBRANCH  39  40
ENDBRANCH  31  34
ENDBRANCH  29  30
ENDBRANCH  28  29
ENDBRANCH  27  28
ENDBRANCH   1  27
TORSDOF 20
ENDMDL
