MODEL 1
REMARK VINA RESULT:     -10.4      0.000      0.000
REMARK SMILES C[NH2+][C@]1(C(=O)NCCCCCCNC(=O)c2ccc(-c3c4nc(c(-c5cc(S(=O)(=O)[O-])ccc5F)c5ccc([nH]5)c(-c5cc(S(=O)(=O)[O-])ccc5F)c5nc(c(-c6cc(S(=O)(=O)[O-])ccc6F)c6ccc3[nH]6)C=C5)C=C4)cc2)CCC[C@@H]1CCn1nc(C)c(Cl)c1C
REMARK SMILES IDX 9 1 8 2 7 3 6 4 4 5 5 6 3 8 79 9 82 10 80 11 81 12 2 13 1 14
REMARK SMILES IDX 83 17 84 18 85 19 86 20 91 21 87 22 89 23 92 24 88 25 90 26
REMARK SMILES IDX 10 27 11 28 12 29 13 30 14 31 15 33 16 34 17 35 78 36 18 37
REMARK SMILES IDX 77 38 19 39 20 40 21 41 71 42 22 43 76 44 70 45 72 46 23 47
REMARK SMILES IDX 75 48 69 49 68 50 24 52 56 53 36 54 55 55 37 56 40 57 54 58
REMARK SMILES IDX 73 59 38 60 39 61 53 63 74 64 41 65 25 66 26 67 34 68 27 69
REMARK SMILES IDX 33 70 35 71 32 72 28 73 29 74 30 75 31 76 57 77 58 78 66 79
REMARK SMILES IDX 59 80 65 81 67 82 64 83 60 84 61 85 62 86 63 87 42 88 43 89
REMARK SMILES IDX 51 90 44 91 50 92 52 93 49 94 45 95 46 96 47 97 48 98
REMARK H PARENT 6 7 2 15 2 16 13 32 72 51 40 62
REMARK Flexibility Score: inf
ROOT
ATOM      1  C   UNL A   1      34.975  30.489  28.337  1.00  0.00     0.002 C 
ENDROOT
BRANCH   1   2
ATOM      2  C   UNL A   1      34.910  29.322  27.348  1.00  0.00     0.021 C 
BRANCH   2   3
ATOM      3  C   UNL A   1      33.622  29.254  26.538  1.00  0.00     0.116 C 
BRANCH   3   4
ATOM      4  N   UNL A   1      33.887  29.314  25.112  1.00  0.00    -0.351 N 
ATOM      5  C   UNL A   1      33.501  28.563  24.044  1.00  0.00     0.281 C 
ATOM      6  O   UNL A   1      33.984  28.949  22.973  1.00  0.00    -0.268 OA
ATOM      7  H   UNL A   1      34.475  30.063  24.862  1.00  0.00     0.163 HD
BRANCH   5   8
ATOM      8  C   UNL A   1      32.516  27.345  24.175  1.00  0.00     0.178 C 
ATOM      9  C   UNL A   1      31.137  27.797  24.704  1.00  0.00     0.079 C 
ATOM     10  C   UNL A   1      32.148  26.751  22.785  1.00  0.00     0.062 C 
ATOM     11  C   UNL A   1      30.124  26.788  24.157  1.00  0.00     0.008 C 
ATOM     12  C   UNL A   1      30.804  26.045  23.004  1.00  0.00     0.011 C 
BRANCH   8  13
ATOM     13  N   UNL A   1      32.913  26.257  25.125  1.00  0.00    -0.336 N 
ATOM     14  C   UNL A   1      34.317  25.929  25.267  1.00  0.00     0.331 C 
ATOM     15  H   UNL A   1      32.573  26.526  26.048  1.00  0.00     0.346 HD
ATOM     16  H   UNL A   1      32.504  25.415  24.719  1.00  0.00     0.346 HD
ENDBRANCH   8  13
BRANCH  10  17
ATOM     17  C   UNL A   1      33.239  25.892  22.129  1.00  0.00     0.034 C 
BRANCH  17  18
ATOM     18  C   UNL A   1      32.854  24.413  21.976  1.00  0.00     0.145 C 
BRANCH  18  19
ATOM     19  N   UNL A   1      33.633  23.489  22.788  1.00  0.00    -0.268 N 
ATOM     20  N   UNL A   1      34.974  23.463  22.621  1.00  0.00    -0.176 NA
ATOM     21  C   UNL A   1      33.201  22.659  23.796  1.00  0.00     0.054 A 
ATOM     22  C   UNL A   1      35.420  22.693  23.624  1.00  0.00     0.078 A 
ATOM     23  C   UNL A   1      34.352  22.211  24.412  1.00  0.00     0.084 A 
ATOM     24  C   UNL A   1      31.785  22.342  24.100  1.00  0.00     0.068 C 
ATOM     25  C   UNL A   1      36.873  22.444  23.792  1.00  0.00     0.070 C 
ATOM     26  Cl  UNL A   1      34.474  21.250  25.805  1.00  0.00    -0.080 Cl
ENDBRANCH  18  19
ENDBRANCH  17  18
ENDBRANCH  10  17
ENDBRANCH   5   8
ENDBRANCH   3   4
ENDBRANCH   2   3
ENDBRANCH   1   2
BRANCH   1  27
ATOM     27  C   UNL A   1      34.950  31.884  27.705  1.00  0.00     0.002 C 
BRANCH  27  28
ATOM     28  C   UNL A   1      33.645  32.655  27.893  1.00  0.00     0.021 C 
BRANCH  28  29
ATOM     29  C   UNL A   1      33.754  34.164  27.730  1.00  0.00     0.116 C 
BRANCH  29  30
ATOM     30  N   UNL A   1      33.158  34.877  28.844  1.00  0.00    -0.352 N 
ATOM     31  C   UNL A   1      33.451  34.789  30.180  1.00  0.00     0.251 C 
ATOM     32  H   UNL A   1      32.443  35.513  28.608  1.00  0.00     0.163 HD
ATOM     33  O   UNL A   1      32.699  35.307  31.004  1.00  0.00    -0.269 OA
BRANCH  31  34
ATOM     34  C   UNL A   1      34.652  34.049  30.624  1.00  0.00     0.039 A 
ATOM     35  C   UNL A   1      35.913  34.518  30.246  1.00  0.00     0.014 A 
ATOM     36  C   UNL A   1      34.540  32.898  31.411  1.00  0.00     0.014 A 
ATOM     37  C   UNL A   1      37.059  33.864  30.701  1.00  0.00     0.010 A 
ATOM     38  C   UNL A   1      35.684  32.298  31.931  1.00  0.00     0.010 A 
ATOM     39  C   UNL A   1      36.957  32.768  31.574  1.00  0.00    -0.014 A 
BRANCH  39  40
ATOM     40  C   UNL A   1      38.170  32.095  32.109  1.00  0.00     0.031 A 
ATOM     41  C   UNL A   1      38.834  30.997  31.322  1.00  0.00     0.074 A 
ATOM     42  C   UNL A   1      38.641  32.435  33.326  1.00  0.00     0.049 A 
ATOM     43  N   UNL A   1      39.856  30.247  31.644  1.00  0.00    -0.248 NA
ATOM     44  C   UNL A   1      38.249  30.683  30.009  1.00  0.00     0.031 C 
ATOM     45  C   UNL A   1      38.059  33.454  34.202  1.00  0.00     0.029 A 
ATOM     46  N   UNL A   1      39.711  31.957  34.042  1.00  0.00    -0.354 N 
ATOM     47  C   UNL A   1      40.028  29.364  30.583  1.00  0.00     0.074 A 
ATOM     48  C   UNL A   1      38.962  29.630  29.640  1.00  0.00     0.031 C 
ATOM     49  C   UNL A   1      38.793  33.543  35.322  1.00  0.00     0.029 A 
ATOM     50  C   UNL A   1      39.864  32.552  35.273  1.00  0.00     0.049 A 
ATOM     51  H   UNL A   1      40.312  31.253  33.705  1.00  0.00     0.167 HD
ATOM     52  C   UNL A   1      41.000  28.435  30.400  1.00  0.00     0.034 A 
ATOM     53  C   UNL A   1      40.754  32.317  36.258  1.00  0.00     0.034 A 
ATOM     54  C   UNL A   1      42.060  28.191  31.349  1.00  0.00     0.049 A 
ATOM     55  C   UNL A   1      41.807  31.257  36.048  1.00  0.00     0.074 A 
ATOM     56  C   UNL A   1      43.128  27.317  31.240  1.00  0.00     0.029 A 
ATOM     57  N   UNL A   1      42.181  28.811  32.586  1.00  0.00    -0.354 N 
ATOM     58  N   UNL A   1      41.992  30.470  35.013  1.00  0.00    -0.248 NA
ATOM     59  C   UNL A   1      42.776  31.063  37.132  1.00  0.00     0.031 C 
ATOM     60  C   UNL A   1      43.844  27.348  32.442  1.00  0.00     0.029 A 
ATOM     61  C   UNL A   1      43.280  28.308  33.267  1.00  0.00     0.049 A 
ATOM     62  H   UNL A   1      41.574  29.505  32.931  1.00  0.00     0.167 HD
ATOM     63  C   UNL A   1      43.119  29.708  35.312  1.00  0.00     0.074 A 
ATOM     64  C   UNL A   1      43.578  30.145  36.614  1.00  0.00     0.031 C 
ATOM     65  C   UNL A   1      43.722  28.741  34.574  1.00  0.00     0.034 A 
BRANCH  52  66
ATOM     66  C   UNL A   1      40.936  27.598  29.142  1.00  0.00     0.023 A 
ATOM     67  C   UNL A   1      41.862  27.760  28.096  1.00  0.00     0.031 A 
ATOM     68  C   UNL A   1      39.917  26.644  28.972  1.00  0.00     0.131 A 
ATOM     69  C   UNL A   1      41.700  27.047  26.898  1.00  0.00     0.055 A 
ATOM     70  C   UNL A   1      39.815  25.871  27.814  1.00  0.00     0.041 A 
ATOM     71  F   UNL A   1      38.988  26.457  29.924  1.00  0.00    -0.206 F 
ATOM     72  C   UNL A   1      40.700  26.083  26.760  1.00  0.00     0.022 A 
BRANCH  69  73
ATOM     73  S   UNL A   1      42.712  27.517  25.468  1.00  0.00     0.124 S 
ATOM     74  O   UNL A   1      42.753  26.267  24.713  1.00  0.00    -0.237 OA
ATOM     75  O   UNL A   1      41.935  28.598  24.873  1.00  0.00    -0.237 OA
ATOM     76  O   UNL A   1      43.985  27.917  26.065  1.00  0.00    -0.744 OA
ENDBRANCH  69  73
ENDBRANCH  52  66
BRANCH  53  77
ATOM     77  C   UNL A   1      40.680  33.079  37.539  1.00  0.00     0.023 A 
ATOM     78  C   UNL A   1      39.867  32.645  38.597  1.00  0.00     0.031 A 
ATOM     79  C   UNL A   1      41.395  34.279  37.708  1.00  0.00     0.131 A 
ATOM     80  C   UNL A   1      39.751  33.427  39.758  1.00  0.00     0.055 A 
ATOM     81  C   UNL A   1      41.324  35.022  38.887  1.00  0.00     0.041 A 
ATOM     82  F   UNL A   1      42.188  34.741  36.728  1.00  0.00    -0.206 F 
ATOM     83  C   UNL A   1      40.486  34.604  39.916  1.00  0.00     0.022 A 
BRANCH  80  84
ATOM     84  S   UNL A   1      38.550  32.933  41.024  1.00  0.00     0.124 S 
ATOM     85  O   UNL A   1      37.286  33.286  40.387  1.00  0.00    -0.237 OA
ATOM     86  O   UNL A   1      38.823  31.506  41.160  1.00  0.00    -0.237 OA
ATOM     87  O   UNL A   1      38.917  33.749  42.178  1.00  0.00    -0.744 OA
ENDBRANCH  80  84
ENDBRANCH  53  77
BRANCH  65  88
ATOM     88  C   UNL A   1      44.975  28.121  35.144  1.00  0.00     0.023 A 
ATOM     89  C   UNL A   1      44.937  26.958  35.934  1.00  0.00     0.031 A 
ATOM     90  C   UNL A   1      46.229  28.710  34.898  1.00  0.00     0.131 A 
ATOM     91  C   UNL A   1      46.121  26.456  36.496  1.00  0.00     0.055 A 
ATOM     92  C   UNL A   1      47.411  28.166  35.405  1.00  0.00     0.041 A 
ATOM     93  F   UNL A   1      46.327  29.825  34.156  1.00  0.00    -0.206 F 
ATOM     94  C   UNL A   1      47.359  27.040  36.220  1.00  0.00     0.022 A 
BRANCH  91  95
ATOM     95  S   UNL A   1      46.009  25.085  37.680  1.00  0.00     0.124 S 
ATOM     96  O   UNL A   1      46.503  23.961  36.890  1.00  0.00    -0.237 OA
ATOM     97  O   UNL A   1      46.879  25.535  38.761  1.00  0.00    -0.237 OA
ATOM     98  O   UNL A   1      44.586  25.032  38.010  1.00  0.00    -0.744 OA
ENDBRANCH  91  95
ENDBRANCH  65  88
ENDBRANCH  39  40
ENDBRANCH  31  34
ENDBRANCH  29  30
ENDBRANCH  28  29
ENDBRANCH  27  28
ENDBRANCH   1  27
TORSDOF 20
ENDMDL
MODEL 2
REMARK VINA RESULT:     -10.3      5.830     11.285
REMARK SMILES C[NH2+][C@]1(C(=O)NCCCCCCNC(=O)c2ccc(-c3c4nc(c(-c5cc(S(=O)(=O)[O-])ccc5F)c5ccc([nH]5)c(-c5cc(S(=O)(=O)[O-])ccc5F)c5nc(c(-c6cc(S(=O)(=O)[O-])ccc6F)c6ccc3[nH]6)C=C5)C=C4)cc2)CCC[C@@H]1CCn1nc(C)c(Cl)c1C
REMARK SMILES IDX 9 1 8 2 7 3 6 4 4 5 5 6 3 8 79 9 82 10 80 11 81 12 2 13 1 14
REMARK SMILES IDX 83 17 84 18 85 19 86 20 91 21 87 22 89 23 92 24 88 25 90 26
REMARK SMILES IDX 10 27 11 28 12 29 13 30 14 31 15 33 16 34 17 35 78 36 18 37
REMARK SMILES IDX 77 38 19 39 20 40 21 41 71 42 22 43 76 44 70 45 72 46 23 47
REMARK SMILES IDX 75 48 69 49 68 50 24 52 56 53 36 54 55 55 37 56 40 57 54 58
REMARK SMILES IDX 73 59 38 60 39 61 53 63 74 64 41 65 25 66 26 67 34 68 27 69
REMARK SMILES IDX 33 70 35 71 32 72 28 73 29 74 30 75 31 76 57 77 58 78 66 79
REMARK SMILES IDX 59 80 65 81 67 82 64 83 60 84 61 85 62 86 63 87 42 88 43 89
REMARK SMILES IDX 51 90 44 91 50 92 52 93 49 94 45 95 46 96 47 97 48 98
REMARK H PARENT 6 7 2 15 2 16 13 32 72 51 40 62
REMARK Flexibility Score: inf
ROOT
ATOM      1  C   UNL A   1      37.931  23.596  26.134  1.00  0.00     0.002 C 
ENDROOT
BRANCH   1   2
ATOM      2  C   UNL A   1      37.106  23.383  24.861  1.00  0.00     0.021 C 
BRANCH   2   3
ATOM      3  C   UNL A   1      35.663  23.860  24.957  1.00  0.00     0.116 C 
BRANCH   3   4
ATOM      4  N   UNL A   1      34.815  23.188  23.989  1.00  0.00    -0.351 N 
ATOM      5  C   UNL A   1      33.730  22.372  24.087  1.00  0.00     0.281 C 
ATOM      6  O   UNL A   1      33.308  21.984  22.991  1.00  0.00    -0.268 OA
ATOM      7  H   UNL A   1      35.083  23.361  23.058  1.00  0.00     0.163 HD
BRANCH   5   8
ATOM      8  C   UNL A   1      33.075  21.992  25.464  1.00  0.00     0.178 C 
ATOM      9  C   UNL A   1      34.149  21.782  26.553  1.00  0.00     0.079 C 
ATOM     10  C   UNL A   1      32.247  23.171  26.052  1.00  0.00     0.062 C 
ATOM     11  C   UNL A   1      33.470  22.110  27.885  1.00  0.00     0.008 C 
ATOM     12  C   UNL A   1      32.200  22.902  27.562  1.00  0.00     0.011 C 
BRANCH   8  13
ATOM     13  N   UNL A   1      32.284  20.721  25.506  1.00  0.00    -0.336 N 
ATOM     14  C   UNL A   1      32.977  19.459  25.343  1.00  0.00     0.331 C 
ATOM     15  H   UNL A   1      31.815  20.690  26.411  1.00  0.00     0.346 HD
ATOM     16  H   UNL A   1      31.682  20.778  24.685  1.00  0.00     0.346 HD
ENDBRANCH   8  13
BRANCH  10  17
ATOM     17  C   UNL A   1      30.884  23.411  25.388  1.00  0.00     0.034 C 
BRANCH  17  18
ATOM     18  C   UNL A   1      30.842  24.659  24.494  1.00  0.00     0.145 C 
BRANCH  18  19
ATOM     19  N   UNL A   1      31.427  25.856  25.082  1.00  0.00    -0.268 N 
ATOM     20  N   UNL A   1      30.858  26.366  26.196  1.00  0.00    -0.176 NA
ATOM     21  C   UNL A   1      32.565  26.529  24.703  1.00  0.00     0.054 A 
ATOM     22  C   UNL A   1      31.719  27.309  26.608  1.00  0.00     0.078 A 
ATOM     23  C   UNL A   1      32.823  27.409  25.734  1.00  0.00     0.084 A 
ATOM     24  C   UNL A   1      33.308  26.316  23.437  1.00  0.00     0.068 C 
ATOM     25  C   UNL A   1      31.446  28.089  27.840  1.00  0.00     0.070 C 
ATOM     26  Cl  UNL A   1      34.165  28.432  25.911  1.00  0.00    -0.080 Cl
ENDBRANCH  18  19
ENDBRANCH  17  18
ENDBRANCH  10  17
ENDBRANCH   5   8
ENDBRANCH   3   4
ENDBRANCH   2   3
ENDBRANCH   1   2
BRANCH   1  27
ATOM     27  C   UNL A   1      39.289  22.890  26.159  1.00  0.00     0.002 C 
BRANCH  27  28
ATOM     28  C   UNL A   1      39.248  21.424  26.586  1.00  0.00     0.021 C 
BRANCH  28  29
ATOM     29  C   UNL A   1      39.544  20.420  25.481  1.00  0.00     0.116 C 
BRANCH  29  30
ATOM     30  N   UNL A   1      40.460  19.382  25.920  1.00  0.00    -0.352 N 
ATOM     31  C   UNL A   1      41.763  19.500  26.328  1.00  0.00     0.251 C 
ATOM     32  H   UNL A   1      40.095  18.468  25.924  1.00  0.00     0.163 HD
ATOM     33  O   UNL A   1      42.453  18.490  26.459  1.00  0.00    -0.269 OA
BRANCH  31  34
ATOM     34  C   UNL A   1      42.338  20.838  26.584  1.00  0.00     0.039 A 
ATOM     35  C   UNL A   1      42.737  21.621  25.498  1.00  0.00     0.014 A 
ATOM     36  C   UNL A   1      42.485  21.323  27.887  1.00  0.00     0.014 A 
ATOM     37  C   UNL A   1      43.232  22.908  25.716  1.00  0.00     0.010 A 
ATOM     38  C   UNL A   1      42.900  22.635  28.098  1.00  0.00     0.010 A 
ATOM     39  C   UNL A   1      43.286  23.440  27.016  1.00  0.00    -0.014 A 
BRANCH  39  40
ATOM     40  C   UNL A   1      43.760  24.828  27.260  1.00  0.00     0.031 A 
ATOM     41  C   UNL A   1      42.808  25.870  27.783  1.00  0.00     0.074 A 
ATOM     42  C   UNL A   1      45.032  25.162  26.960  1.00  0.00     0.049 A 
ATOM     43  N   UNL A   1      43.010  27.144  27.998  1.00  0.00    -0.248 NA
ATOM     44  C   UNL A   1      41.438  25.422  28.074  1.00  0.00     0.031 C 
ATOM     45  C   UNL A   1      46.036  24.251  26.407  1.00  0.00     0.029 A 
ATOM     46  N   UNL A   1      45.696  26.359  27.068  1.00  0.00    -0.354 N 
ATOM     47  C   UNL A   1      41.792  27.654  28.436  1.00  0.00     0.074 A 
ATOM     48  C   UNL A   1      40.842  26.562  28.389  1.00  0.00     0.031 C 
ATOM     49  C   UNL A   1      47.193  24.914  26.251  1.00  0.00     0.029 A 
ATOM     50  C   UNL A   1      47.003  26.308  26.638  1.00  0.00     0.049 A 
ATOM     51  H   UNL A   1      45.276  27.177  27.420  1.00  0.00     0.167 HD
ATOM     52  C   UNL A   1      41.499  28.908  28.861  1.00  0.00     0.034 A 
ATOM     53  C   UNL A   1      47.936  27.276  26.549  1.00  0.00     0.034 A 
ATOM     54  C   UNL A   1      42.463  29.981  28.907  1.00  0.00     0.049 A 
ATOM     55  C   UNL A   1      47.580  28.672  26.996  1.00  0.00     0.074 A 
ATOM     56  C   UNL A   1      42.292  31.273  29.373  1.00  0.00     0.029 A 
ATOM     57  N   UNL A   1      43.776  29.893  28.461  1.00  0.00    -0.354 N 
ATOM     58  N   UNL A   1      46.438  29.125  27.463  1.00  0.00    -0.248 NA
ATOM     59  C   UNL A   1      48.640  29.684  26.916  1.00  0.00     0.031 C 
ATOM     60  C   UNL A   1      43.471  31.986  29.132  1.00  0.00     0.029 A 
ATOM     61  C   UNL A   1      44.412  31.118  28.602  1.00  0.00     0.049 A 
ATOM     62  H   UNL A   1      44.195  29.080  28.097  1.00  0.00     0.167 HD
ATOM     63  C   UNL A   1      46.656  30.468  27.760  1.00  0.00     0.074 A 
ATOM     64  C   UNL A   1      48.040  30.744  27.436  1.00  0.00     0.031 C 
ATOM     65  C   UNL A   1      45.791  31.387  28.261  1.00  0.00     0.034 A 
BRANCH  52  66
ATOM     66  C   UNL A   1      40.072  29.188  29.276  1.00  0.00     0.023 A 
ATOM     67  C   UNL A   1      39.689  29.233  30.628  1.00  0.00     0.031 A 
ATOM     68  C   UNL A   1      39.073  29.383  28.305  1.00  0.00     0.131 A 
ATOM     69  C   UNL A   1      38.335  29.379  30.969  1.00  0.00     0.055 A 
ATOM     70  C   UNL A   1      37.742  29.620  28.654  1.00  0.00     0.041 A 
ATOM     71  F   UNL A   1      39.370  29.329  26.997  1.00  0.00    -0.206 F 
ATOM     72  C   UNL A   1      37.363  29.602  29.993  1.00  0.00     0.022 A 
BRANCH  69  73
ATOM     73  S   UNL A   1      37.845  29.110  32.695  1.00  0.00     0.124 S 
ATOM     74  O   UNL A   1      38.940  29.753  33.417  1.00  0.00    -0.237 OA
ATOM     75  O   UNL A   1      36.552  29.781  32.764  1.00  0.00    -0.237 OA
ATOM     76  O   UNL A   1      37.800  27.654  32.816  1.00  0.00    -0.744 OA
ENDBRANCH  69  73
ENDBRANCH  52  66
BRANCH  53  77
ATOM     77  C   UNL A   1      49.288  26.971  25.996  1.00  0.00     0.023 A 
ATOM     78  C   UNL A   1      50.368  26.667  26.840  1.00  0.00     0.031 A 
ATOM     79  C   UNL A   1      49.529  27.018  24.611  1.00  0.00     0.131 A 
ATOM     80  C   UNL A   1      51.647  26.468  26.296  1.00  0.00     0.055 A 
ATOM     81  C   UNL A   1      50.789  26.760  24.070  1.00  0.00     0.041 A 
ATOM     82  F   UNL A   1      48.532  27.304  23.758  1.00  0.00    -0.206 F 
ATOM     83  C   UNL A   1      51.862  26.497  24.916  1.00  0.00     0.022 A 
BRANCH  80  84
ATOM     84  S   UNL A   1      53.051  26.264  27.426  1.00  0.00     0.124 S 
ATOM     85  O   UNL A   1      52.377  26.083  28.707  1.00  0.00    -0.237 OA
ATOM     86  O   UNL A   1      53.713  25.086  26.877  1.00  0.00    -0.237 OA
ATOM     87  O   UNL A   1      53.790  27.516  27.281  1.00  0.00    -0.744 OA
ENDBRANCH  80  84
ENDBRANCH  53  77
BRANCH  65  88
ATOM     88  C   UNL A   1      46.335  32.770  28.530  1.00  0.00     0.023 A 
ATOM     89  C   UNL A   1      46.368  33.763  27.537  1.00  0.00     0.031 A 
ATOM     90  C   UNL A   1      46.837  33.094  29.805  1.00  0.00     0.131 A 
ATOM     91  C   UNL A   1      46.944  35.013  27.815  1.00  0.00     0.055 A 
ATOM     92  C   UNL A   1      47.346  34.361  30.095  1.00  0.00     0.041 A 
ATOM     93  F   UNL A   1      46.837  32.184  30.792  1.00  0.00    -0.206 F 
ATOM     94  C   UNL A   1      47.414  35.324  29.093  1.00  0.00     0.022 A 
BRANCH  91  95
ATOM     95  S   UNL A   1      47.163  36.193  26.455  1.00  0.00     0.124 S 
ATOM     96  O   UNL A   1      48.601  36.113  26.214  1.00  0.00    -0.237 OA
ATOM     97  O   UNL A   1      46.310  35.632  25.414  1.00  0.00    -0.237 OA
ATOM     98  O   UNL A   1      46.700  37.459  27.021  1.00  0.00    -0.744 OA
ENDBRANCH  91  95
ENDBRANCH  65  88
ENDBRANCH  39  40
ENDBRANCH  31  34
ENDBRANCH  29  30
ENDBRANCH  28  29
ENDBRANCH  27  28
ENDBRANCH   1  27
TORSDOF 20
ENDMDL
MODEL 3
REMARK VINA RESULT:     -10.3      5.818      9.834
REMARK SMILES C[NH2+][C@]1(C(=O)NCCCCCCNC(=O)c2ccc(-c3c4nc(c(-c5cc(S(=O)(=O)[O-])ccc5F)c5ccc([nH]5)c(-c5cc(S(=O)(=O)[O-])ccc5F)c5nc(c(-c6cc(S(=O)(=O)[O-])ccc6F)c6ccc3[nH]6)C=C5)C=C4)cc2)CCC[C@@H]1CCn1nc(C)c(Cl)c1C
REMARK SMILES IDX 9 1 8 2 7 3 6 4 4 5 5 6 3 8 79 9 82 10 80 11 81 12 2 13 1 14
REMARK SMILES IDX 83 17 84 18 85 19 86 20 91 21 87 22 89 23 92 24 88 25 90 26
REMARK SMILES IDX 10 27 11 28 12 29 13 30 14 31 15 33 16 34 17 35 78 36 18 37
REMARK SMILES IDX 77 38 19 39 20 40 21 41 71 42 22 43 76 44 70 45 72 46 23 47
REMARK SMILES IDX 75 48 69 49 68 50 24 52 56 53 36 54 55 55 37 56 40 57 54 58
REMARK SMILES IDX 73 59 38 60 39 61 53 63 74 64 41 65 25 66 26 67 34 68 27 69
REMARK SMILES IDX 33 70 35 71 32 72 28 73 29 74 30 75 31 76 57 77 58 78 66 79
REMARK SMILES IDX 59 80 65 81 67 82 64 83 60 84 61 85 62 86 63 87 42 88 43 89
REMARK SMILES IDX 51 90 44 91 50 92 52 93 49 94 45 95 46 96 47 97 48 98
REMARK H PARENT 6 7 2 15 2 16 13 32 72 51 40 62
REMARK Flexibility Score: inf
ROOT
ATOM      1  C   UNL A   1      37.588  21.968  24.821  1.00  0.00     0.002 C 
ENDROOT
BRANCH   1   2
ATOM      2  C   UNL A   1      36.934  23.011  23.910  1.00  0.00     0.021 C 
BRANCH   2   3
ATOM      3  C   UNL A   1      35.555  23.472  24.367  1.00  0.00     0.116 C 
BRANCH   3   4
ATOM      4  N   UNL A   1      34.501  22.840  23.595  1.00  0.00    -0.351 N 
ATOM      5  C   UNL A   1      33.441  22.047  23.911  1.00  0.00     0.281 C 
ATOM      6  O   UNL A   1      32.783  21.691  22.926  1.00  0.00    -0.268 OA
ATOM      7  H   UNL A   1      34.567  23.026  22.631  1.00  0.00     0.163 HD
BRANCH   5   8
ATOM      8  C   UNL A   1      33.088  21.653  25.391  1.00  0.00     0.178 C 
ATOM      9  C   UNL A   1      34.362  21.327  26.200  1.00  0.00     0.079 C 
ATOM     10  C   UNL A   1      32.504  22.858  26.184  1.00  0.00     0.062 C 
ATOM     11  C   UNL A   1      34.028  21.642  27.660  1.00  0.00     0.008 C 
ATOM     12  C   UNL A   1      32.780  22.529  27.657  1.00  0.00     0.011 C 
BRANCH   8  13
ATOM     13  N   UNL A   1      32.236  20.435  25.580  1.00  0.00    -0.336 N 
ATOM     14  C   UNL A   1      32.766  19.144  25.192  1.00  0.00     0.331 C 
ATOM     15  H   UNL A   1      32.008  20.380  26.572  1.00  0.00     0.346 HD
ATOM     16  H   UNL A   1      31.454  20.581  24.942  1.00  0.00     0.346 HD
ENDBRANCH   8  13
BRANCH  10  17
ATOM     17  C   UNL A   1      31.047  23.214  25.855  1.00  0.00     0.034 C 
BRANCH  17  18
ATOM     18  C   UNL A   1      30.817  24.712  25.606  1.00  0.00     0.145 C 
BRANCH  18  19
ATOM     19  N   UNL A   1      31.702  25.313  24.618  1.00  0.00    -0.268 N 
ATOM     20  N   UNL A   1      31.563  24.945  23.325  1.00  0.00    -0.176 NA
ATOM     21  C   UNL A   1      32.645  26.299  24.798  1.00  0.00     0.054 A 
ATOM     22  C   UNL A   1      32.347  25.799  22.651  1.00  0.00     0.078 A 
ATOM     23  C   UNL A   1      33.000  26.694  23.525  1.00  0.00     0.084 A 
ATOM     24  C   UNL A   1      33.141  26.783  26.109  1.00  0.00     0.068 C 
ATOM     25  C   UNL A   1      32.440  25.724  21.172  1.00  0.00     0.070 C 
ATOM     26  Cl  UNL A   1      34.037  27.963  23.087  1.00  0.00    -0.080 Cl
ENDBRANCH  18  19
ENDBRANCH  17  18
ENDBRANCH  10  17
ENDBRANCH   5   8
ENDBRANCH   3   4
ENDBRANCH   2   3
ENDBRANCH   1   2
BRANCH   1  27
ATOM     27  C   UNL A   1      37.490  20.520  24.333  1.00  0.00     0.002 C 
BRANCH  27  28
ATOM     28  C   UNL A   1      38.281  19.506  25.157  1.00  0.00     0.021 C 
BRANCH  28  29
ATOM     29  C   UNL A   1      39.280  20.104  26.137  1.00  0.00     0.116 C 
BRANCH  29  30
ATOM     30  N   UNL A   1      40.545  19.392  26.128  1.00  0.00    -0.352 N 
ATOM     31  C   UNL A   1      41.818  19.895  26.204  1.00  0.00     0.251 C 
ATOM     32  H   UNL A   1      40.479  18.412  26.058  1.00  0.00     0.163 HD
ATOM     33  O   UNL A   1      42.776  19.162  25.966  1.00  0.00    -0.269 OA
BRANCH  31  34
ATOM     34  C   UNL A   1      42.029  21.318  26.545  1.00  0.00     0.039 A 
ATOM     35  C   UNL A   1      42.228  21.671  27.882  1.00  0.00     0.014 A 
ATOM     36  C   UNL A   1      42.033  22.304  25.553  1.00  0.00     0.014 A 
ATOM     37  C   UNL A   1      42.483  23.002  28.217  1.00  0.00     0.010 A 
ATOM     38  C   UNL A   1      42.370  23.616  25.878  1.00  0.00     0.010 A 
ATOM     39  C   UNL A   1      42.589  23.982  27.214  1.00  0.00    -0.014 A 
BRANCH  39  40
ATOM     40  C   UNL A   1      42.914  25.394  27.550  1.00  0.00     0.031 A 
ATOM     41  C   UNL A   1      44.321  25.904  27.390  1.00  0.00     0.074 A 
ATOM     42  C   UNL A   1      41.954  26.199  28.048  1.00  0.00     0.049 A 
ATOM     43  N   UNL A   1      44.817  27.077  27.689  1.00  0.00    -0.248 NA
ATOM     44  C   UNL A   1      45.307  24.955  26.850  1.00  0.00     0.031 C 
ATOM     45  C   UNL A   1      40.563  25.807  28.287  1.00  0.00     0.029 A 
ATOM     46  N   UNL A   1      42.001  27.511  28.450  1.00  0.00    -0.354 N 
ATOM     47  C   UNL A   1      46.172  27.004  27.387  1.00  0.00     0.074 A 
ATOM     48  C   UNL A   1      46.430  25.649  26.946  1.00  0.00     0.031 C 
ATOM     49  C   UNL A   1      39.886  26.862  28.768  1.00  0.00     0.029 A 
ATOM     50  C   UNL A   1      40.800  27.989  28.924  1.00  0.00     0.049 A 
ATOM     51  H   UNL A   1      42.818  28.059  28.404  1.00  0.00     0.167 HD
ATOM     52  C   UNL A   1      47.110  27.983  27.448  1.00  0.00     0.034 A 
ATOM     53  C   UNL A   1      40.476  29.190  29.442  1.00  0.00     0.034 A 
ATOM     54  C   UNL A   1      46.830  29.331  27.883  1.00  0.00     0.049 A 
ATOM     55  C   UNL A   1      41.541  30.254  29.532  1.00  0.00     0.074 A 
ATOM     56  C   UNL A   1      47.688  30.416  27.929  1.00  0.00     0.029 A 
ATOM     57  N   UNL A   1      45.603  29.777  28.359  1.00  0.00    -0.354 N 
ATOM     58  N   UNL A   1      42.807  30.188  29.187  1.00  0.00    -0.248 NA
ATOM     59  C   UNL A   1      41.132  31.557  30.067  1.00  0.00     0.031 C 
ATOM     60  C   UNL A   1      47.006  31.490  28.509  1.00  0.00     0.029 A 
ATOM     61  C   UNL A   1      45.694  31.107  28.740  1.00  0.00     0.049 A 
ATOM     62  H   UNL A   1      44.789  29.228  28.419  1.00  0.00     0.167 HD
ATOM     63  C   UNL A   1      43.336  31.452  29.437  1.00  0.00     0.074 A 
ATOM     64  C   UNL A   1      42.247  32.262  29.944  1.00  0.00     0.031 C 
ATOM     65  C   UNL A   1      44.604  31.903  29.258  1.00  0.00     0.034 A 
BRANCH  52  66
ATOM     66  C   UNL A   1      48.526  27.617  27.065  1.00  0.00     0.023 A 
ATOM     67  C   UNL A   1      49.487  27.262  28.028  1.00  0.00     0.031 A 
ATOM     68  C   UNL A   1      48.931  27.652  25.718  1.00  0.00     0.131 A 
ATOM     69  C   UNL A   1      50.819  27.044  27.645  1.00  0.00     0.055 A 
ATOM     70  C   UNL A   1      50.237  27.342  25.333  1.00  0.00     0.041 A 
ATOM     71  F   UNL A   1      48.069  28.004  24.752  1.00  0.00    -0.206 F 
ATOM     72  C   UNL A   1      51.195  27.053  26.300  1.00  0.00     0.022 A 
BRANCH  69  73
ATOM     73  S   UNL A   1      52.081  26.910  28.940  1.00  0.00     0.124 S 
ATOM     74  O   UNL A   1      52.345  28.316  29.240  1.00  0.00    -0.237 OA
ATOM     75  O   UNL A   1      51.390  26.154  29.977  1.00  0.00    -0.237 OA
ATOM     76  O   UNL A   1      53.178  26.206  28.279  1.00  0.00    -0.744 OA
ENDBRANCH  69  73
ENDBRANCH  52  66
BRANCH  53  77
ATOM     77  C   UNL A   1      39.092  29.449  29.937  1.00  0.00     0.023 A 
ATOM     78  C   UNL A   1      38.167  30.170  29.168  1.00  0.00     0.031 A 
ATOM     79  C   UNL A   1      38.688  29.008  31.211  1.00  0.00     0.131 A 
ATOM     80  C   UNL A   1      36.901  30.471  29.696  1.00  0.00     0.055 A 
ATOM     81  C   UNL A   1      37.407  29.257  31.707  1.00  0.00     0.041 A 
ATOM     82  F   UNL A   1      39.532  28.313  31.990  1.00  0.00    -0.206 F 
ATOM     83  C   UNL A   1      36.509  30.006  30.953  1.00  0.00     0.022 A 
BRANCH  80  84
ATOM     84  S   UNL A   1      35.802  31.563  28.752  1.00  0.00     0.124 S 
ATOM     85  O   UNL A   1      34.853  31.986  29.776  1.00  0.00    -0.237 OA
ATOM     86  O   UNL A   1      36.728  32.585  28.274  1.00  0.00    -0.237 OA
ATOM     87  O   UNL A   1      35.256  30.687  27.719  1.00  0.00    -0.744 OA
ENDBRANCH  80  84
ENDBRANCH  53  77
BRANCH  65  88
ATOM     88  C   UNL A   1      44.869  33.356  29.574  1.00  0.00     0.023 A 
ATOM     89  C   UNL A   1      44.720  34.367  28.608  1.00  0.00     0.031 A 
ATOM     90  C   UNL A   1      45.285  33.733  30.864  1.00  0.00     0.131 A 
ATOM     91  C   UNL A   1      45.041  35.695  28.930  1.00  0.00     0.055 A 
ATOM     92  C   UNL A   1      45.536  35.065  31.197  1.00  0.00     0.041 A 
ATOM     93  F   UNL A   1      45.449  32.811  31.826  1.00  0.00    -0.206 F 
ATOM     94  C   UNL A   1      45.428  36.053  30.223  1.00  0.00     0.022 A 
BRANCH  91  95
ATOM     95  S   UNL A   1      45.043  36.935  27.606  1.00  0.00     0.124 S 
ATOM     96  O   UNL A   1      43.622  37.047  27.292  1.00  0.00    -0.237 OA
ATOM     97  O   UNL A   1      45.645  38.091  28.263  1.00  0.00    -0.237 OA
ATOM     98  O   UNL A   1      45.861  36.321  26.562  1.00  0.00    -0.744 OA
ENDBRANCH  91  95
ENDBRANCH  65  88
ENDBRANCH  39  40
ENDBRANCH  31  34
ENDBRANCH  29  30
ENDBRANCH  28  29
ENDBRANCH  27  28
ENDBRANCH   1  27
TORSDOF 20
ENDMDL
