MODEL 1
REMARK VINA RESULT:     -11.3      0.000      0.000
REMARK SMILES Cc1c(/C=C2/SC(=S)N(CCC(=O)NCCCCCCNC(=O)c3ccc(-c4c5nc(c(-c6cc(S(=O)(=O)[O-])ccc6F)c6ccc([nH]6)c(-c6cc(S(=O)(=O)[O-])ccc6F)c6nc(c(-c7cc(S(=O)(=O)[O-])ccc7F)c7ccc4[nH]7)C=C6)C=C5)cc3)C2=O)c(N2C[C@@H](C)C[C@H](C)C2)n(C)c(=O)c1C#N
REMARK SMILES IDX 17 1 16 2 15 3 14 4 12 5 13 6 11 8 10 9 9 10 4 11 5 12 6 13
REMARK SMILES IDX 87 14 7 15 88 16 8 17 3 18 1 19 2 20 102 21 89 22 100 23
REMARK SMILES IDX 98 24 101 25 99 26 103 27 104 28 90 29 91 30 97 31 92 32
REMARK SMILES IDX 95 33 93 34 94 35 96 36 18 37 19 38 20 39 21 40 22 41 23 43
REMARK SMILES IDX 24 44 25 45 86 46 26 47 85 48 27 49 28 50 29 51 79 52 30 53
REMARK SMILES IDX 84 54 78 55 80 56 31 57 83 58 77 59 76 60 32 62 64 63 44 64
REMARK SMILES IDX 63 65 45 66 48 67 62 68 81 69 46 70 47 71 61 73 82 74 49 75
REMARK SMILES IDX 33 76 34 77 42 78 35 79 41 80 43 81 40 82 36 83 37 84 38 85
REMARK SMILES IDX 39 86 65 87 66 88 74 89 67 90 73 91 75 92 72 93 68 94 69 95
REMARK SMILES IDX 70 96 71 97 50 98 51 99 59 100 52 101 58 102 60 103 57 104
REMARK SMILES IDX 53 105 54 106 55 107 56 108
REMARK H PARENT 14 7 21 42 80 61 48 72
REMARK Flexibility Score: inf
ROOT
ATOM      1  C   UNL A   1      34.566  20.475  25.024  1.00  0.00     0.002 C 
ENDROOT
BRANCH   1   2
ATOM      2  C   UNL A   1      33.243  20.589  25.764  1.00  0.00     0.021 C 
BRANCH   2   3
ATOM      3  C   UNL A   1      32.939  22.071  26.091  1.00  0.00     0.116 C 
BRANCH   3   4
ATOM      4  N   UNL A   1      31.754  22.300  26.921  1.00  0.00    -0.356 N 
ATOM      5  C   UNL A   1      30.752  23.214  26.815  1.00  0.00     0.221 C 
ATOM      6  O   UNL A   1      29.719  23.043  27.464  1.00  0.00    -0.275 OA
ATOM      7  H   UNL A   1      31.668  21.686  27.686  1.00  0.00     0.163 HD
BRANCH   5   8
ATOM      8  C   UNL A   1      30.934  24.441  25.964  1.00  0.00     0.122 C 
BRANCH   8   9
ATOM      9  C   UNL A   1      30.418  24.181  24.545  1.00  0.00     0.137 C 
BRANCH   9  10
ATOM     10  N   UNL A   1      30.994  25.112  23.561  1.00  0.00    -0.292 N 
ATOM     11  C   UNL A   1      31.338  28.574  22.435  1.00  0.00     0.033 C 
ATOM     12  C   UNL A   1      31.328  27.233  22.573  1.00  0.00     0.081 C 
ATOM     13  S   UNL A   1      32.456  26.208  21.753  1.00  0.00    -0.054 SA
ATOM     14  C   UNL A   1      30.443  26.382  23.416  1.00  0.00     0.266 C 
ATOM     15  C   UNL A   1      32.081  24.819  22.764  1.00  0.00     0.148 C 
ATOM     16  O   UNL A   1      29.374  26.763  23.874  1.00  0.00    -0.268 OA
ATOM     17  S   UNL A   1      32.978  23.414  22.717  1.00  0.00    -0.052 S 
BRANCH  11  18
ATOM     18  C   UNL A   1      30.440  29.579  23.010  1.00  0.00     0.021 A 
ATOM     19  C   UNL A   1      27.975  29.443  22.059  1.00  0.00     0.047 C 
ATOM     20  C   UNL A   1      29.272  30.166  22.302  1.00  0.00    -0.017 A 
ATOM     21  C   UNL A   1      29.121  31.486  22.346  1.00  0.00     0.121 A 
ATOM     22  C   UNL A   1      30.788  30.087  24.229  1.00  0.00     0.118 A 
ATOM     23  C   UNL A   1      29.593  32.135  23.625  1.00  0.00     0.270 A 
ATOM     24  N   UNL A   1      30.208  31.309  24.575  1.00  0.00    -0.296 N 
ATOM     25  O   UNL A   1      29.314  33.314  23.846  1.00  0.00    -0.268 OA
ATOM     26  C   UNL A   1      30.415  31.859  25.903  1.00  0.00     0.155 C 
BRANCH  21  27
ATOM     27  C   UNL A   1      28.215  32.373  21.508  1.00  0.00     0.105 C 
ATOM     28  N   UNL A   1      27.461  33.108  20.813  1.00  0.00    -0.192 NA
ENDBRANCH  21  27
BRANCH  22  29
ATOM     29  N   UNL A   1      31.721  29.475  25.100  1.00  0.00    -0.357 N 
ATOM     30  C   UNL A   1      33.182  29.545  24.896  1.00  0.00     0.121 C 
ATOM     31  C   UNL A   1      31.314  28.318  25.921  1.00  0.00     0.121 C 
ATOM     32  C   UNL A   1      33.951  29.607  26.218  1.00  0.00     0.006 C 
ATOM     33  C   UNL A   1      31.972  28.418  27.307  1.00  0.00     0.006 C 
ATOM     34  C   UNL A   1      33.857  30.997  26.843  1.00  0.00     0.009 C 
ATOM     35  C   UNL A   1      33.500  28.497  27.176  1.00  0.00     0.010 C 
ATOM     36  C   UNL A   1      31.575  27.237  28.190  1.00  0.00     0.009 C 
ENDBRANCH  22  29
ENDBRANCH  11  18
ENDBRANCH   9  10
ENDBRANCH   8   9
ENDBRANCH   5   8
ENDBRANCH   3   4
ENDBRANCH   2   3
ENDBRANCH   1   2
BRANCH   1  37
ATOM     37  C   UNL A   1      35.341  21.687  24.486  1.00  0.00     0.002 C 
BRANCH  37  38
ATOM     38  C   UNL A   1      36.853  21.745  24.354  1.00  0.00     0.021 C 
BRANCH  38  39
ATOM     39  C   UNL A   1      37.681  22.516  25.413  1.00  0.00     0.116 C 
BRANCH  39  40
ATOM     40  N   UNL A   1      38.960  21.970  25.900  1.00  0.00    -0.352 N 
ATOM     41  C   UNL A   1      39.882  22.595  26.721  1.00  0.00     0.251 C 
ATOM     42  H   UNL A   1      39.184  21.057  25.607  1.00  0.00     0.163 HD
ATOM     43  O   UNL A   1      40.836  22.002  27.209  1.00  0.00    -0.269 OA
BRANCH  41  44
ATOM     44  C   UNL A   1      39.678  24.030  26.963  1.00  0.00     0.039 A 
ATOM     45  C   UNL A   1      39.317  24.430  28.250  1.00  0.00     0.014 A 
ATOM     46  C   UNL A   1      40.173  24.930  26.020  1.00  0.00     0.014 A 
ATOM     47  C   UNL A   1      39.583  25.739  28.642  1.00  0.00     0.010 A 
ATOM     48  C   UNL A   1      40.513  26.207  26.444  1.00  0.00     0.010 A 
ATOM     49  C   UNL A   1      40.245  26.612  27.764  1.00  0.00    -0.014 A 
BRANCH  49  50
ATOM     50  C   UNL A   1      40.672  27.958  28.210  1.00  0.00     0.031 A 
ATOM     51  C   UNL A   1      42.135  28.279  28.253  1.00  0.00     0.074 A 
ATOM     52  C   UNL A   1      39.763  28.861  28.631  1.00  0.00     0.049 A 
ATOM     53  N   UNL A   1      42.721  29.382  28.635  1.00  0.00    -0.248 NA
ATOM     54  C   UNL A   1      43.062  27.215  27.835  1.00  0.00     0.031 C 
ATOM     55  C   UNL A   1      38.317  28.641  28.692  1.00  0.00     0.029 A 
ATOM     56  N   UNL A   1      39.921  30.144  29.096  1.00  0.00    -0.354 N 
ATOM     57  C   UNL A   1      44.081  29.141  28.507  1.00  0.00     0.074 A 
ATOM     58  C   UNL A   1      44.238  27.768  28.085  1.00  0.00     0.031 C 
ATOM     59  C   UNL A   1      37.721  29.757  29.144  1.00  0.00     0.029 A 
ATOM     60  C   UNL A   1      38.740  30.765  29.435  1.00  0.00     0.049 A 
ATOM     61  H   UNL A   1      40.800  30.580  29.180  1.00  0.00     0.167 HD
ATOM     62  C   UNL A   1      45.107  29.999  28.688  1.00  0.00     0.034 A 
ATOM     63  C   UNL A   1      38.505  32.003  29.918  1.00  0.00     0.034 A 
ATOM     64  C   UNL A   1      44.942  31.372  29.079  1.00  0.00     0.049 A 
ATOM     65  C   UNL A   1      39.666  32.947  30.112  1.00  0.00     0.074 A 
ATOM     66  C   UNL A   1      45.920  32.337  29.223  1.00  0.00     0.029 A 
ATOM     67  N   UNL A   1      43.732  31.974  29.383  1.00  0.00    -0.354 N 
ATOM     68  N   UNL A   1      40.942  32.738  29.882  1.00  0.00    -0.248 NA
ATOM     69  C   UNL A   1      39.364  34.296  30.613  1.00  0.00     0.031 C 
ATOM     70  C   UNL A   1      45.310  33.509  29.667  1.00  0.00     0.029 A 
ATOM     71  C   UNL A   1      43.941  33.294  29.738  1.00  0.00     0.049 A 
ATOM     72  H   UNL A   1      42.853  31.528  29.350  1.00  0.00     0.167 HD
ATOM     73  C   UNL A   1      41.588  33.934  30.182  1.00  0.00     0.074 A 
ATOM     74  C   UNL A   1      40.562  34.869  30.595  1.00  0.00     0.031 C 
ATOM     75  C   UNL A   1      42.911  34.229  30.119  1.00  0.00     0.034 A 
BRANCH  62  76
ATOM     76  C   UNL A   1      46.501  29.503  28.434  1.00  0.00     0.023 A 
ATOM     77  C   UNL A   1      47.269  29.001  29.497  1.00  0.00     0.031 A 
ATOM     78  C   UNL A   1      47.103  29.631  27.169  1.00  0.00     0.131 A 
ATOM     79  C   UNL A   1      48.613  28.677  29.285  1.00  0.00     0.055 A 
ATOM     80  C   UNL A   1      48.431  29.269  26.954  1.00  0.00     0.041 A 
ATOM     81  F   UNL A   1      46.400  30.097  26.123  1.00  0.00    -0.206 F 
ATOM     82  C   UNL A   1      49.196  28.801  28.018  1.00  0.00     0.022 A 
BRANCH  79  83
ATOM     83  S   UNL A   1      49.664  28.124  30.653  1.00  0.00     0.124 S 
ATOM     84  O   UNL A   1      50.177  26.854  30.143  1.00  0.00    -0.237 OA
ATOM     85  O   UNL A   1      50.641  29.204  30.739  1.00  0.00    -0.237 OA
ATOM     86  O   UNL A   1      48.742  28.009  31.777  1.00  0.00    -0.744 OA
ENDBRANCH  79  83
ENDBRANCH  62  76
BRANCH  63  87
ATOM     87  C   UNL A   1      37.101  32.431  30.183  1.00  0.00     0.023 A 
ATOM     88  C   UNL A   1      36.349  33.100  29.201  1.00  0.00     0.031 A 
ATOM     89  C   UNL A   1      36.521  32.251  31.451  1.00  0.00     0.131 A 
ATOM     90  C   UNL A   1      35.084  33.613  29.520  1.00  0.00     0.055 A 
ATOM     91  C   UNL A   1      35.235  32.709  31.746  1.00  0.00     0.041 A 
ATOM     92  F   UNL A   1      37.203  31.627  32.424  1.00  0.00    -0.206 F 
ATOM     93  C   UNL A   1      34.515  33.406  30.781  1.00  0.00     0.022 A 
BRANCH  90  94
ATOM     94  S   UNL A   1      34.177  34.646  28.337  1.00  0.00     0.124 S 
ATOM     95  O   UNL A   1      32.819  34.121  28.444  1.00  0.00    -0.237 OA
ATOM     96  O   UNL A   1      34.382  35.982  28.894  1.00  0.00    -0.237 OA
ATOM     97  O   UNL A   1      34.852  34.394  27.069  1.00  0.00    -0.744 OA
ENDBRANCH  90  94
ENDBRANCH  63  87
BRANCH  75  98
ATOM     98  C   UNL A   1      43.371  35.619  30.480  1.00  0.00     0.023 A 
ATOM     99  C   UNL A   1      43.482  35.983  31.836  1.00  0.00     0.031 A 
ATOM    100  C   UNL A   1      43.506  36.620  29.506  1.00  0.00     0.131 A 
ATOM    101  C   UNL A   1      43.665  37.326  32.182  1.00  0.00     0.055 A 
ATOM    102  C   UNL A   1      43.736  37.951  29.856  1.00  0.00     0.041 A 
ATOM    103  F   UNL A   1      43.394  36.321  28.202  1.00  0.00    -0.206 F 
ATOM    104  C   UNL A   1      43.800  38.312  31.199  1.00  0.00     0.022 A 
BRANCH 101 105
ATOM    105  S   UNL A   1      43.650  37.855  33.918  1.00  0.00     0.124 S 
ATOM    106  O   UNL A   1      42.972  36.736  34.569  1.00  0.00    -0.237 OA
ATOM    107  O   UNL A   1      45.074  37.978  34.213  1.00  0.00    -0.237 OA
ATOM    108  O   UNL A   1      42.899  39.106  33.899  1.00  0.00    -0.744 OA
ENDBRANCH 101 105
ENDBRANCH  75  98
ENDBRANCH  49  50
ENDBRANCH  41  44
ENDBRANCH  39  40
ENDBRANCH  38  39
ENDBRANCH  37  38
ENDBRANCH   1  37
TORSDOF 21
ENDMDL
MODEL 2
REMARK VINA RESULT:     -11.3      2.848      7.292
REMARK SMILES Cc1c(/C=C2/SC(=S)N(CCC(=O)NCCCCCCNC(=O)c3ccc(-c4c5nc(c(-c6cc(S(=O)(=O)[O-])ccc6F)c6ccc([nH]6)c(-c6cc(S(=O)(=O)[O-])ccc6F)c6nc(c(-c7cc(S(=O)(=O)[O-])ccc7F)c7ccc4[nH]7)C=C6)C=C5)cc3)C2=O)c(N2C[C@@H](C)C[C@H](C)C2)n(C)c(=O)c1C#N
REMARK SMILES IDX 17 1 16 2 15 3 14 4 12 5 13 6 11 8 10 9 9 10 4 11 5 12 6 13
REMARK SMILES IDX 87 14 7 15 88 16 8 17 3 18 1 19 2 20 102 21 89 22 100 23
REMARK SMILES IDX 98 24 101 25 99 26 103 27 104 28 90 29 91 30 97 31 92 32
REMARK SMILES IDX 95 33 93 34 94 35 96 36 18 37 19 38 20 39 21 40 22 41 23 43
REMARK SMILES IDX 24 44 25 45 86 46 26 47 85 48 27 49 28 50 29 51 79 52 30 53
REMARK SMILES IDX 84 54 78 55 80 56 31 57 83 58 77 59 76 60 32 62 64 63 44 64
REMARK SMILES IDX 63 65 45 66 48 67 62 68 81 69 46 70 47 71 61 73 82 74 49 75
REMARK SMILES IDX 33 76 34 77 42 78 35 79 41 80 43 81 40 82 36 83 37 84 38 85
REMARK SMILES IDX 39 86 65 87 66 88 74 89 67 90 73 91 75 92 72 93 68 94 69 95
REMARK SMILES IDX 70 96 71 97 50 98 51 99 59 100 52 101 58 102 60 103 57 104
REMARK SMILES IDX 53 105 54 106 55 107 56 108
REMARK H PARENT 14 7 21 42 80 61 48 72
REMARK Flexibility Score: inf
ROOT
ATOM      1  C   UNL A   1      34.526  20.354  25.028  1.00  0.00     0.002 C 
ENDROOT
BRANCH   1   2
ATOM      2  C   UNL A   1      33.201  20.467  25.764  1.00  0.00     0.021 C 
BRANCH   2   3
ATOM      3  C   UNL A   1      32.779  21.952  25.883  1.00  0.00     0.116 C 
BRANCH   3   4
ATOM      4  N   UNL A   1      31.655  22.214  26.784  1.00  0.00    -0.356 N 
ATOM      5  C   UNL A   1      30.693  23.176  26.757  1.00  0.00     0.221 C 
ATOM      6  O   UNL A   1      29.692  23.037  27.460  1.00  0.00    -0.275 OA
ATOM      7  H   UNL A   1      31.584  21.587  27.540  1.00  0.00     0.163 HD
BRANCH   5   8
ATOM      8  C   UNL A   1      30.885  24.414  25.923  1.00  0.00     0.122 C 
BRANCH   8   9
ATOM      9  C   UNL A   1      30.274  24.214  24.532  1.00  0.00     0.137 C 
BRANCH   9  10
ATOM     10  N   UNL A   1      30.852  25.125  23.532  1.00  0.00    -0.292 N 
ATOM     11  C   UNL A   1      31.235  28.570  22.364  1.00  0.00     0.033 C 
ATOM     12  C   UNL A   1      31.206  27.230  22.517  1.00  0.00     0.081 C 
ATOM     13  S   UNL A   1      32.309  26.180  21.694  1.00  0.00    -0.054 SA
ATOM     14  C   UNL A   1      30.318  26.402  23.380  1.00  0.00     0.266 C 
ATOM     15  C   UNL A   1      31.925  24.808  22.725  1.00  0.00     0.148 C 
ATOM     16  O   UNL A   1      29.261  26.804  23.846  1.00  0.00    -0.268 OA
ATOM     17  S   UNL A   1      32.799  23.388  22.683  1.00  0.00    -0.052 S 
BRANCH  11  18
ATOM     18  C   UNL A   1      30.359  29.594  22.939  1.00  0.00     0.021 A 
ATOM     19  C   UNL A   1      27.889  29.506  21.995  1.00  0.00     0.047 C 
ATOM     20  C   UNL A   1      29.201  30.204  22.232  1.00  0.00    -0.017 A 
ATOM     21  C   UNL A   1      29.078  31.526  22.273  1.00  0.00     0.121 A 
ATOM     22  C   UNL A   1      30.721  30.098  24.155  1.00  0.00     0.118 A 
ATOM     23  C   UNL A   1      29.567  32.169  23.549  1.00  0.00     0.270 A 
ATOM     24  N   UNL A   1      30.167  31.333  24.499  1.00  0.00    -0.296 N 
ATOM     25  O   UNL A   1      29.312  33.354  23.767  1.00  0.00    -0.268 OA
ATOM     26  C   UNL A   1      30.389  31.883  25.825  1.00  0.00     0.155 C 
BRANCH  21  27
ATOM     27  C   UNL A   1      28.187  32.429  21.435  1.00  0.00     0.105 C 
ATOM     28  N   UNL A   1      27.449  33.180  20.740  1.00  0.00    -0.192 NA
ENDBRANCH  21  27
BRANCH  22  29
ATOM     29  N   UNL A   1      31.644  29.471  25.025  1.00  0.00    -0.357 N 
ATOM     30  C   UNL A   1      33.105  29.512  24.818  1.00  0.00     0.121 C 
ATOM     31  C   UNL A   1      31.216  28.322  25.849  1.00  0.00     0.121 C 
ATOM     32  C   UNL A   1      33.878  29.560  26.138  1.00  0.00     0.006 C 
ATOM     33  C   UNL A   1      31.879  28.412  27.233  1.00  0.00     0.006 C 
ATOM     34  C   UNL A   1      33.812  30.953  26.761  1.00  0.00     0.009 C 
ATOM     35  C   UNL A   1      33.408  28.461  27.099  1.00  0.00     0.010 C 
ATOM     36  C   UNL A   1      31.461  27.240  28.119  1.00  0.00     0.009 C 
ENDBRANCH  22  29
ENDBRANCH  11  18
ENDBRANCH   9  10
ENDBRANCH   8   9
ENDBRANCH   5   8
ENDBRANCH   3   4
ENDBRANCH   2   3
ENDBRANCH   1   2
BRANCH   1  37
ATOM     37  C   UNL A   1      35.372  21.569  24.619  1.00  0.00     0.002 C 
BRANCH  37  38
ATOM     38  C   UNL A   1      36.852  21.507  24.286  1.00  0.00     0.021 C 
BRANCH  38  39
ATOM     39  C   UNL A   1      37.896  21.697  25.415  1.00  0.00     0.116 C 
BRANCH  39  40
ATOM     40  N   UNL A   1      38.989  20.723  25.591  1.00  0.00    -0.352 N 
ATOM     41  C   UNL A   1      40.045  20.798  26.481  1.00  0.00     0.251 C 
ATOM     42  H   UNL A   1      38.965  19.931  25.007  1.00  0.00     0.163 HD
ATOM     43  O   UNL A   1      40.812  19.862  26.672  1.00  0.00    -0.269 OA
BRANCH  41  44
ATOM     44  C   UNL A   1      40.225  22.078  27.180  1.00  0.00     0.039 A 
ATOM     45  C   UNL A   1      41.298  22.194  28.066  1.00  0.00     0.014 A 
ATOM     46  C   UNL A   1      39.549  23.194  26.687  1.00  0.00     0.014 A 
ATOM     47  C   UNL A   1      41.787  23.464  28.360  1.00  0.00     0.010 A 
ATOM     48  C   UNL A   1      40.094  24.449  26.917  1.00  0.00     0.010 A 
ATOM     49  C   UNL A   1      41.232  24.591  27.733  1.00  0.00    -0.014 A 
BRANCH  49  50
ATOM     50  C   UNL A   1      41.831  25.933  27.914  1.00  0.00     0.031 A 
ATOM     51  C   UNL A   1      41.064  26.977  28.665  1.00  0.00     0.074 A 
ATOM     52  C   UNL A   1      43.023  26.230  27.356  1.00  0.00     0.049 A 
ATOM     53  N   UNL A   1      41.393  28.216  28.912  1.00  0.00    -0.248 NA
ATOM     54  C   UNL A   1      39.744  26.586  29.187  1.00  0.00     0.031 C 
ATOM     55  C   UNL A   1      43.834  25.315  26.551  1.00  0.00     0.029 A 
ATOM     56  N   UNL A   1      43.756  27.392  27.374  1.00  0.00    -0.354 N 
ATOM     57  C   UNL A   1      40.321  28.751  29.612  1.00  0.00     0.074 A 
ATOM     58  C   UNL A   1      39.303  27.729  29.687  1.00  0.00     0.031 C 
ATOM     59  C   UNL A   1      44.961  25.942  26.173  1.00  0.00     0.029 A 
ATOM     60  C   UNL A   1      44.944  27.313  26.682  1.00  0.00     0.049 A 
ATOM     61  H   UNL A   1      43.460  28.207  27.839  1.00  0.00     0.167 HD
ATOM     62  C   UNL A   1      40.212  29.972  30.177  1.00  0.00     0.034 A 
ATOM     63  C   UNL A   1      45.909  28.236  26.483  1.00  0.00     0.034 A 
ATOM     64  C   UNL A   1      41.241  30.973  30.124  1.00  0.00     0.049 A 
ATOM     65  C   UNL A   1      45.766  29.594  27.124  1.00  0.00     0.074 A 
ATOM     66  C   UNL A   1      41.246  32.218  30.724  1.00  0.00     0.029 A 
ATOM     67  N   UNL A   1      42.440  30.847  29.442  1.00  0.00    -0.354 N 
ATOM     68  N   UNL A   1      44.792  30.050  27.877  1.00  0.00    -0.248 NA
ATOM     69  C   UNL A   1      46.853  30.561  26.908  1.00  0.00     0.031 C 
ATOM     70  C   UNL A   1      42.424  32.868  30.360  1.00  0.00     0.029 A 
ATOM     71  C   UNL A   1      43.185  32.004  29.587  1.00  0.00     0.049 A 
ATOM     72  H   UNL A   1      42.721  30.053  28.931  1.00  0.00     0.167 HD
ATOM     73  C   UNL A   1      45.162  31.340  28.246  1.00  0.00     0.074 A 
ATOM     74  C   UNL A   1      46.456  31.590  27.648  1.00  0.00     0.031 C 
ATOM     75  C   UNL A   1      44.488  32.235  29.012  1.00  0.00     0.034 A 
BRANCH  62  76
ATOM     76  C   UNL A   1      38.955  30.294  30.933  1.00  0.00     0.023 A 
ATOM     77  C   UNL A   1      37.993  31.141  30.361  1.00  0.00     0.031 A 
ATOM     78  C   UNL A   1      38.766  29.855  32.255  1.00  0.00     0.131 A 
ATOM     79  C   UNL A   1      36.896  31.556  31.125  1.00  0.00     0.055 A 
ATOM     80  C   UNL A   1      37.650  30.237  32.998  1.00  0.00     0.041 A 
ATOM     81  F   UNL A   1      39.657  29.034  32.836  1.00  0.00    -0.206 F 
ATOM     82  C   UNL A   1      36.716  31.102  32.436  1.00  0.00     0.022 A 
BRANCH  79  83
ATOM     83  S   UNL A   1      35.688  32.729  30.458  1.00  0.00     0.124 S 
ATOM     84  O   UNL A   1      36.338  34.012  30.720  1.00  0.00    -0.237 OA
ATOM     85  O   UNL A   1      35.626  32.334  29.055  1.00  0.00    -0.237 OA
ATOM     86  O   UNL A   1      34.485  32.476  31.243  1.00  0.00    -0.744 OA
ENDBRANCH  79  83
ENDBRANCH  62  76
BRANCH  63  87
ATOM     87  C   UNL A   1      47.121  27.870  25.696  1.00  0.00     0.023 A 
ATOM     88  C   UNL A   1      47.196  28.130  24.316  1.00  0.00     0.031 A 
ATOM     89  C   UNL A   1      48.187  27.177  26.296  1.00  0.00     0.131 A 
ATOM     90  C   UNL A   1      48.286  27.653  23.573  1.00  0.00     0.055 A 
ATOM     91  C   UNL A   1      49.300  26.758  25.565  1.00  0.00     0.041 A 
ATOM     92  F   UNL A   1      48.156  26.896  27.608  1.00  0.00    -0.206 F 
ATOM     93  C   UNL A   1      49.347  26.984  24.193  1.00  0.00     0.022 A 
BRANCH  90  94
ATOM     94  S   UNL A   1      48.315  27.803  21.766  1.00  0.00     0.124 S 
ATOM     95  O   UNL A   1      49.392  28.765  21.553  1.00  0.00    -0.237 OA
ATOM     96  O   UNL A   1      48.606  26.429  21.361  1.00  0.00    -0.237 OA
ATOM     97  O   UNL A   1      46.975  28.275  21.438  1.00  0.00    -0.744 OA
ENDBRANCH  90  94
ENDBRANCH  63  87
BRANCH  75  98
ATOM     98  C   UNL A   1      45.111  33.579  29.290  1.00  0.00     0.023 A 
ATOM     99  C   UNL A   1      44.800  34.674  28.461  1.00  0.00     0.031 A 
ATOM    100  C   UNL A   1      46.141  33.726  30.233  1.00  0.00     0.131 A 
ATOM    101  C   UNL A   1      45.551  35.851  28.553  1.00  0.00     0.055 A 
ATOM    102  C   UNL A   1      46.856  34.919  30.352  1.00  0.00     0.041 A 
ATOM    103  F   UNL A   1      46.481  32.704  31.036  1.00  0.00    -0.206 F 
ATOM    104  C   UNL A   1      46.573  35.982  29.499  1.00  0.00     0.022 A 
BRANCH 101 105
ATOM    105  S   UNL A   1      45.287  37.221  27.392  1.00  0.00     0.124 S 
ATOM    106  O   UNL A   1      46.419  37.068  26.481  1.00  0.00    -0.237 OA
ATOM    107  O   UNL A   1      43.982  36.894  26.826  1.00  0.00    -0.237 OA
ATOM    108  O   UNL A   1      45.329  38.410  28.236  1.00  0.00    -0.744 OA
ENDBRANCH 101 105
ENDBRANCH  75  98
ENDBRANCH  49  50
ENDBRANCH  41  44
ENDBRANCH  39  40
ENDBRANCH  38  39
ENDBRANCH  37  38
ENDBRANCH   1  37
TORSDOF 21
ENDMDL
MODEL 3
REMARK VINA RESULT:     -11.2      2.809      3.274
REMARK SMILES Cc1c(/C=C2/SC(=S)N(CCC(=O)NCCCCCCNC(=O)c3ccc(-c4c5nc(c(-c6cc(S(=O)(=O)[O-])ccc6F)c6ccc([nH]6)c(-c6cc(S(=O)(=O)[O-])ccc6F)c6nc(c(-c7cc(S(=O)(=O)[O-])ccc7F)c7ccc4[nH]7)C=C6)C=C5)cc3)C2=O)c(N2C[C@@H](C)C[C@H](C)C2)n(C)c(=O)c1C#N
REMARK SMILES IDX 17 1 16 2 15 3 14 4 12 5 13 6 11 8 10 9 9 10 4 11 5 12 6 13
REMARK SMILES IDX 87 14 7 15 88 16 8 17 3 18 1 19 2 20 102 21 89 22 100 23
REMARK SMILES IDX 98 24 101 25 99 26 103 27 104 28 90 29 91 30 97 31 92 32
REMARK SMILES IDX 95 33 93 34 94 35 96 36 18 37 19 38 20 39 21 40 22 41 23 43
REMARK SMILES IDX 24 44 25 45 86 46 26 47 85 48 27 49 28 50 29 51 79 52 30 53
REMARK SMILES IDX 84 54 78 55 80 56 31 57 83 58 77 59 76 60 32 62 64 63 44 64
REMARK SMILES IDX 63 65 45 66 48 67 62 68 81 69 46 70 47 71 61 73 82 74 49 75
REMARK SMILES IDX 33 76 34 77 42 78 35 79 41 80 43 81 40 82 36 83 37 84 38 85
REMARK SMILES IDX 39 86 65 87 66 88 74 89 67 90 73 91 75 92 72 93 68 94 69 95
REMARK SMILES IDX 70 96 71 97 50 98 51 99 59 100 52 101 58 102 60 103 57 104
REMARK SMILES IDX 53 105 54 106 55 107 56 108
REMARK H PARENT 14 7 21 42 80 61 48 72
REMARK Flexibility Score: inf
ROOT
ATOM      1  C   UNL A   1      33.992  20.160  25.041  1.00  0.00     0.002 C 
ENDROOT
BRANCH   1   2
ATOM      2  C   UNL A   1      32.500  20.280  25.309  1.00  0.00     0.021 C 
BRANCH   2   3
ATOM      3  C   UNL A   1      32.076  21.769  25.317  1.00  0.00     0.116 C 
BRANCH   3   4
ATOM      4  N   UNL A   1      31.216  22.171  26.431  1.00  0.00    -0.356 N 
ATOM      5  C   UNL A   1      30.418  23.261  26.597  1.00  0.00     0.221 C 
ATOM      6  O   UNL A   1      29.577  23.253  27.496  1.00  0.00    -0.275 OA
ATOM      7  H   UNL A   1      31.214  21.545  27.191  1.00  0.00     0.163 HD
BRANCH   5   8
ATOM      8  C   UNL A   1      30.609  24.476  25.730  1.00  0.00     0.122 C 
BRANCH   8   9
ATOM      9  C   UNL A   1      30.423  24.107  24.254  1.00  0.00     0.137 C 
BRANCH   9  10
ATOM     10  N   UNL A   1      31.049  25.084  23.350  1.00  0.00    -0.292 N 
ATOM     11  C   UNL A   1      31.457  28.599  22.425  1.00  0.00     0.033 C 
ATOM     12  C   UNL A   1      31.437  27.252  22.492  1.00  0.00     0.081 C 
ATOM     13  S   UNL A   1      32.602  26.267  21.676  1.00  0.00    -0.054 SA
ATOM     14  C   UNL A   1      30.509  26.363  23.245  1.00  0.00     0.266 C 
ATOM     15  C   UNL A   1      32.174  24.829  22.593  1.00  0.00     0.148 C 
ATOM     16  O   UNL A   1      29.420  26.725  23.669  1.00  0.00    -0.268 OA
ATOM     17  S   UNL A   1      33.069  23.423  22.518  1.00  0.00    -0.052 S 
BRANCH  11  18
ATOM     18  C   UNL A   1      30.533  29.577  23.007  1.00  0.00     0.021 A 
ATOM     19  C   UNL A   1      28.085  29.419  22.016  1.00  0.00     0.047 C 
ATOM     20  C   UNL A   1      29.366  30.159  22.293  1.00  0.00    -0.017 A 
ATOM     21  C   UNL A   1      29.192  31.475  22.362  1.00  0.00     0.121 A 
ATOM     22  C   UNL A   1      30.854  30.065  24.241  1.00  0.00     0.118 A 
ATOM     23  C   UNL A   1      29.634  32.105  23.661  1.00  0.00     0.270 A 
ATOM     24  N   UNL A   1      30.249  31.270  24.603  1.00  0.00    -0.296 N 
ATOM     25  O   UNL A   1      29.331  33.274  23.902  1.00  0.00    -0.268 OA
ATOM     26  C   UNL A   1      30.426  31.796  25.945  1.00  0.00     0.155 C 
BRANCH  21  27
ATOM     27  C   UNL A   1      28.283  32.363  21.528  1.00  0.00     0.105 C 
ATOM     28  N   UNL A   1      27.528  33.101  20.838  1.00  0.00    -0.192 NA
ENDBRANCH  21  27
BRANCH  22  29
ATOM     29  N   UNL A   1      31.785  29.452  25.113  1.00  0.00    -0.357 N 
ATOM     30  C   UNL A   1      33.247  29.552  24.934  1.00  0.00     0.121 C 
ATOM     31  C   UNL A   1      31.386  28.269  25.902  1.00  0.00     0.121 C 
ATOM     32  C   UNL A   1      33.994  29.598  26.269  1.00  0.00     0.006 C 
ATOM     33  C   UNL A   1      32.021  28.351  27.300  1.00  0.00     0.006 C 
ATOM     34  C   UNL A   1      33.865  30.973  26.923  1.00  0.00     0.009 C 
ATOM     35  C   UNL A   1      33.549  28.460  27.195  1.00  0.00     0.010 C 
ATOM     36  C   UNL A   1      31.631  27.144  28.152  1.00  0.00     0.009 C 
ENDBRANCH  22  29
ENDBRANCH  11  18
ENDBRANCH   9  10
ENDBRANCH   8   9
ENDBRANCH   5   8
ENDBRANCH   3   4
ENDBRANCH   2   3
ENDBRANCH   1   2
BRANCH   1  37
ATOM     37  C   UNL A   1      34.955  21.356  25.068  1.00  0.00     0.002 C 
BRANCH  37  38
ATOM     38  C   UNL A   1      36.394  21.305  24.586  1.00  0.00     0.021 C 
BRANCH  38  39
ATOM     39  C   UNL A   1      37.543  21.556  25.594  1.00  0.00     0.116 C 
BRANCH  39  40
ATOM     40  N   UNL A   1      38.803  20.797  25.492  1.00  0.00    -0.352 N 
ATOM     41  C   UNL A   1      39.979  21.024  26.185  1.00  0.00     0.251 C 
ATOM     42  H   UNL A   1      38.808  20.044  24.858  1.00  0.00     0.163 HD
ATOM     43  O   UNL A   1      40.919  20.239  26.159  1.00  0.00    -0.269 OA
BRANCH  41  44
ATOM     44  C   UNL A   1      40.061  22.279  26.944  1.00  0.00     0.039 A 
ATOM     45  C   UNL A   1      40.992  22.355  27.982  1.00  0.00     0.014 A 
ATOM     46  C   UNL A   1      39.472  23.417  26.395  1.00  0.00     0.014 A 
ATOM     47  C   UNL A   1      41.440  23.609  28.388  1.00  0.00     0.010 A 
ATOM     48  C   UNL A   1      39.985  24.658  26.744  1.00  0.00     0.010 A 
ATOM     49  C   UNL A   1      40.990  24.761  27.723  1.00  0.00    -0.014 A 
BRANCH  49  50
ATOM     50  C   UNL A   1      41.564  26.091  28.035  1.00  0.00     0.031 A 
ATOM     51  C   UNL A   1      42.956  26.406  27.580  1.00  0.00     0.074 A 
ATOM     52  C   UNL A   1      40.869  26.981  28.771  1.00  0.00     0.049 A 
ATOM     53  N   UNL A   1      43.653  27.493  27.770  1.00  0.00    -0.248 NA
ATOM     54  C   UNL A   1      43.667  25.353  26.836  1.00  0.00     0.031 C 
ATOM     55  C   UNL A   1      39.530  26.764  29.322  1.00  0.00     0.029 A 
ATOM     56  N   UNL A   1      41.196  28.247  29.192  1.00  0.00    -0.354 N 
ATOM     57  C   UNL A   1      44.882  27.252  27.173  1.00  0.00     0.074 A 
ATOM     58  C   UNL A   1      44.865  25.895  26.681  1.00  0.00     0.031 C 
ATOM     59  C   UNL A   1      39.142  27.866  29.985  1.00  0.00     0.029 A 
ATOM     60  C   UNL A   1      40.214  28.860  29.936  1.00  0.00     0.049 A 
ATOM     61  H   UNL A   1      42.056  28.678  28.981  1.00  0.00     0.167 HD
ATOM     62  C   UNL A   1      45.920  28.102  27.014  1.00  0.00     0.034 A 
ATOM     63  C   UNL A   1      40.177  30.082  30.509  1.00  0.00     0.034 A 
ATOM     64  C   UNL A   1      45.920  29.461  27.479  1.00  0.00     0.049 A 
ATOM     65  C   UNL A   1      41.347  31.015  30.318  1.00  0.00     0.074 A 
ATOM     66  C   UNL A   1      46.901  30.418  27.306  1.00  0.00     0.029 A 
ATOM     67  N   UNL A   1      44.897  30.056  28.200  1.00  0.00    -0.354 N 
ATOM     68  N   UNL A   1      42.462  30.811  29.656  1.00  0.00    -0.248 NA
ATOM     69  C   UNL A   1      41.256  32.348  30.933  1.00  0.00     0.031 C 
ATOM     70  C   UNL A   1      46.498  31.576  27.969  1.00  0.00     0.029 A 
ATOM     71  C   UNL A   1      45.235  31.363  28.501  1.00  0.00     0.049 A 
ATOM     72  H   UNL A   1      44.055  29.614  28.460  1.00  0.00     0.167 HD
ATOM     73  C   UNL A   1      43.189  31.995  29.750  1.00  0.00     0.074 A 
ATOM     74  C   UNL A   1      42.382  32.918  30.520  1.00  0.00     0.031 C 
ATOM     75  C   UNL A   1      44.413  32.288  29.243  1.00  0.00     0.034 A 
BRANCH  62  76
ATOM     76  C   UNL A   1      47.133  27.610  26.279  1.00  0.00     0.023 A 
ATOM     77  C   UNL A   1      47.296  27.911  24.917  1.00  0.00     0.031 A 
ATOM     78  C   UNL A   1      48.064  26.755  26.896  1.00  0.00     0.131 A 
ATOM     79  C   UNL A   1      48.348  27.329  24.202  1.00  0.00     0.055 A 
ATOM     80  C   UNL A   1      49.135  26.211  26.189  1.00  0.00     0.041 A 
ATOM     81  F   UNL A   1      47.951  26.450  28.199  1.00  0.00    -0.206 F 
ATOM     82  C   UNL A   1      49.273  26.488  24.832  1.00  0.00     0.022 A 
BRANCH  79  83
ATOM     83  S   UNL A   1      48.532  27.612  22.423  1.00  0.00     0.124 S 
ATOM     84  O   UNL A   1      49.752  28.415  22.370  1.00  0.00    -0.237 OA
ATOM     85  O   UNL A   1      48.656  26.251  21.912  1.00  0.00    -0.237 OA
ATOM     86  O   UNL A   1      47.311  28.320  22.053  1.00  0.00    -0.744 OA
ENDBRANCH  79  83
ENDBRANCH  62  76
BRANCH  63  87
ATOM     87  C   UNL A   1      38.957  30.505  31.255  1.00  0.00     0.023 A 
ATOM     88  C   UNL A   1      37.968  31.295  30.641  1.00  0.00     0.031 A 
ATOM     89  C   UNL A   1      38.804  30.196  32.617  1.00  0.00     0.131 A 
ATOM     90  C   UNL A   1      36.901  31.794  31.401  1.00  0.00     0.055 A 
ATOM     91  C   UNL A   1      37.706  30.643  33.356  1.00  0.00     0.041 A 
ATOM     92  F   UNL A   1      39.726  29.454  33.250  1.00  0.00    -0.206 F 
ATOM     93  C   UNL A   1      36.755  31.458  32.751  1.00  0.00     0.022 A 
BRANCH  90  94
ATOM     94  S   UNL A   1      35.722  32.970  30.685  1.00  0.00     0.124 S 
ATOM     95  O   UNL A   1      35.995  32.853  29.256  1.00  0.00    -0.237 OA
ATOM     96  O   UNL A   1      34.445  32.416  31.131  1.00  0.00    -0.237 OA
ATOM     97  O   UNL A   1      36.090  34.243  31.295  1.00  0.00    -0.744 OA
ENDBRANCH  90  94
ENDBRANCH  63  87
BRANCH  75  98
ATOM     98  C   UNL A   1      44.989  33.663  29.465  1.00  0.00     0.023 A 
ATOM     99  C   UNL A   1      44.966  34.603  28.417  1.00  0.00     0.031 A 
ATOM    100  C   UNL A   1      45.721  33.971  30.623  1.00  0.00     0.131 A 
ATOM    101  C   UNL A   1      45.709  35.784  28.526  1.00  0.00     0.055 A 
ATOM    102  C   UNL A   1      46.421  35.172  30.745  1.00  0.00     0.041 A 
ATOM    103  F   UNL A   1      45.781  33.099  31.642  1.00  0.00    -0.206 F 
ATOM    104  C   UNL A   1      46.431  36.077  29.688  1.00  0.00     0.022 A 
BRANCH 101 105
ATOM    105  S   UNL A   1      45.834  36.941  27.133  1.00  0.00     0.124 S 
ATOM    106  O   UNL A   1      44.498  37.531  27.108  1.00  0.00    -0.237 OA
ATOM    107  O   UNL A   1      46.902  37.834  27.573  1.00  0.00    -0.237 OA
ATOM    108  O   UNL A   1      46.156  36.087  25.994  1.00  0.00    -0.744 OA
ENDBRANCH 101 105
ENDBRANCH  75  98
ENDBRANCH  49  50
ENDBRANCH  41  44
ENDBRANCH  39  40
ENDBRANCH  38  39
ENDBRANCH  37  38
ENDBRANCH   1  37
TORSDOF 21
ENDMDL
