MODEL 1
REMARK VINA RESULT:     -11.4      0.000      0.000
REMARK SMILES C[C@H]1CN(c2ccc(C(=O)NCCCCCCNC(=O)c3ccc(-c4c5nc(c(-c6cc(S(=O)(=O)[O-])ccc6F)c6ccc([nH]6)c(-c6cc(S(=O)(=O)[O-])ccc6F)c6nc(c(-c7cc(S(=O)(=O)[O-])ccc7F)c7ccc4[nH]7)C=C6)C=C5)cc3)cc2[N+](=O)[O-])C[C@@H]1C
REMARK SMILES IDX 15 1 14 2 13 3 12 4 11 5 9 6 10 7 8 9 5 10 6 11 85 12 7 13
REMARK SMILES IDX 84 14 4 15 1 16 2 17 3 18 90 19 89 20 91 21 86 22 87 23
REMARK SMILES IDX 88 24 16 25 17 26 18 27 19 28 20 30 21 31 22 32 83 33 23 34
REMARK SMILES IDX 82 35 24 36 25 37 26 38 76 39 27 40 81 41 75 42 77 43 28 44
REMARK SMILES IDX 80 45 74 46 73 47 29 49 61 50 41 51 60 52 42 53 45 54 59 55
REMARK SMILES IDX 78 56 43 57 44 58 58 60 79 61 46 62 30 63 31 64 39 65 32 66
REMARK SMILES IDX 38 67 40 68 37 69 33 70 34 71 35 72 36 73 62 74 63 75 71 76
REMARK SMILES IDX 64 77 70 78 72 79 69 80 65 81 66 82 67 83 68 84 47 85 48 86
REMARK SMILES IDX 56 87 49 88 55 89 57 90 54 91 50 92 51 93 52 94 53 95
REMARK H PARENT 11 8 18 29 77 48 45 59
REMARK Flexibility Score: inf
ROOT
ATOM      1  C   UNL A   1      36.824  20.068  25.027  1.00  0.00     0.002 C 
ENDROOT
BRANCH   1   2
ATOM      2  C   UNL A   1      36.227  21.376  24.492  1.00  0.00     0.002 C 
BRANCH   2   3
ATOM      3  C   UNL A   1      35.322  22.113  25.487  1.00  0.00     0.021 C 
BRANCH   3   4
ATOM      4  C   UNL A   1      34.055  21.325  25.827  1.00  0.00     0.116 C 
BRANCH   4   5
ATOM      5  N   UNL A   1      33.426  20.862  24.603  1.00  0.00    -0.352 N 
ATOM      6  C   UNL A   1      32.545  21.452  23.737  1.00  0.00     0.251 C 
ATOM      7  O   UNL A   1      32.150  20.791  22.777  1.00  0.00    -0.269 OA
ATOM      8  H   UNL A   1      33.681  19.947  24.348  1.00  0.00     0.163 HD
BRANCH   6   9
ATOM      9  C   UNL A   1      32.108  22.869  23.862  1.00  0.00     0.046 A 
ATOM     10  C   UNL A   1      31.498  25.657  23.976  1.00  0.00     0.116 A 
ATOM     11  C   UNL A   1      32.065  25.076  22.834  1.00  0.00     0.034 A 
ATOM     12  C   UNL A   1      31.204  24.786  25.033  1.00  0.00     0.293 A 
ATOM     13  C   UNL A   1      32.383  23.713  22.780  1.00  0.00     0.016 A 
ATOM     14  C   UNL A   1      31.451  23.403  24.967  1.00  0.00     0.101 A 
BRANCH  10  15
ATOM     15  N   UNL A   1      31.267  27.004  23.966  1.00  0.00    -0.365 N 
ATOM     16  C   UNL A   1      30.206  29.432  22.104  1.00  0.00     0.010 C 
ATOM     17  C   UNL A   1      30.262  29.112  23.600  1.00  0.00     0.010 C 
ATOM     18  C   UNL A   1      29.953  27.628  23.872  1.00  0.00     0.120 C 
ATOM     19  C   UNL A   1      31.684  29.302  24.166  1.00  0.00     0.010 C 
ATOM     20  C   UNL A   1      32.361  27.959  23.867  1.00  0.00     0.120 C 
ATOM     21  C   UNL A   1      31.668  29.576  25.673  1.00  0.00     0.010 C 
ENDBRANCH  10  15
BRANCH  12  22
ATOM     22  N   UNL A   1      30.638  25.279  26.277  1.00  0.00     0.065 N 
ATOM     23  O   UNL A   1      31.388  25.963  26.990  1.00  0.00    -0.258 OA
ATOM     24  O   UNL A   1      29.480  24.949  26.565  1.00  0.00    -0.258 OA
ENDBRANCH  12  22
ENDBRANCH   6   9
ENDBRANCH   4   5
ENDBRANCH   3   4
ENDBRANCH   2   3
ENDBRANCH   1   2
BRANCH   1  25
ATOM     25  C   UNL A   1      38.320  19.889  24.755  1.00  0.00     0.021 C 
BRANCH  25  26
ATOM     26  C   UNL A   1      39.212  20.251  25.936  1.00  0.00     0.116 C 
BRANCH  26  27
ATOM     27  N   UNL A   1      40.324  19.323  26.063  1.00  0.00    -0.352 N 
ATOM     28  C   UNL A   1      41.668  19.589  26.151  1.00  0.00     0.251 C 
ATOM     29  H   UNL A   1      40.078  18.370  26.092  1.00  0.00     0.163 HD
ATOM     30  O   UNL A   1      42.481  18.688  25.979  1.00  0.00    -0.269 OA
BRANCH  28  31
ATOM     31  C   UNL A   1      42.120  20.968  26.438  1.00  0.00     0.039 A 
ATOM     32  C   UNL A   1      42.396  21.332  27.757  1.00  0.00     0.014 A 
ATOM     33  C   UNL A   1      42.262  21.898  25.404  1.00  0.00     0.014 A 
ATOM     34  C   UNL A   1      42.866  22.617  28.032  1.00  0.00     0.010 A 
ATOM     35  C   UNL A   1      42.804  23.151  25.671  1.00  0.00     0.010 A 
ATOM     36  C   UNL A   1      43.104  23.527  26.989  1.00  0.00    -0.014 A 
BRANCH  36  37
ATOM     37  C   UNL A   1      43.654  24.880  27.255  1.00  0.00     0.031 A 
ATOM     38  C   UNL A   1      42.764  25.960  27.809  1.00  0.00     0.074 A 
ATOM     39  C   UNL A   1      44.936  25.153  26.947  1.00  0.00     0.049 A 
ATOM     40  N   UNL A   1      43.037  27.216  28.054  1.00  0.00    -0.248 NA
ATOM     41  C   UNL A   1      41.373  25.578  28.093  1.00  0.00     0.031 C 
ATOM     42  C   UNL A   1      45.886  24.197  26.374  1.00  0.00     0.029 A 
ATOM     43  N   UNL A   1      45.662  26.310  27.069  1.00  0.00    -0.354 N 
ATOM     44  C   UNL A   1      41.850  27.777  28.515  1.00  0.00     0.074 A 
ATOM     45  C   UNL A   1      40.841  26.741  28.435  1.00  0.00     0.031 C 
ATOM     46  C   UNL A   1      47.079  24.797  26.231  1.00  0.00     0.029 A 
ATOM     47  C   UNL A   1      46.966  26.190  26.652  1.00  0.00     0.049 A 
ATOM     48  H   UNL A   1      45.283  27.148  27.421  1.00  0.00     0.167 HD
ATOM     49  C   UNL A   1      41.629  29.029  28.989  1.00  0.00     0.034 A 
ATOM     50  C   UNL A   1      47.957  27.101  26.609  1.00  0.00     0.034 A 
ATOM     51  C   UNL A   1      42.648  30.051  29.052  1.00  0.00     0.049 A 
ATOM     52  C   UNL A   1      47.678  28.504  27.082  1.00  0.00     0.074 A 
ATOM     53  C   UNL A   1      42.552  31.339  29.547  1.00  0.00     0.029 A 
ATOM     54  N   UNL A   1      43.952  29.902  28.591  1.00  0.00    -0.354 N 
ATOM     55  N   UNL A   1      46.563  29.011  27.558  1.00  0.00    -0.248 NA
ATOM     56  C   UNL A   1      48.794  29.455  27.017  1.00  0.00     0.031 C 
ATOM     57  C   UNL A   1      43.768  31.992  29.317  1.00  0.00     0.029 A 
ATOM     58  C   UNL A   1      44.656  31.087  28.756  1.00  0.00     0.049 A 
ATOM     59  H   UNL A   1      44.322  29.077  28.203  1.00  0.00     0.167 HD
ATOM     60  C   UNL A   1      46.855  30.333  27.879  1.00  0.00     0.074 A 
ATOM     61  C   UNL A   1      48.253  30.539  27.552  1.00  0.00     0.031 C 
ATOM     62  C   UNL A   1      46.045  31.288  28.405  1.00  0.00     0.034 A 
BRANCH  49  63
ATOM     63  C   UNL A   1      40.221  29.356  29.438  1.00  0.00     0.023 A 
ATOM     64  C   UNL A   1      39.896  29.486  30.801  1.00  0.00     0.031 A 
ATOM     65  C   UNL A   1      39.177  29.472  28.503  1.00  0.00     0.131 A 
ATOM     66  C   UNL A   1      38.555  29.611  31.194  1.00  0.00     0.055 A 
ATOM     67  C   UNL A   1      37.857  29.699  28.898  1.00  0.00     0.041 A 
ATOM     68  F   UNL A   1      39.417  29.339  27.189  1.00  0.00    -0.206 F 
ATOM     69  C   UNL A   1      37.535  29.746  30.250  1.00  0.00     0.022 A 
BRANCH  66  70
ATOM     70  S   UNL A   1      38.149  29.394  32.949  1.00  0.00     0.124 S 
ATOM     71  O   UNL A   1      37.372  28.156  32.921  1.00  0.00    -0.237 OA
ATOM     72  O   UNL A   1      39.465  29.310  33.570  1.00  0.00    -0.237 OA
ATOM     73  O   UNL A   1      37.379  30.594  33.273  1.00  0.00    -0.744 OA
ENDBRANCH  66  70
ENDBRANCH  49  63
BRANCH  50  74
ATOM     74  C   UNL A   1      49.308  26.717  26.110  1.00  0.00     0.023 A 
ATOM     75  C   UNL A   1      49.756  27.144  24.851  1.00  0.00     0.031 A 
ATOM     76  C   UNL A   1      50.163  25.904  26.876  1.00  0.00     0.131 A 
ATOM     77  C   UNL A   1      51.011  26.730  24.377  1.00  0.00     0.055 A 
ATOM     78  C   UNL A   1      51.430  25.535  26.421  1.00  0.00     0.041 A 
ATOM     79  F   UNL A   1      49.784  25.474  28.089  1.00  0.00    -0.206 F 
ATOM     80  C   UNL A   1      51.857  25.941  25.160  1.00  0.00     0.022 A 
BRANCH  77  81
ATOM     81  S   UNL A   1      51.497  27.188  22.691  1.00  0.00     0.124 S 
ATOM     82  O   UNL A   1      50.274  26.914  21.944  1.00  0.00    -0.237 OA
ATOM     83  O   UNL A   1      51.852  28.594  22.849  1.00  0.00    -0.237 OA
ATOM     84  O   UNL A   1      52.616  26.293  22.406  1.00  0.00    -0.744 OA
ENDBRANCH  77  81
ENDBRANCH  50  74
BRANCH  62  85
ATOM     85  C   UNL A   1      46.669  32.632  28.697  1.00  0.00     0.023 A 
ATOM     86  C   UNL A   1      46.632  33.685  27.766  1.00  0.00     0.031 A 
ATOM     87  C   UNL A   1      47.325  32.855  29.921  1.00  0.00     0.131 A 
ATOM     88  C   UNL A   1      47.289  34.892  28.051  1.00  0.00     0.055 A 
ATOM     89  C   UNL A   1      47.920  34.081  30.225  1.00  0.00     0.041 A 
ATOM     90  F   UNL A   1      47.396  31.884  30.846  1.00  0.00    -0.206 F 
ATOM     91  C   UNL A   1      47.916  35.104  29.282  1.00  0.00     0.022 A 
BRANCH  88  92
ATOM     92  S   UNL A   1      47.401  36.153  26.750  1.00  0.00     0.124 S 
ATOM     93  O   UNL A   1      48.761  35.959  26.257  1.00  0.00    -0.237 OA
ATOM     94  O   UNL A   1      46.330  35.758  25.839  1.00  0.00    -0.237 OA
ATOM     95  O   UNL A   1      47.174  37.407  27.465  1.00  0.00    -0.744 OA
ENDBRANCH  88  92
ENDBRANCH  62  85
ENDBRANCH  36  37
ENDBRANCH  28  31
ENDBRANCH  26  27
ENDBRANCH  25  26
ENDBRANCH   1  25
TORSDOF 18
ENDMDL
MODEL 2
REMARK VINA RESULT:     -11.3      1.801      7.655
REMARK SMILES C[C@H]1CN(c2ccc(C(=O)NCCCCCCNC(=O)c3ccc(-c4c5nc(c(-c6cc(S(=O)(=O)[O-])ccc6F)c6ccc([nH]6)c(-c6cc(S(=O)(=O)[O-])ccc6F)c6nc(c(-c7cc(S(=O)(=O)[O-])ccc7F)c7ccc4[nH]7)C=C6)C=C5)cc3)cc2[N+](=O)[O-])C[C@@H]1C
REMARK SMILES IDX 15 1 14 2 13 3 12 4 11 5 9 6 10 7 8 9 5 10 6 11 85 12 7 13
REMARK SMILES IDX 84 14 4 15 1 16 2 17 3 18 90 19 89 20 91 21 86 22 87 23
REMARK SMILES IDX 88 24 16 25 17 26 18 27 19 28 20 30 21 31 22 32 83 33 23 34
REMARK SMILES IDX 82 35 24 36 25 37 26 38 76 39 27 40 81 41 75 42 77 43 28 44
REMARK SMILES IDX 80 45 74 46 73 47 29 49 61 50 41 51 60 52 42 53 45 54 59 55
REMARK SMILES IDX 78 56 43 57 44 58 58 60 79 61 46 62 30 63 31 64 39 65 32 66
REMARK SMILES IDX 38 67 40 68 37 69 33 70 34 71 35 72 36 73 62 74 63 75 71 76
REMARK SMILES IDX 64 77 70 78 72 79 69 80 65 81 66 82 67 83 68 84 47 85 48 86
REMARK SMILES IDX 56 87 49 88 55 89 57 90 54 91 50 92 51 93 52 94 53 95
REMARK H PARENT 11 8 18 29 77 48 45 59
REMARK Flexibility Score: inf
ROOT
ATOM      1  C   UNL A   1      38.203  21.513  25.236  1.00  0.00     0.002 C 
ENDROOT
BRANCH   1   2
ATOM      2  C   UNL A   1      36.755  21.511  25.740  1.00  0.00     0.002 C 
BRANCH   2   3
ATOM      3  C   UNL A   1      35.742  20.913  24.755  1.00  0.00     0.021 C 
BRANCH   3   4
ATOM      4  C   UNL A   1      34.677  20.061  25.448  1.00  0.00     0.116 C 
BRANCH   4   5
ATOM      5  N   UNL A   1      33.760  19.527  24.458  1.00  0.00    -0.352 N 
ATOM      6  C   UNL A   1      32.632  20.036  23.873  1.00  0.00     0.251 C 
ATOM      7  O   UNL A   1      32.027  19.325  23.070  1.00  0.00    -0.269 OA
ATOM      8  H   UNL A   1      33.994  18.623  24.148  1.00  0.00     0.163 HD
BRANCH   6   9
ATOM      9  C   UNL A   1      32.153  21.425  24.105  1.00  0.00     0.046 A 
ATOM     10  C   UNL A   1      31.438  24.176  24.396  1.00  0.00     0.116 A 
ATOM     11  C   UNL A   1      31.862  23.653  23.167  1.00  0.00     0.034 A 
ATOM     12  C   UNL A   1      31.339  23.264  25.454  1.00  0.00     0.293 A 
ATOM     13  C   UNL A   1      32.231  22.310  23.024  1.00  0.00     0.016 A 
ATOM     14  C   UNL A   1      31.637  21.897  25.309  1.00  0.00     0.101 A 
BRANCH  10  15
ATOM     15  N   UNL A   1      31.147  25.509  24.463  1.00  0.00    -0.365 N 
ATOM     16  C   UNL A   1      29.920  27.977  22.762  1.00  0.00     0.010 C 
ATOM     17  C   UNL A   1      30.038  27.584  24.237  1.00  0.00     0.010 C 
ATOM     18  C   UNL A   1      29.804  26.076  24.440  1.00  0.00     0.120 C 
ATOM     19  C   UNL A   1      31.467  27.811  24.771  1.00  0.00     0.010 C 
ATOM     20  C   UNL A   1      32.194  26.518  24.382  1.00  0.00     0.120 C 
ATOM     21  C   UNL A   1      31.486  28.007  26.289  1.00  0.00     0.010 C 
ENDBRANCH  10  15
BRANCH  12  22
ATOM     22  N   UNL A   1      30.934  23.695  26.782  1.00  0.00     0.065 N 
ATOM     23  O   UNL A   1      31.787  24.303  27.447  1.00  0.00    -0.258 OA
ATOM     24  O   UNL A   1      29.802  23.390  27.177  1.00  0.00    -0.258 OA
ENDBRANCH  12  22
ENDBRANCH   6   9
ENDBRANCH   4   5
ENDBRANCH   3   4
ENDBRANCH   2   3
ENDBRANCH   1   2
BRANCH   1  25
ATOM     25  C   UNL A   1      38.894  20.148  25.270  1.00  0.00     0.021 C 
BRANCH  25  26
ATOM     26  C   UNL A   1      39.809  19.946  26.472  1.00  0.00     0.116 C 
BRANCH  26  27
ATOM     27  N   UNL A   1      41.011  19.214  26.105  1.00  0.00    -0.352 N 
ATOM     28  C   UNL A   1      42.268  19.693  25.833  1.00  0.00     0.251 C 
ATOM     29  H   UNL A   1      40.909  18.236  26.045  1.00  0.00     0.163 HD
ATOM     30  O   UNL A   1      43.090  18.972  25.278  1.00  0.00    -0.269 OA
BRANCH  28  31
ATOM     31  C   UNL A   1      42.612  21.084  26.200  1.00  0.00     0.039 A 
ATOM     32  C   UNL A   1      42.683  22.054  25.198  1.00  0.00     0.014 A 
ATOM     33  C   UNL A   1      42.868  21.424  27.531  1.00  0.00     0.014 A 
ATOM     34  C   UNL A   1      42.962  23.378  25.541  1.00  0.00     0.010 A 
ATOM     35  C   UNL A   1      43.068  22.756  27.880  1.00  0.00     0.010 A 
ATOM     36  C   UNL A   1      43.126  23.746  26.887  1.00  0.00    -0.014 A 
BRANCH  36  37
ATOM     37  C   UNL A   1      43.370  25.158  27.277  1.00  0.00     0.031 A 
ATOM     38  C   UNL A   1      44.741  25.757  27.118  1.00  0.00     0.074 A 
ATOM     39  C   UNL A   1      42.375  25.881  27.825  1.00  0.00     0.049 A 
ATOM     40  N   UNL A   1      45.170  26.946  27.453  1.00  0.00    -0.248 NA
ATOM     41  C   UNL A   1      45.771  24.887  26.533  1.00  0.00     0.031 C 
ATOM     42  C   UNL A   1      41.012  25.397  28.060  1.00  0.00     0.029 A 
ATOM     43  N   UNL A   1      42.353  27.173  28.285  1.00  0.00    -0.354 N 
ATOM     44  C   UNL A   1      46.522  26.966  27.126  1.00  0.00     0.074 A 
ATOM     45  C   UNL A   1      46.853  25.641  26.643  1.00  0.00     0.031 C 
ATOM     46  C   UNL A   1      40.279  26.392  28.584  1.00  0.00     0.029 A 
ATOM     47  C   UNL A   1      41.128  27.564  28.770  1.00  0.00     0.049 A 
ATOM     48  H   UNL A   1      43.141  27.762  28.270  1.00  0.00     0.167 HD
ATOM     49  C   UNL A   1      47.399  28.000  27.192  1.00  0.00     0.034 A 
ATOM     50  C   UNL A   1      40.735  28.735  29.309  1.00  0.00     0.034 A 
ATOM     51  C   UNL A   1      47.051  29.312  27.685  1.00  0.00     0.049 A 
ATOM     52  C   UNL A   1      41.738  29.853  29.432  1.00  0.00     0.074 A 
ATOM     53  C   UNL A   1      47.842  30.444  27.763  1.00  0.00     0.029 A 
ATOM     54  N   UNL A   1      45.807  29.664  28.198  1.00  0.00    -0.354 N 
ATOM     55  N   UNL A   1      43.003  29.874  29.077  1.00  0.00    -0.248 NA
ATOM     56  C   UNL A   1      41.256  31.107  30.023  1.00  0.00     0.031 C 
ATOM     57  C   UNL A   1      47.104  31.454  28.391  1.00  0.00     0.029 A 
ATOM     58  C   UNL A   1      45.823  30.983  28.628  1.00  0.00     0.049 A 
ATOM     59  H   UNL A   1      45.028  29.064  28.250  1.00  0.00     0.167 HD
ATOM     60  C   UNL A   1      43.458  31.155  29.374  1.00  0.00     0.074 A 
ATOM     61  C   UNL A   1      42.329  31.878  29.925  1.00  0.00     0.031 C 
ATOM     62  C   UNL A   1      44.695  31.688  29.198  1.00  0.00     0.034 A 
BRANCH  49  63
ATOM     63  C   UNL A   1      48.820  27.725  26.752  1.00  0.00     0.023 A 
ATOM     64  C   UNL A   1      49.241  27.971  25.431  1.00  0.00     0.031 A 
ATOM     65  C   UNL A   1      49.749  27.149  27.636  1.00  0.00     0.131 A 
ATOM     66  C   UNL A   1      50.507  27.542  25.006  1.00  0.00     0.055 A 
ATOM     67  C   UNL A   1      51.044  26.818  27.232  1.00  0.00     0.041 A 
ATOM     68  F   UNL A   1      49.406  26.871  28.904  1.00  0.00    -0.206 F 
ATOM     69  C   UNL A   1      51.423  26.991  25.905  1.00  0.00     0.022 A 
BRANCH  66  70
ATOM     70  S   UNL A   1      50.860  27.532  23.227  1.00  0.00     0.124 S 
ATOM     71  O   UNL A   1      50.954  28.962  22.937  1.00  0.00    -0.237 OA
ATOM     72  O   UNL A   1      52.108  26.782  23.156  1.00  0.00    -0.237 OA
ATOM     73  O   UNL A   1      49.695  26.865  22.650  1.00  0.00    -0.744 OA
ENDBRANCH  66  70
ENDBRANCH  49  63
BRANCH  50  74
ATOM     74  C   UNL A   1      39.328  28.916  29.764  1.00  0.00     0.023 A 
ATOM     75  C   UNL A   1      38.333  29.341  28.871  1.00  0.00     0.031 A 
ATOM     76  C   UNL A   1      38.960  28.683  31.102  1.00  0.00     0.131 A 
ATOM     77  C   UNL A   1      37.024  29.554  29.330  1.00  0.00     0.055 A 
ATOM     78  C   UNL A   1      37.646  28.849  31.543  1.00  0.00     0.041 A 
ATOM     79  F   UNL A   1      39.872  28.270  31.995  1.00  0.00    -0.206 F 
ATOM     80  C   UNL A   1      36.671  29.297  30.657  1.00  0.00     0.022 A 
BRANCH  77  81
ATOM     81  S   UNL A   1      35.800  30.236  28.179  1.00  0.00     0.124 S 
ATOM     82  O   UNL A   1      35.441  31.489  28.833  1.00  0.00    -0.237 OA
ATOM     83  O   UNL A   1      36.575  30.352  26.947  1.00  0.00    -0.237 OA
ATOM     84  O   UNL A   1      34.751  29.219  28.158  1.00  0.00    -0.744 OA
ENDBRANCH  77  81
ENDBRANCH  50  74
BRANCH  62  85
ATOM     85  C   UNL A   1      44.874  33.141  29.570  1.00  0.00     0.023 A 
ATOM     86  C   UNL A   1      44.658  34.177  28.646  1.00  0.00     0.031 A 
ATOM     87  C   UNL A   1      45.284  33.491  30.870  1.00  0.00     0.131 A 
ATOM     88  C   UNL A   1      44.908  35.508  29.015  1.00  0.00     0.055 A 
ATOM     89  C   UNL A   1      45.468  34.821  31.252  1.00  0.00     0.041 A 
ATOM     90  F   UNL A   1      45.511  32.543  31.794  1.00  0.00    -0.206 F 
ATOM     91  C   UNL A   1      45.293  35.838  30.318  1.00  0.00     0.022 A 
BRANCH  88  92
ATOM     92  S   UNL A   1      44.822  36.799  27.743  1.00  0.00     0.124 S 
ATOM     93  O   UNL A   1      45.924  36.429  26.861  1.00  0.00    -0.237 OA
ATOM     94  O   UNL A   1      43.480  36.611  27.199  1.00  0.00    -0.237 OA
ATOM     95  O   UNL A   1      45.017  38.037  28.495  1.00  0.00    -0.744 OA
ENDBRANCH  88  92
ENDBRANCH  62  85
ENDBRANCH  36  37
ENDBRANCH  28  31
ENDBRANCH  26  27
ENDBRANCH  25  26
ENDBRANCH   1  25
TORSDOF 18
ENDMDL
MODEL 3
REMARK VINA RESULT:     -11.2      3.559      8.758
REMARK SMILES C[C@H]1CN(c2ccc(C(=O)NCCCCCCNC(=O)c3ccc(-c4c5nc(c(-c6cc(S(=O)(=O)[O-])ccc6F)c6ccc([nH]6)c(-c6cc(S(=O)(=O)[O-])ccc6F)c6nc(c(-c7cc(S(=O)(=O)[O-])ccc7F)c7ccc4[nH]7)C=C6)C=C5)cc3)cc2[N+](=O)[O-])C[C@@H]1C
REMARK SMILES IDX 15 1 14 2 13 3 12 4 11 5 9 6 10 7 8 9 5 10 6 11 85 12 7 13
REMARK SMILES IDX 84 14 4 15 1 16 2 17 3 18 90 19 89 20 91 21 86 22 87 23
REMARK SMILES IDX 88 24 16 25 17 26 18 27 19 28 20 30 21 31 22 32 83 33 23 34
REMARK SMILES IDX 82 35 24 36 25 37 26 38 76 39 27 40 81 41 75 42 77 43 28 44
REMARK SMILES IDX 80 45 74 46 73 47 29 49 61 50 41 51 60 52 42 53 45 54 59 55
REMARK SMILES IDX 78 56 43 57 44 58 58 60 79 61 46 62 30 63 31 64 39 65 32 66
REMARK SMILES IDX 38 67 40 68 37 69 33 70 34 71 35 72 36 73 62 74 63 75 71 76
REMARK SMILES IDX 64 77 70 78 72 79 69 80 65 81 66 82 67 83 68 84 47 85 48 86
REMARK SMILES IDX 56 87 49 88 55 89 57 90 54 91 50 92 51 93 52 94 53 95
REMARK H PARENT 11 8 18 29 77 48 45 59
REMARK Flexibility Score: inf
ROOT
ATOM      1  C   UNL A   1      34.597  23.777  25.251  1.00  0.00     0.002 C 
ENDROOT
BRANCH   1   2
ATOM      2  C   UNL A   1      33.752  22.760  24.475  1.00  0.00     0.002 C 
BRANCH   2   3
ATOM      3  C   UNL A   1      33.945  22.805  22.953  1.00  0.00     0.021 C 
BRANCH   3   4
ATOM      4  C   UNL A   1      32.621  22.910  22.193  1.00  0.00     0.116 C 
BRANCH   4   5
ATOM      5  N   UNL A   1      32.818  23.674  20.975  1.00  0.00    -0.352 N 
ATOM      6  C   UNL A   1      32.840  25.019  20.721  1.00  0.00     0.251 C 
ATOM      7  O   UNL A   1      33.001  25.384  19.556  1.00  0.00    -0.269 OA
ATOM      8  H   UNL A   1      32.964  23.117  20.177  1.00  0.00     0.163 HD
BRANCH   6   9
ATOM      9  C   UNL A   1      32.754  26.049  21.790  1.00  0.00     0.046 A 
ATOM     10  C   UNL A   1      32.731  27.859  24.001  1.00  0.00     0.116 A 
ATOM     11  C   UNL A   1      33.876  27.125  23.664  1.00  0.00     0.034 A 
ATOM     12  C   UNL A   1      31.620  27.690  23.164  1.00  0.00     0.293 A 
ATOM     13  C   UNL A   1      33.887  26.223  22.593  1.00  0.00     0.016 A 
ATOM     14  C   UNL A   1      31.638  26.843  22.042  1.00  0.00     0.101 A 
BRANCH  10  15
ATOM     15  N   UNL A   1      32.788  28.678  25.094  1.00  0.00    -0.365 N 
ATOM     16  C   UNL A   1      34.465  29.262  27.802  1.00  0.00     0.010 C 
ATOM     17  C   UNL A   1      33.603  30.066  26.824  1.00  0.00     0.010 C 
ATOM     18  C   UNL A   1      33.852  29.636  25.367  1.00  0.00     0.120 C 
ATOM     19  C   UNL A   1      32.101  29.791  27.038  1.00  0.00     0.010 C 
ATOM     20  C   UNL A   1      31.853  28.531  26.200  1.00  0.00     0.120 C 
ATOM     21  C   UNL A   1      31.231  30.951  26.542  1.00  0.00     0.010 C 
ENDBRANCH  10  15
BRANCH  12  22
ATOM     22  N   UNL A   1      30.369  28.379  23.429  1.00  0.00     0.065 N 
ATOM     23  O   UNL A   1      30.386  29.614  23.318  1.00  0.00    -0.258 OA
ATOM     24  O   UNL A   1      29.395  27.707  23.793  1.00  0.00    -0.258 OA
ENDBRANCH  12  22
ENDBRANCH   6   9
ENDBRANCH   4   5
ENDBRANCH   3   4
ENDBRANCH   2   3
ENDBRANCH   1   2
BRANCH   1  25
ATOM     25  C   UNL A   1      35.707  23.165  26.109  1.00  0.00     0.021 C 
BRANCH  25  26
ATOM     26  C   UNL A   1      37.113  23.417  25.576  1.00  0.00     0.116 C 
BRANCH  26  27
ATOM     27  N   UNL A   1      38.034  22.374  25.998  1.00  0.00    -0.352 N 
ATOM     28  C   UNL A   1      39.315  22.492  26.477  1.00  0.00     0.251 C 
ATOM     29  H   UNL A   1      37.689  21.454  25.933  1.00  0.00     0.163 HD
ATOM     30  O   UNL A   1      40.041  21.506  26.527  1.00  0.00    -0.269 OA
BRANCH  28  31
ATOM     31  C   UNL A   1      39.809  23.816  26.914  1.00  0.00     0.039 A 
ATOM     32  C   UNL A   1      40.083  24.791  25.952  1.00  0.00     0.014 A 
ATOM     33  C   UNL A   1      40.008  24.087  28.271  1.00  0.00     0.014 A 
ATOM     34  C   UNL A   1      40.507  26.058  26.358  1.00  0.00     0.010 A 
ATOM     35  C   UNL A   1      40.354  25.372  28.676  1.00  0.00     0.010 A 
ATOM     36  C   UNL A   1      40.615  26.368  27.724  1.00  0.00    -0.014 A 
BRANCH  36  37
ATOM     37  C   UNL A   1      41.013  27.725  28.177  1.00  0.00     0.031 A 
ATOM     38  C   UNL A   1      42.457  28.143  28.128  1.00  0.00     0.074 A 
ATOM     39  C   UNL A   1      40.084  28.559  28.683  1.00  0.00     0.049 A 
ATOM     40  N   UNL A   1      43.013  29.257  28.530  1.00  0.00    -0.248 NA
ATOM     41  C   UNL A   1      43.404  27.161  27.581  1.00  0.00     0.031 C 
ATOM     42  C   UNL A   1      38.658  28.253  28.813  1.00  0.00     0.029 A 
ATOM     43  N   UNL A   1      40.198  29.830  29.185  1.00  0.00    -0.354 N 
ATOM     44  C   UNL A   1      44.375  29.107  28.292  1.00  0.00     0.074 A 
ATOM     45  C   UNL A   1      44.564  27.763  27.787  1.00  0.00     0.031 C 
ATOM     46  C   UNL A   1      38.025  29.322  29.323  1.00  0.00     0.029 A 
ATOM     47  C   UNL A   1      39.004  30.367  29.603  1.00  0.00     0.049 A 
ATOM     48  H   UNL A   1      41.055  30.312  29.241  1.00  0.00     0.167 HD
ATOM     49  C   UNL A   1      45.372  30.015  28.451  1.00  0.00     0.034 A 
ATOM     50  C   UNL A   1      38.730  31.565  30.155  1.00  0.00     0.034 A 
ATOM     51  C   UNL A   1      45.163  31.348  28.965  1.00  0.00     0.049 A 
ATOM     52  C   UNL A   1      39.858  32.539  30.381  1.00  0.00     0.074 A 
ATOM     53  C   UNL A   1      46.087  32.365  29.132  1.00  0.00     0.029 A 
ATOM     54  N   UNL A   1      43.943  31.848  29.407  1.00  0.00    -0.354 N 
ATOM     55  N   UNL A   1      41.136  32.402  30.110  1.00  0.00    -0.248 NA
ATOM     56  C   UNL A   1      39.503  33.829  30.982  1.00  0.00     0.031 C 
ATOM     57  C   UNL A   1      45.445  33.446  29.745  1.00  0.00     0.029 A 
ATOM     58  C   UNL A   1      44.100  33.142  29.883  1.00  0.00     0.049 A 
ATOM     59  H   UNL A   1      43.092  31.354  29.388  1.00  0.00     0.167 HD
ATOM     60  C   UNL A   1      41.732  33.604  30.479  1.00  0.00     0.074 A 
ATOM     61  C   UNL A   1      40.671  34.455  30.980  1.00  0.00     0.031 C 
ATOM     62  C   UNL A   1      43.037  33.975  30.401  1.00  0.00     0.034 A 
BRANCH  49  63
ATOM     63  C   UNL A   1      46.773  29.567  28.094  1.00  0.00     0.023 A 
ATOM     64  C   UNL A   1      47.112  29.189  26.781  1.00  0.00     0.031 A 
ATOM     65  C   UNL A   1      47.765  29.450  29.083  1.00  0.00     0.131 A 
ATOM     66  C   UNL A   1      48.362  28.611  26.517  1.00  0.00     0.055 A 
ATOM     67  C   UNL A   1      49.043  28.968  28.793  1.00  0.00     0.041 A 
ATOM     68  F   UNL A   1      47.501  29.775  30.359  1.00  0.00    -0.206 F 
ATOM     69  C   UNL A   1      49.341  28.523  27.509  1.00  0.00     0.022 A 
BRANCH  66  70
ATOM     70  S   UNL A   1      48.614  27.798  24.915  1.00  0.00     0.124 S 
ATOM     71  O   UNL A   1      47.492  28.322  24.139  1.00  0.00    -0.237 OA
ATOM     72  O   UNL A   1      49.937  28.271  24.525  1.00  0.00    -0.237 OA
ATOM     73  O   UNL A   1      48.527  26.375  25.235  1.00  0.00    -0.744 OA
ENDBRANCH  66  70
ENDBRANCH  49  63
BRANCH  50  74
ATOM     74  C   UNL A   1      37.330  31.918  30.524  1.00  0.00     0.023 A 
ATOM     75  C   UNL A   1      36.516  32.643  29.641  1.00  0.00     0.031 A 
ATOM     76  C   UNL A   1      36.791  31.550  31.770  1.00  0.00     0.131 A 
ATOM     77  C   UNL A   1      35.217  33.009  30.027  1.00  0.00     0.055 A 
ATOM     78  C   UNL A   1      35.482  31.875  32.130  1.00  0.00     0.041 A 
ATOM     79  F   UNL A   1      37.526  30.851  32.648  1.00  0.00    -0.206 F 
ATOM     80  C   UNL A   1      34.689  32.617  31.260  1.00  0.00     0.022 A 
BRANCH  77  81
ATOM     81  S   UNL A   1      34.246  34.063  28.917  1.00  0.00     0.124 S 
ATOM     82  O   UNL A   1      35.270  34.949  28.375  1.00  0.00    -0.237 OA
ATOM     83  O   UNL A   1      33.683  33.089  27.987  1.00  0.00    -0.237 OA
ATOM     84  O   UNL A   1      33.279  34.698  29.810  1.00  0.00    -0.744 OA
ENDBRANCH  77  81
ENDBRANCH  50  74
BRANCH  62  85
ATOM     85  C   UNL A   1      43.376  35.381  30.834  1.00  0.00     0.023 A 
ATOM     86  C   UNL A   1      43.531  35.724  32.189  1.00  0.00     0.031 A 
ATOM     87  C   UNL A   1      43.532  36.397  29.874  1.00  0.00     0.131 A 
ATOM     88  C   UNL A   1      43.773  37.059  32.549  1.00  0.00     0.055 A 
ATOM     89  C   UNL A   1      43.839  37.710  30.234  1.00  0.00     0.041 A 
ATOM     90  F   UNL A   1      43.391  36.129  28.566  1.00  0.00    -0.206 F 
ATOM     91  C   UNL A   1      43.948  38.050  31.579  1.00  0.00     0.022 A 
BRANCH  88  92
ATOM     92  S   UNL A   1      43.760  37.505  34.308  1.00  0.00     0.124 S 
ATOM     93  O   UNL A   1      43.385  38.915  34.259  1.00  0.00    -0.237 OA
ATOM     94  O   UNL A   1      42.756  36.597  34.853  1.00  0.00    -0.237 OA
ATOM     95  O   UNL A   1      45.131  37.243  34.739  1.00  0.00    -0.744 OA
ENDBRANCH  88  92
ENDBRANCH  62  85
ENDBRANCH  36  37
ENDBRANCH  28  31
ENDBRANCH  26  27
ENDBRANCH  25  26
ENDBRANCH   1  25
TORSDOF 18
ENDMDL
