MODEL 1
REMARK VINA RESULT:      -9.6      0.000      0.000
REMARK SMILES O=C(NCCCCCCNC(=O)c1cc(Cl)c2c(c1)[C@H]1C=CC[C@H]1[C@H](c1ccc(S(=O)(=O)N3CCOCC3)cc1)N2)c1ccc(-c2c3nc(c(-c4cc(S(=O)(=O)[O-])ccc4F)c4ccc([nH]4)c(-c4cc(S(=O)(=O)[O-])ccc4F)c4nc(c(-c5cc(S(=O)(=O)[O-])ccc5F)c5ccc2[nH]5)C=C4)C=C3)cc1
REMARK SMILES IDX 6 1 5 2 4 3 3 4 1 5 2 6 42 8 43 9 104 10 44 11 103 12 45 13
REMARK SMILES IDX 46 14 47 15 97 16 48 17 102 18 96 19 98 20 49 21 101 22
REMARK SMILES IDX 95 23 94 24 50 26 82 27 62 28 81 29 63 30 66 31 80 32 99 33
REMARK SMILES IDX 64 34 65 35 79 37 100 38 67 39 51 40 52 41 60 42 53 43 59 44
REMARK SMILES IDX 61 45 58 46 54 47 55 48 56 49 57 50 83 51 84 52 92 53 85 54
REMARK SMILES IDX 91 55 93 56 90 57 86 58 87 59 88 60 89 61 68 62 69 63 77 64
REMARK SMILES IDX 70 65 76 66 78 67 75 68 71 69 72 70 73 71 74 72 7 73 8 74
REMARK SMILES IDX 9 75 10 76 11 77 12 79 13 80 14 81 19 82 15 83 18 84 16 85
REMARK SMILES IDX 17 86 20 87 41 88 21 89 24 90 25 91 22 93 23 94 26 95 27 96
REMARK SMILES IDX 40 97 28 98 39 99 29 100 30 101 31 102 32 103 33 104 34 105
REMARK SMILES IDX 38 106 35 107 37 108 36 109
REMARK H PARENT 3 7 98 25 66 36 10 78 41 92
REMARK Flexibility Score: inf
ROOT
ATOM      1  C   UNL A   1      39.831  34.906  34.881  1.00  0.00     0.002 C 
ENDROOT
BRANCH   1   2
ATOM      2  C   UNL A   1      39.259  35.435  36.197  1.00  0.00     0.021 C 
BRANCH   2   3
ATOM      3  C   UNL A   1      39.788  34.735  37.445  1.00  0.00     0.116 C 
BRANCH   3   4
ATOM      4  N   UNL A   1      38.840  33.764  37.967  1.00  0.00    -0.352 N 
ATOM      5  O   UNL A   1      37.685  31.824  37.986  1.00  0.00    -0.269 OA
ATOM      6  C   UNL A   1      38.653  32.459  37.582  1.00  0.00     0.251 C 
ATOM      7  H   UNL A   1      38.255  34.083  38.692  1.00  0.00     0.163 HD
BRANCH   6   8
ATOM      8  C   UNL A   1      39.623  31.850  36.652  1.00  0.00     0.039 A 
ATOM      9  C   UNL A   1      40.992  31.897  36.937  1.00  0.00     0.014 A 
ATOM     10  C   UNL A   1      39.161  31.278  35.465  1.00  0.00     0.014 A 
ATOM     11  C   UNL A   1      41.909  31.487  35.975  1.00  0.00     0.010 A 
ATOM     12  C   UNL A   1      40.082  30.817  34.524  1.00  0.00     0.010 A 
ATOM     13  C   UNL A   1      41.460  30.959  34.755  1.00  0.00    -0.014 A 
BRANCH  13  14
ATOM     14  C   UNL A   1      42.440  30.563  33.717  1.00  0.00     0.031 A 
ATOM     15  C   UNL A   1      42.959  29.156  33.659  1.00  0.00     0.074 A 
ATOM     16  C   UNL A   1      42.859  31.477  32.823  1.00  0.00     0.049 A 
ATOM     17  N   UNL A   1      43.820  28.631  32.827  1.00  0.00    -0.248 NA
ATOM     18  C   UNL A   1      42.447  28.212  34.666  1.00  0.00     0.031 C 
ATOM     19  C   UNL A   1      42.412  32.870  32.783  1.00  0.00     0.029 A 
ATOM     20  N   UNL A   1      43.749  31.378  31.785  1.00  0.00    -0.354 N 
ATOM     21  C   UNL A   1      43.969  27.307  33.218  1.00  0.00     0.074 A 
ATOM     22  C   UNL A   1      43.126  27.111  34.376  1.00  0.00     0.031 C 
ATOM     23  C   UNL A   1      43.023  33.493  31.766  1.00  0.00     0.029 A 
ATOM     24  C   UNL A   1      43.942  32.561  31.113  1.00  0.00     0.049 A 
ATOM     25  H   UNL A   1      44.206  30.540  31.543  1.00  0.00     0.167 HD
ATOM     26  C   UNL A   1      44.735  26.345  32.652  1.00  0.00     0.034 A 
ATOM     27  C   UNL A   1      44.777  32.872  30.101  1.00  0.00     0.034 A 
ATOM     28  C   UNL A   1      45.561  26.556  31.492  1.00  0.00     0.049 A 
ATOM     29  C   UNL A   1      45.645  31.796  29.509  1.00  0.00     0.074 A 
ATOM     30  C   UNL A   1      46.328  25.626  30.813  1.00  0.00     0.029 A 
ATOM     31  N   UNL A   1      45.739  27.770  30.846  1.00  0.00    -0.354 N 
ATOM     32  N   UNL A   1      45.720  30.529  29.840  1.00  0.00    -0.248 NA
ATOM     33  C   UNL A   1      46.534  32.179  28.403  1.00  0.00     0.031 C 
ATOM     34  C   UNL A   1      47.025  26.290  29.805  1.00  0.00     0.029 A 
ATOM     35  C   UNL A   1      46.633  27.620  29.800  1.00  0.00     0.049 A 
ATOM     36  H   UNL A   1      45.296  28.614  31.095  1.00  0.00     0.167 HD
ATOM     37  C   UNL A   1      46.643  29.957  28.970  1.00  0.00     0.074 A 
ATOM     38  C   UNL A   1      47.094  31.015  28.091  1.00  0.00     0.031 C 
ATOM     39  C   UNL A   1      47.065  28.671  28.909  1.00  0.00     0.034 A 
BRANCH  26  40
ATOM     40  C   UNL A   1      44.737  24.968  33.264  1.00  0.00     0.023 A 
ATOM     41  C   UNL A   1      45.453  24.737  34.454  1.00  0.00     0.031 A 
ATOM     42  C   UNL A   1      44.153  23.868  32.612  1.00  0.00     0.131 A 
ATOM     43  C   UNL A   1      45.595  23.431  34.938  1.00  0.00     0.055 A 
ATOM     44  C   UNL A   1      44.266  22.573  33.119  1.00  0.00     0.041 A 
ATOM     45  F   UNL A   1      43.460  24.039  31.475  1.00  0.00    -0.206 F 
ATOM     46  C   UNL A   1      45.000  22.349  34.281  1.00  0.00     0.022 A 
BRANCH  43  47
ATOM     47  S   UNL A   1      46.597  23.083  36.408  1.00  0.00     0.124 S 
ATOM     48  O   UNL A   1      47.626  22.198  35.866  1.00  0.00    -0.237 OA
ATOM     49  O   UNL A   1      47.056  24.416  36.786  1.00  0.00    -0.237 OA
ATOM     50  O   UNL A   1      45.660  22.450  37.330  1.00  0.00    -0.744 OA
ENDBRANCH  43  47
ENDBRANCH  26  40
BRANCH  27  51
ATOM     51  C   UNL A   1      44.768  34.266  29.580  1.00  0.00     0.023 A 
ATOM     52  C   UNL A   1      43.732  34.711  28.739  1.00  0.00     0.031 A 
ATOM     53  C   UNL A   1      45.865  35.116  29.792  1.00  0.00     0.131 A 
ATOM     54  C   UNL A   1      43.854  35.937  28.076  1.00  0.00     0.055 A 
ATOM     55  C   UNL A   1      45.951  36.367  29.180  1.00  0.00     0.041 A 
ATOM     56  F   UNL A   1      46.880  34.726  30.578  1.00  0.00    -0.206 F 
ATOM     57  C   UNL A   1      44.950  36.775  28.302  1.00  0.00     0.022 A 
BRANCH  54  58
ATOM     58  S   UNL A   1      42.650  36.431  26.812  1.00  0.00     0.124 S 
ATOM     59  O   UNL A   1      42.900  35.460  25.752  1.00  0.00    -0.237 OA
ATOM     60  O   UNL A   1      41.388  36.270  27.532  1.00  0.00    -0.237 OA
ATOM     61  O   UNL A   1      43.021  37.807  26.502  1.00  0.00    -0.744 OA
ENDBRANCH  54  58
ENDBRANCH  27  51
BRANCH  39  62
ATOM     62  C   UNL A   1      48.060  28.276  27.847  1.00  0.00     0.023 A 
ATOM     63  C   UNL A   1      47.610  28.030  26.534  1.00  0.00     0.031 A 
ATOM     64  C   UNL A   1      49.386  27.946  28.170  1.00  0.00     0.131 A 
ATOM     65  C   UNL A   1      48.459  27.409  25.612  1.00  0.00     0.055 A 
ATOM     66  C   UNL A   1      50.244  27.370  27.232  1.00  0.00     0.041 A 
ATOM     67  F   UNL A   1      49.857  28.155  29.410  1.00  0.00    -0.206 F 
ATOM     68  C   UNL A   1      49.776  27.083  25.952  1.00  0.00     0.022 A 
BRANCH  65  69
ATOM     69  S   UNL A   1      47.857  26.925  23.970  1.00  0.00     0.124 S 
ATOM     70  O   UNL A   1      47.363  28.194  23.440  1.00  0.00    -0.237 OA
ATOM     71  O   UNL A   1      49.070  26.415  23.339  1.00  0.00    -0.237 OA
ATOM     72  O   UNL A   1      46.827  25.931  24.253  1.00  0.00    -0.744 OA
ENDBRANCH  65  69
ENDBRANCH  39  62
ENDBRANCH  13  14
ENDBRANCH   6   8
ENDBRANCH   3   4
ENDBRANCH   2   3
ENDBRANCH   1   2
BRANCH   1  73
ATOM     73  C   UNL A   1      38.786  34.524  33.829  1.00  0.00     0.002 C 
BRANCH  73  74
ATOM     74  C   UNL A   1      37.361  34.366  34.364  1.00  0.00     0.021 C 
BRANCH  74  75
ATOM     75  C   UNL A   1      36.280  34.942  33.456  1.00  0.00     0.116 C 
BRANCH  75  76
ATOM     76  N   UNL A   1      35.031  34.200  33.559  1.00  0.00    -0.352 N 
ATOM     77  C   UNL A   1      34.617  33.126  32.817  1.00  0.00     0.251 C 
ATOM     78  H   UNL A   1      34.404  34.510  34.251  1.00  0.00     0.163 HD
ATOM     79  O   UNL A   1      33.467  32.705  32.883  1.00  0.00    -0.269 OA
BRANCH  77  80
ATOM     80  C   UNL A   1      35.582  32.496  31.903  1.00  0.00     0.041 A 
ATOM     81  C   UNL A   1      35.572  32.812  30.546  1.00  0.00     0.036 A 
ATOM     82  C   UNL A   1      36.473  31.556  32.414  1.00  0.00     0.020 A 
ATOM     83  C   UNL A   1      36.392  32.096  29.684  1.00  0.00     0.065 A 
ATOM     84  C   UNL A   1      37.324  30.857  31.546  1.00  0.00    -0.015 A 
ATOM     85  Cl  UNL A   1      36.300  32.448  27.992  1.00  0.00    -0.082 Cl
ATOM     86  C   UNL A   1      37.248  31.084  30.163  1.00  0.00     0.057 A 
ATOM     87  C   UNL A   1      38.327  29.901  32.120  1.00  0.00     0.049 C 
ATOM     88  N   UNL A   1      38.064  30.382  29.289  1.00  0.00    -0.376 N 
ATOM     89  C   UNL A   1      37.755  28.615  32.660  1.00  0.00    -0.023 C 
ATOM     90  C   UNL A   1      39.388  29.388  31.122  1.00  0.00     0.031 C 
ATOM     91  C   UNL A   1      38.748  29.179  29.723  1.00  0.00     0.114 C 
ATOM     92  H   UNL A   1      38.181  30.704  28.366  1.00  0.00     0.161 HD
ATOM     93  C   UNL A   1      38.622  27.609  32.497  1.00  0.00    -0.030 C 
ATOM     94  C   UNL A   1      39.864  28.092  31.816  1.00  0.00     0.034 C 
BRANCH  91  95
ATOM     95  C   UNL A   1      39.767  28.787  28.660  1.00  0.00    -0.025 A 
ATOM     96  C   UNL A   1      39.686  29.162  27.303  1.00  0.00     0.007 A 
ATOM     97  C   UNL A   1      40.850  28.006  29.058  1.00  0.00     0.007 A 
ATOM     98  C   UNL A   1      40.688  28.802  26.388  1.00  0.00     0.022 A 
ATOM     99  C   UNL A   1      41.854  27.688  28.161  1.00  0.00     0.022 A 
ATOM    100  C   UNL A   1      41.795  28.083  26.834  1.00  0.00     0.082 A 
BRANCH 100 101
ATOM    101  S   UNL A   1      43.133  27.711  25.723  1.00  0.00     0.243 S 
ATOM    102  O   UNL A   1      42.600  27.840  24.381  1.00  0.00    -0.207 OA
ATOM    103  O   UNL A   1      44.264  28.491  26.170  1.00  0.00    -0.207 OA
BRANCH 101 104
ATOM    104  N   UNL A   1      43.508  26.090  25.978  1.00  0.00    -0.193 NA
ATOM    105  C   UNL A   1      42.657  24.980  25.494  1.00  0.00     0.131 C 
ATOM    106  C   UNL A   1      44.601  25.678  26.875  1.00  0.00     0.131 C 
ATOM    107  C   UNL A   1      42.284  23.988  26.615  1.00  0.00     0.177 C 
ATOM    108  C   UNL A   1      44.054  24.803  28.003  1.00  0.00     0.177 C 
ATOM    109  O   UNL A   1      43.375  23.652  27.483  1.00  0.00    -0.379 OA
ENDBRANCH 101 104
ENDBRANCH 100 101
ENDBRANCH  91  95
ENDBRANCH  77  80
ENDBRANCH  75  76
ENDBRANCH  74  75
ENDBRANCH  73  74
ENDBRANCH   1  73
TORSDOF 19
ENDMDL
MODEL 2
REMARK VINA RESULT:      -9.5      6.742     13.817
REMARK SMILES O=C(NCCCCCCNC(=O)c1cc(Cl)c2c(c1)[C@H]1C=CC[C@H]1[C@H](c1ccc(S(=O)(=O)N3CCOCC3)cc1)N2)c1ccc(-c2c3nc(c(-c4cc(S(=O)(=O)[O-])ccc4F)c4ccc([nH]4)c(-c4cc(S(=O)(=O)[O-])ccc4F)c4nc(c(-c5cc(S(=O)(=O)[O-])ccc5F)c5ccc2[nH]5)C=C4)C=C3)cc1
REMARK SMILES IDX 6 1 5 2 4 3 3 4 1 5 2 6 42 8 43 9 104 10 44 11 103 12 45 13
REMARK SMILES IDX 46 14 47 15 97 16 48 17 102 18 96 19 98 20 49 21 101 22
REMARK SMILES IDX 95 23 94 24 50 26 82 27 62 28 81 29 63 30 66 31 80 32 99 33
REMARK SMILES IDX 64 34 65 35 79 37 100 38 67 39 51 40 52 41 60 42 53 43 59 44
REMARK SMILES IDX 61 45 58 46 54 47 55 48 56 49 57 50 83 51 84 52 92 53 85 54
REMARK SMILES IDX 91 55 93 56 90 57 86 58 87 59 88 60 89 61 68 62 69 63 77 64
REMARK SMILES IDX 70 65 76 66 78 67 75 68 71 69 72 70 73 71 74 72 7 73 8 74
REMARK SMILES IDX 9 75 10 76 11 77 12 79 13 80 14 81 19 82 15 83 18 84 16 85
REMARK SMILES IDX 17 86 20 87 41 88 21 89 24 90 25 91 22 93 23 94 26 95 27 96
REMARK SMILES IDX 40 97 28 98 39 99 29 100 30 101 31 102 32 103 33 104 34 105
REMARK SMILES IDX 38 106 35 107 37 108 36 109
REMARK H PARENT 3 7 98 25 66 36 10 78 41 92
REMARK Flexibility Score: inf
ROOT
ATOM      1  C   UNL A   1      47.751  36.765  28.395  1.00  0.00     0.002 C 
ENDROOT
BRANCH   1   2
ATOM      2  C   UNL A   1      47.263  35.864  27.260  1.00  0.00     0.021 C 
BRANCH   2   3
ATOM      3  C   UNL A   1      46.260  36.519  26.317  1.00  0.00     0.116 C 
BRANCH   3   4
ATOM      4  N   UNL A   1      45.731  35.577  25.343  1.00  0.00    -0.352 N 
ATOM      5  O   UNL A   1      44.604  33.745  24.659  1.00  0.00    -0.269 OA
ATOM      6  C   UNL A   1      44.807  34.579  25.533  1.00  0.00     0.251 C 
ATOM      7  H   UNL A   1      46.082  35.666  24.427  1.00  0.00     0.163 HD
BRANCH   6   8
ATOM      8  C   UNL A   1      44.087  34.518  26.820  1.00  0.00     0.039 A 
ATOM      9  C   UNL A   1      43.375  35.631  27.278  1.00  0.00     0.014 A 
ATOM     10  C   UNL A   1      44.171  33.358  27.592  1.00  0.00     0.014 A 
ATOM     11  C   UNL A   1      42.854  35.630  28.568  1.00  0.00     0.010 A 
ATOM     12  C   UNL A   1      43.601  33.340  28.865  1.00  0.00     0.010 A 
ATOM     13  C   UNL A   1      42.978  34.490  29.376  1.00  0.00    -0.014 A 
BRANCH  13  14
ATOM     14  C   UNL A   1      42.459  34.509  30.764  1.00  0.00     0.031 A 
ATOM     15  C   UNL A   1      43.400  34.644  31.926  1.00  0.00     0.074 A 
ATOM     16  C   UNL A   1      41.134  34.407  30.973  1.00  0.00     0.049 A 
ATOM     17  N   UNL A   1      43.128  34.674  33.204  1.00  0.00    -0.248 NA
ATOM     18  C   UNL A   1      44.834  34.759  31.615  1.00  0.00     0.031 C 
ATOM     19  C   UNL A   1      40.131  34.281  29.916  1.00  0.00     0.029 A 
ATOM     20  N   UNL A   1      40.406  34.390  32.135  1.00  0.00    -0.354 N 
ATOM     21  C   UNL A   1      44.351  34.792  33.851  1.00  0.00     0.074 A 
ATOM     22  C   UNL A   1      45.372  34.806  32.826  1.00  0.00     0.031 C 
ATOM     23  C   UNL A   1      38.915  34.209  30.477  1.00  0.00     0.029 A 
ATOM     24  C   UNL A   1      39.056  34.233  31.932  1.00  0.00     0.049 A 
ATOM     25  H   UNL A   1      40.810  34.482  33.028  1.00  0.00     0.167 HD
ATOM     26  C   UNL A   1      44.593  34.888  35.179  1.00  0.00     0.034 A 
ATOM     27  C   UNL A   1      38.044  34.100  32.813  1.00  0.00     0.034 A 
ATOM     28  C   UNL A   1      43.563  34.883  36.185  1.00  0.00     0.049 A 
ATOM     29  C   UNL A   1      38.339  34.176  34.287  1.00  0.00     0.074 A 
ATOM     30  C   UNL A   1      43.709  35.033  37.552  1.00  0.00     0.029 A 
ATOM     31  N   UNL A   1      42.208  34.711  35.943  1.00  0.00    -0.354 N 
ATOM     32  N   UNL A   1      39.492  34.362  34.882  1.00  0.00    -0.248 NA
ATOM     33  C   UNL A   1      37.204  34.033  35.210  1.00  0.00     0.031 C 
ATOM     34  C   UNL A   1      42.455  34.878  38.142  1.00  0.00     0.029 A 
ATOM     35  C   UNL A   1      41.513  34.713  37.139  1.00  0.00     0.049 A 
ATOM     36  H   UNL A   1      41.802  34.602  35.052  1.00  0.00     0.167 HD
ATOM     37  C   UNL A   1      39.222  34.386  36.247  1.00  0.00     0.074 A 
ATOM     38  C   UNL A   1      37.793  34.202  36.389  1.00  0.00     0.031 C 
ATOM     39  C   UNL A   1      40.084  34.552  37.279  1.00  0.00     0.034 A 
BRANCH  26  40
ATOM     40  C   UNL A   1      46.020  35.003  35.648  1.00  0.00     0.023 A 
ATOM     41  C   UNL A   1      46.632  36.269  35.712  1.00  0.00     0.031 A 
ATOM     42  C   UNL A   1      46.810  33.867  35.901  1.00  0.00     0.131 A 
ATOM     43  C   UNL A   1      48.001  36.367  35.987  1.00  0.00     0.055 A 
ATOM     44  C   UNL A   1      48.166  33.974  36.211  1.00  0.00     0.041 A 
ATOM     45  F   UNL A   1      46.271  32.638  35.853  1.00  0.00    -0.206 F 
ATOM     46  C   UNL A   1      48.769  35.227  36.243  1.00  0.00     0.022 A 
BRANCH  43  47
ATOM     47  S   UNL A   1      48.844  37.973  35.973  1.00  0.00     0.124 S 
ATOM     48  O   UNL A   1      50.186  37.609  36.425  1.00  0.00    -0.237 OA
ATOM     49  O   UNL A   1      48.742  38.357  34.569  1.00  0.00    -0.237 OA
ATOM     50  O   UNL A   1      48.074  38.782  36.910  1.00  0.00    -0.744 OA
ENDBRANCH  43  47
ENDBRANCH  26  40
BRANCH  27  51
ATOM     51  C   UNL A   1      36.663  33.931  32.285  1.00  0.00     0.023 A 
ATOM     52  C   UNL A   1      35.758  35.008  32.284  1.00  0.00     0.031 A 
ATOM     53  C   UNL A   1      36.188  32.662  31.917  1.00  0.00     0.131 A 
ATOM     54  C   UNL A   1      34.407  34.779  32.002  1.00  0.00     0.055 A 
ATOM     55  C   UNL A   1      34.852  32.452  31.573  1.00  0.00     0.041 A 
ATOM     56  F   UNL A   1      37.014  31.605  31.915  1.00  0.00    -0.206 F 
ATOM     57  C   UNL A   1      33.950  33.511  31.632  1.00  0.00     0.022 A 
BRANCH  54  58
ATOM     58  S   UNL A   1      33.179  36.097  32.219  1.00  0.00     0.124 S 
ATOM     59  O   UNL A   1      33.316  36.853  30.977  1.00  0.00    -0.237 OA
ATOM     60  O   UNL A   1      31.945  35.328  32.356  1.00  0.00    -0.237 OA
ATOM     61  O   UNL A   1      33.623  36.788  33.424  1.00  0.00    -0.744 OA
ENDBRANCH  54  58
ENDBRANCH  27  51
BRANCH  39  62
ATOM     62  C   UNL A   1      39.546  34.574  38.687  1.00  0.00     0.023 A 
ATOM     63  C   UNL A   1      39.148  33.366  39.294  1.00  0.00     0.031 A 
ATOM     64  C   UNL A   1      39.237  35.780  39.336  1.00  0.00     0.131 A 
ATOM     65  C   UNL A   1      38.405  33.394  40.479  1.00  0.00     0.055 A 
ATOM     66  C   UNL A   1      38.536  35.800  40.543  1.00  0.00     0.041 A 
ATOM     67  F   UNL A   1      39.589  36.956  38.792  1.00  0.00    -0.206 F 
ATOM     68  C   UNL A   1      38.102  34.605  41.110  1.00  0.00     0.022 A 
BRANCH  65  69
ATOM     69  S   UNL A   1      37.733  31.868  41.194  1.00  0.00     0.124 S 
ATOM     70  O   UNL A   1      37.001  32.371  42.354  1.00  0.00    -0.237 OA
ATOM     71  O   UNL A   1      36.904  31.360  40.105  1.00  0.00    -0.237 OA
ATOM     72  O   UNL A   1      38.918  31.076  41.506  1.00  0.00    -0.744 OA
ENDBRANCH  65  69
ENDBRANCH  39  62
ENDBRANCH  13  14
ENDBRANCH   6   8
ENDBRANCH   3   4
ENDBRANCH   2   3
ENDBRANCH   1   2
BRANCH   1  73
ATOM     73  C   UNL A   1      46.847  36.798  29.629  1.00  0.00     0.002 C 
BRANCH  73  74
ATOM     74  C   UNL A   1      45.625  37.712  29.508  1.00  0.00     0.021 C 
BRANCH  74  75
ATOM     75  C   UNL A   1      45.824  39.110  30.084  1.00  0.00     0.116 C 
BRANCH  75  76
ATOM     76  N   UNL A   1      44.721  39.502  30.951  1.00  0.00    -0.352 N 
ATOM     77  C   UNL A   1      43.651  40.303  30.655  1.00  0.00     0.251 C 
ATOM     78  H   UNL A   1      44.749  39.145  31.868  1.00  0.00     0.163 HD
ATOM     79  O   UNL A   1      42.887  40.701  31.528  1.00  0.00    -0.269 OA
BRANCH  77  80
ATOM     80  C   UNL A   1      43.448  40.708  29.256  1.00  0.00     0.041 A 
ATOM     81  C   UNL A   1      42.525  40.035  28.457  1.00  0.00     0.036 A 
ATOM     82  C   UNL A   1      44.221  41.746  28.740  1.00  0.00     0.020 A 
ATOM     83  C   UNL A   1      42.460  40.339  27.105  1.00  0.00     0.065 A 
ATOM     84  C   UNL A   1      44.129  42.074  27.380  1.00  0.00    -0.015 A 
ATOM     85  Cl  UNL A   1      41.366  39.431  26.117  1.00  0.00    -0.082 Cl
ATOM     86  C   UNL A   1      43.286  41.332  26.539  1.00  0.00     0.057 A 
ATOM     87  C   UNL A   1      44.913  43.240  26.857  1.00  0.00     0.049 C 
ATOM     88  N   UNL A   1      43.204  41.626  25.187  1.00  0.00    -0.376 N 
ATOM     89  C   UNL A   1      46.400  43.018  26.745  1.00  0.00    -0.023 C 
ATOM     90  C   UNL A   1      44.545  43.687  25.425  1.00  0.00     0.031 C 
ATOM     91  C   UNL A   1      44.214  42.449  24.548  1.00  0.00     0.114 C 
ATOM     92  H   UNL A   1      42.453  41.275  24.655  1.00  0.00     0.161 HD
ATOM     93  C   UNL A   1      46.903  43.707  25.714  1.00  0.00    -0.030 C 
ATOM     94  C   UNL A   1      45.818  44.455  25.004  1.00  0.00     0.034 C 
BRANCH  91  95
ATOM     95  C   UNL A   1      43.726  42.826  23.155  1.00  0.00    -0.025 A 
ATOM     96  C   UNL A   1      44.573  43.073  22.055  1.00  0.00     0.007 A 
ATOM     97  C   UNL A   1      42.351  42.934  22.957  1.00  0.00     0.007 A 
ATOM     98  C   UNL A   1      44.050  43.372  20.787  1.00  0.00     0.022 A 
ATOM     99  C   UNL A   1      41.841  43.189  21.697  1.00  0.00     0.022 A 
ATOM    100  C   UNL A   1      42.669  43.400  20.606  1.00  0.00     0.082 A 
BRANCH 100 101
ATOM    101  S   UNL A   1      41.978  43.663  18.989  1.00  0.00     0.243 S 
ATOM    102  O   UNL A   1      42.632  42.719  18.104  1.00  0.00    -0.207 OA
ATOM    103  O   UNL A   1      40.543  43.679  19.155  1.00  0.00    -0.207 OA
BRANCH 101 104
ATOM    104  N   UNL A   1      42.448  45.214  18.532  1.00  0.00    -0.193 NA
ATOM    105  C   UNL A   1      41.530  46.175  17.882  1.00  0.00     0.131 C 
ATOM    106  C   UNL A   1      43.858  45.639  18.565  1.00  0.00     0.131 C 
ATOM    107  C   UNL A   1      42.103  46.745  16.568  1.00  0.00     0.177 C 
ATOM    108  C   UNL A   1      44.314  46.056  17.167  1.00  0.00     0.177 C 
ATOM    109  O   UNL A   1      43.488  47.106  16.645  1.00  0.00    -0.379 OA
ENDBRANCH 101 104
ENDBRANCH 100 101
ENDBRANCH  91  95
ENDBRANCH  77  80
ENDBRANCH  75  76
ENDBRANCH  74  75
ENDBRANCH  73  74
ENDBRANCH   1  73
TORSDOF 19
ENDMDL
MODEL 3
REMARK VINA RESULT:      -9.1      6.530     14.332
REMARK SMILES O=C(NCCCCCCNC(=O)c1cc(Cl)c2c(c1)[C@H]1C=CC[C@H]1[C@H](c1ccc(S(=O)(=O)N3CCOCC3)cc1)N2)c1ccc(-c2c3nc(c(-c4cc(S(=O)(=O)[O-])ccc4F)c4ccc([nH]4)c(-c4cc(S(=O)(=O)[O-])ccc4F)c4nc(c(-c5cc(S(=O)(=O)[O-])ccc5F)c5ccc2[nH]5)C=C4)C=C3)cc1
REMARK SMILES IDX 6 1 5 2 4 3 3 4 1 5 2 6 42 8 43 9 104 10 44 11 103 12 45 13
REMARK SMILES IDX 46 14 47 15 97 16 48 17 102 18 96 19 98 20 49 21 101 22
REMARK SMILES IDX 95 23 94 24 50 26 82 27 62 28 81 29 63 30 66 31 80 32 99 33
REMARK SMILES IDX 64 34 65 35 79 37 100 38 67 39 51 40 52 41 60 42 53 43 59 44
REMARK SMILES IDX 61 45 58 46 54 47 55 48 56 49 57 50 83 51 84 52 92 53 85 54
REMARK SMILES IDX 91 55 93 56 90 57 86 58 87 59 88 60 89 61 68 62 69 63 77 64
REMARK SMILES IDX 70 65 76 66 78 67 75 68 71 69 72 70 73 71 74 72 7 73 8 74
REMARK SMILES IDX 9 75 10 76 11 77 12 79 13 80 14 81 19 82 15 83 18 84 16 85
REMARK SMILES IDX 17 86 20 87 41 88 21 89 24 90 25 91 22 93 23 94 26 95 27 96
REMARK SMILES IDX 40 97 28 98 39 99 29 100 30 101 31 102 32 103 33 104 34 105
REMARK SMILES IDX 38 106 35 107 37 108 36 109
REMARK H PARENT 3 7 98 25 66 36 10 78 41 92
REMARK Flexibility Score: inf
ROOT
ATOM      1  C   UNL A   1      47.211  35.549  28.980  1.00  0.00     0.002 C 
ENDROOT
BRANCH   1   2
ATOM      2  C   UNL A   1      47.103  35.230  27.488  1.00  0.00     0.021 C 
BRANCH   2   3
ATOM      3  C   UNL A   1      46.434  36.318  26.655  1.00  0.00     0.116 C 
BRANCH   3   4
ATOM      4  N   UNL A   1      45.463  35.769  25.721  1.00  0.00    -0.352 N 
ATOM      5  O   UNL A   1      43.727  34.472  25.086  1.00  0.00    -0.269 OA
ATOM      6  C   UNL A   1      44.342  35.024  25.992  1.00  0.00     0.251 C 
ATOM      7  H   UNL A   1      45.633  35.956  24.769  1.00  0.00     0.163 HD
BRANCH   6   8
ATOM      8  C   UNL A   1      43.911  34.880  27.396  1.00  0.00     0.039 A 
ATOM      9  C   UNL A   1      43.931  33.623  28.010  1.00  0.00     0.014 A 
ATOM     10  C   UNL A   1      43.437  36.000  28.080  1.00  0.00     0.014 A 
ATOM     11  C   UNL A   1      43.356  33.463  29.266  1.00  0.00     0.010 A 
ATOM     12  C   UNL A   1      42.909  35.847  29.362  1.00  0.00     0.010 A 
ATOM     13  C   UNL A   1      42.825  34.571  29.944  1.00  0.00    -0.014 A 
BRANCH  13  14
ATOM     14  C   UNL A   1      42.175  34.388  31.263  1.00  0.00     0.031 A 
ATOM     15  C   UNL A   1      40.678  34.396  31.380  1.00  0.00     0.074 A 
ATOM     16  C   UNL A   1      42.940  34.211  32.355  1.00  0.00     0.049 A 
ATOM     17  N   UNL A   1      39.938  34.256  32.448  1.00  0.00    -0.248 NA
ATOM     18  C   UNL A   1      39.912  34.586  30.138  1.00  0.00     0.031 C 
ATOM     19  C   UNL A   1      44.402  34.178  32.353  1.00  0.00     0.029 A 
ATOM     20  N   UNL A   1      42.600  34.031  33.672  1.00  0.00    -0.354 N 
ATOM     21  C   UNL A   1      38.622  34.360  32.015  1.00  0.00     0.074 A 
ATOM     22  C   UNL A   1      38.664  34.597  30.589  1.00  0.00     0.031 C 
ATOM     23  C   UNL A   1      44.835  33.978  33.606  1.00  0.00     0.029 A 
ATOM     24  C   UNL A   1      43.685  33.921  34.507  1.00  0.00     0.049 A 
ATOM     25  H   UNL A   1      41.669  33.984  33.988  1.00  0.00     0.167 HD
ATOM     26  C   UNL A   1      37.487  34.258  32.745  1.00  0.00     0.034 A 
ATOM     27  C   UNL A   1      43.754  33.809  35.849  1.00  0.00     0.034 A 
ATOM     28  C   UNL A   1      37.465  34.011  34.163  1.00  0.00     0.049 A 
ATOM     29  C   UNL A   1      42.480  33.730  36.645  1.00  0.00     0.074 A 
ATOM     30  C   UNL A   1      36.361  33.835  34.978  1.00  0.00     0.029 A 
ATOM     31  N   UNL A   1      38.583  33.917  34.977  1.00  0.00    -0.354 N 
ATOM     32  N   UNL A   1      41.242  33.755  36.214  1.00  0.00    -0.248 NA
ATOM     33  C   UNL A   1      42.603  33.602  38.104  1.00  0.00     0.031 C 
ATOM     34  C   UNL A   1      36.807  33.708  36.293  1.00  0.00     0.029 A 
ATOM     35  C   UNL A   1      38.194  33.723  36.291  1.00  0.00     0.049 A 
ATOM     36  H   UNL A   1      39.515  33.980  34.667  1.00  0.00     0.167 HD
ATOM     37  C   UNL A   1      40.438  33.618  37.341  1.00  0.00     0.074 A 
ATOM     38  C   UNL A   1      41.331  33.504  38.475  1.00  0.00     0.031 C 
ATOM     39  C   UNL A   1      39.085  33.585  37.419  1.00  0.00     0.034 A 
BRANCH  26  40
ATOM     40  C   UNL A   1      36.161  34.413  32.046  1.00  0.00     0.023 A 
ATOM     41  C   UNL A   1      35.391  35.570  32.266  1.00  0.00     0.031 A 
ATOM     42  C   UNL A   1      35.603  33.375  31.280  1.00  0.00     0.131 A 
ATOM     43  C   UNL A   1      34.090  35.648  31.753  1.00  0.00     0.055 A 
ATOM     44  C   UNL A   1      34.320  33.474  30.740  1.00  0.00     0.041 A 
ATOM     45  F   UNL A   1      36.300  32.252  31.043  1.00  0.00    -0.206 F 
ATOM     46  C   UNL A   1      33.554  34.609  30.986  1.00  0.00     0.022 A 
BRANCH  43  47
ATOM     47  S   UNL A   1      33.031  37.077  32.103  1.00  0.00     0.124 S 
ATOM     48  O   UNL A   1      32.921  37.698  30.785  1.00  0.00    -0.237 OA
ATOM     49  O   UNL A   1      31.814  36.439  32.596  1.00  0.00    -0.237 OA
ATOM     50  O   UNL A   1      33.788  37.843  33.087  1.00  0.00    -0.744 OA
ENDBRANCH  43  47
ENDBRANCH  26  40
BRANCH  27  51
ATOM     51  C   UNL A   1      45.097  33.718  36.483  1.00  0.00     0.023 A 
ATOM     52  C   UNL A   1      45.741  32.475  36.624  1.00  0.00     0.031 A 
ATOM     53  C   UNL A   1      45.681  34.842  37.088  1.00  0.00     0.131 A 
ATOM     54  C   UNL A   1      46.887  32.374  37.421  1.00  0.00     0.055 A 
ATOM     55  C   UNL A   1      46.861  34.748  37.827  1.00  0.00     0.041 A 
ATOM     56  F   UNL A   1      45.093  36.045  36.987  1.00  0.00    -0.206 F 
ATOM     57  C   UNL A   1      47.460  33.505  38.012  1.00  0.00     0.022 A 
BRANCH  54  58
ATOM     58  S   UNL A   1      47.605  30.754  37.810  1.00  0.00     0.124 S 
ATOM     59  O   UNL A   1      48.368  30.457  36.601  1.00  0.00    -0.237 OA
ATOM     60  O   UNL A   1      48.400  31.064  38.997  1.00  0.00    -0.237 OA
ATOM     61  O   UNL A   1      46.441  29.907  38.041  1.00  0.00    -0.744 OA
ENDBRANCH  54  58
ENDBRANCH  27  51
BRANCH  39  62
ATOM     62  C   UNL A   1      38.433  33.395  38.765  1.00  0.00     0.023 A 
ATOM     63  C   UNL A   1      38.587  34.386  39.755  1.00  0.00     0.031 A 
ATOM     64  C   UNL A   1      37.852  32.170  39.132  1.00  0.00     0.131 A 
ATOM     65  C   UNL A   1      38.225  34.111  41.077  1.00  0.00     0.055 A 
ATOM     66  C   UNL A   1      37.449  31.919  40.444  1.00  0.00     0.041 A 
ATOM     67  F   UNL A   1      37.692  31.193  38.225  1.00  0.00    -0.206 F 
ATOM     68  C   UNL A   1      37.651  32.885  41.427  1.00  0.00     0.022 A 
BRANCH  65  69
ATOM     69  S   UNL A   1      38.567  35.302  42.403  1.00  0.00     0.124 S 
ATOM     70  O   UNL A   1      38.783  36.538  41.656  1.00  0.00    -0.237 OA
ATOM     71  O   UNL A   1      37.334  35.251  43.183  1.00  0.00    -0.237 OA
ATOM     72  O   UNL A   1      39.752  34.762  43.062  1.00  0.00    -0.744 OA
ENDBRANCH  65  69
ENDBRANCH  39  62
ENDBRANCH  13  14
ENDBRANCH   6   8
ENDBRANCH   3   4
ENDBRANCH   2   3
ENDBRANCH   1   2
BRANCH   1  73
ATOM     73  C   UNL A   1      47.288  37.039  29.320  1.00  0.00     0.002 C 
BRANCH  73  74
ATOM     74  C   UNL A   1      46.171  37.551  30.233  1.00  0.00     0.021 C 
BRANCH  74  75
ATOM     75  C   UNL A   1      45.981  39.064  30.210  1.00  0.00     0.116 C 
BRANCH  75  76
ATOM     76  N   UNL A   1      44.904  39.490  31.092  1.00  0.00    -0.352 N 
ATOM     77  C   UNL A   1      43.841  40.303  30.803  1.00  0.00     0.251 C 
ATOM     78  H   UNL A   1      44.946  39.149  32.014  1.00  0.00     0.163 HD
ATOM     79  O   UNL A   1      43.102  40.730  31.684  1.00  0.00    -0.269 OA
BRANCH  77  80
ATOM     80  C   UNL A   1      43.615  40.686  29.401  1.00  0.00     0.041 A 
ATOM     81  C   UNL A   1      42.690  39.991  28.625  1.00  0.00     0.036 A 
ATOM     82  C   UNL A   1      44.369  41.724  28.861  1.00  0.00     0.020 A 
ATOM     83  C   UNL A   1      42.603  40.274  27.269  1.00  0.00     0.065 A 
ATOM     84  C   UNL A   1      44.256  42.032  27.497  1.00  0.00    -0.015 A 
ATOM     85  Cl  UNL A   1      41.508  39.340  26.309  1.00  0.00    -0.082 Cl
ATOM     86  C   UNL A   1      43.411  41.268  26.678  1.00  0.00     0.057 A 
ATOM     87  C   UNL A   1      45.020  43.199  26.947  1.00  0.00     0.049 C 
ATOM     88  N   UNL A   1      43.308  41.543  25.323  1.00  0.00    -0.376 N 
ATOM     89  C   UNL A   1      46.508  42.992  26.819  1.00  0.00    -0.023 C 
ATOM     90  C   UNL A   1      44.629  43.621  25.514  1.00  0.00     0.031 C 
ATOM     91  C   UNL A   1      44.300  42.367  24.659  1.00  0.00     0.114 C 
ATOM     92  H   UNL A   1      42.554  41.176  24.806  1.00  0.00     0.161 HD
ATOM     93  C   UNL A   1      46.990  43.672  25.772  1.00  0.00    -0.030 C 
ATOM     94  C   UNL A   1      45.888  44.397  25.066  1.00  0.00     0.034 C 
BRANCH  91  95
ATOM     95  C   UNL A   1      43.790  42.718  23.267  1.00  0.00    -0.025 A 
ATOM     96  C   UNL A   1      44.344  42.223  22.068  1.00  0.00     0.007 A 
ATOM     97  C   UNL A   1      42.705  43.587  23.175  1.00  0.00     0.007 A 
ATOM     98  C   UNL A   1      43.792  42.555  20.821  1.00  0.00     0.022 A 
ATOM     99  C   UNL A   1      42.141  43.879  21.946  1.00  0.00     0.022 A 
ATOM    100  C   UNL A   1      42.661  43.368  20.768  1.00  0.00     0.082 A 
BRANCH 100 101
ATOM    101  S   UNL A   1      41.873  43.713  19.211  1.00  0.00     0.243 S 
ATOM    102  O   UNL A   1      42.348  42.709  18.279  1.00  0.00    -0.207 OA
ATOM    103  O   UNL A   1      40.467  43.882  19.494  1.00  0.00    -0.207 OA
BRANCH 101 104
ATOM    104  N   UNL A   1      42.468  45.206  18.713  1.00  0.00    -0.193 NA
ATOM    105  C   UNL A   1      41.717  46.115  17.817  1.00  0.00     0.131 C 
ATOM    106  C   UNL A   1      43.860  45.613  18.971  1.00  0.00     0.131 C 
ATOM    107  C   UNL A   1      42.542  46.549  16.588  1.00  0.00     0.177 C 
ATOM    108  C   UNL A   1      44.581  45.889  17.652  1.00  0.00     0.177 C 
ATOM    109  O   UNL A   1      43.900  46.897  16.890  1.00  0.00    -0.379 OA
ENDBRANCH 101 104
ENDBRANCH 100 101
ENDBRANCH  91  95
ENDBRANCH  77  80
ENDBRANCH  75  76
ENDBRANCH  74  75
ENDBRANCH  73  74
ENDBRANCH   1  73
TORSDOF 19
ENDMDL
