MODEL 1
REMARK VINA RESULT:     -12.2      0.000      0.000
REMARK SMILES O=C(NCCCCCCNC(=O)[C@H]1CC(=O)N(CCc2ccc3c(c2)OCO3)C1)c1ccc(-c2c3nc(c(-c4cc(S(=O)(=O)[O-])ccc4F)c4ccc([nH]4)c(-c4cc(S(=O)(=O)[O-])ccc4F)c4nc(c(-c5cc(S(=O)(=O)[O-])ccc5F)c5ccc2[nH]5)C=C4)C=C3)cc1
REMARK SMILES IDX 6 1 5 2 4 3 3 4 1 5 2 6 30 8 31 9 92 10 32 11 91 12 33 13
REMARK SMILES IDX 34 14 35 15 85 16 36 17 90 18 84 19 86 20 37 21 89 22 83 23
REMARK SMILES IDX 82 24 38 26 70 27 50 28 69 29 51 30 54 31 68 32 87 33 52 34
REMARK SMILES IDX 53 35 67 37 88 38 55 39 39 40 40 41 48 42 41 43 47 44 49 45
REMARK SMILES IDX 46 46 42 47 43 48 44 49 45 50 71 51 72 52 80 53 73 54 79 55
REMARK SMILES IDX 81 56 78 57 74 58 75 59 76 60 77 61 56 62 57 63 65 64 58 65
REMARK SMILES IDX 64 66 66 67 63 68 59 69 60 70 61 71 62 72 7 73 8 74 9 75
REMARK SMILES IDX 10 76 11 77 12 79 13 80 14 81 29 82 15 83 17 84 16 85 18 86
REMARK SMILES IDX 19 87 20 88 21 89 25 90 22 91 24 92 23 93 26 94 28 95 27 96
REMARK H PARENT 3 7 86 25 54 36 10 78
REMARK Flexibility Score: inf
ROOT
ATOM      1  C   UNL A   1      31.523  30.414  25.447  1.00  0.00     0.002 C 
ENDROOT
BRANCH   1   2
ATOM      2  C   UNL A   1      31.363  31.488  26.526  1.00  0.00     0.021 C 
BRANCH   2   3
ATOM      3  C   UNL A   1      32.674  32.131  26.964  1.00  0.00     0.116 C 
BRANCH   3   4
ATOM      4  N   UNL A   1      32.494  33.502  27.405  1.00  0.00    -0.352 N 
ATOM      5  O   UNL A   1      32.769  35.310  28.718  1.00  0.00    -0.269 OA
ATOM      6  C   UNL A   1      33.184  34.212  28.355  1.00  0.00     0.251 C 
ATOM      7  H   UNL A   1      31.771  33.997  26.955  1.00  0.00     0.163 HD
BRANCH   6   8
ATOM      8  C   UNL A   1      34.415  33.650  28.953  1.00  0.00     0.039 A 
ATOM      9  C   UNL A   1      35.675  34.164  28.630  1.00  0.00     0.014 A 
ATOM     10  C   UNL A   1      34.295  32.612  29.879  1.00  0.00     0.014 A 
ATOM     11  C   UNL A   1      36.822  33.568  29.151  1.00  0.00     0.010 A 
ATOM     12  C   UNL A   1      35.443  32.064  30.455  1.00  0.00     0.010 A 
ATOM     13  C   UNL A   1      36.717  32.523  30.082  1.00  0.00    -0.014 A 
BRANCH  13  14
ATOM     14  C   UNL A   1      37.930  31.935  30.708  1.00  0.00     0.031 A 
ATOM     15  C   UNL A   1      38.723  30.881  29.990  1.00  0.00     0.074 A 
ATOM     16  C   UNL A   1      38.279  32.311  31.953  1.00  0.00     0.049 A 
ATOM     17  N   UNL A   1      39.715  30.148  30.427  1.00  0.00    -0.248 NA
ATOM     18  C   UNL A   1      38.333  30.604  28.602  1.00  0.00     0.031 C 
ATOM     19  C   UNL A   1      37.590  33.332  32.746  1.00  0.00     0.029 A 
ATOM     20  N   UNL A   1      39.279  31.866  32.779  1.00  0.00    -0.354 N 
ATOM     21  C   UNL A   1      40.055  29.304  29.376  1.00  0.00     0.074 A 
ATOM     22  C   UNL A   1      39.133  29.593  28.296  1.00  0.00     0.031 C 
ATOM     23  C   UNL A   1      38.186  33.433  33.942  1.00  0.00     0.029 A 
ATOM     24  C   UNL A   1      39.246  32.434  34.031  1.00  0.00     0.049 A 
ATOM     25  H   UNL A   1      39.955  31.206  32.503  1.00  0.00     0.167 HD
ATOM     26  C   UNL A   1      41.047  28.376  29.322  1.00  0.00     0.034 A 
ATOM     27  C   UNL A   1      39.949  32.151  35.145  1.00  0.00     0.034 A 
ATOM     28  C   UNL A   1      41.939  28.094  30.423  1.00  0.00     0.049 A 
ATOM     29  C   UNL A   1      40.990  31.066  35.095  1.00  0.00     0.074 A 
ATOM     30  C   UNL A   1      42.997  27.204  30.469  1.00  0.00     0.029 A 
ATOM     31  N   UNL A   1      41.862  28.680  31.682  1.00  0.00    -0.354 N 
ATOM     32  N   UNL A   1      41.316  30.283  34.092  1.00  0.00    -0.248 NA
ATOM     33  C   UNL A   1      41.761  30.826  36.322  1.00  0.00     0.031 C 
ATOM     34  C   UNL A   1      43.498  27.182  31.775  1.00  0.00     0.029 A 
ATOM     35  C   UNL A   1      42.824  28.138  32.521  1.00  0.00     0.049 A 
ATOM     36  H   UNL A   1      41.218  29.378  31.941  1.00  0.00     0.167 HD
ATOM     37  C   UNL A   1      42.356  29.484  34.556  1.00  0.00     0.074 A 
ATOM     38  C   UNL A   1      42.598  29.873  35.931  1.00  0.00     0.031 C 
ATOM     39  C   UNL A   1      43.057  28.527  33.895  1.00  0.00     0.034 A 
BRANCH  26  40
ATOM     40  C   UNL A   1      41.165  27.563  28.052  1.00  0.00     0.023 A 
ATOM     41  C   UNL A   1      40.772  26.214  27.995  1.00  0.00     0.031 A 
ATOM     42  C   UNL A   1      41.737  28.125  26.896  1.00  0.00     0.131 A 
ATOM     43  C   UNL A   1      41.056  25.447  26.855  1.00  0.00     0.055 A 
ATOM     44  C   UNL A   1      41.923  27.383  25.727  1.00  0.00     0.041 A 
ATOM     45  F   UNL A   1      42.154  29.401  26.888  1.00  0.00    -0.206 F 
ATOM     46  C   UNL A   1      41.603  26.028  25.710  1.00  0.00     0.022 A 
BRANCH  43  47
ATOM     47  S   UNL A   1      40.890  23.643  26.969  1.00  0.00     0.124 S 
ATOM     48  O   UNL A   1      41.747  23.197  25.872  1.00  0.00    -0.237 OA
ATOM     49  O   UNL A   1      41.380  23.365  28.313  1.00  0.00    -0.237 OA
ATOM     50  O   UNL A   1      39.462  23.416  26.763  1.00  0.00    -0.744 OA
ENDBRANCH  43  47
ENDBRANCH  26  40
BRANCH  27  51
ATOM     51  C   UNL A   1      39.645  32.880  36.408  1.00  0.00     0.023 A 
ATOM     52  C   UNL A   1      38.690  32.399  37.315  1.00  0.00     0.031 A 
ATOM     53  C   UNL A   1      40.332  34.065  36.735  1.00  0.00     0.131 A 
ATOM     54  C   UNL A   1      38.434  33.111  38.498  1.00  0.00     0.055 A 
ATOM     55  C   UNL A   1      40.111  34.740  37.935  1.00  0.00     0.041 A 
ATOM     56  F   UNL A   1      41.261  34.562  35.902  1.00  0.00    -0.206 F 
ATOM     57  C   UNL A   1      39.150  34.267  38.822  1.00  0.00     0.022 A 
BRANCH  54  58
ATOM     58  S   UNL A   1      37.109  32.530  39.591  1.00  0.00     0.124 S 
ATOM     59  O   UNL A   1      37.558  31.178  39.908  1.00  0.00    -0.237 OA
ATOM     60  O   UNL A   1      37.167  33.498  40.681  1.00  0.00    -0.237 OA
ATOM     61  O   UNL A   1      35.915  32.611  38.752  1.00  0.00    -0.744 OA
ENDBRANCH  54  58
ENDBRANCH  27  51
BRANCH  39  62
ATOM     62  C   UNL A   1      44.213  27.879  34.620  1.00  0.00     0.023 A 
ATOM     63  C   UNL A   1      44.101  26.629  35.251  1.00  0.00     0.031 A 
ATOM     64  C   UNL A   1      45.465  28.521  34.640  1.00  0.00     0.131 A 
ATOM     65  C   UNL A   1      45.217  26.072  35.897  1.00  0.00     0.055 A 
ATOM     66  C   UNL A   1      46.585  27.937  35.233  1.00  0.00     0.041 A 
ATOM     67  F   UNL A   1      45.626  29.722  34.061  1.00  0.00    -0.206 F 
ATOM     68  C   UNL A   1      46.462  26.707  35.872  1.00  0.00     0.022 A 
BRANCH  65  69
ATOM     69  S   UNL A   1      45.014  24.527  36.828  1.00  0.00     0.124 S 
ATOM     70  O   UNL A   1      46.340  23.931  36.717  1.00  0.00    -0.237 OA
ATOM     71  O   UNL A   1      44.638  25.007  38.153  1.00  0.00    -0.237 OA
ATOM     72  O   UNL A   1      43.956  23.826  36.102  1.00  0.00    -0.744 OA
ENDBRANCH  65  69
ENDBRANCH  39  62
ENDBRANCH  13  14
ENDBRANCH   6   8
ENDBRANCH   3   4
ENDBRANCH   2   3
ENDBRANCH   1   2
BRANCH   1  73
ATOM     73  C   UNL A   1      32.405  29.224  25.843  1.00  0.00     0.002 C 
BRANCH  73  74
ATOM     74  C   UNL A   1      31.678  28.098  26.592  1.00  0.00     0.021 C 
BRANCH  74  75
ATOM     75  C   UNL A   1      31.094  27.020  25.679  1.00  0.00     0.116 C 
BRANCH  75  76
ATOM     76  N   UNL A   1      30.597  25.904  26.466  1.00  0.00    -0.356 N 
ATOM     77  C   UNL A   1      30.989  24.599  26.478  1.00  0.00     0.225 C 
ATOM     78  H   UNL A   1      29.867  26.125  27.087  1.00  0.00     0.163 HD
ATOM     79  O   UNL A   1      30.355  23.814  27.184  1.00  0.00    -0.275 OA
BRANCH  77  80
ATOM     80  C   UNL A   1      32.202  24.171  25.673  1.00  0.00     0.107 C 
ATOM     81  C   UNL A   1      33.513  24.323  26.454  1.00  0.00     0.115 C 
ATOM     82  C   UNL A   1      32.175  22.689  25.348  1.00  0.00     0.133 C 
ATOM     83  C   UNL A   1      34.382  23.220  25.908  1.00  0.00     0.223 C 
ATOM     84  N   UNL A   1      33.563  22.311  25.268  1.00  0.00    -0.342 N 
ATOM     85  O   UNL A   1      35.594  23.143  26.044  1.00  0.00    -0.275 OA
BRANCH  84  86
ATOM     86  C   UNL A   1      34.020  21.110  24.577  1.00  0.00     0.124 C 
BRANCH  86  87
ATOM     87  C   UNL A   1      32.907  20.113  24.213  1.00  0.00     0.057 C 
BRANCH  87  88
ATOM     88  C   UNL A   1      33.284  18.661  24.426  1.00  0.00    -0.042 A 
ATOM     89  C   UNL A   1      34.634  18.254  24.326  1.00  0.00     0.008 A 
ATOM     90  C   UNL A   1      32.304  17.718  24.774  1.00  0.00     0.054 A 
ATOM     91  C   UNL A   1      35.017  16.942  24.624  1.00  0.00     0.051 A 
ATOM     92  C   UNL A   1      32.709  16.432  25.057  1.00  0.00     0.166 A 
ATOM     93  C   UNL A   1      34.029  16.056  24.997  1.00  0.00     0.165 A 
ATOM     94  O   UNL A   1      31.896  15.416  25.447  1.00  0.00    -0.454 OA
ATOM     95  O   UNL A   1      34.217  14.762  25.371  1.00  0.00    -0.454 OA
ATOM     96  C   UNL A   1      32.854  14.356  25.628  1.00  0.00     0.468 C 
ENDBRANCH  87  88
ENDBRANCH  86  87
ENDBRANCH  84  86
ENDBRANCH  77  80
ENDBRANCH  75  76
ENDBRANCH  74  75
ENDBRANCH  73  74
ENDBRANCH   1  73
TORSDOF 19
ENDMDL
MODEL 2
REMARK VINA RESULT:     -11.7      2.914      3.904
REMARK SMILES O=C(NCCCCCCNC(=O)[C@H]1CC(=O)N(CCc2ccc3c(c2)OCO3)C1)c1ccc(-c2c3nc(c(-c4cc(S(=O)(=O)[O-])ccc4F)c4ccc([nH]4)c(-c4cc(S(=O)(=O)[O-])ccc4F)c4nc(c(-c5cc(S(=O)(=O)[O-])ccc5F)c5ccc2[nH]5)C=C4)C=C3)cc1
REMARK SMILES IDX 6 1 5 2 4 3 3 4 1 5 2 6 30 8 31 9 92 10 32 11 91 12 33 13
REMARK SMILES IDX 34 14 35 15 85 16 36 17 90 18 84 19 86 20 37 21 89 22 83 23
REMARK SMILES IDX 82 24 38 26 70 27 50 28 69 29 51 30 54 31 68 32 87 33 52 34
REMARK SMILES IDX 53 35 67 37 88 38 55 39 39 40 40 41 48 42 41 43 47 44 49 45
REMARK SMILES IDX 46 46 42 47 43 48 44 49 45 50 71 51 72 52 80 53 73 54 79 55
REMARK SMILES IDX 81 56 78 57 74 58 75 59 76 60 77 61 56 62 57 63 65 64 58 65
REMARK SMILES IDX 64 66 66 67 63 68 59 69 60 70 61 71 62 72 7 73 8 74 9 75
REMARK SMILES IDX 10 76 11 77 12 79 13 80 14 81 29 82 15 83 17 84 16 85 18 86
REMARK SMILES IDX 19 87 20 88 21 89 25 90 22 91 24 92 23 93 26 94 28 95 27 96
REMARK H PARENT 3 7 86 25 54 36 10 78
REMARK Flexibility Score: inf
ROOT
ATOM      1  C   UNL A   1      33.015  27.131  23.519  1.00  0.00     0.002 C 
ENDROOT
BRANCH   1   2
ATOM      2  C   UNL A   1      33.544  28.556  23.698  1.00  0.00     0.021 C 
BRANCH   2   3
ATOM      3  C   UNL A   1      33.977  28.886  25.122  1.00  0.00     0.116 C 
BRANCH   3   4
ATOM      4  N   UNL A   1      33.188  29.957  25.703  1.00  0.00    -0.352 N 
ATOM      5  O   UNL A   1      32.545  31.444  27.266  1.00  0.00    -0.269 OA
ATOM      6  C   UNL A   1      33.422  30.700  26.833  1.00  0.00     0.251 C 
ATOM      7  H   UNL A   1      32.364  30.184  25.215  1.00  0.00     0.163 HD
BRANCH   6   8
ATOM      8  C   UNL A   1      34.719  30.594  27.536  1.00  0.00     0.039 A 
ATOM      9  C   UNL A   1      35.153  29.379  28.072  1.00  0.00     0.014 A 
ATOM     10  C   UNL A   1      35.525  31.731  27.625  1.00  0.00     0.014 A 
ATOM     11  C   UNL A   1      36.345  29.323  28.793  1.00  0.00     0.010 A 
ATOM     12  C   UNL A   1      36.753  31.656  28.286  1.00  0.00     0.010 A 
ATOM     13  C   UNL A   1      37.165  30.457  28.892  1.00  0.00    -0.014 A 
BRANCH  13  14
ATOM     14  C   UNL A   1      38.478  30.390  29.586  1.00  0.00     0.031 A 
ATOM     15  C   UNL A   1      39.596  29.563  29.020  1.00  0.00     0.074 A 
ATOM     16  C   UNL A   1      38.638  31.029  30.760  1.00  0.00     0.049 A 
ATOM     17  N   UNL A   1      40.755  29.263  29.549  1.00  0.00    -0.248 NA
ATOM     18  C   UNL A   1      39.371  28.983  27.690  1.00  0.00     0.031 C 
ATOM     19  C   UNL A   1      37.626  31.869  31.403  1.00  0.00     0.029 A 
ATOM     20  N   UNL A   1      39.696  31.055  31.632  1.00  0.00    -0.354 N 
ATOM     21  C   UNL A   1      41.391  28.437  28.628  1.00  0.00     0.074 A 
ATOM     22  C   UNL A   1      40.467  28.257  27.526  1.00  0.00     0.031 C 
ATOM     23  C   UNL A   1      38.111  32.325  32.567  1.00  0.00     0.029 A 
ATOM     24  C   UNL A   1      39.433  31.750  32.789  1.00  0.00     0.049 A 
ATOM     25  H   UNL A   1      40.560  30.619  31.448  1.00  0.00     0.167 HD
ATOM     26  C   UNL A   1      42.631  27.886  28.699  1.00  0.00     0.034 A 
ATOM     27  C   UNL A   1      40.147  31.870  33.926  1.00  0.00     0.034 A 
ATOM     28  C   UNL A   1      43.523  28.067  29.821  1.00  0.00     0.049 A 
ATOM     29  C   UNL A   1      41.484  31.188  34.023  1.00  0.00     0.074 A 
ATOM     30  C   UNL A   1      44.810  27.586  29.985  1.00  0.00     0.029 A 
ATOM     31  N   UNL A   1      43.212  28.765  30.982  1.00  0.00    -0.354 N 
ATOM     32  N   UNL A   1      42.085  30.423  33.141  1.00  0.00    -0.248 NA
ATOM     33  C   UNL A   1      42.244  31.387  35.264  1.00  0.00     0.031 C 
ATOM     34  C   UNL A   1      45.240  27.912  31.275  1.00  0.00     0.029 A 
ATOM     35  C   UNL A   1      44.266  28.690  31.882  1.00  0.00     0.049 A 
ATOM     36  H   UNL A   1      42.367  29.244  31.144  1.00  0.00     0.167 HD
ATOM     37  C   UNL A   1      43.309  30.079  33.705  1.00  0.00     0.074 A 
ATOM     38  C   UNL A   1      43.358  30.714  35.007  1.00  0.00     0.031 C 
ATOM     39  C   UNL A   1      44.307  29.322  33.183  1.00  0.00     0.034 A 
BRANCH  26  40
ATOM     40  C   UNL A   1      43.055  26.987  27.559  1.00  0.00     0.023 A 
ATOM     41  C   UNL A   1      42.905  25.590  27.619  1.00  0.00     0.031 A 
ATOM     42  C   UNL A   1      43.676  27.527  26.418  1.00  0.00     0.131 A 
ATOM     43  C   UNL A   1      43.465  24.779  26.621  1.00  0.00     0.055 A 
ATOM     44  C   UNL A   1      44.140  26.720  25.376  1.00  0.00     0.041 A 
ATOM     45  F   UNL A   1      43.870  28.851  26.304  1.00  0.00    -0.206 F 
ATOM     46  C   UNL A   1      44.057  25.335  25.486  1.00  0.00     0.022 A 
BRANCH  43  47
ATOM     47  S   UNL A   1      43.590  22.996  26.932  1.00  0.00     0.124 S 
ATOM     48  O   UNL A   1      45.034  22.779  26.841  1.00  0.00    -0.237 OA
ATOM     49  O   UNL A   1      43.010  22.865  28.262  1.00  0.00    -0.237 OA
ATOM     50  O   UNL A   1      42.812  22.403  25.847  1.00  0.00    -0.744 OA
ENDBRANCH  43  47
ENDBRANCH  26  40
BRANCH  27  51
ATOM     51  C   UNL A   1      39.574  32.629  35.072  1.00  0.00     0.023 A 
ATOM     52  C   UNL A   1      38.902  31.976  36.115  1.00  0.00     0.031 A 
ATOM     53  C   UNL A   1      39.719  34.027  35.150  1.00  0.00     0.131 A 
ATOM     54  C   UNL A   1      38.380  32.724  37.182  1.00  0.00     0.055 A 
ATOM     55  C   UNL A   1      39.245  34.759  36.238  1.00  0.00     0.041 A 
ATOM     56  F   UNL A   1      40.362  34.697  34.181  1.00  0.00    -0.206 F 
ATOM     57  C   UNL A   1      38.562  34.107  37.260  1.00  0.00     0.022 A 
BRANCH  54  58
ATOM     58  S   UNL A   1      37.410  31.866  38.452  1.00  0.00     0.124 S 
ATOM     59  O   UNL A   1      38.282  31.979  39.616  1.00  0.00    -0.237 OA
ATOM     60  O   UNL A   1      36.185  32.658  38.488  1.00  0.00    -0.237 OA
ATOM     61  O   UNL A   1      37.261  30.516  37.912  1.00  0.00    -0.744 OA
ENDBRANCH  54  58
ENDBRANCH  27  51
BRANCH  39  62
ATOM     62  C   UNL A   1      45.581  29.194  33.983  1.00  0.00     0.023 A 
ATOM     63  C   UNL A   1      46.646  30.102  33.856  1.00  0.00     0.031 A 
ATOM     64  C   UNL A   1      45.706  28.156  34.926  1.00  0.00     0.131 A 
ATOM     65  C   UNL A   1      47.799  29.937  34.640  1.00  0.00     0.055 A 
ATOM     66  C   UNL A   1      46.830  28.032  35.743  1.00  0.00     0.041 A 
ATOM     67  F   UNL A   1      44.722  27.255  35.082  1.00  0.00    -0.206 F 
ATOM     68  C   UNL A   1      47.888  28.923  35.598  1.00  0.00     0.022 A 
BRANCH  65  69
ATOM     69  S   UNL A   1      49.218  31.033  34.356  1.00  0.00     0.124 S 
ATOM     70  O   UNL A   1      49.551  30.744  32.966  1.00  0.00    -0.237 OA
ATOM     71  O   UNL A   1      48.653  32.352  34.617  1.00  0.00    -0.237 OA
ATOM     72  O   UNL A   1      50.204  30.579  35.336  1.00  0.00    -0.744 OA
ENDBRANCH  65  69
ENDBRANCH  39  62
ENDBRANCH  13  14
ENDBRANCH   6   8
ENDBRANCH   3   4
ENDBRANCH   2   3
ENDBRANCH   1   2
BRANCH   1  73
ATOM     73  C   UNL A   1      31.503  27.026  23.281  1.00  0.00     0.002 C 
BRANCH  73  74
ATOM     74  C   UNL A   1      30.631  27.323  24.511  1.00  0.00     0.021 C 
BRANCH  74  75
ATOM     75  C   UNL A   1      31.247  26.868  25.834  1.00  0.00     0.116 C 
BRANCH  75  76
ATOM     76  N   UNL A   1      30.427  25.835  26.445  1.00  0.00    -0.356 N 
ATOM     77  C   UNL A   1      30.704  24.521  26.675  1.00  0.00     0.225 C 
ATOM     78  H   UNL A   1      29.536  26.131  26.739  1.00  0.00     0.163 HD
ATOM     79  O   UNL A   1      29.807  23.817  27.141  1.00  0.00    -0.275 OA
BRANCH  77  80
ATOM     80  C   UNL A   1      32.097  23.986  26.400  1.00  0.00     0.107 C 
ATOM     81  C   UNL A   1      32.397  22.695  27.171  1.00  0.00     0.115 C 
ATOM     82  C   UNL A   1      32.267  23.561  24.954  1.00  0.00     0.133 C 
ATOM     83  C   UNL A   1      33.343  21.951  26.265  1.00  0.00     0.223 C 
ATOM     84  N   UNL A   1      33.240  22.499  25.001  1.00  0.00    -0.342 N 
ATOM     85  O   UNL A   1      34.049  21.011  26.599  1.00  0.00    -0.275 OA
BRANCH  84  86
ATOM     86  C   UNL A   1      34.016  22.081  23.838  1.00  0.00     0.124 C 
BRANCH  86  87
ATOM     87  C   UNL A   1      35.246  22.953  23.536  1.00  0.00     0.057 C 
BRANCH  87  88
ATOM     88  C   UNL A   1      36.396  22.756  24.501  1.00  0.00    -0.042 A 
ATOM     89  C   UNL A   1      37.061  21.510  24.572  1.00  0.00     0.008 A 
ATOM     90  C   UNL A   1      36.845  23.823  25.297  1.00  0.00     0.054 A 
ATOM     91  C   UNL A   1      38.193  21.340  25.377  1.00  0.00     0.051 A 
ATOM     92  C   UNL A   1      37.959  23.624  26.084  1.00  0.00     0.166 A 
ATOM     93  C   UNL A   1      38.622  22.422  26.114  1.00  0.00     0.165 A 
ATOM     94  O   UNL A   1      38.541  24.560  26.876  1.00  0.00    -0.454 OA
ATOM     95  O   UNL A   1      39.726  22.459  26.909  1.00  0.00    -0.454 OA
ATOM     96  C   UNL A   1      39.651  23.813  27.410  1.00  0.00     0.468 C 
ENDBRANCH  87  88
ENDBRANCH  86  87
ENDBRANCH  84  86
ENDBRANCH  77  80
ENDBRANCH  75  76
ENDBRANCH  74  75
ENDBRANCH  73  74
ENDBRANCH   1  73
TORSDOF 19
ENDMDL
MODEL 3
REMARK VINA RESULT:     -11.6      4.921      9.535
REMARK SMILES O=C(NCCCCCCNC(=O)[C@H]1CC(=O)N(CCc2ccc3c(c2)OCO3)C1)c1ccc(-c2c3nc(c(-c4cc(S(=O)(=O)[O-])ccc4F)c4ccc([nH]4)c(-c4cc(S(=O)(=O)[O-])ccc4F)c4nc(c(-c5cc(S(=O)(=O)[O-])ccc5F)c5ccc2[nH]5)C=C4)C=C3)cc1
REMARK SMILES IDX 6 1 5 2 4 3 3 4 1 5 2 6 30 8 31 9 92 10 32 11 91 12 33 13
REMARK SMILES IDX 34 14 35 15 85 16 36 17 90 18 84 19 86 20 37 21 89 22 83 23
REMARK SMILES IDX 82 24 38 26 70 27 50 28 69 29 51 30 54 31 68 32 87 33 52 34
REMARK SMILES IDX 53 35 67 37 88 38 55 39 39 40 40 41 48 42 41 43 47 44 49 45
REMARK SMILES IDX 46 46 42 47 43 48 44 49 45 50 71 51 72 52 80 53 73 54 79 55
REMARK SMILES IDX 81 56 78 57 74 58 75 59 76 60 77 61 56 62 57 63 65 64 58 65
REMARK SMILES IDX 64 66 66 67 63 68 59 69 60 70 61 71 62 72 7 73 8 74 9 75
REMARK SMILES IDX 10 76 11 77 12 79 13 80 14 81 29 82 15 83 17 84 16 85 18 86
REMARK SMILES IDX 19 87 20 88 21 89 25 90 22 91 24 92 23 93 26 94 28 95 27 96
REMARK H PARENT 3 7 86 25 54 36 10 78
REMARK Flexibility Score: inf
ROOT
ATOM      1  C   UNL A   1      35.359  21.451  25.562  1.00  0.00     0.002 C 
ENDROOT
BRANCH   1   2
ATOM      2  C   UNL A   1      35.766  22.768  24.897  1.00  0.00     0.021 C 
BRANCH   2   3
ATOM      3  C   UNL A   1      36.984  23.433  25.526  1.00  0.00     0.116 C 
BRANCH   3   4
ATOM      4  N   UNL A   1      37.956  22.465  26.003  1.00  0.00    -0.352 N 
ATOM      5  O   UNL A   1      39.939  21.723  26.768  1.00  0.00    -0.269 OA
ATOM      6  C   UNL A   1      39.177  22.671  26.594  1.00  0.00     0.251 C 
ATOM      7  H   UNL A   1      37.700  21.522  25.887  1.00  0.00     0.163 HD
BRANCH   6   8
ATOM      8  C   UNL A   1      39.582  24.033  27.006  1.00  0.00     0.039 A 
ATOM      9  C   UNL A   1      39.415  24.470  28.324  1.00  0.00     0.014 A 
ATOM     10  C   UNL A   1      40.170  24.871  26.057  1.00  0.00     0.014 A 
ATOM     11  C   UNL A   1      39.737  25.782  28.667  1.00  0.00     0.010 A 
ATOM     12  C   UNL A   1      40.558  26.162  26.421  1.00  0.00     0.010 A 
ATOM     13  C   UNL A   1      40.328  26.635  27.724  1.00  0.00    -0.014 A 
BRANCH  13  14
ATOM     14  C   UNL A   1      40.753  28.009  28.100  1.00  0.00     0.031 A 
ATOM     15  C   UNL A   1      42.210  28.374  28.126  1.00  0.00     0.074 A 
ATOM     16  C   UNL A   1      39.825  28.908  28.476  1.00  0.00     0.049 A 
ATOM     17  N   UNL A   1      42.784  29.466  28.564  1.00  0.00    -0.248 NA
ATOM     18  C   UNL A   1      43.145  27.368  27.605  1.00  0.00     0.031 C 
ATOM     19  C   UNL A   1      38.380  28.670  28.484  1.00  0.00     0.029 A 
ATOM     20  N   UNL A   1      39.955  30.190  28.948  1.00  0.00    -0.354 N 
ATOM     21  C   UNL A   1      44.150  29.271  28.396  1.00  0.00     0.074 A 
ATOM     22  C   UNL A   1      44.315  27.938  27.851  1.00  0.00     0.031 C 
ATOM     23  C   UNL A   1      37.759  29.768  28.938  1.00  0.00     0.029 A 
ATOM     24  C   UNL A   1      38.760  30.755  29.327  1.00  0.00     0.049 A 
ATOM     25  H   UNL A   1      40.818  30.659  29.008  1.00  0.00     0.167 HD
ATOM     26  C   UNL A   1      45.168  30.128  28.671  1.00  0.00     0.034 A 
ATOM     27  C   UNL A   1      38.497  31.912  29.965  1.00  0.00     0.034 A 
ATOM     28  C   UNL A   1      44.974  31.445  29.234  1.00  0.00     0.049 A 
ATOM     29  C   UNL A   1      39.640  32.817  30.337  1.00  0.00     0.074 A 
ATOM     30  C   UNL A   1      45.925  32.408  29.521  1.00  0.00     0.029 A 
ATOM     31  N   UNL A   1      43.748  31.974  29.620  1.00  0.00    -0.354 N 
ATOM     32  N   UNL A   1      40.928  32.632  30.159  1.00  0.00    -0.248 NA
ATOM     33  C   UNL A   1      39.298  34.088  30.989  1.00  0.00     0.031 C 
ATOM     34  C   UNL A   1      45.290  33.476  30.162  1.00  0.00     0.029 A 
ATOM     35  C   UNL A   1      43.926  33.231  30.181  1.00  0.00     0.049 A 
ATOM     36  H   UNL A   1      42.879  31.524  29.512  1.00  0.00     0.167 HD
ATOM     37  C   UNL A   1      41.547  33.779  30.645  1.00  0.00     0.074 A 
ATOM     38  C   UNL A   1      40.493  34.647  31.130  1.00  0.00     0.031 C 
ATOM     39  C   UNL A   1      42.869  34.090  30.668  1.00  0.00     0.034 A 
BRANCH  26  40
ATOM     40  C   UNL A   1      46.576  29.633  28.424  1.00  0.00     0.023 A 
ATOM     41  C   UNL A   1      47.315  28.971  29.420  1.00  0.00     0.031 A 
ATOM     42  C   UNL A   1      47.213  29.880  27.194  1.00  0.00     0.131 A 
ATOM     43  C   UNL A   1      48.672  28.681  29.212  1.00  0.00     0.055 A 
ATOM     44  C   UNL A   1      48.535  29.495  26.956  1.00  0.00     0.041 A 
ATOM     45  F   UNL A   1      46.572  30.526  26.207  1.00  0.00    -0.206 F 
ATOM     46  C   UNL A   1      49.280  28.914  27.977  1.00  0.00     0.022 A 
BRANCH  43  47
ATOM     47  S   UNL A   1      49.676  28.191  30.642  1.00  0.00     0.124 S 
ATOM     48  O   UNL A   1      49.803  29.457  31.363  1.00  0.00    -0.237 OA
ATOM     49  O   UNL A   1      48.845  27.177  31.279  1.00  0.00    -0.237 OA
ATOM     50  O   UNL A   1      50.914  27.701  30.041  1.00  0.00    -0.744 OA
ENDBRANCH  43  47
ENDBRANCH  26  40
BRANCH  27  51
ATOM     51  C   UNL A   1      37.092  32.242  30.332  1.00  0.00     0.023 A 
ATOM     52  C   UNL A   1      36.222  32.849  29.414  1.00  0.00     0.031 A 
ATOM     53  C   UNL A   1      36.592  31.927  31.610  1.00  0.00     0.131 A 
ATOM     54  C   UNL A   1      34.902  33.140  29.795  1.00  0.00     0.055 A 
ATOM     55  C   UNL A   1      35.265  32.171  31.965  1.00  0.00     0.041 A 
ATOM     56  F   UNL A   1      37.383  31.338  32.522  1.00  0.00    -0.206 F 
ATOM     57  C   UNL A   1      34.414  32.789  31.056  1.00  0.00     0.022 A 
BRANCH  54  58
ATOM     58  S   UNL A   1      33.840  34.035  28.628  1.00  0.00     0.124 S 
ATOM     59  O   UNL A   1      33.315  32.945  27.812  1.00  0.00    -0.237 OA
ATOM     60  O   UNL A   1      32.887  34.685  29.522  1.00  0.00    -0.237 OA
ATOM     61  O   UNL A   1      34.766  34.935  27.947  1.00  0.00    -0.744 OA
ENDBRANCH  54  58
ENDBRANCH  27  51
BRANCH  39  62
ATOM     62  C   UNL A   1      43.256  35.462  31.167  1.00  0.00     0.023 A 
ATOM     63  C   UNL A   1      43.395  35.757  32.534  1.00  0.00     0.031 A 
ATOM     64  C   UNL A   1      43.531  36.485  30.239  1.00  0.00     0.131 A 
ATOM     65  C   UNL A   1      43.772  37.049  32.934  1.00  0.00     0.055 A 
ATOM     66  C   UNL A   1      43.961  37.749  30.640  1.00  0.00     0.041 A 
ATOM     67  F   UNL A   1      43.405  36.261  28.921  1.00  0.00    -0.206 F 
ATOM     68  C   UNL A   1      44.077  38.039  31.996  1.00  0.00     0.022 A 
BRANCH  65  69
ATOM     69  S   UNL A   1      43.804  37.447  34.704  1.00  0.00     0.124 S 
ATOM     70  O   UNL A   1      42.537  36.888  35.163  1.00  0.00    -0.237 OA
ATOM     71  O   UNL A   1      45.008  36.759  35.159  1.00  0.00    -0.237 OA
ATOM     72  O   UNL A   1      43.881  38.907  34.727  1.00  0.00    -0.744 OA
ENDBRANCH  65  69
ENDBRANCH  39  62
ENDBRANCH  13  14
ENDBRANCH   6   8
ENDBRANCH   3   4
ENDBRANCH   2   3
ENDBRANCH   1   2
BRANCH   1  73
ATOM     73  C   UNL A   1      33.851  21.271  25.775  1.00  0.00     0.002 C 
BRANCH  73  74
ATOM     74  C   UNL A   1      33.050  20.949  24.504  1.00  0.00     0.021 C 
BRANCH  74  75
ATOM     75  C   UNL A   1      32.258  22.134  23.951  1.00  0.00     0.116 C 
BRANCH  75  76
ATOM     76  N   UNL A   1      32.833  22.586  22.696  1.00  0.00    -0.356 N 
ATOM     77  C   UNL A   1      32.952  23.847  22.192  1.00  0.00     0.225 C 
ATOM     78  H   UNL A   1      33.192  21.872  22.122  1.00  0.00     0.163 HD
ATOM     79  O   UNL A   1      33.410  23.971  21.055  1.00  0.00    -0.275 OA
BRANCH  77  80
ATOM     80  C   UNL A   1      32.568  25.038  23.048  1.00  0.00     0.107 C 
ATOM     81  C   UNL A   1      33.765  25.637  23.797  1.00  0.00     0.115 C 
ATOM     82  C   UNL A   1      32.077  26.205  22.213  1.00  0.00     0.133 C 
ATOM     83  C   UNL A   1      33.423  27.101  23.902  1.00  0.00     0.223 C 
ATOM     84  N   UNL A   1      32.434  27.374  22.977  1.00  0.00    -0.342 N 
ATOM     85  O   UNL A   1      33.958  27.899  24.657  1.00  0.00    -0.275 OA
BRANCH  84  86
ATOM     86  C   UNL A   1      31.802  28.674  22.781  1.00  0.00     0.124 C 
BRANCH  86  87
ATOM     87  C   UNL A   1      30.488  28.874  23.553  1.00  0.00     0.057 C 
BRANCH  87  88
ATOM     88  C   UNL A   1      29.672  30.062  23.088  1.00  0.00    -0.042 A 
ATOM     89  C   UNL A   1      29.403  31.132  23.973  1.00  0.00     0.008 A 
ATOM     90  C   UNL A   1      29.220  30.136  21.761  1.00  0.00     0.054 A 
ATOM     91  C   UNL A   1      28.745  32.286  23.534  1.00  0.00     0.051 A 
ATOM     92  C   UNL A   1      28.569  31.282  21.358  1.00  0.00     0.166 A 
ATOM     93  C   UNL A   1      28.349  32.333  22.215  1.00  0.00     0.165 A 
ATOM     94  O   UNL A   1      28.108  31.527  20.104  1.00  0.00    -0.454 OA
ATOM     95  O   UNL A   1      27.746  33.386  21.599  1.00  0.00    -0.454 OA
ATOM     96  C   UNL A   1      27.572  32.854  20.266  1.00  0.00     0.468 C 
ENDBRANCH  87  88
ENDBRANCH  86  87
ENDBRANCH  84  86
ENDBRANCH  77  80
ENDBRANCH  75  76
ENDBRANCH  74  75
ENDBRANCH  73  74
ENDBRANCH   1  73
TORSDOF 19
ENDMDL
