MODEL 1
REMARK VINA RESULT:      -9.9      0.000      0.000
REMARK SMILES C[C@H](C(=O)NCCCCCCNC(=O)c1ccc(-c2c3nc(c(-c4cc(S(=O)(=O)[O-])ccc4F)c4ccc([nH]4)c(-c4cc(S(=O)(=O)[O-])ccc4F)c4nc(c(-c5cc(S(=O)(=O)[O-])ccc5F)c5ccc2[nH]5)C=C4)C=C3)cc1)[N@@H+](C)C[C@@H]1CCC[N@H+]1C
REMARK SMILES IDX 8 1 7 2 6 3 5 4 3 5 4 6 2 8 1 9 78 10 79 11 80 13 81 14
REMARK SMILES IDX 82 15 85 16 83 17 84 18 86 19 9 21 10 22 11 23 12 24 13 25
REMARK SMILES IDX 14 27 15 28 16 29 77 30 17 31 76 32 18 33 19 34 20 35 70 36
REMARK SMILES IDX 21 37 75 38 69 39 71 40 22 41 74 42 68 43 67 44 23 46 55 47
REMARK SMILES IDX 35 48 54 49 36 50 39 51 53 52 72 53 37 54 38 55 52 57 73 58
REMARK SMILES IDX 40 59 24 60 25 61 33 62 26 63 32 64 34 65 31 66 27 67 28 68
REMARK SMILES IDX 29 69 30 70 56 71 57 72 65 73 58 74 64 75 66 76 63 77 59 78
REMARK SMILES IDX 60 79 61 80 62 81 41 82 42 83 50 84 43 85 49 86 51 87 48 88
REMARK SMILES IDX 44 89 45 90 46 91 47 92
REMARK H PARENT 5 7 78 12 85 20 12 26 71 45 39 56
REMARK Flexibility Score: inf
ROOT
ATOM      1  C   UNL A   1      32.979  21.611  23.664  1.00  0.00     0.002 C 
ENDROOT
BRANCH   1   2
ATOM      2  C   UNL A   1      32.043  22.622  24.327  1.00  0.00     0.021 C 
BRANCH   2   3
ATOM      3  C   UNL A   1      31.454  23.632  23.356  1.00  0.00     0.116 C 
BRANCH   3   4
ATOM      4  N   UNL A   1      30.383  24.382  23.977  1.00  0.00    -0.351 N 
ATOM      5  C   UNL A   1      30.426  25.618  24.554  1.00  0.00     0.278 C 
ATOM      6  O   UNL A   1      29.431  25.964  25.195  1.00  0.00    -0.268 OA
ATOM      7  H   UNL A   1      29.504  23.939  23.985  1.00  0.00     0.163 HD
BRANCH   5   8
ATOM      8  C   UNL A   1      31.705  26.473  24.347  1.00  0.00     0.270 C 
ATOM      9  C   UNL A   1      31.309  27.828  23.751  1.00  0.00     0.086 C 
BRANCH   8  10
ATOM     10  N   UNL A   1      32.515  26.527  25.568  1.00  0.00    -0.322 N 
ATOM     11  C   UNL A   1      32.526  25.380  26.440  1.00  0.00     0.333 C 
ATOM     12  H   UNL A   1      31.824  27.109  26.040  1.00  0.00     0.348 HD
BRANCH  10  13
ATOM     13  C   UNL A   1      33.544  27.545  25.739  1.00  0.00     0.328 C 
BRANCH  13  14
ATOM     14  C   UNL A   1      33.516  28.453  27.005  1.00  0.00     0.239 C 
ATOM     15  C   UNL A   1      32.087  28.974  27.234  1.00  0.00     0.077 C 
ATOM     16  N   UNL A   1      34.336  29.664  26.859  1.00  0.00    -0.330 N 
ATOM     17  C   UNL A   1      32.115  30.410  26.742  1.00  0.00     0.068 C 
ATOM     18  C   UNL A   1      33.527  30.858  27.049  1.00  0.00     0.262 C 
ATOM     19  C   UNL A   1      35.561  29.665  27.642  1.00  0.00     0.333 C 
ATOM     20  H   UNL A   1      34.676  29.667  25.897  1.00  0.00     0.348 HD
ENDBRANCH  13  14
ENDBRANCH  10  13
ENDBRANCH   8  10
ENDBRANCH   5   8
ENDBRANCH   3   4
ENDBRANCH   2   3
ENDBRANCH   1   2
BRANCH   1  21
ATOM     21  C   UNL A   1      34.378  21.547  24.282  1.00  0.00     0.002 C 
BRANCH  21  22
ATOM     22  C   UNL A   1      34.474  22.115  25.698  1.00  0.00     0.021 C 
BRANCH  22  23
ATOM     23  C   UNL A   1      35.889  22.480  26.126  1.00  0.00     0.116 C 
BRANCH  23  24
ATOM     24  N   UNL A   1      36.823  21.393  25.885  1.00  0.00    -0.352 N 
ATOM     25  C   UNL A   1      38.193  21.434  25.864  1.00  0.00     0.251 C 
ATOM     26  H   UNL A   1      36.419  20.512  25.714  1.00  0.00     0.163 HD
ATOM     27  O   UNL A   1      38.830  20.472  25.442  1.00  0.00    -0.269 OA
BRANCH  25  28
ATOM     28  C   UNL A   1      38.881  22.652  26.333  1.00  0.00     0.039 A 
ATOM     29  C   UNL A   1      39.915  22.530  27.261  1.00  0.00     0.014 A 
ATOM     30  C   UNL A   1      38.511  23.907  25.841  1.00  0.00     0.014 A 
ATOM     31  C   UNL A   1      40.607  23.670  27.669  1.00  0.00     0.010 A 
ATOM     32  C   UNL A   1      39.257  25.028  26.181  1.00  0.00     0.010 A 
ATOM     33  C   UNL A   1      40.298  24.925  27.117  1.00  0.00    -0.014 A 
BRANCH  33  34
ATOM     34  C   UNL A   1      41.020  26.150  27.541  1.00  0.00     0.031 A 
ATOM     35  C   UNL A   1      42.455  26.347  27.137  1.00  0.00     0.074 A 
ATOM     36  C   UNL A   1      40.402  27.054  28.326  1.00  0.00     0.049 A 
ATOM     37  N   UNL A   1      43.279  27.314  27.446  1.00  0.00    -0.248 NA
ATOM     38  C   UNL A   1      43.051  25.294  26.302  1.00  0.00     0.031 C 
ATOM     39  C   UNL A   1      39.024  26.952  28.810  1.00  0.00     0.029 A 
ATOM     40  N   UNL A   1      40.854  28.236  28.855  1.00  0.00    -0.354 N 
ATOM     41  C   UNL A   1      44.495  26.976  26.861  1.00  0.00     0.074 A 
ATOM     42  C   UNL A   1      44.316  25.678  26.246  1.00  0.00     0.031 C 
ATOM     43  C   UNL A   1      38.730  28.046  29.530  1.00  0.00     0.029 A 
ATOM     44  C   UNL A   1      39.910  28.902  29.601  1.00  0.00     0.049 A 
ATOM     45  H   UNL A   1      41.767  28.576  28.713  1.00  0.00     0.167 HD
ATOM     46  C   UNL A   1      45.646  27.693  26.818  1.00  0.00     0.034 A 
ATOM     47  C   UNL A   1      39.991  30.069  30.270  1.00  0.00     0.034 A 
ATOM     48  C   UNL A   1      45.798  28.991  27.429  1.00  0.00     0.049 A 
ATOM     49  C   UNL A   1      41.287  30.838  30.233  1.00  0.00     0.074 A 
ATOM     50  C   UNL A   1      46.893  29.834  27.404  1.00  0.00     0.029 A 
ATOM     51  N   UNL A   1      44.824  29.632  28.188  1.00  0.00    -0.354 N 
ATOM     52  N   UNL A   1      42.416  30.533  29.635  1.00  0.00    -0.248 NA
ATOM     53  C   UNL A   1      41.315  32.117  30.954  1.00  0.00     0.031 C 
ATOM     54  C   UNL A   1      46.613  30.944  28.211  1.00  0.00     0.029 A 
ATOM     55  C   UNL A   1      45.308  30.840  28.666  1.00  0.00     0.049 A 
ATOM     56  H   UNL A   1      43.922  29.278  28.362  1.00  0.00     0.167 HD
ATOM     57  C   UNL A   1      43.274  31.605  29.872  1.00  0.00     0.074 A 
ATOM     58  C   UNL A   1      42.528  32.562  30.664  1.00  0.00     0.031 C 
ATOM     59  C   UNL A   1      44.557  31.784  29.464  1.00  0.00     0.034 A 
BRANCH  46  60
ATOM     60  C   UNL A   1      46.829  27.061  26.117  1.00  0.00     0.023 A 
ATOM     61  C   UNL A   1      47.812  26.343  26.823  1.00  0.00     0.031 A 
ATOM     62  C   UNL A   1      47.012  27.231  24.734  1.00  0.00     0.131 A 
ATOM     63  C   UNL A   1      48.978  25.918  26.168  1.00  0.00     0.055 A 
ATOM     64  C   UNL A   1      48.128  26.717  24.068  1.00  0.00     0.041 A 
ATOM     65  F   UNL A   1      46.123  27.924  24.005  1.00  0.00    -0.206 F 
ATOM     66  C   UNL A   1      49.130  26.075  24.789  1.00  0.00     0.022 A 
BRANCH  63  67
ATOM     67  S   UNL A   1      50.370  25.337  27.176  1.00  0.00     0.124 S 
ATOM     68  O   UNL A   1      51.344  24.972  26.150  1.00  0.00    -0.237 OA
ATOM     69  O   UNL A   1      50.693  26.513  27.975  1.00  0.00    -0.237 OA
ATOM     70  O   UNL A   1      49.809  24.210  27.918  1.00  0.00    -0.744 OA
ENDBRANCH  63  67
ENDBRANCH  46  60
BRANCH  47  71
ATOM     71  C   UNL A   1      38.811  30.592  31.014  1.00  0.00     0.023 A 
ATOM     72  C   UNL A   1      37.926  31.501  30.413  1.00  0.00     0.031 A 
ATOM     73  C   UNL A   1      38.563  30.212  32.345  1.00  0.00     0.131 A 
ATOM     74  C   UNL A   1      36.857  32.030  31.153  1.00  0.00     0.055 A 
ATOM     75  C   UNL A   1      37.469  30.700  33.060  1.00  0.00     0.041 A 
ATOM     76  F   UNL A   1      39.376  29.340  32.965  1.00  0.00    -0.206 F 
ATOM     77  C   UNL A   1      36.615  31.625  32.468  1.00  0.00     0.022 A 
BRANCH  74  78
ATOM     78  S   UNL A   1      35.826  33.313  30.393  1.00  0.00     0.124 S 
ATOM     79  O   UNL A   1      36.775  33.965  29.498  1.00  0.00    -0.237 OA
ATOM     80  O   UNL A   1      34.779  32.523  29.755  1.00  0.00    -0.237 OA
ATOM     81  O   UNL A   1      35.389  34.117  31.533  1.00  0.00    -0.744 OA
ENDBRANCH  74  78
ENDBRANCH  47  71
BRANCH  59  82
ATOM     82  C   UNL A   1      45.213  33.098  29.817  1.00  0.00     0.023 A 
ATOM     83  C   UNL A   1      45.100  34.235  28.997  1.00  0.00     0.031 A 
ATOM     84  C   UNL A   1      45.977  33.208  30.994  1.00  0.00     0.131 A 
ATOM     85  C   UNL A   1      45.791  35.409  29.331  1.00  0.00     0.055 A 
ATOM     86  C   UNL A   1      46.604  34.400  31.357  1.00  0.00     0.041 A 
ATOM     87  F   UNL A   1      46.122  32.154  31.815  1.00  0.00    -0.206 F 
ATOM     88  C   UNL A   1      46.526  35.505  30.515  1.00  0.00     0.022 A 
BRANCH  85  89
ATOM     89  S   UNL A   1      45.808  36.778  28.141  1.00  0.00     0.124 S 
ATOM     90  O   UNL A   1      45.093  36.204  27.007  1.00  0.00    -0.237 OA
ATOM     91  O   UNL A   1      45.108  37.832  28.869  1.00  0.00    -0.237 OA
ATOM     92  O   UNL A   1      47.233  37.021  27.918  1.00  0.00    -0.744 OA
ENDBRANCH  85  89
ENDBRANCH  59  82
ENDBRANCH  33  34
ENDBRANCH  25  28
ENDBRANCH  23  24
ENDBRANCH  22  23
ENDBRANCH  21  22
ENDBRANCH   1  21
TORSDOF 19
ENDMDL
MODEL 2
REMARK VINA RESULT:      -9.8      2.446      3.019
REMARK SMILES C[C@H](C(=O)NCCCCCCNC(=O)c1ccc(-c2c3nc(c(-c4cc(S(=O)(=O)[O-])ccc4F)c4ccc([nH]4)c(-c4cc(S(=O)(=O)[O-])ccc4F)c4nc(c(-c5cc(S(=O)(=O)[O-])ccc5F)c5ccc2[nH]5)C=C4)C=C3)cc1)[N@@H+](C)C[C@@H]1CCC[N@H+]1C
REMARK SMILES IDX 8 1 7 2 6 3 5 4 3 5 4 6 2 8 1 9 78 10 79 11 80 13 81 14
REMARK SMILES IDX 82 15 85 16 83 17 84 18 86 19 9 21 10 22 11 23 12 24 13 25
REMARK SMILES IDX 14 27 15 28 16 29 77 30 17 31 76 32 18 33 19 34 20 35 70 36
REMARK SMILES IDX 21 37 75 38 69 39 71 40 22 41 74 42 68 43 67 44 23 46 55 47
REMARK SMILES IDX 35 48 54 49 36 50 39 51 53 52 72 53 37 54 38 55 52 57 73 58
REMARK SMILES IDX 40 59 24 60 25 61 33 62 26 63 32 64 34 65 31 66 27 67 28 68
REMARK SMILES IDX 29 69 30 70 56 71 57 72 65 73 58 74 64 75 66 76 63 77 59 78
REMARK SMILES IDX 60 79 61 80 62 81 41 82 42 83 50 84 43 85 49 86 51 87 48 88
REMARK SMILES IDX 44 89 45 90 46 91 47 92
REMARK H PARENT 5 7 78 12 85 20 12 26 71 45 39 56
REMARK Flexibility Score: inf
ROOT
ATOM      1  C   UNL A   1      34.046  20.940  24.432  1.00  0.00     0.002 C 
ENDROOT
BRANCH   1   2
ATOM      2  C   UNL A   1      33.013  22.059  24.301  1.00  0.00     0.021 C 
BRANCH   2   3
ATOM      3  C   UNL A   1      32.816  22.541  22.873  1.00  0.00     0.116 C 
BRANCH   3   4
ATOM      4  N   UNL A   1      31.772  23.541  22.804  1.00  0.00    -0.351 N 
ATOM      5  C   UNL A   1      31.847  24.877  23.070  1.00  0.00     0.278 C 
ATOM      6  O   UNL A   1      30.778  25.488  23.135  1.00  0.00    -0.268 OA
ATOM      7  H   UNL A   1      30.887  23.211  22.528  1.00  0.00     0.163 HD
BRANCH   5   8
ATOM      8  C   UNL A   1      33.255  25.504  23.255  1.00  0.00     0.270 C 
ATOM      9  C   UNL A   1      33.520  26.484  22.107  1.00  0.00     0.086 C 
BRANCH   8  10
ATOM     10  N   UNL A   1      33.426  26.046  24.607  1.00  0.00    -0.322 N 
ATOM     11  C   UNL A   1      33.561  25.125  25.707  1.00  0.00     0.333 C 
ATOM     12  H   UNL A   1      32.433  26.270  24.678  1.00  0.00     0.348 HD
BRANCH  10  13
ATOM     13  C   UNL A   1      33.794  27.440  24.813  1.00  0.00     0.328 C 
BRANCH  13  14
ATOM     14  C   UNL A   1      33.257  28.194  26.067  1.00  0.00     0.239 C 
ATOM     15  C   UNL A   1      31.734  28.373  25.947  1.00  0.00     0.077 C 
ATOM     16  N   UNL A   1      33.786  29.559  26.184  1.00  0.00    -0.330 N 
ATOM     17  C   UNL A   1      31.546  29.823  25.538  1.00  0.00     0.068 C 
ATOM     18  C   UNL A   1      32.702  30.530  26.211  1.00  0.00     0.262 C 
ATOM     19  C   UNL A   1      34.755  29.745  27.251  1.00  0.00     0.333 C 
ATOM     20  H   UNL A   1      34.335  29.729  25.341  1.00  0.00     0.348 HD
ENDBRANCH  13  14
ENDBRANCH  10  13
ENDBRANCH   8  10
ENDBRANCH   5   8
ENDBRANCH   3   4
ENDBRANCH   2   3
ENDBRANCH   1   2
BRANCH   1  21
ATOM     21  C   UNL A   1      35.283  21.313  25.253  1.00  0.00     0.002 C 
BRANCH  21  22
ATOM     22  C   UNL A   1      35.980  22.597  24.800  1.00  0.00     0.021 C 
BRANCH  22  23
ATOM     23  C   UNL A   1      36.988  23.142  25.803  1.00  0.00     0.116 C 
BRANCH  23  24
ATOM     24  N   UNL A   1      38.069  22.203  26.047  1.00  0.00    -0.352 N 
ATOM     25  C   UNL A   1      39.355  22.464  26.443  1.00  0.00     0.251 C 
ATOM     26  H   UNL A   1      37.850  21.253  25.911  1.00  0.00     0.163 HD
ATOM     27  O   UNL A   1      40.204  21.577  26.405  1.00  0.00    -0.269 OA
BRANCH  25  28
ATOM     28  C   UNL A   1      39.704  23.827  26.889  1.00  0.00     0.039 A 
ATOM     29  C   UNL A   1      39.859  24.073  28.254  1.00  0.00     0.014 A 
ATOM     30  C   UNL A   1      39.890  24.852  25.956  1.00  0.00     0.014 A 
ATOM     31  C   UNL A   1      40.241  25.344  28.681  1.00  0.00     0.010 A 
ATOM     32  C   UNL A   1      40.354  26.091  26.377  1.00  0.00     0.010 A 
ATOM     33  C   UNL A   1      40.513  26.357  27.746  1.00  0.00    -0.014 A 
BRANCH  33  34
ATOM     34  C   UNL A   1      40.916  27.717  28.181  1.00  0.00     0.031 A 
ATOM     35  C   UNL A   1      42.367  28.111  28.145  1.00  0.00     0.074 A 
ATOM     36  C   UNL A   1      39.988  28.573  28.653  1.00  0.00     0.049 A 
ATOM     37  N   UNL A   1      42.934  29.224  28.531  1.00  0.00    -0.248 NA
ATOM     38  C   UNL A   1      43.308  27.101  27.640  1.00  0.00     0.031 C 
ATOM     39  C   UNL A   1      38.557  28.289  28.767  1.00  0.00     0.029 A 
ATOM     40  N   UNL A   1      40.112  29.856  29.122  1.00  0.00    -0.354 N 
ATOM     41  C   UNL A   1      44.300  29.041  28.334  1.00  0.00     0.074 A 
ATOM     42  C   UNL A   1      44.475  27.682  27.868  1.00  0.00     0.031 C 
ATOM     43  C   UNL A   1      37.930  29.379  29.236  1.00  0.00     0.029 A 
ATOM     44  C   UNL A   1      38.917  30.421  29.501  1.00  0.00     0.049 A 
ATOM     45  H   UNL A   1      40.974  30.327  29.181  1.00  0.00     0.167 HD
ATOM     46  C   UNL A   1      45.309  29.931  28.500  1.00  0.00     0.034 A 
ATOM     47  C   UNL A   1      38.651  31.640  30.010  1.00  0.00     0.034 A 
ATOM     48  C   UNL A   1      45.109  31.286  28.956  1.00  0.00     0.049 A 
ATOM     49  C   UNL A   1      39.790  32.606  30.214  1.00  0.00     0.074 A 
ATOM     50  C   UNL A   1      46.045  32.292  29.109  1.00  0.00     0.029 A 
ATOM     51  N   UNL A   1      43.885  31.822  29.343  1.00  0.00    -0.354 N 
ATOM     52  N   UNL A   1      41.072  32.439  29.978  1.00  0.00    -0.248 NA
ATOM     53  C   UNL A   1      39.443  33.930  30.745  1.00  0.00     0.031 C 
ATOM     54  C   UNL A   1      45.404  33.407  29.662  1.00  0.00     0.029 A 
ATOM     55  C   UNL A   1      44.050  33.131  29.769  1.00  0.00     0.049 A 
ATOM     56  H   UNL A   1      43.026  31.340  29.319  1.00  0.00     0.167 HD
ATOM     57  C   UNL A   1      41.677  33.654  30.290  1.00  0.00     0.074 A 
ATOM     58  C   UNL A   1      40.618  34.541  30.727  1.00  0.00     0.031 C 
ATOM     59  C   UNL A   1      42.986  34.005  30.212  1.00  0.00     0.034 A 
BRANCH  46  60
ATOM     60  C   UNL A   1      46.714  29.443  28.223  1.00  0.00     0.023 A 
ATOM     61  C   UNL A   1      47.531  28.916  29.240  1.00  0.00     0.031 A 
ATOM     62  C   UNL A   1      47.270  29.562  26.937  1.00  0.00     0.131 A 
ATOM     63  C   UNL A   1      48.881  28.633  28.982  1.00  0.00     0.055 A 
ATOM     64  C   UNL A   1      48.586  29.182  26.662  1.00  0.00     0.041 A 
ATOM     65  F   UNL A   1      46.552  30.076  25.926  1.00  0.00    -0.206 F 
ATOM     66  C   UNL A   1      49.407  28.736  27.693  1.00  0.00     0.022 A 
BRANCH  63  67
ATOM     67  S   UNL A   1      49.982  28.319  30.390  1.00  0.00     0.124 S 
ATOM     68  O   UNL A   1      50.167  26.873  30.303  1.00  0.00    -0.237 OA
ATOM     69  O   UNL A   1      51.147  29.135  30.068  1.00  0.00    -0.237 OA
ATOM     70  O   UNL A   1      49.202  28.770  31.542  1.00  0.00    -0.744 OA
ENDBRANCH  63  67
ENDBRANCH  46  60
BRANCH  47  71
ATOM     71  C   UNL A   1      37.251  32.025  30.345  1.00  0.00     0.023 A 
ATOM     72  C   UNL A   1      36.445  32.693  29.409  1.00  0.00     0.031 A 
ATOM     73  C   UNL A   1      36.704  31.754  31.612  1.00  0.00     0.131 A 
ATOM     74  C   UNL A   1      35.152  33.103  29.767  1.00  0.00     0.055 A 
ATOM     75  C   UNL A   1      35.399  32.118  31.945  1.00  0.00     0.041 A 
ATOM     76  F   UNL A   1      37.431  31.112  32.541  1.00  0.00    -0.206 F 
ATOM     77  C   UNL A   1      34.618  32.808  31.023  1.00  0.00     0.022 A 
BRANCH  74  78
ATOM     78  S   UNL A   1      34.198  34.096  28.585  1.00  0.00     0.124 S 
ATOM     79  O   UNL A   1      34.259  33.268  27.386  1.00  0.00    -0.237 OA
ATOM     80  O   UNL A   1      32.897  34.181  29.242  1.00  0.00    -0.237 OA
ATOM     81  O   UNL A   1      34.941  35.351  28.517  1.00  0.00    -0.744 OA
ENDBRANCH  74  78
ENDBRANCH  47  71
BRANCH  59  82
ATOM     82  C   UNL A   1      43.335  35.435  30.551  1.00  0.00     0.023 A 
ATOM     83  C   UNL A   1      43.611  35.847  31.866  1.00  0.00     0.031 A 
ATOM     84  C   UNL A   1      43.379  36.407  29.534  1.00  0.00     0.131 A 
ATOM     85  C   UNL A   1      43.855  37.201  32.139  1.00  0.00     0.055 A 
ATOM     86  C   UNL A   1      43.692  37.740  29.801  1.00  0.00     0.041 A 
ATOM     87  F   UNL A   1      43.122  36.073  28.258  1.00  0.00    -0.206 F 
ATOM     88  C   UNL A   1      43.917  38.147  31.112  1.00  0.00     0.022 A 
BRANCH  85  89
ATOM     89  S   UNL A   1      43.983  37.733  33.869  1.00  0.00     0.124 S 
ATOM     90  O   UNL A   1      44.678  36.606  34.482  1.00  0.00    -0.237 OA
ATOM     91  O   UNL A   1      44.749  38.971  33.759  1.00  0.00    -0.237 OA
ATOM     92  O   UNL A   1      42.590  37.901  34.280  1.00  0.00    -0.744 OA
ENDBRANCH  85  89
ENDBRANCH  59  82
ENDBRANCH  33  34
ENDBRANCH  25  28
ENDBRANCH  23  24
ENDBRANCH  22  23
ENDBRANCH  21  22
ENDBRANCH   1  21
TORSDOF 19
ENDMDL
MODEL 3
REMARK VINA RESULT:      -9.8      5.171      8.420
REMARK SMILES C[C@H](C(=O)NCCCCCCNC(=O)c1ccc(-c2c3nc(c(-c4cc(S(=O)(=O)[O-])ccc4F)c4ccc([nH]4)c(-c4cc(S(=O)(=O)[O-])ccc4F)c4nc(c(-c5cc(S(=O)(=O)[O-])ccc5F)c5ccc2[nH]5)C=C4)C=C3)cc1)[N@@H+](C)C[C@@H]1CCC[N@H+]1C
REMARK SMILES IDX 8 1 7 2 6 3 5 4 3 5 4 6 2 8 1 9 78 10 79 11 80 13 81 14
REMARK SMILES IDX 82 15 85 16 83 17 84 18 86 19 9 21 10 22 11 23 12 24 13 25
REMARK SMILES IDX 14 27 15 28 16 29 77 30 17 31 76 32 18 33 19 34 20 35 70 36
REMARK SMILES IDX 21 37 75 38 69 39 71 40 22 41 74 42 68 43 67 44 23 46 55 47
REMARK SMILES IDX 35 48 54 49 36 50 39 51 53 52 72 53 37 54 38 55 52 57 73 58
REMARK SMILES IDX 40 59 24 60 25 61 33 62 26 63 32 64 34 65 31 66 27 67 28 68
REMARK SMILES IDX 29 69 30 70 56 71 57 72 65 73 58 74 64 75 66 76 63 77 59 78
REMARK SMILES IDX 60 79 61 80 62 81 41 82 42 83 50 84 43 85 49 86 51 87 48 88
REMARK SMILES IDX 44 89 45 90 46 91 47 92
REMARK H PARENT 5 7 78 12 85 20 12 26 71 45 39 56
REMARK Flexibility Score: inf
ROOT
ATOM      1  C   UNL A   1      33.574  28.574  27.255  1.00  0.00     0.002 C 
ENDROOT
BRANCH   1   2
ATOM      2  C   UNL A   1      33.378  27.854  25.921  1.00  0.00     0.021 C 
BRANCH   2   3
ATOM      3  C   UNL A   1      33.154  26.358  26.064  1.00  0.00     0.116 C 
BRANCH   3   4
ATOM      4  N   UNL A   1      33.834  25.630  25.014  1.00  0.00    -0.351 N 
ATOM      5  C   UNL A   1      33.583  24.374  24.542  1.00  0.00     0.278 C 
ATOM      6  O   UNL A   1      34.424  23.892  23.781  1.00  0.00    -0.268 OA
ATOM      7  H   UNL A   1      34.580  26.106  24.584  1.00  0.00     0.163 HD
BRANCH   5   8
ATOM      8  C   UNL A   1      32.271  23.677  24.991  1.00  0.00     0.270 C 
ATOM      9  C   UNL A   1      31.337  23.543  23.783  1.00  0.00     0.086 C 
BRANCH   8  10
ATOM     10  N   UNL A   1      32.548  22.437  25.722  1.00  0.00    -0.322 N 
ATOM     11  C   UNL A   1      32.846  22.518  27.129  1.00  0.00     0.333 C 
ATOM     12  H   UNL A   1      33.491  22.383  25.338  1.00  0.00     0.348 HD
BRANCH  10  13
ATOM     13  C   UNL A   1      32.202  21.141  25.154  1.00  0.00     0.328 C 
BRANCH  13  14
ATOM     14  C   UNL A   1      33.231  20.407  24.244  1.00  0.00     0.239 C 
ATOM     15  C   UNL A   1      32.505  19.353  23.390  1.00  0.00     0.077 C 
ATOM     16  N   UNL A   1      34.230  19.645  25.007  1.00  0.00    -0.330 N 
ATOM     17  C   UNL A   1      32.816  18.028  24.062  1.00  0.00     0.068 C 
ATOM     18  C   UNL A   1      34.203  18.240  24.628  1.00  0.00     0.262 C 
ATOM     19  C   UNL A   1      35.565  20.220  25.000  1.00  0.00     0.333 C 
ATOM     20  H   UNL A   1      33.955  19.709  25.987  1.00  0.00     0.348 HD
ENDBRANCH  13  14
ENDBRANCH  10  13
ENDBRANCH   8  10
ENDBRANCH   5   8
ENDBRANCH   3   4
ENDBRANCH   2   3
ENDBRANCH   1   2
BRANCH   1  21
ATOM     21  C   UNL A   1      34.118  29.999  27.130  1.00  0.00     0.002 C 
BRANCH  21  22
ATOM     22  C   UNL A   1      33.206  30.962  26.368  1.00  0.00     0.021 C 
BRANCH  22  23
ATOM     23  C   UNL A   1      32.113  31.589  27.223  1.00  0.00     0.116 C 
BRANCH  23  24
ATOM     24  N   UNL A   1      32.213  33.038  27.249  1.00  0.00    -0.352 N 
ATOM     25  C   UNL A   1      33.097  33.821  27.945  1.00  0.00     0.251 C 
ATOM     26  H   UNL A   1      31.559  33.522  26.695  1.00  0.00     0.163 HD
ATOM     27  O   UNL A   1      32.917  35.034  28.022  1.00  0.00    -0.269 OA
BRANCH  25  28
ATOM     28  C   UNL A   1      34.246  33.182  28.615  1.00  0.00     0.039 A 
ATOM     29  C   UNL A   1      35.523  33.360  28.084  1.00  0.00     0.014 A 
ATOM     30  C   UNL A   1      34.057  32.423  29.774  1.00  0.00     0.014 A 
ATOM     31  C   UNL A   1      36.621  32.804  28.740  1.00  0.00     0.010 A 
ATOM     32  C   UNL A   1      35.158  31.946  30.472  1.00  0.00     0.010 A 
ATOM     33  C   UNL A   1      36.450  32.112  29.950  1.00  0.00    -0.014 A 
BRANCH  33  34
ATOM     34  C   UNL A   1      37.606  31.510  30.661  1.00  0.00     0.031 A 
ATOM     35  C   UNL A   1      38.456  30.483  29.966  1.00  0.00     0.074 A 
ATOM     36  C   UNL A   1      37.857  31.850  31.941  1.00  0.00     0.049 A 
ATOM     37  N   UNL A   1      39.471  29.798  30.423  1.00  0.00    -0.248 NA
ATOM     38  C   UNL A   1      38.088  30.157  28.580  1.00  0.00     0.031 C 
ATOM     39  C   UNL A   1      37.080  32.808  32.729  1.00  0.00     0.029 A 
ATOM     40  N   UNL A   1      38.837  31.427  32.802  1.00  0.00    -0.354 N 
ATOM     41  C   UNL A   1      39.850  28.947  29.389  1.00  0.00     0.074 A 
ATOM     42  C   UNL A   1      38.905  29.151  28.313  1.00  0.00     0.031 C 
ATOM     43  C   UNL A   1      37.638  32.931  33.944  1.00  0.00     0.029 A 
ATOM     44  C   UNL A   1      38.779  32.025  34.039  1.00  0.00     0.049 A 
ATOM     45  H   UNL A   1      39.517  30.759  32.558  1.00  0.00     0.167 HD
ATOM     46  C   UNL A   1      40.904  28.095  29.334  1.00  0.00     0.034 A 
ATOM     47  C   UNL A   1      39.556  31.858  35.126  1.00  0.00     0.034 A 
ATOM     48  C   UNL A   1      41.841  27.916  30.417  1.00  0.00     0.049 A 
ATOM     49  C   UNL A   1      40.706  30.886  35.054  1.00  0.00     0.074 A 
ATOM     50  C   UNL A   1      42.976  27.127  30.455  1.00  0.00     0.029 A 
ATOM     51  N   UNL A   1      41.745  28.530  31.661  1.00  0.00    -0.354 N 
ATOM     52  N   UNL A   1      41.086  30.123  34.054  1.00  0.00    -0.248 NA
ATOM     53  C   UNL A   1      41.539  30.761  36.257  1.00  0.00     0.031 C 
ATOM     54  C   UNL A   1      43.519  27.200  31.743  1.00  0.00     0.029 A 
ATOM     55  C   UNL A   1      42.779  28.108  32.484  1.00  0.00     0.049 A 
ATOM     56  H   UNL A   1      41.044  29.172  31.920  1.00  0.00     0.167 HD
ATOM     57  C   UNL A   1      42.230  29.461  34.494  1.00  0.00     0.074 A 
ATOM     58  C   UNL A   1      42.476  29.919  35.847  1.00  0.00     0.031 C 
ATOM     59  C   UNL A   1      43.009  28.565  33.836  1.00  0.00     0.034 A 
BRANCH  46  60
ATOM     60  C   UNL A   1      41.064  27.274  28.073  1.00  0.00     0.023 A 
ATOM     61  C   UNL A   1      40.724  25.909  28.029  1.00  0.00     0.031 A 
ATOM     62  C   UNL A   1      41.621  27.845  26.915  1.00  0.00     0.131 A 
ATOM     63  C   UNL A   1      41.042  25.141  26.898  1.00  0.00     0.055 A 
ATOM     64  C   UNL A   1      41.843  27.097  25.756  1.00  0.00     0.041 A 
ATOM     65  F   UNL A   1      41.987  29.136  26.897  1.00  0.00    -0.206 F 
ATOM     66  C   UNL A   1      41.574  25.732  25.751  1.00  0.00     0.022 A 
BRANCH  63  67
ATOM     67  S   UNL A   1      40.935  23.334  27.024  1.00  0.00     0.124 S 
ATOM     68  O   UNL A   1      41.487  23.098  28.356  1.00  0.00    -0.237 OA
ATOM     69  O   UNL A   1      39.505  23.092  26.872  1.00  0.00    -0.237 OA
ATOM     70  O   UNL A   1      41.770  22.864  25.921  1.00  0.00    -0.744 OA
ENDBRANCH  63  67
ENDBRANCH  46  60
BRANCH  47  71
ATOM     71  C   UNL A   1      39.289  32.638  36.368  1.00  0.00     0.023 A 
ATOM     72  C   UNL A   1      38.427  32.140  37.358  1.00  0.00     0.031 A 
ATOM     73  C   UNL A   1      39.872  33.901  36.575  1.00  0.00     0.131 A 
ATOM     74  C   UNL A   1      38.140  32.918  38.491  1.00  0.00     0.055 A 
ATOM     75  C   UNL A   1      39.624  34.648  37.726  1.00  0.00     0.041 A 
ATOM     76  F   UNL A   1      40.709  34.420  35.661  1.00  0.00    -0.206 F 
ATOM     77  C   UNL A   1      38.743  34.163  38.688  1.00  0.00     0.022 A 
BRANCH  74  78
ATOM     78  S   UNL A   1      36.906  32.309  39.673  1.00  0.00     0.124 S 
ATOM     79  O   UNL A   1      37.425  30.982  39.985  1.00  0.00    -0.237 OA
ATOM     80  O   UNL A   1      36.993  33.300  40.739  1.00  0.00    -0.237 OA
ATOM     81  O   UNL A   1      35.663  32.330  38.907  1.00  0.00    -0.744 OA
ENDBRANCH  74  78
ENDBRANCH  47  71
BRANCH  59  82
ATOM     82  C   UNL A   1      44.242  28.069  34.554  1.00  0.00     0.023 A 
ATOM     83  C   UNL A   1      44.241  26.883  35.309  1.00  0.00     0.031 A 
ATOM     84  C   UNL A   1      45.438  28.808  34.491  1.00  0.00     0.131 A 
ATOM     85  C   UNL A   1      45.391  26.505  36.020  1.00  0.00     0.055 A 
ATOM     86  C   UNL A   1      46.598  28.391  35.142  1.00  0.00     0.041 A 
ATOM     87  F   UNL A   1      45.497  29.952  33.787  1.00  0.00    -0.206 F 
ATOM     88  C   UNL A   1      46.575  27.241  35.925  1.00  0.00     0.022 A 
BRANCH  85  89
ATOM     89  S   UNL A   1      45.288  25.097  37.159  1.00  0.00     0.124 S 
ATOM     90  O   UNL A   1      44.036  24.469  36.752  1.00  0.00    -0.237 OA
ATOM     91  O   UNL A   1      46.505  24.354  36.848  1.00  0.00    -0.237 OA
ATOM     92  O   UNL A   1      45.266  25.725  38.480  1.00  0.00    -0.744 OA
ENDBRANCH  85  89
ENDBRANCH  59  82
ENDBRANCH  33  34
ENDBRANCH  25  28
ENDBRANCH  23  24
ENDBRANCH  22  23
ENDBRANCH  21  22
ENDBRANCH   1  21
TORSDOF 19
ENDMDL
