MODEL 1
REMARK VINA RESULT:     -12.0      0.000      0.000
REMARK SMILES C[C@@H](C(=O)NCCCCCCNC(=O)c1ccc(-c2c3nc(c(-c4cc(S(=O)(=O)[O-])ccc4F)c4ccc([nH]4)c(-c4cc(S(=O)(=O)[O-])ccc4F)c4nc(c(-c5cc(S(=O)(=O)[O-])ccc5F)c5ccc2[nH]5)C=C4)C=C3)cc1)c1ccc(C[C@H]2CCCC2=O)cc1Cl
REMARK SMILES IDX 8 1 7 2 6 3 5 4 3 5 4 6 2 8 1 9 78 10 79 11 90 12 80 13
REMARK SMILES IDX 89 14 91 15 81 16 82 17 83 18 84 19 87 20 85 21 86 22 88 23
REMARK SMILES IDX 9 24 10 25 11 26 12 27 13 28 14 30 15 31 16 32 77 33 17 34
REMARK SMILES IDX 76 35 18 36 19 37 20 38 70 39 21 40 75 41 69 42 71 43 22 44
REMARK SMILES IDX 74 45 68 46 67 47 23 49 55 50 35 51 54 52 36 53 39 54 53 55
REMARK SMILES IDX 72 56 37 57 38 58 52 60 73 61 40 62 24 63 25 64 33 65 26 66
REMARK SMILES IDX 32 67 34 68 31 69 27 70 28 71 29 72 30 73 56 74 57 75 65 76
REMARK SMILES IDX 58 77 64 78 66 79 63 80 59 81 60 82 61 83 62 84 41 85 42 86
REMARK SMILES IDX 50 87 43 88 49 89 51 90 48 91 44 92 45 93 46 94 47 95
REMARK H PARENT 5 7 12 29 71 48 39 59
REMARK Flexibility Score: inf
ROOT
ATOM      1  C   UNL A   1      32.840  29.613  26.806  1.00  0.00     0.002 C 
ENDROOT
BRANCH   1   2
ATOM      2  C   UNL A   1      32.456  28.189  27.228  1.00  0.00     0.021 C 
BRANCH   2   3
ATOM      3  C   UNL A   1      31.419  27.513  26.322  1.00  0.00     0.116 C 
BRANCH   3   4
ATOM      4  N   UNL A   1      31.000  26.251  26.898  1.00  0.00    -0.356 N 
ATOM      5  C   UNL A   1      30.799  25.061  26.260  1.00  0.00     0.227 C 
ATOM      6  O   UNL A   1      29.930  24.330  26.738  1.00  0.00    -0.274 OA
ATOM      7  H   UNL A   1      30.843  26.251  27.870  1.00  0.00     0.163 HD
BRANCH   5   8
ATOM      8  C   UNL A   1      31.619  24.726  24.995  1.00  0.00     0.107 C 
ATOM      9  C   UNL A   1      30.670  24.911  23.800  1.00  0.00     0.023 C 
BRANCH   8  10
ATOM     10  C   UNL A   1      32.308  23.346  24.979  1.00  0.00    -0.017 A 
ATOM     11  C   UNL A   1      31.565  22.162  24.818  1.00  0.00     0.006 A 
ATOM     12  C   UNL A   1      33.701  23.187  25.125  1.00  0.00     0.045 A 
ATOM     13  C   UNL A   1      32.172  20.912  24.675  1.00  0.00     0.004 A 
ATOM     14  C   UNL A   1      34.313  21.930  24.988  1.00  0.00     0.024 A 
ATOM     15  Cl  UNL A   1      34.762  24.486  25.555  1.00  0.00    -0.084 Cl
ATOM     16  C   UNL A   1      33.554  20.782  24.750  1.00  0.00    -0.046 A 
BRANCH  16  17
ATOM     17  C   UNL A   1      34.205  19.428  24.622  1.00  0.00     0.047 C 
BRANCH  17  18
ATOM     18  C   UNL A   1      33.309  18.296  24.108  1.00  0.00     0.060 C 
ATOM     19  C   UNL A   1      33.941  17.333  23.101  1.00  0.00     0.012 C 
ATOM     20  C   UNL A   1      32.870  17.359  25.209  1.00  0.00     0.136 C 
ATOM     21  C   UNL A   1      34.411  16.122  23.899  1.00  0.00     0.009 C 
ATOM     22  C   UNL A   1      33.410  15.963  25.035  1.00  0.00     0.076 C 
ATOM     23  O   UNL A   1      32.142  17.693  26.137  1.00  0.00    -0.299 OA
ENDBRANCH  17  18
ENDBRANCH  16  17
ENDBRANCH   8  10
ENDBRANCH   5   8
ENDBRANCH   3   4
ENDBRANCH   2   3
ENDBRANCH   1   2
BRANCH   1  24
ATOM     24  C   UNL A   1      31.722  30.407  26.127  1.00  0.00     0.002 C 
BRANCH  24  25
ATOM     25  C   UNL A   1      31.520  31.820  26.675  1.00  0.00     0.021 C 
BRANCH  25  26
ATOM     26  C   UNL A   1      32.781  32.473  27.236  1.00  0.00     0.116 C 
BRANCH  26  27
ATOM     27  N   UNL A   1      32.563  33.868  27.580  1.00  0.00    -0.352 N 
ATOM     28  C   UNL A   1      33.125  34.612  28.586  1.00  0.00     0.251 C 
ATOM     29  H   UNL A   1      31.921  34.348  27.009  1.00  0.00     0.163 HD
ATOM     30  O   UNL A   1      32.650  35.714  28.862  1.00  0.00    -0.269 OA
BRANCH  28  31
ATOM     31  C   UNL A   1      34.276  34.084  29.349  1.00  0.00     0.039 A 
ATOM     32  C   UNL A   1      34.032  33.308  30.484  1.00  0.00     0.014 A 
ATOM     33  C   UNL A   1      35.590  34.355  28.956  1.00  0.00     0.014 A 
ATOM     34  C   UNL A   1      35.103  32.755  31.189  1.00  0.00     0.010 A 
ATOM     35  C   UNL A   1      36.656  33.744  29.618  1.00  0.00     0.010 A 
ATOM     36  C   UNL A   1      36.423  32.936  30.741  1.00  0.00    -0.014 A 
BRANCH  36  37
ATOM     37  C   UNL A   1      37.559  32.270  31.432  1.00  0.00     0.031 A 
ATOM     38  C   UNL A   1      38.285  31.124  30.780  1.00  0.00     0.074 A 
ATOM     39  C   UNL A   1      37.915  32.682  32.666  1.00  0.00     0.049 A 
ATOM     40  N   UNL A   1      39.276  30.405  31.241  1.00  0.00    -0.248 NA
ATOM     41  C   UNL A   1      37.821  30.717  29.445  1.00  0.00     0.031 C 
ATOM     42  C   UNL A   1      37.259  33.757  33.418  1.00  0.00     0.029 A 
ATOM     43  N   UNL A   1      38.908  32.252  33.510  1.00  0.00    -0.354 N 
ATOM     44  C   UNL A   1      39.559  29.466  30.254  1.00  0.00     0.074 A 
ATOM     45  C   UNL A   1      38.589  29.666  29.198  1.00  0.00     0.031 C 
ATOM     46  C   UNL A   1      37.889  33.921  34.592  1.00  0.00     0.029 A 
ATOM     47  C   UNL A   1      38.958  32.935  34.704  1.00  0.00     0.049 A 
ATOM     48  H   UNL A   1      39.530  31.522  33.281  1.00  0.00     0.167 HD
ATOM     49  C   UNL A   1      40.551  28.541  30.220  1.00  0.00     0.034 A 
ATOM     50  C   UNL A   1      39.765  32.778  35.772  1.00  0.00     0.034 A 
ATOM     51  C   UNL A   1      41.513  28.356  31.280  1.00  0.00     0.049 A 
ATOM     52  C   UNL A   1      40.836  31.716  35.722  1.00  0.00     0.074 A 
ATOM     53  C   UNL A   1      42.580  27.474  31.329  1.00  0.00     0.029 A 
ATOM     54  N   UNL A   1      41.525  29.058  32.478  1.00  0.00    -0.354 N 
ATOM     55  N   UNL A   1      41.119  30.873  34.755  1.00  0.00    -0.248 NA
ATOM     56  C   UNL A   1      41.705  31.595  36.899  1.00  0.00     0.031 C 
ATOM     57  C   UNL A   1      43.191  27.592  32.581  1.00  0.00     0.029 A 
ATOM     58  C   UNL A   1      42.560  28.606  33.285  1.00  0.00     0.049 A 
ATOM     59  H   UNL A   1      40.893  29.771  32.721  1.00  0.00     0.167 HD
ATOM     60  C   UNL A   1      42.220  30.144  35.200  1.00  0.00     0.074 A 
ATOM     61  C   UNL A   1      42.564  30.669  36.505  1.00  0.00     0.031 C 
ATOM     62  C   UNL A   1      42.885  29.130  34.590  1.00  0.00     0.034 A 
BRANCH  49  63
ATOM     63  C   UNL A   1      40.635  27.650  29.005  1.00  0.00     0.023 A 
ATOM     64  C   UNL A   1      41.577  27.880  27.986  1.00  0.00     0.031 A 
ATOM     65  C   UNL A   1      39.770  26.550  28.864  1.00  0.00     0.131 A 
ATOM     66  C   UNL A   1      41.595  27.059  26.848  1.00  0.00     0.055 A 
ATOM     67  C   UNL A   1      39.844  25.691  27.765  1.00  0.00     0.041 A 
ATOM     68  F   UNL A   1      38.836  26.292  29.793  1.00  0.00    -0.206 F 
ATOM     69  C   UNL A   1      40.753  25.949  26.744  1.00  0.00     0.022 A 
BRANCH  66  70
ATOM     70  S   UNL A   1      42.654  27.530  25.455  1.00  0.00     0.124 S 
ATOM     71  O   UNL A   1      41.905  28.644  24.878  1.00  0.00    -0.237 OA
ATOM     72  O   UNL A   1      43.909  27.877  26.113  1.00  0.00    -0.237 OA
ATOM     73  O   UNL A   1      42.695  26.324  24.631  1.00  0.00    -0.744 OA
ENDBRANCH  66  70
ENDBRANCH  49  63
BRANCH  50  74
ATOM     74  C   UNL A   1      39.593  33.622  36.991  1.00  0.00     0.023 A 
ATOM     75  C   UNL A   1      40.410  34.741  37.221  1.00  0.00     0.031 A 
ATOM     76  C   UNL A   1      38.659  33.277  37.986  1.00  0.00     0.131 A 
ATOM     77  C   UNL A   1      40.328  35.430  38.440  1.00  0.00     0.055 A 
ATOM     78  C   UNL A   1      38.534  34.008  39.168  1.00  0.00     0.041 A 
ATOM     79  F   UNL A   1      37.850  32.218  37.821  1.00  0.00    -0.206 F 
ATOM     80  C   UNL A   1      39.387  35.081  39.410  1.00  0.00     0.022 A 
BRANCH  77  81
ATOM     81  S   UNL A   1      41.562  36.712  38.795  1.00  0.00     0.124 S 
ATOM     82  O   UNL A   1      40.768  37.693  39.527  1.00  0.00    -0.237 OA
ATOM     83  O   UNL A   1      42.549  35.974  39.575  1.00  0.00    -0.237 OA
ATOM     84  O   UNL A   1      42.006  37.134  37.468  1.00  0.00    -0.744 OA
ENDBRANCH  77  81
ENDBRANCH  50  74
BRANCH  62  85
ATOM     85  C   UNL A   1      44.077  28.557  35.321  1.00  0.00     0.023 A 
ATOM     86  C   UNL A   1      43.931  27.551  36.294  1.00  0.00     0.031 A 
ATOM     87  C   UNL A   1      45.369  29.048  35.068  1.00  0.00     0.131 A 
ATOM     88  C   UNL A   1      45.047  27.122  37.028  1.00  0.00     0.055 A 
ATOM     89  C   UNL A   1      46.486  28.567  35.752  1.00  0.00     0.041 A 
ATOM     90  F   UNL A   1      45.569  30.011  34.154  1.00  0.00    -0.206 F 
ATOM     91  C   UNL A   1      46.326  27.611  36.751  1.00  0.00     0.022 A 
BRANCH  88  92
ATOM     92  S   UNL A   1      44.784  26.006  38.434  1.00  0.00     0.124 S 
ATOM     93  O   UNL A   1      45.842  26.420  39.351  1.00  0.00    -0.237 OA
ATOM     94  O   UNL A   1      43.422  26.334  38.842  1.00  0.00    -0.237 OA
ATOM     95  O   UNL A   1      44.954  24.677  37.852  1.00  0.00    -0.744 OA
ENDBRANCH  88  92
ENDBRANCH  62  85
ENDBRANCH  36  37
ENDBRANCH  28  31
ENDBRANCH  26  27
ENDBRANCH  25  26
ENDBRANCH  24  25
ENDBRANCH   1  24
TORSDOF 19
ENDMDL
MODEL 2
REMARK VINA RESULT:     -12.0      2.754      8.962
REMARK SMILES C[C@@H](C(=O)NCCCCCCNC(=O)c1ccc(-c2c3nc(c(-c4cc(S(=O)(=O)[O-])ccc4F)c4ccc([nH]4)c(-c4cc(S(=O)(=O)[O-])ccc4F)c4nc(c(-c5cc(S(=O)(=O)[O-])ccc5F)c5ccc2[nH]5)C=C4)C=C3)cc1)c1ccc(C[C@H]2CCCC2=O)cc1Cl
REMARK SMILES IDX 8 1 7 2 6 3 5 4 3 5 4 6 2 8 1 9 78 10 79 11 90 12 80 13
REMARK SMILES IDX 89 14 91 15 81 16 82 17 83 18 84 19 87 20 85 21 86 22 88 23
REMARK SMILES IDX 9 24 10 25 11 26 12 27 13 28 14 30 15 31 16 32 77 33 17 34
REMARK SMILES IDX 76 35 18 36 19 37 20 38 70 39 21 40 75 41 69 42 71 43 22 44
REMARK SMILES IDX 74 45 68 46 67 47 23 49 55 50 35 51 54 52 36 53 39 54 53 55
REMARK SMILES IDX 72 56 37 57 38 58 52 60 73 61 40 62 24 63 25 64 33 65 26 66
REMARK SMILES IDX 32 67 34 68 31 69 27 70 28 71 29 72 30 73 56 74 57 75 65 76
REMARK SMILES IDX 58 77 64 78 66 79 63 80 59 81 60 82 61 83 62 84 41 85 42 86
REMARK SMILES IDX 50 87 43 88 49 89 51 90 48 91 44 92 45 93 46 94 47 95
REMARK H PARENT 5 7 12 29 71 48 39 59
REMARK Flexibility Score: inf
ROOT
ATOM      1  C   UNL A   1      33.365  27.125  26.112  1.00  0.00     0.002 C 
ENDROOT
BRANCH   1   2
ATOM      2  C   UNL A   1      34.078  25.766  26.114  1.00  0.00     0.021 C 
BRANCH   2   3
ATOM      3  C   UNL A   1      33.681  24.837  24.960  1.00  0.00     0.116 C 
BRANCH   3   4
ATOM      4  N   UNL A   1      33.015  23.657  25.475  1.00  0.00    -0.356 N 
ATOM      5  C   UNL A   1      31.734  23.247  25.247  1.00  0.00     0.227 C 
ATOM      6  O   UNL A   1      31.190  22.631  26.165  1.00  0.00    -0.274 OA
ATOM      7  H   UNL A   1      33.554  23.079  26.062  1.00  0.00     0.163 HD
BRANCH   5   8
ATOM      8  C   UNL A   1      31.048  23.599  23.908  1.00  0.00     0.107 C 
ATOM      9  C   UNL A   1      31.808  22.831  22.815  1.00  0.00     0.023 C 
BRANCH   8  10
ATOM     10  C   UNL A   1      30.925  25.101  23.582  1.00  0.00    -0.017 A 
ATOM     11  C   UNL A   1      31.532  25.651  22.438  1.00  0.00     0.006 A 
ATOM     12  C   UNL A   1      30.212  26.003  24.399  1.00  0.00     0.045 A 
ATOM     13  C   UNL A   1      31.335  26.979  22.052  1.00  0.00     0.004 A 
ATOM     14  C   UNL A   1      30.019  27.341  24.015  1.00  0.00     0.024 A 
ATOM     15  Cl  UNL A   1      29.586  25.579  25.956  1.00  0.00    -0.084 Cl
ATOM     16  C   UNL A   1      30.568  27.838  22.832  1.00  0.00    -0.046 A 
BRANCH  16  17
ATOM     17  C   UNL A   1      30.379  29.278  22.427  1.00  0.00     0.047 C 
BRANCH  17  18
ATOM     18  C   UNL A   1      29.029  29.907  22.790  1.00  0.00     0.060 C 
ATOM     19  C   UNL A   1      29.053  30.989  23.872  1.00  0.00     0.012 C 
ATOM     20  C   UNL A   1      28.399  30.637  21.627  1.00  0.00     0.136 C 
ATOM     21  C   UNL A   1      29.081  32.328  23.142  1.00  0.00     0.009 C 
ATOM     22  C   UNL A   1      28.276  32.119  21.867  1.00  0.00     0.076 C 
ATOM     23  O   UNL A   1      28.015  30.083  20.603  1.00  0.00    -0.299 OA
ENDBRANCH  17  18
ENDBRANCH  16  17
ENDBRANCH   8  10
ENDBRANCH   5   8
ENDBRANCH   3   4
ENDBRANCH   2   3
ENDBRANCH   1   2
BRANCH   1  24
ATOM     24  C   UNL A   1      33.685  28.018  24.912  1.00  0.00     0.002 C 
BRANCH  24  25
ATOM     25  C   UNL A   1      33.031  29.400  24.953  1.00  0.00     0.021 C 
BRANCH  25  26
ATOM     26  C   UNL A   1      32.383  29.760  26.287  1.00  0.00     0.116 C 
BRANCH  26  27
ATOM     27  N   UNL A   1      32.291  31.198  26.476  1.00  0.00    -0.352 N 
ATOM     28  C   UNL A   1      33.071  32.023  27.245  1.00  0.00     0.251 C 
ATOM     29  H   UNL A   1      31.567  31.643  25.981  1.00  0.00     0.163 HD
ATOM     30  O   UNL A   1      32.703  33.180  27.456  1.00  0.00    -0.269 OA
BRANCH  28  31
ATOM     31  C   UNL A   1      34.331  31.522  27.835  1.00  0.00     0.039 A 
ATOM     32  C   UNL A   1      35.371  32.424  28.068  1.00  0.00     0.014 A 
ATOM     33  C   UNL A   1      34.493  30.169  28.152  1.00  0.00     0.014 A 
ATOM     34  C   UNL A   1      36.549  31.981  28.673  1.00  0.00     0.010 A 
ATOM     35  C   UNL A   1      35.641  29.743  28.821  1.00  0.00     0.010 A 
ATOM     36  C   UNL A   1      36.680  30.646  29.090  1.00  0.00    -0.014 A 
BRANCH  36  37
ATOM     37  C   UNL A   1      37.894  30.193  29.821  1.00  0.00     0.031 A 
ATOM     38  C   UNL A   1      38.168  30.676  31.221  1.00  0.00     0.074 A 
ATOM     39  C   UNL A   1      38.767  29.369  29.207  1.00  0.00     0.049 A 
ATOM     40  N   UNL A   1      39.184  30.413  32.001  1.00  0.00    -0.248 NA
ATOM     41  C   UNL A   1      37.181  31.593  31.812  1.00  0.00     0.031 C 
ATOM     42  C   UNL A   1      38.630  28.866  27.837  1.00  0.00     0.029 A 
ATOM     43  N   UNL A   1      39.941  28.808  29.646  1.00  0.00    -0.354 N 
ATOM     44  C   UNL A   1      38.960  31.125  33.175  1.00  0.00     0.074 A 
ATOM     45  C   UNL A   1      37.743  31.883  32.976  1.00  0.00     0.031 C 
ATOM     46  C   UNL A   1      39.659  28.048  27.562  1.00  0.00     0.029 A 
ATOM     47  C   UNL A   1      40.556  28.006  28.711  1.00  0.00     0.049 A 
ATOM     48  H   UNL A   1      40.307  28.965  30.546  1.00  0.00     0.167 HD
ATOM     49  C   UNL A   1      39.687  31.125  34.320  1.00  0.00     0.034 A 
ATOM     50  C   UNL A   1      41.716  27.322  28.770  1.00  0.00     0.034 A 
ATOM     51  C   UNL A   1      40.897  30.361  34.505  1.00  0.00     0.049 A 
ATOM     52  C   UNL A   1      42.524  27.371  30.044  1.00  0.00     0.074 A 
ATOM     53  C   UNL A   1      41.688  30.261  35.637  1.00  0.00     0.029 A 
ATOM     54  N   UNL A   1      41.496  29.569  33.533  1.00  0.00    -0.354 N 
ATOM     55  N   UNL A   1      42.265  28.010  31.162  1.00  0.00    -0.248 NA
ATOM     56  C   UNL A   1      43.769  26.595  30.069  1.00  0.00     0.031 C 
ATOM     57  C   UNL A   1      42.799  29.470  35.330  1.00  0.00     0.029 A 
ATOM     58  C   UNL A   1      42.662  29.005  34.031  1.00  0.00     0.049 A 
ATOM     59  H   UNL A   1      41.146  29.428  32.625  1.00  0.00     0.167 HD
ATOM     60  C   UNL A   1      43.303  27.685  32.031  1.00  0.00     0.074 A 
ATOM     61  C   UNL A   1      44.171  26.771  31.317  1.00  0.00     0.031 C 
ATOM     62  C   UNL A   1      43.525  28.105  33.303  1.00  0.00     0.034 A 
BRANCH  49  63
ATOM     63  C   UNL A   1      39.199  31.990  35.457  1.00  0.00     0.023 A 
ATOM     64  C   UNL A   1      39.641  33.316  35.617  1.00  0.00     0.031 A 
ATOM     65  C   UNL A   1      38.273  31.490  36.390  1.00  0.00     0.131 A 
ATOM     66  C   UNL A   1      39.202  34.075  36.712  1.00  0.00     0.055 A 
ATOM     67  C   UNL A   1      37.781  32.276  37.434  1.00  0.00     0.041 A 
ATOM     68  F   UNL A   1      37.831  30.225  36.302  1.00  0.00    -0.206 F 
ATOM     69  C   UNL A   1      38.254  33.573  37.606  1.00  0.00     0.022 A 
BRANCH  66  70
ATOM     70  S   UNL A   1      39.976  35.686  37.017  1.00  0.00     0.124 S 
ATOM     71  O   UNL A   1      39.286  36.120  38.229  1.00  0.00    -0.237 OA
ATOM     72  O   UNL A   1      41.383  35.337  37.173  1.00  0.00    -0.237 OA
ATOM     73  O   UNL A   1      39.653  36.455  35.816  1.00  0.00    -0.744 OA
ENDBRANCH  66  70
ENDBRANCH  49  63
BRANCH  50  74
ATOM     74  C   UNL A   1      42.207  26.548  27.591  1.00  0.00     0.023 A 
ATOM     75  C   UNL A   1      41.854  25.201  27.409  1.00  0.00     0.031 A 
ATOM     76  C   UNL A   1      43.104  27.121  26.670  1.00  0.00     0.131 A 
ATOM     77  C   UNL A   1      42.444  24.454  26.379  1.00  0.00     0.055 A 
ATOM     78  C   UNL A   1      43.635  26.392  25.605  1.00  0.00     0.041 A 
ATOM     79  F   UNL A   1      43.477  28.404  26.793  1.00  0.00    -0.206 F 
ATOM     80  C   UNL A   1      43.321  25.043  25.466  1.00  0.00     0.022 A 
BRANCH  77  81
ATOM     81  S   UNL A   1      42.148  22.665  26.326  1.00  0.00     0.124 S 
ATOM     82  O   UNL A   1      42.919  22.203  27.475  1.00  0.00    -0.237 OA
ATOM     83  O   UNL A   1      40.697  22.595  26.456  1.00  0.00    -0.237 OA
ATOM     84  O   UNL A   1      42.677  22.272  25.021  1.00  0.00    -0.744 OA
ENDBRANCH  77  81
ENDBRANCH  50  74
BRANCH  62  85
ATOM     85  C   UNL A   1      44.737  27.540  34.008  1.00  0.00     0.023 A 
ATOM     86  C   UNL A   1      44.667  26.351  34.757  1.00  0.00     0.031 A 
ATOM     87  C   UNL A   1      45.967  28.218  33.960  1.00  0.00     0.131 A 
ATOM     88  C   UNL A   1      45.784  25.918  35.487  1.00  0.00     0.055 A 
ATOM     89  C   UNL A   1      47.095  27.743  34.630  1.00  0.00     0.041 A 
ATOM     90  F   UNL A   1      46.093  29.359  33.264  1.00  0.00    -0.206 F 
ATOM     91  C   UNL A   1      47.002  26.597  35.414  1.00  0.00     0.022 A 
BRANCH  88  92
ATOM     92  S   UNL A   1      45.587  24.523  36.629  1.00  0.00     0.124 S 
ATOM     93  O   UNL A   1      44.620  23.687  35.923  1.00  0.00    -0.237 OA
ATOM     94  O   UNL A   1      46.945  23.994  36.712  1.00  0.00    -0.237 OA
ATOM     95  O   UNL A   1      45.090  25.148  37.852  1.00  0.00    -0.744 OA
ENDBRANCH  88  92
ENDBRANCH  62  85
ENDBRANCH  36  37
ENDBRANCH  28  31
ENDBRANCH  26  27
ENDBRANCH  25  26
ENDBRANCH  24  25
ENDBRANCH   1  24
TORSDOF 19
ENDMDL
MODEL 3
REMARK VINA RESULT:     -11.6      2.607      4.739
REMARK SMILES C[C@@H](C(=O)NCCCCCCNC(=O)c1ccc(-c2c3nc(c(-c4cc(S(=O)(=O)[O-])ccc4F)c4ccc([nH]4)c(-c4cc(S(=O)(=O)[O-])ccc4F)c4nc(c(-c5cc(S(=O)(=O)[O-])ccc5F)c5ccc2[nH]5)C=C4)C=C3)cc1)c1ccc(C[C@H]2CCCC2=O)cc1Cl
REMARK SMILES IDX 8 1 7 2 6 3 5 4 3 5 4 6 2 8 1 9 78 10 79 11 90 12 80 13
REMARK SMILES IDX 89 14 91 15 81 16 82 17 83 18 84 19 87 20 85 21 86 22 88 23
REMARK SMILES IDX 9 24 10 25 11 26 12 27 13 28 14 30 15 31 16 32 77 33 17 34
REMARK SMILES IDX 76 35 18 36 19 37 20 38 70 39 21 40 75 41 69 42 71 43 22 44
REMARK SMILES IDX 74 45 68 46 67 47 23 49 55 50 35 51 54 52 36 53 39 54 53 55
REMARK SMILES IDX 72 56 37 57 38 58 52 60 73 61 40 62 24 63 25 64 33 65 26 66
REMARK SMILES IDX 32 67 34 68 31 69 27 70 28 71 29 72 30 73 56 74 57 75 65 76
REMARK SMILES IDX 58 77 64 78 66 79 63 80 59 81 60 82 61 83 62 84 41 85 42 86
REMARK SMILES IDX 50 87 43 88 49 89 51 90 48 91 44 92 45 93 46 94 47 95
REMARK H PARENT 5 7 12 29 71 48 39 59
REMARK Flexibility Score: inf
ROOT
ATOM      1  C   UNL A   1      34.306  25.270  25.373  1.00  0.00     0.002 C 
ENDROOT
BRANCH   1   2
ATOM      2  C   UNL A   1      35.266  24.269  24.715  1.00  0.00     0.021 C 
BRANCH   2   3
ATOM      3  C   UNL A   1      34.589  23.255  23.785  1.00  0.00     0.116 C 
BRANCH   3   4
ATOM      4  N   UNL A   1      34.525  21.956  24.425  1.00  0.00    -0.356 N 
ATOM      5  C   UNL A   1      33.425  21.313  24.914  1.00  0.00     0.227 C 
ATOM      6  O   UNL A   1      33.614  20.580  25.887  1.00  0.00    -0.274 OA
ATOM      7  H   UNL A   1      35.380  21.478  24.518  1.00  0.00     0.163 HD
BRANCH   5   8
ATOM      8  C   UNL A   1      32.045  21.560  24.265  1.00  0.00     0.107 C 
ATOM      9  C   UNL A   1      32.153  21.068  22.813  1.00  0.00     0.023 C 
BRANCH   8  10
ATOM     10  C   UNL A   1      31.504  23.002  24.349  1.00  0.00    -0.017 A 
ATOM     11  C   UNL A   1      31.290  23.769  23.189  1.00  0.00     0.006 A 
ATOM     12  C   UNL A   1      31.199  23.632  25.574  1.00  0.00     0.045 A 
ATOM     13  C   UNL A   1      30.686  25.028  23.227  1.00  0.00     0.004 A 
ATOM     14  C   UNL A   1      30.597  24.901  25.613  1.00  0.00     0.024 A 
ATOM     15  Cl  UNL A   1      31.598  22.951  27.114  1.00  0.00    -0.084 Cl
ATOM     16  C   UNL A   1      30.325  25.606  24.439  1.00  0.00    -0.046 A 
BRANCH  16  17
ATOM     17  C   UNL A   1      29.696  26.976  24.479  1.00  0.00     0.047 C 
BRANCH  17  18
ATOM     18  C   UNL A   1      29.282  27.565  23.126  1.00  0.00     0.060 C 
ATOM     19  C   UNL A   1      27.917  28.255  23.075  1.00  0.00     0.012 C 
ATOM     20  C   UNL A   1      30.210  28.666  22.665  1.00  0.00     0.136 C 
ATOM     21  C   UNL A   1      28.182  29.748  23.246  1.00  0.00     0.009 C 
ATOM     22  C   UNL A   1      29.527  30.006  22.582  1.00  0.00     0.076 C 
ATOM     23  O   UNL A   1      31.387  28.486  22.375  1.00  0.00    -0.299 OA
ENDBRANCH  17  18
ENDBRANCH  16  17
ENDBRANCH   8  10
ENDBRANCH   5   8
ENDBRANCH   3   4
ENDBRANCH   2   3
ENDBRANCH   1   2
BRANCH   1  24
ATOM     24  C   UNL A   1      33.891  26.443  24.483  1.00  0.00     0.002 C 
BRANCH  24  25
ATOM     25  C   UNL A   1      33.270  27.623  25.232  1.00  0.00     0.021 C 
BRANCH  25  26
ATOM     26  C   UNL A   1      33.857  28.986  24.873  1.00  0.00     0.116 C 
BRANCH  26  27
ATOM     27  N   UNL A   1      33.030  30.079  25.359  1.00  0.00    -0.352 N 
ATOM     28  C   UNL A   1      33.099  30.756  26.549  1.00  0.00     0.251 C 
ATOM     29  H   UNL A   1      32.321  30.375  24.744  1.00  0.00     0.163 HD
ATOM     30  O   UNL A   1      32.173  31.499  26.876  1.00  0.00    -0.269 OA
BRANCH  28  31
ATOM     31  C   UNL A   1      34.262  30.575  27.443  1.00  0.00     0.039 A 
ATOM     32  C   UNL A   1      34.413  29.361  28.116  1.00  0.00     0.014 A 
ATOM     33  C   UNL A   1      35.199  31.597  27.626  1.00  0.00     0.014 A 
ATOM     34  C   UNL A   1      35.531  29.151  28.924  1.00  0.00     0.010 A 
ATOM     35  C   UNL A   1      36.352  31.360  28.375  1.00  0.00     0.010 A 
ATOM     36  C   UNL A   1      36.531  30.133  29.031  1.00  0.00    -0.014 A 
BRANCH  36  37
ATOM     37  C   UNL A   1      37.770  29.875  29.812  1.00  0.00     0.031 A 
ATOM     38  C   UNL A   1      38.817  28.926  29.294  1.00  0.00     0.074 A 
ATOM     39  C   UNL A   1      37.935  30.477  31.007  1.00  0.00     0.049 A 
ATOM     40  N   UNL A   1      39.944  28.556  29.847  1.00  0.00    -0.248 NA
ATOM     41  C   UNL A   1      38.552  28.290  27.994  1.00  0.00     0.031 C 
ATOM     42  C   UNL A   1      36.971  31.387  31.633  1.00  0.00     0.029 A 
ATOM     43  N   UNL A   1      38.965  30.418  31.913  1.00  0.00    -0.354 N 
ATOM     44  C   UNL A   1      40.525  27.651  28.965  1.00  0.00     0.074 A 
ATOM     45  C   UNL A   1      39.592  27.478  27.871  1.00  0.00     0.031 C 
ATOM     46  C   UNL A   1      37.469  31.824  32.800  1.00  0.00     0.029 A 
ATOM     47  C   UNL A   1      38.762  31.191  33.035  1.00  0.00     0.049 A 
ATOM     48  H   UNL A   1      39.774  29.875  31.772  1.00  0.00     0.167 HD
ATOM     49  C   UNL A   1      41.734  27.042  29.047  1.00  0.00     0.034 A 
ATOM     50  C   UNL A   1      39.526  31.361  34.132  1.00  0.00     0.034 A 
ATOM     51  C   UNL A   1      42.655  27.227  30.142  1.00  0.00     0.049 A 
ATOM     52  C   UNL A   1      40.850  30.641  34.213  1.00  0.00     0.074 A 
ATOM     53  C   UNL A   1      43.920  26.688  30.304  1.00  0.00     0.029 A 
ATOM     54  N   UNL A   1      42.412  28.008  31.266  1.00  0.00    -0.354 N 
ATOM     55  N   UNL A   1      41.404  29.829  33.341  1.00  0.00    -0.248 NA
ATOM     56  C   UNL A   1      41.657  30.873  35.417  1.00  0.00     0.031 C 
ATOM     57  C   UNL A   1      44.411  27.082  31.553  1.00  0.00     0.029 A 
ATOM     58  C   UNL A   1      43.489  27.937  32.138  1.00  0.00     0.049 A 
ATOM     59  H   UNL A   1      41.595  28.533  31.421  1.00  0.00     0.167 HD
ATOM     60  C   UNL A   1      42.639  29.480  33.883  1.00  0.00     0.074 A 
ATOM     61  C   UNL A   1      42.758  30.193  35.138  1.00  0.00     0.031 C 
ATOM     62  C   UNL A   1      43.589  28.643  33.393  1.00  0.00     0.034 A 
BRANCH  49  63
ATOM     63  C   UNL A   1      42.123  26.107  27.927  1.00  0.00     0.023 A 
ATOM     64  C   UNL A   1      41.737  24.755  27.929  1.00  0.00     0.031 A 
ATOM     65  C   UNL A   1      42.881  26.573  26.838  1.00  0.00     0.131 A 
ATOM     66  C   UNL A   1      42.156  23.904  26.894  1.00  0.00     0.055 A 
ATOM     67  C   UNL A   1      43.230  25.739  25.773  1.00  0.00     0.041 A 
ATOM     68  F   UNL A   1      43.297  27.849  26.791  1.00  0.00    -0.206 F 
ATOM     69  C   UNL A   1      42.877  24.394  25.802  1.00  0.00     0.022 A 
BRANCH  66  70
ATOM     70  S   UNL A   1      41.845  22.125  27.054  1.00  0.00     0.124 S 
ATOM     71  O   UNL A   1      42.319  21.626  25.766  1.00  0.00    -0.237 OA
ATOM     72  O   UNL A   1      42.651  21.765  28.215  1.00  0.00    -0.237 OA
ATOM     73  O   UNL A   1      40.399  22.046  27.250  1.00  0.00    -0.744 OA
ENDBRANCH  66  70
ENDBRANCH  49  63
BRANCH  50  74
ATOM     74  C   UNL A   1      39.065  32.227  35.258  1.00  0.00     0.023 A 
ATOM     75  C   UNL A   1      39.506  33.554  35.380  1.00  0.00     0.031 A 
ATOM     76  C   UNL A   1      38.237  31.715  36.275  1.00  0.00     0.131 A 
ATOM     77  C   UNL A   1      39.178  34.300  36.522  1.00  0.00     0.055 A 
ATOM     78  C   UNL A   1      37.857  32.484  37.375  1.00  0.00     0.041 A 
ATOM     79  F   UNL A   1      37.784  30.453  36.211  1.00  0.00    -0.206 F 
ATOM     80  C   UNL A   1      38.345  33.780  37.514  1.00  0.00     0.022 A 
BRANCH  77  81
ATOM     81  S   UNL A   1      39.964  35.919  36.755  1.00  0.00     0.124 S 
ATOM     82  O   UNL A   1      39.279  36.412  37.945  1.00  0.00    -0.237 OA
ATOM     83  O   UNL A   1      41.365  35.552  36.927  1.00  0.00    -0.237 OA
ATOM     84  O   UNL A   1      39.654  36.629  35.516  1.00  0.00    -0.744 OA
ENDBRANCH  77  81
ENDBRANCH  50  74
BRANCH  62  85
ATOM     85  C   UNL A   1      44.854  28.494  34.205  1.00  0.00     0.023 A 
ATOM     86  C   UNL A   1      44.985  27.496  35.189  1.00  0.00     0.031 A 
ATOM     87  C   UNL A   1      45.928  29.382  34.019  1.00  0.00     0.131 A 
ATOM     88  C   UNL A   1      46.131  27.458  35.998  1.00  0.00     0.055 A 
ATOM     89  C   UNL A   1      47.095  29.294  34.778  1.00  0.00     0.041 A 
ATOM     90  F   UNL A   1      45.858  30.355  33.098  1.00  0.00    -0.206 F 
ATOM     91  C   UNL A   1      47.194  28.339  35.786  1.00  0.00     0.022 A 
BRANCH  88  92
ATOM     92  S   UNL A   1      46.160  26.319  37.408  1.00  0.00     0.124 S 
ATOM     93  O   UNL A   1      47.592  26.175  37.652  1.00  0.00    -0.237 OA
ATOM     94  O   UNL A   1      45.413  27.058  38.421  1.00  0.00    -0.237 OA
ATOM     95  O   UNL A   1      45.494  25.123  36.897  1.00  0.00    -0.744 OA
ENDBRANCH  88  92
ENDBRANCH  62  85
ENDBRANCH  36  37
ENDBRANCH  28  31
ENDBRANCH  26  27
ENDBRANCH  25  26
ENDBRANCH  24  25
ENDBRANCH   1  24
TORSDOF 19
ENDMDL
