MODEL 1
REMARK VINA RESULT:     -11.8      0.000      0.000
REMARK SMILES CCOC(=O)c1c(NC(=O)[C@H]2[C@@H]3CC[C@@H](C3)[C@@H]2C(=O)NCCCCCCNC(=O)c2ccc(-c3c4nc(c(-c5cc(S(=O)(=O)[O-])ccc5F)c5ccc([nH]5)c(-c5cc(S(=O)(=O)[O-])ccc5F)c5nc(c(-c6cc(S(=O)(=O)[O-])ccc6F)c6ccc3[nH]6)C=C5)C=C4)cc2)sc2c1CCCC2
REMARK SMILES IDX 22 1 21 2 20 3 18 4 19 5 17 7 11 8 12 9 13 10 16 11 15 12
REMARK SMILES IDX 14 13 9 14 8 15 10 17 7 18 6 19 95 20 93 21 94 22 96 23
REMARK SMILES IDX 99 24 97 25 98 26 4 27 5 28 3 29 2 30 1 31 23 32 24 33 25 34
REMARK SMILES IDX 26 35 27 36 28 37 29 39 30 40 31 41 92 42 32 43 91 44 33 45
REMARK SMILES IDX 34 46 35 47 85 48 36 49 90 50 84 51 86 52 37 53 89 54 83 55
REMARK SMILES IDX 82 56 38 58 70 59 50 60 69 61 51 62 54 63 68 64 87 65 52 66
REMARK SMILES IDX 53 67 67 69 88 70 55 71 39 72 40 73 48 74 41 75 47 76 49 77
REMARK SMILES IDX 46 78 42 79 43 80 44 81 45 82 71 83 72 84 80 85 73 86 79 87
REMARK SMILES IDX 81 88 78 89 74 90 75 91 76 92 77 93 56 94 57 95 65 96 58 97
REMARK SMILES IDX 64 98 66 99 63 100 59 101 60 102 61 103 62 104
REMARK H PARENT 20 6 8 16 27 38 86 57 54 68
REMARK Flexibility Score: inf
ROOT
ATOM      1  C   UNL A   1      33.664  29.879  26.915  1.00  0.00     0.021 C 
ENDROOT
BRANCH   1   2
ATOM      2  C   UNL A   1      33.172  28.457  27.175  1.00  0.00     0.116 C 
BRANCH   2   3
ATOM      3  N   UNL A   1      33.905  27.489  26.392  1.00  0.00    -0.356 N 
ATOM      4  C   UNL A   1      33.446  26.393  25.725  1.00  0.00     0.224 C 
ATOM      5  O   UNL A   1      34.226  25.833  24.955  1.00  0.00    -0.275 OA
ATOM      6  H   UNL A   1      34.875  27.643  26.331  1.00  0.00     0.163 HD
BRANCH   4   7
ATOM      7  C   UNL A   1      31.994  25.960  25.906  1.00  0.00     0.094 C 
ATOM      8  C   UNL A   1      31.677  24.513  25.420  1.00  0.00     0.094 C 
ATOM      9  C   UNL A   1      30.410  24.725  24.556  1.00  0.00     0.002 C 
ATOM     10  C   UNL A   1      30.821  25.336  23.217  1.00  0.00     0.005 C 
ATOM     11  C   UNL A   1      29.730  25.931  25.219  1.00  0.00     0.009 C 
ATOM     12  C   UNL A   1      30.975  26.812  25.105  1.00  0.00     0.002 C 
ATOM     13  C   UNL A   1      31.222  26.762  23.585  1.00  0.00     0.005 C 
BRANCH   8  14
ATOM     14  C   UNL A   1      31.315  23.557  26.534  1.00  0.00     0.229 C 
ATOM     15  N   UNL A   1      32.007  22.427  26.809  1.00  0.00    -0.317 N 
ATOM     16  H   UNL A   1      31.601  21.933  27.557  1.00  0.00     0.170 HD
ATOM     17  O   UNL A   1      30.327  23.770  27.247  1.00  0.00    -0.274 OA
BRANCH  15  18
ATOM     18  C   UNL A   1      33.122  21.784  26.329  1.00  0.00     0.110 A 
ATOM     19  C   UNL A   1      33.519  20.650  25.640  1.00  0.00     0.098 A 
ATOM     20  C   UNL A   1      34.961  20.650  25.431  1.00  0.00    -0.017 A 
ATOM     21  S   UNL A   1      34.475  22.772  26.749  1.00  0.00    -0.122 S 
ATOM     22  C   UNL A   1      35.571  21.767  25.954  1.00  0.00     0.011 A 
ATOM     23  C   UNL A   1      35.747  19.615  24.670  1.00  0.00     0.038 C 
ATOM     24  C   UNL A   1      37.034  22.082  25.877  1.00  0.00     0.047 C 
ATOM     25  C   UNL A   1      37.254  19.735  24.928  1.00  0.00     0.005 C 
ATOM     26  C   UNL A   1      37.725  21.192  24.831  1.00  0.00     0.006 C 
BRANCH  19  27
ATOM     27  C   UNL A   1      32.723  19.568  25.091  1.00  0.00     0.341 C 
ATOM     28  O   UNL A   1      32.377  19.536  23.915  1.00  0.00    -0.246 OA
BRANCH  27  29
ATOM     29  O   UNL A   1      32.627  18.518  25.960  1.00  0.00    -0.462 OA
BRANCH  29  30
ATOM     30  C   UNL A   1      32.435  17.227  25.356  1.00  0.00     0.230 C 
ATOM     31  C   UNL A   1      33.779  16.565  25.107  1.00  0.00     0.049 C 
ENDBRANCH  29  30
ENDBRANCH  27  29
ENDBRANCH  19  27
ENDBRANCH  15  18
ENDBRANCH   8  14
ENDBRANCH   4   7
ENDBRANCH   2   3
ENDBRANCH   1   2
BRANCH   1  32
ATOM     32  C   UNL A   1      34.852  30.297  27.789  1.00  0.00     0.002 C 
BRANCH  32  33
ATOM     33  C   UNL A   1      35.083  31.810  27.896  1.00  0.00     0.002 C 
BRANCH  33  34
ATOM     34  C   UNL A   1      33.810  32.662  27.927  1.00  0.00     0.021 C 
BRANCH  34  35
ATOM     35  C   UNL A   1      34.056  34.163  27.836  1.00  0.00     0.116 C 
BRANCH  35  36
ATOM     36  N   UNL A   1      33.398  34.876  28.917  1.00  0.00    -0.352 N 
ATOM     37  C   UNL A   1      33.582  34.750  30.271  1.00  0.00     0.251 C 
ATOM     38  H   UNL A   1      32.727  35.542  28.640  1.00  0.00     0.163 HD
ATOM     39  O   UNL A   1      32.770  35.243  31.046  1.00  0.00    -0.269 OA
BRANCH  37  40
ATOM     40  C   UNL A   1      34.755  34.009  30.785  1.00  0.00     0.039 A 
ATOM     41  C   UNL A   1      34.549  32.852  31.541  1.00  0.00     0.014 A 
ATOM     42  C   UNL A   1      36.052  34.465  30.534  1.00  0.00     0.014 A 
ATOM     43  C   UNL A   1      35.648  32.126  32.006  1.00  0.00     0.010 A 
ATOM     44  C   UNL A   1      37.146  33.705  30.941  1.00  0.00     0.010 A 
ATOM     45  C   UNL A   1      36.955  32.533  31.688  1.00  0.00    -0.014 A 
BRANCH  45  46
ATOM     46  C   UNL A   1      38.135  31.757  32.148  1.00  0.00     0.031 A 
ATOM     47  C   UNL A   1      38.791  32.096  33.459  1.00  0.00     0.074 A 
ATOM     48  C   UNL A   1      38.650  30.795  31.358  1.00  0.00     0.049 A 
ATOM     49  N   UNL A   1      39.872  31.595  33.999  1.00  0.00    -0.248 NA
ATOM     50  C   UNL A   1      38.162  33.162  34.252  1.00  0.00     0.031 C 
ATOM     51  C   UNL A   1      38.122  30.405  30.049  1.00  0.00     0.029 A 
ATOM     52  N   UNL A   1      39.736  29.975  31.534  1.00  0.00    -0.354 N 
ATOM     53  C   UNL A   1      40.062  32.294  35.186  1.00  0.00     0.074 A 
ATOM     54  C   UNL A   1      39.016  33.293  35.255  1.00  0.00     0.031 C 
ATOM     55  C   UNL A   1      38.873  29.410  29.550  1.00  0.00     0.029 A 
ATOM     56  C   UNL A   1      39.959  29.119  30.481  1.00  0.00     0.049 A 
ATOM     57  H   UNL A   1      40.303  29.998  32.339  1.00  0.00     0.167 HD
ATOM     58  C   UNL A   1      41.006  32.104  36.141  1.00  0.00     0.034 A 
ATOM     59  C   UNL A   1      40.935  28.210  30.284  1.00  0.00     0.034 A 
ATOM     60  C   UNL A   1      42.032  31.092  36.062  1.00  0.00     0.049 A 
ATOM     61  C   UNL A   1      41.983  28.026  31.352  1.00  0.00     0.074 A 
ATOM     62  C   UNL A   1      43.004  30.773  36.994  1.00  0.00     0.029 A 
ATOM     63  N   UNL A   1      42.223  30.236  34.983  1.00  0.00    -0.354 N 
ATOM     64  N   UNL A   1      42.121  28.662  32.493  1.00  0.00    -0.248 NA
ATOM     65  C   UNL A   1      43.000  26.995  31.110  1.00  0.00     0.031 C 
ATOM     66  C   UNL A   1      43.820  29.772  36.454  1.00  0.00     0.029 A 
ATOM     67  C   UNL A   1      43.314  29.412  35.215  1.00  0.00     0.049 A 
ATOM     68  H   UNL A   1      41.665  30.219  34.173  1.00  0.00     0.167 HD
ATOM     69  C   UNL A   1      43.222  28.085  33.118  1.00  0.00     0.074 A 
ATOM     70  C   UNL A   1      43.702  27.043  32.233  1.00  0.00     0.031 C 
ATOM     71  C   UNL A   1      43.785  28.385  34.316  1.00  0.00     0.034 A 
BRANCH  58  72
ATOM     72  C   UNL A   1      40.982  33.029  37.336  1.00  0.00     0.023 A 
ATOM     73  C   UNL A   1      40.185  32.760  38.463  1.00  0.00     0.031 A 
ATOM     74  C   UNL A   1      41.742  34.212  37.336  1.00  0.00     0.131 A 
ATOM     75  C   UNL A   1      40.103  33.698  39.504  1.00  0.00     0.055 A 
ATOM     76  C   UNL A   1      41.721  35.101  38.414  1.00  0.00     0.041 A 
ATOM     77  F   UNL A   1      42.506  34.535  36.282  1.00  0.00    -0.206 F 
ATOM     78  C   UNL A   1      40.885  34.854  39.499  1.00  0.00     0.022 A 
BRANCH  75  79
ATOM     79  S   UNL A   1      38.849  33.454  40.792  1.00  0.00     0.124 S 
ATOM     80  O   UNL A   1      39.657  32.939  41.895  1.00  0.00    -0.237 OA
ATOM     81  O   UNL A   1      38.310  34.797  40.966  1.00  0.00    -0.237 OA
ATOM     82  O   UNL A   1      37.932  32.484  40.197  1.00  0.00    -0.744 OA
ENDBRANCH  75  79
ENDBRANCH  58  72
BRANCH  59  83
ATOM     83  C   UNL A   1      40.978  27.409  29.028  1.00  0.00     0.023 A 
ATOM     84  C   UNL A   1      41.953  27.651  28.049  1.00  0.00     0.031 A 
ATOM     85  C   UNL A   1      40.019  26.412  28.772  1.00  0.00     0.131 A 
ATOM     86  C   UNL A   1      41.922  26.939  26.839  1.00  0.00     0.055 A 
ATOM     87  C   UNL A   1      40.023  25.671  27.590  1.00  0.00     0.041 A 
ATOM     88  F   UNL A   1      39.068  26.136  29.679  1.00  0.00    -0.206 F 
ATOM     89  C   UNL A   1      40.972  25.943  26.608  1.00  0.00     0.022 A 
BRANCH  86  90
ATOM     90  S   UNL A   1      43.099  27.393  25.536  1.00  0.00     0.124 S 
ATOM     91  O   UNL A   1      44.124  28.101  26.294  1.00  0.00    -0.237 OA
ATOM     92  O   UNL A   1      43.480  26.089  25.004  1.00  0.00    -0.237 OA
ATOM     93  O   UNL A   1      42.304  28.223  24.634  1.00  0.00    -0.744 OA
ENDBRANCH  86  90
ENDBRANCH  59  83
BRANCH  71  94
ATOM     94  C   UNL A   1      44.956  27.538  34.752  1.00  0.00     0.023 A 
ATOM     95  C   UNL A   1      44.777  26.335  35.454  1.00  0.00     0.031 A 
ATOM     96  C   UNL A   1      46.270  27.953  34.471  1.00  0.00     0.131 A 
ATOM     97  C   UNL A   1      45.895  25.613  35.900  1.00  0.00     0.055 A 
ATOM     98  C   UNL A   1      47.378  27.202  34.865  1.00  0.00     0.041 A 
ATOM     99  F   UNL A   1      46.497  29.096  33.804  1.00  0.00    -0.206 F 
ATOM    100  C   UNL A   1      47.194  26.031  35.596  1.00  0.00     0.022 A 
BRANCH  97 101
ATOM    101  S   UNL A   1      45.633  24.165  36.960  1.00  0.00     0.124 S 
ATOM    102  O   UNL A   1      44.958  23.243  36.053  1.00  0.00    -0.237 OA
ATOM    103  O   UNL A   1      46.996  23.804  37.339  1.00  0.00    -0.237 OA
ATOM    104  O   UNL A   1      44.805  24.681  38.048  1.00  0.00    -0.744 OA
ENDBRANCH  97 101
ENDBRANCH  71  94
ENDBRANCH  45  46
ENDBRANCH  37  40
ENDBRANCH  35  36
ENDBRANCH  34  35
ENDBRANCH  33  34
ENDBRANCH  32  33
ENDBRANCH   1  32
TORSDOF 21
ENDMDL
MODEL 2
REMARK VINA RESULT:     -11.7      2.115      8.258
REMARK SMILES CCOC(=O)c1c(NC(=O)[C@H]2[C@@H]3CC[C@@H](C3)[C@@H]2C(=O)NCCCCCCNC(=O)c2ccc(-c3c4nc(c(-c5cc(S(=O)(=O)[O-])ccc5F)c5ccc([nH]5)c(-c5cc(S(=O)(=O)[O-])ccc5F)c5nc(c(-c6cc(S(=O)(=O)[O-])ccc6F)c6ccc3[nH]6)C=C5)C=C4)cc2)sc2c1CCCC2
REMARK SMILES IDX 22 1 21 2 20 3 18 4 19 5 17 7 11 8 12 9 13 10 16 11 15 12
REMARK SMILES IDX 14 13 9 14 8 15 10 17 7 18 6 19 95 20 93 21 94 22 96 23
REMARK SMILES IDX 99 24 97 25 98 26 4 27 5 28 3 29 2 30 1 31 23 32 24 33 25 34
REMARK SMILES IDX 26 35 27 36 28 37 29 39 30 40 31 41 92 42 32 43 91 44 33 45
REMARK SMILES IDX 34 46 35 47 85 48 36 49 90 50 84 51 86 52 37 53 89 54 83 55
REMARK SMILES IDX 82 56 38 58 70 59 50 60 69 61 51 62 54 63 68 64 87 65 52 66
REMARK SMILES IDX 53 67 67 69 88 70 55 71 39 72 40 73 48 74 41 75 47 76 49 77
REMARK SMILES IDX 46 78 42 79 43 80 44 81 45 82 71 83 72 84 80 85 73 86 79 87
REMARK SMILES IDX 81 88 78 89 74 90 75 91 76 92 77 93 56 94 57 95 65 96 58 97
REMARK SMILES IDX 64 98 66 99 63 100 59 101 60 102 61 103 62 104
REMARK H PARENT 20 6 8 16 27 38 86 57 54 68
REMARK Flexibility Score: inf
ROOT
ATOM      1  C   UNL A   1      31.448  27.965  26.590  1.00  0.00     0.021 C 
ENDROOT
BRANCH   1   2
ATOM      2  C   UNL A   1      32.248  26.793  26.029  1.00  0.00     0.116 C 
BRANCH   2   3
ATOM      3  N   UNL A   1      31.917  25.554  26.697  1.00  0.00    -0.356 N 
ATOM      4  C   UNL A   1      32.343  24.288  26.429  1.00  0.00     0.224 C 
ATOM      5  O   UNL A   1      32.089  23.419  27.262  1.00  0.00    -0.275 OA
ATOM      6  H   UNL A   1      31.294  25.637  27.454  1.00  0.00     0.163 HD
BRANCH   4   7
ATOM      7  C   UNL A   1      33.159  24.024  25.167  1.00  0.00     0.094 C 
ATOM      8  C   UNL A   1      33.362  22.518  24.821  1.00  0.00     0.094 C 
ATOM      9  C   UNL A   1      34.886  22.439  24.563  1.00  0.00     0.002 C 
ATOM     10  C   UNL A   1      35.616  22.471  25.905  1.00  0.00     0.005 C 
ATOM     11  C   UNL A   1      35.223  23.837  24.026  1.00  0.00     0.009 C 
ATOM     12  C   UNL A   1      34.617  24.550  25.236  1.00  0.00     0.002 C 
ATOM     13  C   UNL A   1      35.427  23.908  26.379  1.00  0.00     0.005 C 
BRANCH   8  14
ATOM     14  C   UNL A   1      32.661  22.081  23.555  1.00  0.00     0.229 C 
ATOM     15  N   UNL A   1      31.892  22.899  22.799  1.00  0.00    -0.317 N 
ATOM     16  H   UNL A   1      31.510  22.421  22.029  1.00  0.00     0.170 HD
ATOM     17  O   UNL A   1      32.751  20.912  23.159  1.00  0.00    -0.274 OA
BRANCH  15  18
ATOM     18  C   UNL A   1      31.501  24.216  22.816  1.00  0.00     0.110 A 
ATOM     19  C   UNL A   1      31.864  25.471  22.358  1.00  0.00     0.098 A 
ATOM     20  C   UNL A   1      30.877  26.470  22.748  1.00  0.00    -0.017 A 
ATOM     21  S   UNL A   1      30.040  24.279  23.736  1.00  0.00    -0.122 S 
ATOM     22  C   UNL A   1      29.831  25.930  23.460  1.00  0.00     0.011 A 
ATOM     23  C   UNL A   1      30.900  27.929  22.379  1.00  0.00     0.038 C 
ATOM     24  C   UNL A   1      28.644  26.682  23.977  1.00  0.00     0.047 C 
ATOM     25  C   UNL A   1      29.914  28.749  23.222  1.00  0.00     0.005 C 
ATOM     26  C   UNL A   1      28.545  28.063  23.308  1.00  0.00     0.006 C 
BRANCH  19  27
ATOM     27  C   UNL A   1      32.997  25.874  21.546  1.00  0.00     0.341 C 
ATOM     28  O   UNL A   1      32.971  25.850  20.320  1.00  0.00    -0.246 OA
BRANCH  27  29
ATOM     29  O   UNL A   1      33.963  26.489  22.292  1.00  0.00    -0.462 OA
BRANCH  29  30
ATOM     30  C   UNL A   1      34.129  27.898  22.053  1.00  0.00     0.230 C 
ATOM     31  C   UNL A   1      34.218  28.642  23.374  1.00  0.00     0.049 C 
ENDBRANCH  29  30
ENDBRANCH  27  29
ENDBRANCH  19  27
ENDBRANCH  15  18
ENDBRANCH   8  14
ENDBRANCH   4   7
ENDBRANCH   2   3
ENDBRANCH   1   2
BRANCH   1  32
ATOM     32  C   UNL A   1      32.169  29.314  26.494  1.00  0.00     0.002 C 
BRANCH  32  33
ATOM     33  C   UNL A   1      31.393  30.419  25.766  1.00  0.00     0.002 C 
BRANCH  33  34
ATOM     34  C   UNL A   1      31.318  31.758  26.506  1.00  0.00     0.021 C 
BRANCH  34  35
ATOM     35  C   UNL A   1      32.669  32.320  26.931  1.00  0.00     0.116 C 
BRANCH  35  36
ATOM     36  N   UNL A   1      32.549  33.684  27.415  1.00  0.00    -0.352 N 
ATOM     37  C   UNL A   1      33.213  34.294  28.450  1.00  0.00     0.251 C 
ATOM     38  H   UNL A   1      31.903  34.251  26.933  1.00  0.00     0.163 HD
ATOM     39  O   UNL A   1      32.812  35.369  28.883  1.00  0.00    -0.269 OA
BRANCH  37  40
ATOM     40  C   UNL A   1      34.402  33.643  29.042  1.00  0.00     0.039 A 
ATOM     41  C   UNL A   1      35.655  34.240  28.880  1.00  0.00     0.014 A 
ATOM     42  C   UNL A   1      34.281  32.440  29.744  1.00  0.00     0.014 A 
ATOM     43  C   UNL A   1      36.781  33.652  29.461  1.00  0.00     0.010 A 
ATOM     44  C   UNL A   1      35.393  31.891  30.378  1.00  0.00     0.010 A 
ATOM     45  C   UNL A   1      36.655  32.487  30.235  1.00  0.00    -0.014 A 
BRANCH  45  46
ATOM     46  C   UNL A   1      37.836  31.865  30.886  1.00  0.00     0.031 A 
ATOM     47  C   UNL A   1      38.636  30.824  30.151  1.00  0.00     0.074 A 
ATOM     48  C   UNL A   1      38.147  32.191  32.156  1.00  0.00     0.049 A 
ATOM     49  N   UNL A   1      39.647  30.108  30.569  1.00  0.00    -0.248 NA
ATOM     50  C   UNL A   1      38.221  30.530  28.771  1.00  0.00     0.031 C 
ATOM     51  C   UNL A   1      37.421  33.158  32.981  1.00  0.00     0.029 A 
ATOM     52  N   UNL A   1      39.148  31.740  32.978  1.00  0.00    -0.354 N 
ATOM     53  C   UNL A   1      39.981  29.269  29.511  1.00  0.00     0.074 A 
ATOM     54  C   UNL A   1      39.025  29.526  28.455  1.00  0.00     0.031 C 
ATOM     55  C   UNL A   1      38.012  33.240  34.185  1.00  0.00     0.029 A 
ATOM     56  C   UNL A   1      39.130  32.304  34.232  1.00  0.00     0.049 A 
ATOM     57  H   UNL A   1      39.817  31.073  32.697  1.00  0.00     0.167 HD
ATOM     58  C   UNL A   1      41.005  28.383  29.420  1.00  0.00     0.034 A 
ATOM     59  C   UNL A   1      39.920  32.084  35.302  1.00  0.00     0.034 A 
ATOM     60  C   UNL A   1      41.957  28.151  30.479  1.00  0.00     0.049 A 
ATOM     61  C   UNL A   1      41.042  31.084  35.184  1.00  0.00     0.074 A 
ATOM     62  C   UNL A   1      43.065  27.320  30.477  1.00  0.00     0.029 A 
ATOM     63  N   UNL A   1      41.914  28.747  31.733  1.00  0.00    -0.354 N 
ATOM     64  N   UNL A   1      41.375  30.333  34.160  1.00  0.00    -0.248 NA
ATOM     65  C   UNL A   1      41.901  30.911  36.362  1.00  0.00     0.031 C 
ATOM     66  C   UNL A   1      43.651  27.366  31.747  1.00  0.00     0.029 A 
ATOM     67  C   UNL A   1      42.956  28.281  32.521  1.00  0.00     0.049 A 
ATOM     68  H   UNL A   1      41.240  29.405  32.020  1.00  0.00     0.167 HD
ATOM     69  C   UNL A   1      42.501  29.621  34.561  1.00  0.00     0.074 A 
ATOM     70  C   UNL A   1      42.797  30.043  35.916  1.00  0.00     0.031 C 
ATOM     71  C   UNL A   1      43.229  28.704  33.874  1.00  0.00     0.034 A 
BRANCH  58  72
ATOM     72  C   UNL A   1      41.122  27.586  28.142  1.00  0.00     0.023 A 
ATOM     73  C   UNL A   1      40.723  26.239  28.072  1.00  0.00     0.031 A 
ATOM     74  C   UNL A   1      41.669  28.169  26.986  1.00  0.00     0.131 A 
ATOM     75  C   UNL A   1      40.951  25.499  26.901  1.00  0.00     0.055 A 
ATOM     76  C   UNL A   1      41.815  27.450  25.797  1.00  0.00     0.041 A 
ATOM     77  F   UNL A   1      42.088  29.443  26.995  1.00  0.00    -0.206 F 
ATOM     78  C   UNL A   1      41.471  26.102  25.755  1.00  0.00     0.022 A 
BRANCH  75  79
ATOM     79  S   UNL A   1      40.696  23.704  26.948  1.00  0.00     0.124 S 
ATOM     80  O   UNL A   1      39.345  23.585  26.402  1.00  0.00    -0.237 OA
ATOM     81  O   UNL A   1      41.774  23.210  26.101  1.00  0.00    -0.237 OA
ATOM     82  O   UNL A   1      40.816  23.378  28.367  1.00  0.00    -0.744 OA
ENDBRANCH  75  79
ENDBRANCH  58  72
BRANCH  59  83
ATOM     83  C   UNL A   1      39.680  32.813  36.580  1.00  0.00     0.023 A 
ATOM     84  C   UNL A   1      38.759  32.335  37.523  1.00  0.00     0.031 A 
ATOM     85  C   UNL A   1      40.344  34.022  36.859  1.00  0.00     0.131 A 
ATOM     86  C   UNL A   1      38.490  33.082  38.681  1.00  0.00     0.055 A 
ATOM     87  C   UNL A   1      40.112  34.735  38.036  1.00  0.00     0.041 A 
ATOM     88  F   UNL A   1      41.240  34.520  35.993  1.00  0.00    -0.206 F 
ATOM     89  C   UNL A   1      39.169  34.272  38.950  1.00  0.00     0.022 A 
BRANCH  86  90
ATOM     90  S   UNL A   1      37.178  32.513  39.796  1.00  0.00     0.124 S 
ATOM     91  O   UNL A   1      36.005  32.578  38.932  1.00  0.00    -0.237 OA
ATOM     92  O   UNL A   1      37.640  31.176  40.150  1.00  0.00    -0.237 OA
ATOM     93  O   UNL A   1      37.208  33.489  40.883  1.00  0.00    -0.744 OA
ENDBRANCH  86  90
ENDBRANCH  59  83
BRANCH  71  94
ATOM     94  C   UNL A   1      44.442  28.135  34.568  1.00  0.00     0.023 A 
ATOM     95  C   UNL A   1      44.355  27.012  35.407  1.00  0.00     0.031 A 
ATOM     96  C   UNL A   1      45.700  28.738  34.396  1.00  0.00     0.131 A 
ATOM     97  C   UNL A   1      45.495  26.557  36.087  1.00  0.00     0.055 A 
ATOM     98  C   UNL A   1      46.843  28.247  35.028  1.00  0.00     0.041 A 
ATOM     99  F   UNL A   1      45.840  29.815  33.606  1.00  0.00    -0.206 F 
ATOM    100  C   UNL A   1      46.742  27.158  35.890  1.00  0.00     0.022 A 
BRANCH  97 101
ATOM    101  S   UNL A   1      45.312  25.223  37.302  1.00  0.00     0.124 S 
ATOM    102  O   UNL A   1      46.515  25.382  38.111  1.00  0.00    -0.237 OA
ATOM    103  O   UNL A   1      44.053  25.566  37.955  1.00  0.00    -0.237 OA
ATOM    104  O   UNL A   1      45.274  24.014  36.481  1.00  0.00    -0.744 OA
ENDBRANCH  97 101
ENDBRANCH  71  94
ENDBRANCH  45  46
ENDBRANCH  37  40
ENDBRANCH  35  36
ENDBRANCH  34  35
ENDBRANCH  33  34
ENDBRANCH  32  33
ENDBRANCH   1  32
TORSDOF 21
ENDMDL
MODEL 3
REMARK VINA RESULT:     -11.5      1.829      8.175
REMARK SMILES CCOC(=O)c1c(NC(=O)[C@H]2[C@@H]3CC[C@@H](C3)[C@@H]2C(=O)NCCCCCCNC(=O)c2ccc(-c3c4nc(c(-c5cc(S(=O)(=O)[O-])ccc5F)c5ccc([nH]5)c(-c5cc(S(=O)(=O)[O-])ccc5F)c5nc(c(-c6cc(S(=O)(=O)[O-])ccc6F)c6ccc3[nH]6)C=C5)C=C4)cc2)sc2c1CCCC2
REMARK SMILES IDX 22 1 21 2 20 3 18 4 19 5 17 7 11 8 12 9 13 10 16 11 15 12
REMARK SMILES IDX 14 13 9 14 8 15 10 17 7 18 6 19 95 20 93 21 94 22 96 23
REMARK SMILES IDX 99 24 97 25 98 26 4 27 5 28 3 29 2 30 1 31 23 32 24 33 25 34
REMARK SMILES IDX 26 35 27 36 28 37 29 39 30 40 31 41 92 42 32 43 91 44 33 45
REMARK SMILES IDX 34 46 35 47 85 48 36 49 90 50 84 51 86 52 37 53 89 54 83 55
REMARK SMILES IDX 82 56 38 58 70 59 50 60 69 61 51 62 54 63 68 64 87 65 52 66
REMARK SMILES IDX 53 67 67 69 88 70 55 71 39 72 40 73 48 74 41 75 47 76 49 77
REMARK SMILES IDX 46 78 42 79 43 80 44 81 45 82 71 83 72 84 80 85 73 86 79 87
REMARK SMILES IDX 81 88 78 89 74 90 75 91 76 92 77 93 56 94 57 95 65 96 58 97
REMARK SMILES IDX 64 98 66 99 63 100 59 101 60 102 61 103 62 104
REMARK H PARENT 20 6 8 16 27 38 86 57 54 68
REMARK Flexibility Score: inf
ROOT
ATOM      1  C   UNL A   1      33.350  28.349  27.143  1.00  0.00     0.021 C 
ENDROOT
BRANCH   1   2
ATOM      2  C   UNL A   1      33.507  27.296  26.050  1.00  0.00     0.116 C 
BRANCH   2   3
ATOM      3  N   UNL A   1      32.681  26.137  26.306  1.00  0.00    -0.356 N 
ATOM      4  C   UNL A   1      33.010  24.816  26.258  1.00  0.00     0.224 C 
ATOM      5  O   UNL A   1      32.196  24.015  26.717  1.00  0.00    -0.275 OA
ATOM      6  H   UNL A   1      31.747  26.330  26.550  1.00  0.00     0.163 HD
BRANCH   4   7
ATOM      7  C   UNL A   1      34.373  24.403  25.711  1.00  0.00     0.094 C 
ATOM      8  C   UNL A   1      34.330  23.306  24.604  1.00  0.00     0.094 C 
ATOM      9  C   UNL A   1      35.389  22.292  25.102  1.00  0.00     0.002 C 
ATOM     10  C   UNL A   1      34.796  21.484  26.255  1.00  0.00     0.005 C 
ATOM     11  C   UNL A   1      36.389  23.174  25.861  1.00  0.00     0.009 C 
ATOM     12  C   UNL A   1      35.314  23.772  26.771  1.00  0.00     0.002 C 
ATOM     13  C   UNL A   1      34.730  22.492  27.399  1.00  0.00     0.005 C 
BRANCH   8  14
ATOM     14  C   UNL A   1      34.768  23.791  23.242  1.00  0.00     0.229 C 
ATOM     15  N   UNL A   1      34.079  24.697  22.509  1.00  0.00    -0.317 N 
ATOM     16  H   UNL A   1      34.517  24.866  21.644  1.00  0.00     0.170 HD
ATOM     17  O   UNL A   1      35.798  23.350  22.719  1.00  0.00    -0.274 OA
BRANCH  15  18
ATOM     18  C   UNL A   1      32.933  25.443  22.644  1.00  0.00     0.110 A 
ATOM     19  C   UNL A   1      31.585  25.335  22.942  1.00  0.00     0.098 A 
ATOM     20  C   UNL A   1      30.949  26.646  22.948  1.00  0.00    -0.017 A 
ATOM     21  S   UNL A   1      33.379  27.082  22.328  1.00  0.00    -0.122 S 
ATOM     22  C   UNL A   1      31.833  27.663  22.669  1.00  0.00     0.011 A 
ATOM     23  C   UNL A   1      29.511  26.933  23.289  1.00  0.00     0.038 C 
ATOM     24  C   UNL A   1      31.501  29.124  22.630  1.00  0.00     0.047 C 
ATOM     25  C   UNL A   1      29.094  28.349  22.873  1.00  0.00     0.005 C 
ATOM     26  C   UNL A   1      30.141  29.388  23.294  1.00  0.00     0.006 C 
BRANCH  19  27
ATOM     27  C   UNL A   1      30.798  24.164  23.280  1.00  0.00     0.341 C 
ATOM     28  O   UNL A   1      29.589  24.104  23.086  1.00  0.00    -0.246 OA
BRANCH  27  29
ATOM     29  O   UNL A   1      31.589  23.096  23.598  1.00  0.00    -0.462 OA
BRANCH  29  30
ATOM     30  C   UNL A   1      31.592  22.019  22.645  1.00  0.00     0.230 C 
ATOM     31  C   UNL A   1      32.329  20.821  23.216  1.00  0.00     0.049 C 
ENDBRANCH  29  30
ENDBRANCH  27  29
ENDBRANCH  19  27
ENDBRANCH  15  18
ENDBRANCH   8  14
ENDBRANCH   4   7
ENDBRANCH   2   3
ENDBRANCH   1   2
BRANCH   1  32
ATOM     32  C   UNL A   1      31.984  29.044  27.149  1.00  0.00     0.002 C 
BRANCH  32  33
ATOM     33  C   UNL A   1      31.829  30.188  26.138  1.00  0.00     0.002 C 
BRANCH  33  34
ATOM     34  C   UNL A   1      31.631  31.577  26.753  1.00  0.00     0.021 C 
BRANCH  34  35
ATOM     35  C   UNL A   1      32.922  32.272  27.167  1.00  0.00     0.116 C 
BRANCH  35  36
ATOM     36  N   UNL A   1      32.685  33.657  27.537  1.00  0.00    -0.352 N 
ATOM     37  C   UNL A   1      33.217  34.374  28.579  1.00  0.00     0.251 C 
ATOM     38  H   UNL A   1      32.057  34.150  26.960  1.00  0.00     0.163 HD
ATOM     39  O   UNL A   1      32.721  35.451  28.895  1.00  0.00    -0.269 OA
BRANCH  37  40
ATOM     40  C   UNL A   1      34.380  33.838  29.319  1.00  0.00     0.039 A 
ATOM     41  C   UNL A   1      34.164  32.917  30.348  1.00  0.00     0.014 A 
ATOM     42  C   UNL A   1      35.678  34.255  29.009  1.00  0.00     0.014 A 
ATOM     43  C   UNL A   1      35.255  32.379  31.034  1.00  0.00     0.010 A 
ATOM     44  C   UNL A   1      36.766  33.669  29.649  1.00  0.00     0.010 A 
ATOM     45  C   UNL A   1      36.566  32.732  30.673  1.00  0.00    -0.014 A 
BRANCH  45  46
ATOM     46  C   UNL A   1      37.739  32.148  31.371  1.00  0.00     0.031 A 
ATOM     47  C   UNL A   1      38.506  31.019  30.736  1.00  0.00     0.074 A 
ATOM     48  C   UNL A   1      38.073  32.590  32.599  1.00  0.00     0.049 A 
ATOM     49  N   UNL A   1      39.504  30.323  31.214  1.00  0.00    -0.248 NA
ATOM     50  C   UNL A   1      38.067  30.600  29.396  1.00  0.00     0.031 C 
ATOM     51  C   UNL A   1      37.381  33.653  33.331  1.00  0.00     0.029 A 
ATOM     52  N   UNL A   1      39.073  32.198  33.453  1.00  0.00    -0.354 N 
ATOM     53  C   UNL A   1      39.805  29.374  30.242  1.00  0.00     0.074 A 
ATOM     54  C   UNL A   1      38.842  29.549  29.175  1.00  0.00     0.031 C 
ATOM     55  C   UNL A   1      37.988  33.840  34.514  1.00  0.00     0.029 A 
ATOM     56  C   UNL A   1      39.084  32.885  34.644  1.00  0.00     0.049 A 
ATOM     57  H   UNL A   1      39.722  31.491  33.234  1.00  0.00     0.167 HD
ATOM     58  C   UNL A   1      40.805  28.459  30.230  1.00  0.00     0.034 A 
ATOM     59  C   UNL A   1      39.881  32.753  35.724  1.00  0.00     0.034 A 
ATOM     60  C   UNL A   1      41.765  28.309  31.297  1.00  0.00     0.049 A 
ATOM     61  C   UNL A   1      40.977  31.719  35.695  1.00  0.00     0.074 A 
ATOM     62  C   UNL A   1      42.852  27.455  31.368  1.00  0.00     0.029 A 
ATOM     63  N   UNL A   1      41.751  29.029  32.487  1.00  0.00    -0.354 N 
ATOM     64  N   UNL A   1      41.279  30.861  34.748  1.00  0.00    -0.248 NA
ATOM     65  C   UNL A   1      41.845  31.642  36.876  1.00  0.00     0.031 C 
ATOM     66  C   UNL A   1      43.455  27.612  32.621  1.00  0.00     0.029 A 
ATOM     67  C   UNL A   1      42.790  28.616  33.307  1.00  0.00     0.049 A 
ATOM     68  H   UNL A   1      41.097  29.728  32.713  1.00  0.00     0.167 HD
ATOM     69  C   UNL A   1      42.392  30.164  35.208  1.00  0.00     0.074 A 
ATOM     70  C   UNL A   1      42.715  30.712  36.510  1.00  0.00     0.031 C 
ATOM     71  C   UNL A   1      43.090  29.165  34.608  1.00  0.00     0.034 A 
BRANCH  58  72
ATOM     72  C   UNL A   1      40.888  27.535  29.037  1.00  0.00     0.023 A 
ATOM     73  C   UNL A   1      41.846  27.722  28.024  1.00  0.00     0.031 A 
ATOM     74  C   UNL A   1      39.980  26.473  28.893  1.00  0.00     0.131 A 
ATOM     75  C   UNL A   1      41.821  26.914  26.877  1.00  0.00     0.055 A 
ATOM     76  C   UNL A   1      40.014  25.618  27.788  1.00  0.00     0.041 A 
ATOM     77  F   UNL A   1      39.030  26.255  29.816  1.00  0.00    -0.206 F 
ATOM     78  C   UNL A   1      40.927  25.847  26.764  1.00  0.00     0.022 A 
BRANCH  75  79
ATOM     79  S   UNL A   1      42.873  27.371  25.472  1.00  0.00     0.124 S 
ATOM     80  O   UNL A   1      42.090  28.440  24.854  1.00  0.00    -0.237 OA
ATOM     81  O   UNL A   1      44.111  27.779  26.124  1.00  0.00    -0.237 OA
ATOM     82  O   UNL A   1      42.954  26.139  24.690  1.00  0.00    -0.744 OA
ENDBRANCH  75  79
ENDBRANCH  58  72
BRANCH  59  83
ATOM     83  C   UNL A   1      39.674  33.611  36.924  1.00  0.00     0.023 A 
ATOM     84  C   UNL A   1      38.995  33.126  38.052  1.00  0.00     0.031 A 
ATOM     85  C   UNL A   1      40.121  34.945  36.946  1.00  0.00     0.131 A 
ATOM     86  C   UNL A   1      38.741  33.980  39.138  1.00  0.00     0.055 A 
ATOM     87  C   UNL A   1      39.912  35.775  38.049  1.00  0.00     0.041 A 
ATOM     88  F   UNL A   1      40.782  35.457  35.896  1.00  0.00    -0.206 F 
ATOM     89  C   UNL A   1      39.205  35.296  39.149  1.00  0.00     0.022 A 
BRANCH  86  90
ATOM     90  S   UNL A   1      37.722  33.363  40.505  1.00  0.00     0.124 S 
ATOM     91  O   UNL A   1      37.548  34.565  41.312  1.00  0.00    -0.237 OA
ATOM     92  O   UNL A   1      36.536  32.882  39.806  1.00  0.00    -0.237 OA
ATOM     93  O   UNL A   1      38.554  32.322  41.106  1.00  0.00    -0.744 OA
ENDBRANCH  86  90
ENDBRANCH  59  83
BRANCH  71  94
ATOM     94  C   UNL A   1      44.297  28.638  35.344  1.00  0.00     0.023 A 
ATOM     95  C   UNL A   1      44.186  27.644  36.331  1.00  0.00     0.031 A 
ATOM     96  C   UNL A   1      45.575  29.151  35.060  1.00  0.00     0.131 A 
ATOM     97  C   UNL A   1      45.325  27.232  37.039  1.00  0.00     0.055 A 
ATOM     98  C   UNL A   1      46.714  28.695  35.726  1.00  0.00     0.041 A 
ATOM     99  F   UNL A   1      45.739  30.102  34.127  1.00  0.00    -0.206 F 
ATOM    100  C   UNL A   1      46.591  27.739  36.731  1.00  0.00     0.022 A 
BRANCH  97 101
ATOM    101  S   UNL A   1      45.120  26.085  38.429  1.00  0.00     0.124 S 
ATOM    102  O   UNL A   1      44.979  24.803  37.747  1.00  0.00    -0.237 OA
ATOM    103  O   UNL A   1      46.360  26.276  39.177  1.00  0.00    -0.237 OA
ATOM    104  O   UNL A   1      43.914  26.568  39.098  1.00  0.00    -0.744 OA
ENDBRANCH  97 101
ENDBRANCH  71  94
ENDBRANCH  45  46
ENDBRANCH  37  40
ENDBRANCH  35  36
ENDBRANCH  34  35
ENDBRANCH  33  34
ENDBRANCH  32  33
ENDBRANCH   1  32
TORSDOF 21
ENDMDL
