MODEL 1
REMARK VINA RESULT:     -11.2      0.000      0.000
REMARK SMILES O=C(C[C@@H]([NH2+]Cc1cccnc1)C(=O)NCCCCCCNC(=O)c1ccc(-c2c3nc(c(-c4cc(S(=O)(=O)[O-])ccc4F)c4ccc([nH]4)c(-c4cc(S(=O)(=O)[O-])ccc4F)c4nc(c(-c5cc(S(=O)(=O)[O-])ccc5F)c5ccc2[nH]5)C=C4)C=C3)cc1)Nc1ccc2ccccc2c1
REMARK SMILES IDX 18 1 17 2 16 3 15 4 13 5 14 6 4 8 3 9 2 10 1 11 88 12 89 14
REMARK SMILES IDX 90 15 98 16 91 17 97 18 92 19 96 20 93 21 95 22 94 23 5 24
REMARK SMILES IDX 6 27 7 28 8 29 12 30 9 31 11 32 10 33 19 34 20 35 21 36
REMARK SMILES IDX 22 37 23 38 24 40 25 41 26 42 87 43 27 44 86 45 28 46 29 47
REMARK SMILES IDX 30 48 80 49 31 50 85 51 79 52 81 53 32 54 84 55 78 56 77 57
REMARK SMILES IDX 33 59 65 60 45 61 64 62 46 63 49 64 63 65 82 66 47 67 48 68
REMARK SMILES IDX 62 70 83 71 50 72 34 73 35 74 43 75 36 76 42 77 44 78 41 79
REMARK SMILES IDX 37 80 38 81 39 82 40 83 66 84 67 85 75 86 68 87 74 88 76 89
REMARK SMILES IDX 73 90 69 91 70 92 71 93 72 94 51 95 52 96 60 97 53 98 59 99
REMARK SMILES IDX 61 100 58 101 54 102 55 103 56 104 57 105
REMARK H PARENT 15 7 88 13 5 25 5 26 22 39 81 58 49 69
REMARK Flexibility Score: inf
ROOT
ATOM      1  C   UNL A   1      35.010  30.662  28.606  1.00  0.00     0.002 C 
ENDROOT
BRANCH   1   2
ATOM      2  C   UNL A   1      35.414  29.521  27.663  1.00  0.00     0.021 C 
BRANCH   2   3
ATOM      3  C   UNL A   1      34.260  29.017  26.797  1.00  0.00     0.116 C 
BRANCH   3   4
ATOM      4  N   UNL A   1      33.117  28.701  27.631  1.00  0.00    -0.351 N 
ATOM      5  C   UNL A   1      31.930  28.115  27.307  1.00  0.00     0.278 C 
ATOM      6  O   UNL A   1      31.082  28.005  28.197  1.00  0.00    -0.268 OA
ATOM      7  H   UNL A   1      33.214  28.947  28.579  1.00  0.00     0.163 HD
BRANCH   5   8
ATOM      8  C   UNL A   1      31.678  27.544  25.896  1.00  0.00     0.282 C 
BRANCH   8   9
ATOM      9  C   UNL A   1      30.832  26.252  25.972  1.00  0.00     0.175 C 
BRANCH   9  10
ATOM     10  C   UNL A   1      31.664  24.989  26.089  1.00  0.00     0.230 C 
ATOM     11  O   UNL A   1      31.648  24.299  27.104  1.00  0.00    -0.274 OA
ATOM     12  N   UNL A   1      32.453  24.762  24.970  1.00  0.00    -0.326 N 
ATOM     13  H   UNL A   1      32.234  25.224  24.128  1.00  0.00     0.169 HD
BRANCH  12  14
ATOM     14  C   UNL A   1      33.556  23.894  25.005  1.00  0.00     0.041 A 
ATOM     15  C   UNL A   1      33.343  22.558  24.670  1.00  0.00     0.027 A 
ATOM     16  C   UNL A   1      34.829  24.326  25.371  1.00  0.00     0.034 A 
ATOM     17  C   UNL A   1      34.420  21.689  24.540  1.00  0.00     0.011 A 
ATOM     18  C   UNL A   1      35.899  23.410  25.406  1.00  0.00    -0.016 A 
ATOM     19  C   UNL A   1      35.703  22.099  24.909  1.00  0.00    -0.018 A 
ATOM     20  C   UNL A   1      37.152  23.743  25.946  1.00  0.00     0.009 A 
ATOM     21  C   UNL A   1      36.783  21.209  24.839  1.00  0.00     0.009 A 
ATOM     22  C   UNL A   1      38.194  22.810  25.959  1.00  0.00     0.001 A 
ATOM     23  C   UNL A   1      38.022  21.560  25.372  1.00  0.00     0.001 A 
ENDBRANCH  12  14
ENDBRANCH   9  10
ENDBRANCH   8   9
BRANCH   8  24
ATOM     24  N   UNL A   1      31.104  28.589  24.992  1.00  0.00    -0.332 N 
ATOM     25  H   UNL A   1      30.967  29.441  25.536  1.00  0.00     0.347 HD
ATOM     26  H   UNL A   1      30.233  28.210  24.623  1.00  0.00     0.347 HD
BRANCH  24  27
ATOM     27  C   UNL A   1      31.950  28.917  23.827  1.00  0.00     0.299 C 
BRANCH  27  28
ATOM     28  C   UNL A   1      32.229  27.762  22.902  1.00  0.00     0.024 A 
ATOM     29  C   UNL A   1      31.188  27.060  22.292  1.00  0.00     0.013 A 
ATOM     30  C   UNL A   1      33.523  27.312  22.642  1.00  0.00     0.120 A 
ATOM     31  C   UNL A   1      31.473  25.994  21.441  1.00  0.00     0.021 A 
ATOM     32  N   UNL A   1      33.832  26.287  21.818  1.00  0.00    -0.264 NA
ATOM     33  C   UNL A   1      32.799  25.658  21.227  1.00  0.00     0.111 A 
ENDBRANCH  27  28
ENDBRANCH  24  27
ENDBRANCH   8  24
ENDBRANCH   5   8
ENDBRANCH   3   4
ENDBRANCH   2   3
ENDBRANCH   1   2
BRANCH   1  34
ATOM     34  C   UNL A   1      35.182  32.066  28.016  1.00  0.00     0.002 C 
BRANCH  34  35
ATOM     35  C   UNL A   1      33.916  32.925  28.029  1.00  0.00     0.021 C 
BRANCH  35  36
ATOM     36  C   UNL A   1      34.179  34.421  28.152  1.00  0.00     0.116 C 
BRANCH  36  37
ATOM     37  N   UNL A   1      33.415  35.012  29.239  1.00  0.00    -0.352 N 
ATOM     38  C   UNL A   1      33.541  34.816  30.593  1.00  0.00     0.251 C 
ATOM     39  H   UNL A   1      32.709  35.642  28.966  1.00  0.00     0.163 HD
ATOM     40  O   UNL A   1      32.662  35.207  31.350  1.00  0.00    -0.269 OA
BRANCH  38  41
ATOM     41  C   UNL A   1      34.732  34.113  31.118  1.00  0.00     0.039 A 
ATOM     42  C   UNL A   1      34.559  32.913  31.811  1.00  0.00     0.014 A 
ATOM     43  C   UNL A   1      36.014  34.634  30.921  1.00  0.00     0.014 A 
ATOM     44  C   UNL A   1      35.678  32.206  32.256  1.00  0.00     0.010 A 
ATOM     45  C   UNL A   1      37.129  33.889  31.293  1.00  0.00     0.010 A 
ATOM     46  C   UNL A   1      36.973  32.669  31.968  1.00  0.00    -0.014 A 
BRANCH  46  47
ATOM     47  C   UNL A   1      38.175  31.891  32.369  1.00  0.00     0.031 A 
ATOM     48  C   UNL A   1      38.886  32.208  33.655  1.00  0.00     0.074 A 
ATOM     49  C   UNL A   1      38.654  30.936  31.547  1.00  0.00     0.049 A 
ATOM     50  N   UNL A   1      39.982  31.689  34.146  1.00  0.00    -0.248 NA
ATOM     51  C   UNL A   1      38.302  33.271  34.486  1.00  0.00     0.031 C 
ATOM     52  C   UNL A   1      38.070  30.562  30.257  1.00  0.00     0.029 A 
ATOM     53  N   UNL A   1      39.742  30.109  31.669  1.00  0.00    -0.354 N 
ATOM     54  C   UNL A   1      40.224  32.366  35.336  1.00  0.00     0.074 A 
ATOM     55  C   UNL A   1      39.199  33.381  35.454  1.00  0.00     0.031 C 
ATOM     56  C   UNL A   1      38.786  29.560  29.724  1.00  0.00     0.029 A 
ATOM     57  C   UNL A   1      39.911  29.256  30.603  1.00  0.00     0.049 A 
ATOM     58  H   UNL A   1      40.347  30.125  32.446  1.00  0.00     0.167 HD
ATOM     59  C   UNL A   1      41.196  32.145  36.256  1.00  0.00     0.034 A 
ATOM     60  C   UNL A   1      40.870  28.341  30.354  1.00  0.00     0.034 A 
ATOM     61  C   UNL A   1      42.210  31.127  36.120  1.00  0.00     0.049 A 
ATOM     62  C   UNL A   1      41.970  28.146  31.368  1.00  0.00     0.074 A 
ATOM     63  C   UNL A   1      43.213  30.785  37.011  1.00  0.00     0.029 A 
ATOM     64  N   UNL A   1      42.361  30.294  35.018  1.00  0.00    -0.354 N 
ATOM     65  N   UNL A   1      42.156  28.763  32.513  1.00  0.00    -0.248 NA
ATOM     66  C   UNL A   1      42.980  27.127  31.060  1.00  0.00     0.031 C 
ATOM     67  C   UNL A   1      44.017  29.808  36.415  1.00  0.00     0.029 A 
ATOM     68  C   UNL A   1      43.463  29.469  35.191  1.00  0.00     0.049 A 
ATOM     69  H   UNL A   1      41.772  30.290  34.229  1.00  0.00     0.167 HD
ATOM     70  C   UNL A   1      43.288  28.178  33.077  1.00  0.00     0.074 A 
ATOM     71  C   UNL A   1      43.729  27.154  32.152  1.00  0.00     0.031 C 
ATOM     72  C   UNL A   1      43.903  28.459  34.255  1.00  0.00     0.034 A 
BRANCH  59  73
ATOM     73  C   UNL A   1      41.220  33.045  37.471  1.00  0.00     0.023 A 
ATOM     74  C   UNL A   1      40.554  32.699  38.661  1.00  0.00     0.031 A 
ATOM     75  C   UNL A   1      41.889  34.281  37.431  1.00  0.00     0.131 A 
ATOM     76  C   UNL A   1      40.497  33.613  39.724  1.00  0.00     0.055 A 
ATOM     77  C   UNL A   1      41.906  35.145  38.528  1.00  0.00     0.041 A 
ATOM     78  F   UNL A   1      42.525  34.680  36.318  1.00  0.00    -0.206 F 
ATOM     79  C   UNL A   1      41.192  34.821  39.677  1.00  0.00     0.022 A 
BRANCH  76  80
ATOM     80  S   UNL A   1      39.362  33.269  41.098  1.00  0.00     0.124 S 
ATOM     81  O   UNL A   1      38.093  33.758  40.561  1.00  0.00    -0.237 OA
ATOM     82  O   UNL A   1      39.476  31.823  41.247  1.00  0.00    -0.237 OA
ATOM     83  O   UNL A   1      39.909  34.057  42.199  1.00  0.00    -0.744 OA
ENDBRANCH  76  80
ENDBRANCH  59  73
BRANCH  60  84
ATOM     84  C   UNL A   1      40.846  27.546  29.091  1.00  0.00     0.023 A 
ATOM     85  C   UNL A   1      41.760  27.802  28.058  1.00  0.00     0.031 A 
ATOM     86  C   UNL A   1      39.881  26.543  28.885  1.00  0.00     0.131 A 
ATOM     87  C   UNL A   1      41.663  27.097  26.847  1.00  0.00     0.055 A 
ATOM     88  C   UNL A   1      39.826  25.803  27.702  1.00  0.00     0.041 A 
ATOM     89  F   UNL A   1      38.984  26.255  29.842  1.00  0.00    -0.206 F 
ATOM     90  C   UNL A   1      40.713  26.089  26.669  1.00  0.00     0.022 A 
BRANCH  87  91
ATOM     91  S   UNL A   1      42.743  27.581  25.472  1.00  0.00     0.124 S 
ATOM     92  O   UNL A   1      42.690  26.396  24.624  1.00  0.00    -0.237 OA
ATOM     93  O   UNL A   1      42.068  28.769  24.962  1.00  0.00    -0.237 OA
ATOM     94  O   UNL A   1      44.029  27.827  26.122  1.00  0.00    -0.744 OA
ENDBRANCH  87  91
ENDBRANCH  60  84
BRANCH  72  95
ATOM     95  C   UNL A   1      45.093  27.607  34.630  1.00  0.00     0.023 A 
ATOM     96  C   UNL A   1      46.410  27.998  34.335  1.00  0.00     0.031 A 
ATOM     97  C   UNL A   1      44.901  26.379  35.289  1.00  0.00     0.131 A 
ATOM     98  C   UNL A   1      47.479  27.142  34.642  1.00  0.00     0.055 A 
ATOM     99  C   UNL A   1      45.973  25.564  35.655  1.00  0.00     0.041 A 
ATOM    100  F   UNL A   1      43.664  25.950  35.592  1.00  0.00    -0.206 F 
ATOM    101  C   UNL A   1      47.271  25.937  35.320  1.00  0.00     0.022 A 
BRANCH  98 102
ATOM    102  S   UNL A   1      49.139  27.574  34.052  1.00  0.00     0.124 S 
ATOM    103  O   UNL A   1      49.645  26.283  33.600  1.00  0.00    -0.237 OA
ATOM    104  O   UNL A   1      48.854  28.549  33.003  1.00  0.00    -0.237 OA
ATOM    105  O   UNL A   1      49.795  28.116  35.240  1.00  0.00    -0.744 OA
ENDBRANCH  98 102
ENDBRANCH  72  95
ENDBRANCH  46  47
ENDBRANCH  38  41
ENDBRANCH  36  37
ENDBRANCH  35  36
ENDBRANCH  34  35
ENDBRANCH   1  34
TORSDOF 22
ENDMDL
MODEL 2
REMARK VINA RESULT:     -11.2      1.278      7.517
REMARK SMILES O=C(C[C@@H]([NH2+]Cc1cccnc1)C(=O)NCCCCCCNC(=O)c1ccc(-c2c3nc(c(-c4cc(S(=O)(=O)[O-])ccc4F)c4ccc([nH]4)c(-c4cc(S(=O)(=O)[O-])ccc4F)c4nc(c(-c5cc(S(=O)(=O)[O-])ccc5F)c5ccc2[nH]5)C=C4)C=C3)cc1)Nc1ccc2ccccc2c1
REMARK SMILES IDX 18 1 17 2 16 3 15 4 13 5 14 6 4 8 3 9 2 10 1 11 88 12 89 14
REMARK SMILES IDX 90 15 98 16 91 17 97 18 92 19 96 20 93 21 95 22 94 23 5 24
REMARK SMILES IDX 6 27 7 28 8 29 12 30 9 31 11 32 10 33 19 34 20 35 21 36
REMARK SMILES IDX 22 37 23 38 24 40 25 41 26 42 87 43 27 44 86 45 28 46 29 47
REMARK SMILES IDX 30 48 80 49 31 50 85 51 79 52 81 53 32 54 84 55 78 56 77 57
REMARK SMILES IDX 33 59 65 60 45 61 64 62 46 63 49 64 63 65 82 66 47 67 48 68
REMARK SMILES IDX 62 70 83 71 50 72 34 73 35 74 43 75 36 76 42 77 44 78 41 79
REMARK SMILES IDX 37 80 38 81 39 82 40 83 66 84 67 85 75 86 68 87 74 88 76 89
REMARK SMILES IDX 73 90 69 91 70 92 71 93 72 94 51 95 52 96 60 97 53 98 59 99
REMARK SMILES IDX 61 100 58 101 54 102 55 103 56 104 57 105
REMARK H PARENT 15 7 88 13 5 25 5 26 22 39 81 58 49 69
REMARK Flexibility Score: inf
ROOT
ATOM      1  C   UNL A   1      35.155  30.574  28.602  1.00  0.00     0.002 C 
ENDROOT
BRANCH   1   2
ATOM      2  C   UNL A   1      35.529  29.445  27.632  1.00  0.00     0.021 C 
BRANCH   2   3
ATOM      3  C   UNL A   1      34.352  28.964  26.784  1.00  0.00     0.116 C 
BRANCH   3   4
ATOM      4  N   UNL A   1      33.202  28.714  27.630  1.00  0.00    -0.351 N 
ATOM      5  C   UNL A   1      31.991  28.168  27.326  1.00  0.00     0.278 C 
ATOM      6  O   UNL A   1      31.144  28.114  28.222  1.00  0.00    -0.268 OA
ATOM      7  H   UNL A   1      33.312  28.980  28.572  1.00  0.00     0.163 HD
BRANCH   5   8
ATOM      8  C   UNL A   1      31.709  27.572  25.931  1.00  0.00     0.282 C 
BRANCH   8   9
ATOM      9  C   UNL A   1      30.857  26.288  26.048  1.00  0.00     0.175 C 
BRANCH   9  10
ATOM     10  C   UNL A   1      31.682  25.017  26.136  1.00  0.00     0.230 C 
ATOM     11  O   UNL A   1      31.637  24.288  27.122  1.00  0.00    -0.274 OA
ATOM     12  N   UNL A   1      32.500  24.833  25.030  1.00  0.00    -0.326 N 
ATOM     13  H   UNL A   1      32.305  25.328  24.202  1.00  0.00     0.169 HD
BRANCH  12  14
ATOM     14  C   UNL A   1      33.600  23.960  25.059  1.00  0.00     0.041 A 
ATOM     15  C   UNL A   1      33.376  22.621  24.743  1.00  0.00     0.027 A 
ATOM     16  C   UNL A   1      34.879  24.391  25.403  1.00  0.00     0.034 A 
ATOM     17  C   UNL A   1      34.448  21.746  24.609  1.00  0.00     0.011 A 
ATOM     18  C   UNL A   1      35.946  23.470  25.433  1.00  0.00    -0.016 A 
ATOM     19  C   UNL A   1      35.738  22.154  24.954  1.00  0.00    -0.018 A 
ATOM     20  C   UNL A   1      37.208  23.804  25.952  1.00  0.00     0.009 A 
ATOM     21  C   UNL A   1      36.812  21.259  24.879  1.00  0.00     0.009 A 
ATOM     22  C   UNL A   1      38.246  22.866  25.960  1.00  0.00     0.001 A 
ATOM     23  C   UNL A   1      38.060  21.610  25.391  1.00  0.00     0.001 A 
ENDBRANCH  12  14
ENDBRANCH   9  10
ENDBRANCH   8   9
BRANCH   8  24
ATOM     24  N   UNL A   1      31.126  28.604  25.018  1.00  0.00    -0.332 N 
ATOM     25  H   UNL A   1      30.974  29.457  25.556  1.00  0.00     0.347 HD
ATOM     26  H   UNL A   1      30.262  28.210  24.647  1.00  0.00     0.347 HD
BRANCH  24  27
ATOM     27  C   UNL A   1      31.973  28.936  23.855  1.00  0.00     0.299 C 
BRANCH  27  28
ATOM     28  C   UNL A   1      32.234  27.790  22.913  1.00  0.00     0.024 A 
ATOM     29  C   UNL A   1      31.180  27.063  22.355  1.00  0.00     0.013 A 
ATOM     30  C   UNL A   1      33.523  27.374  22.586  1.00  0.00     0.120 A 
ATOM     31  C   UNL A   1      31.449  26.007  21.487  1.00  0.00     0.021 A 
ATOM     32  N   UNL A   1      33.815  26.358  21.744  1.00  0.00    -0.264 NA
ATOM     33  C   UNL A   1      32.769  25.705  21.204  1.00  0.00     0.111 A 
ENDBRANCH  27  28
ENDBRANCH  24  27
ENDBRANCH   8  24
ENDBRANCH   5   8
ENDBRANCH   3   4
ENDBRANCH   2   3
ENDBRANCH   1   2
BRANCH   1  34
ATOM     34  C   UNL A   1      35.375  31.986  28.049  1.00  0.00     0.002 C 
BRANCH  34  35
ATOM     35  C   UNL A   1      34.100  32.815  27.886  1.00  0.00     0.021 C 
BRANCH  35  36
ATOM     36  C   UNL A   1      34.317  34.321  27.989  1.00  0.00     0.116 C 
BRANCH  36  37
ATOM     37  N   UNL A   1      33.486  34.911  29.025  1.00  0.00    -0.352 N 
ATOM     38  C   UNL A   1      33.574  34.773  30.390  1.00  0.00     0.251 C 
ATOM     39  H   UNL A   1      32.760  35.494  28.705  1.00  0.00     0.163 HD
ATOM     40  O   UNL A   1      32.650  35.146  31.100  1.00  0.00    -0.269 OA
BRANCH  38  41
ATOM     41  C   UNL A   1      34.778  34.151  30.982  1.00  0.00     0.039 A 
ATOM     42  C   UNL A   1      34.642  32.964  31.704  1.00  0.00     0.014 A 
ATOM     43  C   UNL A   1      36.037  34.736  30.819  1.00  0.00     0.014 A 
ATOM     44  C   UNL A   1      35.778  32.332  32.213  1.00  0.00     0.010 A 
ATOM     45  C   UNL A   1      37.174  34.065  31.257  1.00  0.00     0.010 A 
ATOM     46  C   UNL A   1      37.057  32.857  31.962  1.00  0.00    -0.014 A 
BRANCH  46  47
ATOM     47  C   UNL A   1      38.282  32.158  32.432  1.00  0.00     0.031 A 
ATOM     48  C   UNL A   1      38.896  31.066  31.599  1.00  0.00     0.074 A 
ATOM     49  C   UNL A   1      38.808  32.472  33.633  1.00  0.00     0.049 A 
ATOM     50  N   UNL A   1      39.921  30.298  31.866  1.00  0.00    -0.248 NA
ATOM     51  C   UNL A   1      38.253  30.781  30.309  1.00  0.00     0.031 C 
ATOM     52  C   UNL A   1      38.281  33.489  34.545  1.00  0.00     0.029 A 
ATOM     53  N   UNL A   1      39.897  31.966  34.297  1.00  0.00    -0.354 N 
ATOM     54  C   UNL A   1      40.041  29.435  30.783  1.00  0.00     0.074 A 
ATOM     55  C   UNL A   1      38.939  29.728  29.891  1.00  0.00     0.031 C 
ATOM     56  C   UNL A   1      39.065  33.554  35.632  1.00  0.00     0.029 A 
ATOM     57  C   UNL A   1      40.118  32.549  35.523  1.00  0.00     0.049 A 
ATOM     58  H   UNL A   1      40.468  31.252  33.930  1.00  0.00     0.167 HD
ATOM     59  C   UNL A   1      40.996  28.501  30.543  1.00  0.00     0.034 A 
ATOM     60  C   UNL A   1      41.052  32.294  36.461  1.00  0.00     0.034 A 
ATOM     61  C   UNL A   1      42.087  28.223  31.445  1.00  0.00     0.049 A 
ATOM     62  C   UNL A   1      42.074  31.217  36.195  1.00  0.00     0.074 A 
ATOM     63  C   UNL A   1      43.135  27.333  31.282  1.00  0.00     0.029 A 
ATOM     64  N   UNL A   1      42.268  28.819  32.687  1.00  0.00    -0.354 N 
ATOM     65  N   UNL A   1      42.202  30.442  35.142  1.00  0.00    -0.248 NA
ATOM     66  C   UNL A   1      43.082  30.990  37.238  1.00  0.00     0.031 C 
ATOM     67  C   UNL A   1      43.898  27.331  32.454  1.00  0.00     0.029 A 
ATOM     68  C   UNL A   1      43.385  28.288  33.315  1.00  0.00     0.049 A 
ATOM     69  H   UNL A   1      41.687  29.518  33.067  1.00  0.00     0.167 HD
ATOM     70  C   UNL A   1      43.328  29.657  35.385  1.00  0.00     0.074 A 
ATOM     71  C   UNL A   1      43.847  30.066  36.675  1.00  0.00     0.031 C 
ATOM     72  C   UNL A   1      43.886  28.693  34.609  1.00  0.00     0.034 A 
BRANCH  59  73
ATOM     73  C   UNL A   1      40.875  27.696  29.268  1.00  0.00     0.023 A 
ATOM     74  C   UNL A   1      41.777  27.862  28.202  1.00  0.00     0.031 A 
ATOM     75  C   UNL A   1      39.826  26.775  29.101  1.00  0.00     0.131 A 
ATOM     76  C   UNL A   1      41.563  27.187  26.991  1.00  0.00     0.055 A 
ATOM     77  C   UNL A   1      39.673  26.037  27.926  1.00  0.00     0.041 A 
ATOM     78  F   UNL A   1      38.919  26.587  30.073  1.00  0.00    -0.206 F 
ATOM     79  C   UNL A   1      40.534  26.255  26.854  1.00  0.00     0.022 A 
BRANCH  76  80
ATOM     80  S   UNL A   1      42.546  27.674  25.545  1.00  0.00     0.124 S 
ATOM     81  O   UNL A   1      43.852  27.931  26.150  1.00  0.00    -0.237 OA
ATOM     82  O   UNL A   1      42.459  26.495  24.692  1.00  0.00    -0.237 OA
ATOM     83  O   UNL A   1      41.855  28.860  25.045  1.00  0.00    -0.744 OA
ENDBRANCH  76  80
ENDBRANCH  59  73
BRANCH  60  84
ATOM     84  C   UNL A   1      41.064  33.059  37.742  1.00  0.00     0.023 A 
ATOM     85  C   UNL A   1      40.305  32.636  38.844  1.00  0.00     0.031 A 
ATOM     86  C   UNL A   1      41.808  34.246  37.871  1.00  0.00     0.131 A 
ATOM     87  C   UNL A   1      40.268  33.418  40.010  1.00  0.00     0.055 A 
ATOM     88  C   UNL A   1      41.815  34.989  39.052  1.00  0.00     0.041 A 
ATOM     89  F   UNL A   1      42.554  34.695  36.849  1.00  0.00    -0.206 F 
ATOM     90  C   UNL A   1      41.030  34.582  40.126  1.00  0.00     0.022 A 
BRANCH  87  91
ATOM     91  S   UNL A   1      39.135  32.936  41.342  1.00  0.00     0.124 S 
ATOM     92  O   UNL A   1      38.246  34.090  41.406  1.00  0.00    -0.237 OA
ATOM     93  O   UNL A   1      38.556  31.705  40.817  1.00  0.00    -0.237 OA
ATOM     94  O   UNL A   1      40.020  32.765  42.493  1.00  0.00    -0.744 OA
ENDBRANCH  87  91
ENDBRANCH  60  84
BRANCH  72  95
ATOM     95  C   UNL A   1      45.154  28.047  35.117  1.00  0.00     0.023 A 
ATOM     96  C   UNL A   1      45.133  26.873  35.889  1.00  0.00     0.031 A 
ATOM     97  C   UNL A   1      46.404  28.626  34.830  1.00  0.00     0.131 A 
ATOM     98  C   UNL A   1      46.331  26.348  36.397  1.00  0.00     0.055 A 
ATOM     99  C   UNL A   1      47.598  28.060  35.279  1.00  0.00     0.041 A 
ATOM    100  F   UNL A   1      46.486  29.752  34.103  1.00  0.00    -0.206 F 
ATOM    101  C   UNL A   1      47.566  26.922  36.079  1.00  0.00     0.022 A 
BRANCH  98 102
ATOM    102  S   UNL A   1      46.251  24.964  37.566  1.00  0.00     0.124 S 
ATOM    103  O   UNL A   1      47.654  24.587  37.686  1.00  0.00    -0.237 OA
ATOM    104  O   UNL A   1      45.655  25.586  38.745  1.00  0.00    -0.237 OA
ATOM    105  O   UNL A   1      45.402  23.988  36.885  1.00  0.00    -0.744 OA
ENDBRANCH  98 102
ENDBRANCH  72  95
ENDBRANCH  46  47
ENDBRANCH  38  41
ENDBRANCH  36  37
ENDBRANCH  35  36
ENDBRANCH  34  35
ENDBRANCH   1  34
TORSDOF 22
ENDMDL
MODEL 3
REMARK VINA RESULT:     -11.0      1.737      2.434
REMARK SMILES O=C(C[C@@H]([NH2+]Cc1cccnc1)C(=O)NCCCCCCNC(=O)c1ccc(-c2c3nc(c(-c4cc(S(=O)(=O)[O-])ccc4F)c4ccc([nH]4)c(-c4cc(S(=O)(=O)[O-])ccc4F)c4nc(c(-c5cc(S(=O)(=O)[O-])ccc5F)c5ccc2[nH]5)C=C4)C=C3)cc1)Nc1ccc2ccccc2c1
REMARK SMILES IDX 18 1 17 2 16 3 15 4 13 5 14 6 4 8 3 9 2 10 1 11 88 12 89 14
REMARK SMILES IDX 90 15 98 16 91 17 97 18 92 19 96 20 93 21 95 22 94 23 5 24
REMARK SMILES IDX 6 27 7 28 8 29 12 30 9 31 11 32 10 33 19 34 20 35 21 36
REMARK SMILES IDX 22 37 23 38 24 40 25 41 26 42 87 43 27 44 86 45 28 46 29 47
REMARK SMILES IDX 30 48 80 49 31 50 85 51 79 52 81 53 32 54 84 55 78 56 77 57
REMARK SMILES IDX 33 59 65 60 45 61 64 62 46 63 49 64 63 65 82 66 47 67 48 68
REMARK SMILES IDX 62 70 83 71 50 72 34 73 35 74 43 75 36 76 42 77 44 78 41 79
REMARK SMILES IDX 37 80 38 81 39 82 40 83 66 84 67 85 75 86 68 87 74 88 76 89
REMARK SMILES IDX 73 90 69 91 70 92 71 93 72 94 51 95 52 96 60 97 53 98 59 99
REMARK SMILES IDX 61 100 58 101 54 102 55 103 56 104 57 105
REMARK H PARENT 15 7 88 13 5 25 5 26 22 39 81 58 49 69
REMARK Flexibility Score: inf
ROOT
ATOM      1  C   UNL A   1      34.693  31.341  28.482  1.00  0.00     0.002 C 
ENDROOT
BRANCH   1   2
ATOM      2  C   UNL A   1      34.855  30.216  27.452  1.00  0.00     0.021 C 
BRANCH   2   3
ATOM      3  C   UNL A   1      33.591  29.961  26.633  1.00  0.00     0.116 C 
BRANCH   3   4
ATOM      4  N   UNL A   1      32.608  29.267  27.442  1.00  0.00    -0.351 N 
ATOM      5  C   UNL A   1      31.826  28.193  27.143  1.00  0.00     0.278 C 
ATOM      6  O   UNL A   1      31.015  27.818  27.994  1.00  0.00    -0.268 OA
ATOM      7  H   UNL A   1      32.488  29.628  28.351  1.00  0.00     0.163 HD
BRANCH   5   8
ATOM      8  C   UNL A   1      31.994  27.424  25.816  1.00  0.00     0.282 C 
BRANCH   8   9
ATOM      9  C   UNL A   1      33.228  26.494  25.874  1.00  0.00     0.175 C 
BRANCH   9  10
ATOM     10  C   UNL A   1      32.882  25.021  25.757  1.00  0.00     0.230 C 
ATOM     11  O   UNL A   1      32.159  24.462  26.576  1.00  0.00    -0.274 OA
ATOM     12  N   UNL A   1      33.514  24.407  24.684  1.00  0.00    -0.326 N 
ATOM     13  H   UNL A   1      33.879  24.966  23.960  1.00  0.00     0.169 HD
BRANCH  12  14
ATOM     14  C   UNL A   1      33.648  23.012  24.603  1.00  0.00     0.041 A 
ATOM     15  C   UNL A   1      34.726  22.422  25.260  1.00  0.00     0.027 A 
ATOM     16  C   UNL A   1      32.752  22.222  23.886  1.00  0.00     0.034 A 
ATOM     17  C   UNL A   1      34.824  21.037  25.341  1.00  0.00     0.011 A 
ATOM     18  C   UNL A   1      32.940  20.827  23.822  1.00  0.00    -0.016 A 
ATOM     19  C   UNL A   1      33.941  20.227  24.624  1.00  0.00    -0.018 A 
ATOM     20  C   UNL A   1      32.187  20.008  22.965  1.00  0.00     0.009 A 
ATOM     21  C   UNL A   1      34.071  18.832  24.653  1.00  0.00     0.009 A 
ATOM     22  C   UNL A   1      32.397  18.626  22.933  1.00  0.00     0.001 A 
ATOM     23  C   UNL A   1      33.309  18.035  23.802  1.00  0.00     0.001 A 
ENDBRANCH  12  14
ENDBRANCH   9  10
ENDBRANCH   8   9
BRANCH   8  24
ATOM     24  N   UNL A   1      30.727  26.724  25.440  1.00  0.00    -0.332 N 
ATOM     25  H   UNL A   1      29.943  27.269  25.798  1.00  0.00     0.347 HD
ATOM     26  H   UNL A   1      30.778  25.790  25.847  1.00  0.00     0.347 HD
BRANCH  24  27
ATOM     27  C   UNL A   1      30.539  26.542  23.987  1.00  0.00     0.299 C 
BRANCH  27  28
ATOM     28  C   UNL A   1      29.873  27.696  23.285  1.00  0.00     0.024 A 
ATOM     29  C   UNL A   1      28.489  27.875  23.349  1.00  0.00     0.013 A 
ATOM     30  C   UNL A   1      30.586  28.609  22.512  1.00  0.00     0.120 A 
ATOM     31  C   UNL A   1      27.897  28.950  22.690  1.00  0.00     0.021 A 
ATOM     32  N   UNL A   1      30.043  29.664  21.866  1.00  0.00    -0.264 NA
ATOM     33  C   UNL A   1      28.710  29.817  21.979  1.00  0.00     0.111 A 
ENDBRANCH  27  28
ENDBRANCH  24  27
ENDBRANCH   8  24
ENDBRANCH   5   8
ENDBRANCH   3   4
ENDBRANCH   2   3
ENDBRANCH   1   2
BRANCH   1  34
ATOM     34  C   UNL A   1      34.751  32.755  27.893  1.00  0.00     0.002 C 
BRANCH  34  35
ATOM     35  C   UNL A   1      33.483  33.586  28.100  1.00  0.00     0.021 C 
BRANCH  35  36
ATOM     36  C   UNL A   1      33.744  35.054  28.418  1.00  0.00     0.116 C 
BRANCH  36  37
ATOM     37  N   UNL A   1      33.089  35.461  29.649  1.00  0.00    -0.352 N 
ATOM     38  C   UNL A   1      33.308  35.021  30.933  1.00  0.00     0.251 C 
ATOM     39  H   UNL A   1      32.392  36.149  29.551  1.00  0.00     0.163 HD
ATOM     40  O   UNL A   1      32.505  35.294  31.815  1.00  0.00    -0.269 OA
BRANCH  38  41
ATOM     41  C   UNL A   1      34.503  34.201  31.227  1.00  0.00     0.039 A 
ATOM     42  C   UNL A   1      35.763  34.690  30.876  1.00  0.00     0.014 A 
ATOM     43  C   UNL A   1      34.379  32.957  31.853  1.00  0.00     0.014 A 
ATOM     44  C   UNL A   1      36.904  33.956  31.206  1.00  0.00     0.010 A 
ATOM     45  C   UNL A   1      35.519  32.267  32.253  1.00  0.00     0.010 A 
ATOM     46  C   UNL A   1      36.794  32.757  31.930  1.00  0.00    -0.014 A 
BRANCH  46  47
ATOM     47  C   UNL A   1      38.002  32.001  32.355  1.00  0.00     0.031 A 
ATOM     48  C   UNL A   1      38.695  32.347  33.644  1.00  0.00     0.074 A 
ATOM     49  C   UNL A   1      38.501  31.040  31.553  1.00  0.00     0.049 A 
ATOM     50  N   UNL A   1      39.793  31.849  34.153  1.00  0.00    -0.248 NA
ATOM     51  C   UNL A   1      38.089  33.415  34.452  1.00  0.00     0.031 C 
ATOM     52  C   UNL A   1      37.936  30.639  30.263  1.00  0.00     0.029 A 
ATOM     53  N   UNL A   1      39.599  30.230  31.698  1.00  0.00    -0.354 N 
ATOM     54  C   UNL A   1      40.014  32.547  35.335  1.00  0.00     0.074 A 
ATOM     55  C   UNL A   1      38.974  33.551  35.427  1.00  0.00     0.031 C 
ATOM     56  C   UNL A   1      38.671  29.639  29.752  1.00  0.00     0.029 A 
ATOM     57  C   UNL A   1      39.790  29.363  30.647  1.00  0.00     0.049 A 
ATOM     58  H   UNL A   1      40.196  30.266  32.481  1.00  0.00     0.167 HD
ATOM     59  C   UNL A   1      40.979  32.354  36.268  1.00  0.00     0.034 A 
ATOM     60  C   UNL A   1      40.764  28.457  30.421  1.00  0.00     0.034 A 
ATOM     61  C   UNL A   1      42.008  31.347  36.158  1.00  0.00     0.049 A 
ATOM     62  C   UNL A   1      41.855  28.292  31.449  1.00  0.00     0.074 A 
ATOM     63  C   UNL A   1      43.006  31.031  37.064  1.00  0.00     0.029 A 
ATOM     64  N   UNL A   1      42.181  30.499  35.070  1.00  0.00    -0.354 N 
ATOM     65  N   UNL A   1      42.022  28.928  32.586  1.00  0.00    -0.248 NA
ATOM     66  C   UNL A   1      42.881  27.281  31.167  1.00  0.00     0.031 C 
ATOM     67  C   UNL A   1      43.828  30.056  36.491  1.00  0.00     0.029 A 
ATOM     68  C   UNL A   1      43.291  29.691  35.266  1.00  0.00     0.049 A 
ATOM     69  H   UNL A   1      41.600  30.476  34.276  1.00  0.00     0.167 HD
ATOM     70  C   UNL A   1      43.156  28.367  33.171  1.00  0.00     0.074 A 
ATOM     71  C   UNL A   1      43.619  27.334  32.266  1.00  0.00     0.031 C 
ATOM     72  C   UNL A   1      43.754  28.673  34.350  1.00  0.00     0.034 A 
BRANCH  59  73
ATOM     73  C   UNL A   1      40.979  33.272  37.470  1.00  0.00     0.023 A 
ATOM     74  C   UNL A   1      40.201  32.999  38.609  1.00  0.00     0.031 A 
ATOM     75  C   UNL A   1      41.740  34.454  37.465  1.00  0.00     0.131 A 
ATOM     76  C   UNL A   1      40.133  33.934  39.653  1.00  0.00     0.055 A 
ATOM     77  C   UNL A   1      41.740  35.335  38.548  1.00  0.00     0.041 A 
ATOM     78  F   UNL A   1      42.486  34.783  36.399  1.00  0.00    -0.206 F 
ATOM     79  C   UNL A   1      40.918  35.086  39.643  1.00  0.00     0.022 A 
BRANCH  76  80
ATOM     80  S   UNL A   1      38.875  33.701  40.940  1.00  0.00     0.124 S 
ATOM     81  O   UNL A   1      37.682  33.427  40.139  1.00  0.00    -0.237 OA
ATOM     82  O   UNL A   1      39.405  32.575  41.699  1.00  0.00    -0.237 OA
ATOM     83  O   UNL A   1      38.863  34.981  41.643  1.00  0.00    -0.744 OA
ENDBRANCH  76  80
ENDBRANCH  59  73
BRANCH  60  84
ATOM     84  C   UNL A   1      40.762  27.643  29.171  1.00  0.00     0.023 A 
ATOM     85  C   UNL A   1      41.663  27.915  28.130  1.00  0.00     0.031 A 
ATOM     86  C   UNL A   1      39.833  26.604  28.983  1.00  0.00     0.131 A 
ATOM     87  C   UNL A   1      41.587  27.190  26.931  1.00  0.00     0.055 A 
ATOM     88  C   UNL A   1      39.800  25.845  27.812  1.00  0.00     0.041 A 
ATOM     89  F   UNL A   1      38.950  26.299  29.948  1.00  0.00    -0.206 F 
ATOM     90  C   UNL A   1      40.672  26.146  26.771  1.00  0.00     0.022 A 
BRANCH  87  91
ATOM     91  S   UNL A   1      42.644  27.690  25.544  1.00  0.00     0.124 S 
ATOM     92  O   UNL A   1      41.929  28.852  25.031  1.00  0.00    -0.237 OA
ATOM     93  O   UNL A   1      43.913  27.958  26.212  1.00  0.00    -0.237 OA
ATOM     94  O   UNL A   1      42.637  26.517  24.672  1.00  0.00    -0.744 OA
ENDBRANCH  87  91
ENDBRANCH  60  84
BRANCH  72  95
ATOM     95  C   UNL A   1      44.951  27.843  34.751  1.00  0.00     0.023 A 
ATOM     96  C   UNL A   1      44.816  26.625  35.439  1.00  0.00     0.031 A 
ATOM     97  C   UNL A   1      46.251  28.287  34.444  1.00  0.00     0.131 A 
ATOM     98  C   UNL A   1      45.959  25.923  35.851  1.00  0.00     0.055 A 
ATOM     99  C   UNL A   1      47.382  27.549  34.795  1.00  0.00     0.041 A 
ATOM    100  F   UNL A   1      46.443  29.446  33.794  1.00  0.00    -0.206 F 
ATOM    101  C   UNL A   1      47.242  26.367  35.514  1.00  0.00     0.022 A 
BRANCH  98 102
ATOM    102  S   UNL A   1      45.754  24.475  36.923  1.00  0.00     0.124 S 
ATOM    103  O   UNL A   1      46.617  24.809  38.051  1.00  0.00    -0.237 OA
ATOM    104  O   UNL A   1      44.319  24.488  37.194  1.00  0.00    -0.237 OA
ATOM    105  O   UNL A   1      46.218  23.365  36.094  1.00  0.00    -0.744 OA
ENDBRANCH  98 102
ENDBRANCH  72  95
ENDBRANCH  46  47
ENDBRANCH  38  41
ENDBRANCH  36  37
ENDBRANCH  35  36
ENDBRANCH  34  35
ENDBRANCH   1  34
TORSDOF 22
ENDMDL
