MODEL 1
REMARK VINA RESULT:     -12.5      0.000      0.000
REMARK SMILES O=C(NCCCCCCNC(=O)c1ccc(-n2cc(CSc3nc4ccccc4c(=O)n3-c3ccc(Br)cc3)nn2)cc1)c1ccc(-c2c3nc(c(-c4cc(S(=O)(=O)[O-])ccc4F)c4ccc([nH]4)c(-c4cc(S(=O)(=O)[O-])ccc4F)c4nc(c(-c5cc(S(=O)(=O)[O-])ccc5F)c5ccc2[nH]5)C=C4)C=C3)cc1
REMARK SMILES IDX 7 1 6 2 5 3 4 4 3 5 1 6 2 7 44 9 45 10 106 11 46 12 105 13
REMARK SMILES IDX 47 14 48 15 49 16 99 17 50 18 104 19 98 20 100 21 51 22
REMARK SMILES IDX 103 23 97 24 96 25 52 27 84 28 64 29 83 30 65 31 68 32 82 33
REMARK SMILES IDX 101 34 66 35 67 36 81 38 102 39 69 40 53 41 54 42 62 43
REMARK SMILES IDX 55 44 61 45 63 46 60 47 56 48 57 49 58 50 59 51 85 52 86 53
REMARK SMILES IDX 94 54 87 55 93 56 95 57 92 58 88 59 89 60 90 61 91 62 70 63
REMARK SMILES IDX 71 64 79 65 72 66 78 67 80 68 77 69 73 70 74 71 75 72 76 73
REMARK SMILES IDX 8 74 9 75 10 76 11 77 12 79 13 80 14 81 43 82 15 83 42 84
REMARK SMILES IDX 16 85 17 86 18 87 41 88 19 89 40 90 20 91 21 92 22 93 23 94
REMARK SMILES IDX 32 95 24 96 30 97 25 98 29 99 31 100 26 101 28 102 27 103
REMARK SMILES IDX 33 104 34 105 39 106 35 107 38 108 36 109 37 110
REMARK H PARENT 3 8 100 26 68 37 10 78
REMARK Flexibility Score: inf
ROOT
ATOM      1  C   UNL A   1      32.443  27.070  25.640  1.00  0.00     0.002 C 
ENDROOT
BRANCH   1   2
ATOM      2  C   UNL A   1      33.348  27.747  26.678  1.00  0.00     0.002 C 
BRANCH   2   3
ATOM      3  C   UNL A   1      34.281  28.844  26.147  1.00  0.00     0.021 C 
BRANCH   3   4
ATOM      4  C   UNL A   1      35.091  29.572  27.218  1.00  0.00     0.116 C 
BRANCH   4   5
ATOM      5  N   UNL A   1      34.930  31.010  27.207  1.00  0.00    -0.352 N 
ATOM      6  O   UNL A   1      35.168  33.182  27.508  1.00  0.00    -0.269 OA
ATOM      7  C   UNL A   1      35.504  32.054  27.880  1.00  0.00     0.251 C 
ATOM      8  H   UNL A   1      34.246  31.308  26.564  1.00  0.00     0.163 HD
BRANCH   7   9
ATOM      9  C   UNL A   1      36.442  31.929  29.032  1.00  0.00     0.039 A 
ATOM     10  C   UNL A   1      36.392  30.956  30.032  1.00  0.00     0.014 A 
ATOM     11  C   UNL A   1      37.471  32.889  29.089  1.00  0.00     0.014 A 
ATOM     12  C   UNL A   1      37.301  30.984  31.091  1.00  0.00     0.010 A 
ATOM     13  C   UNL A   1      38.388  32.914  30.138  1.00  0.00     0.010 A 
ATOM     14  C   UNL A   1      38.288  31.973  31.159  1.00  0.00    -0.014 A 
BRANCH  14  15
ATOM     15  C   UNL A   1      39.298  31.885  32.219  1.00  0.00     0.031 A 
ATOM     16  C   UNL A   1      38.893  32.498  33.522  1.00  0.00     0.074 A 
ATOM     17  C   UNL A   1      40.447  31.183  32.126  1.00  0.00     0.049 A 
ATOM     18  N   UNL A   1      39.472  33.451  34.178  1.00  0.00    -0.248 NA
ATOM     19  C   UNL A   1      37.624  32.055  34.123  1.00  0.00     0.031 C 
ATOM     20  C   UNL A   1      40.880  30.299  31.041  1.00  0.00     0.029 A 
ATOM     21  N   UNL A   1      41.444  31.042  33.049  1.00  0.00    -0.354 N 
ATOM     22  C   UNL A   1      38.752  33.610  35.362  1.00  0.00     0.074 A 
ATOM     23  C   UNL A   1      37.558  32.820  35.213  1.00  0.00     0.031 C 
ATOM     24  C   UNL A   1      41.933  29.557  31.459  1.00  0.00     0.029 A 
ATOM     25  C   UNL A   1      42.336  30.005  32.783  1.00  0.00     0.049 A 
ATOM     26  H   UNL A   1      41.526  31.627  33.837  1.00  0.00     0.167 HD
ATOM     27  C   UNL A   1      39.270  34.254  36.448  1.00  0.00     0.034 A 
ATOM     28  C   UNL A   1      43.306  29.516  33.604  1.00  0.00     0.034 A 
ATOM     29  C   UNL A   1      40.374  35.103  36.076  1.00  0.00     0.049 A 
ATOM     30  C   UNL A   1      43.619  30.576  34.591  1.00  0.00     0.074 A 
ATOM     31  C   UNL A   1      40.508  36.195  35.239  1.00  0.00     0.029 A 
ATOM     32  N   UNL A   1      41.655  34.657  36.296  1.00  0.00    -0.354 N 
ATOM     33  N   UNL A   1      44.165  31.715  34.269  1.00  0.00    -0.248 NA
ATOM     34  C   UNL A   1      42.902  30.569  35.856  1.00  0.00     0.031 C 
ATOM     35  C   UNL A   1      41.763  36.002  34.588  1.00  0.00     0.029 A 
ATOM     36  C   UNL A   1      42.349  34.853  35.125  1.00  0.00     0.049 A 
ATOM     37  H   UNL A   1      42.008  34.271  37.130  1.00  0.00     0.167 HD
ATOM     38  C   UNL A   1      43.507  32.658  35.041  1.00  0.00     0.074 A 
ATOM     39  C   UNL A   1      42.810  31.885  36.067  1.00  0.00     0.031 C 
ATOM     40  C   UNL A   1      43.366  33.950  34.618  1.00  0.00     0.034 A 
BRANCH  27  41
ATOM     41  C   UNL A   1      38.958  33.913  37.888  1.00  0.00     0.023 A 
ATOM     42  C   UNL A   1      38.329  32.681  38.167  1.00  0.00     0.031 A 
ATOM     43  C   UNL A   1      38.995  34.836  38.958  1.00  0.00     0.131 A 
ATOM     44  C   UNL A   1      37.727  32.440  39.417  1.00  0.00     0.055 A 
ATOM     45  C   UNL A   1      38.453  34.568  40.218  1.00  0.00     0.041 A 
ATOM     46  F   UNL A   1      39.470  36.080  38.819  1.00  0.00    -0.206 F 
ATOM     47  C   UNL A   1      37.790  33.375  40.447  1.00  0.00     0.022 A 
BRANCH  44  48
ATOM     48  S   UNL A   1      36.709  30.953  39.624  1.00  0.00     0.124 S 
ATOM     49  O   UNL A   1      37.015  30.208  38.409  1.00  0.00    -0.237 OA
ATOM     50  O   UNL A   1      37.234  30.400  40.868  1.00  0.00    -0.237 OA
ATOM     51  O   UNL A   1      35.348  31.481  39.704  1.00  0.00    -0.744 OA
ENDBRANCH  44  48
ENDBRANCH  27  41
BRANCH  28  52
ATOM     52  C   UNL A   1      43.699  28.088  33.790  1.00  0.00     0.023 A 
ATOM     53  C   UNL A   1      43.073  27.223  34.715  1.00  0.00     0.031 A 
ATOM     54  C   UNL A   1      44.560  27.486  32.845  1.00  0.00     0.131 A 
ATOM     55  C   UNL A   1      43.324  25.827  34.671  1.00  0.00     0.055 A 
ATOM     56  C   UNL A   1      44.804  26.112  32.806  1.00  0.00     0.041 A 
ATOM     57  F   UNL A   1      45.127  28.208  31.865  1.00  0.00    -0.206 F 
ATOM     58  C   UNL A   1      44.180  25.275  33.716  1.00  0.00     0.022 A 
BRANCH  55  59
ATOM     59  S   UNL A   1      42.468  24.687  35.809  1.00  0.00     0.124 S 
ATOM     60  O   UNL A   1      43.058  25.031  37.098  1.00  0.00    -0.237 OA
ATOM     61  O   UNL A   1      41.067  25.044  35.620  1.00  0.00    -0.237 OA
ATOM     62  O   UNL A   1      42.833  23.361  35.306  1.00  0.00    -0.744 OA
ENDBRANCH  55  59
ENDBRANCH  28  52
BRANCH  40  63
ATOM     63  C   UNL A   1      44.156  34.406  33.404  1.00  0.00     0.023 A 
ATOM     64  C   UNL A   1      43.712  34.302  32.064  1.00  0.00     0.031 A 
ATOM     65  C   UNL A   1      45.365  35.086  33.633  1.00  0.00     0.131 A 
ATOM     66  C   UNL A   1      44.478  34.855  31.018  1.00  0.00     0.055 A 
ATOM     67  C   UNL A   1      46.110  35.653  32.599  1.00  0.00     0.041 A 
ATOM     68  F   UNL A   1      45.829  35.246  34.884  1.00  0.00    -0.206 F 
ATOM     69  C   UNL A   1      45.672  35.534  31.285  1.00  0.00     0.022 A 
BRANCH  66  70
ATOM     70  S   UNL A   1      43.944  34.696  29.282  1.00  0.00     0.124 S 
ATOM     71  O   UNL A   1      42.505  34.487  29.383  1.00  0.00    -0.237 OA
ATOM     72  O   UNL A   1      44.370  35.967  28.702  1.00  0.00    -0.237 OA
ATOM     73  O   UNL A   1      44.695  33.533  28.801  1.00  0.00    -0.744 OA
ENDBRANCH  66  70
ENDBRANCH  40  63
ENDBRANCH  14  15
ENDBRANCH   7   9
ENDBRANCH   4   5
ENDBRANCH   3   4
ENDBRANCH   2   3
ENDBRANCH   1   2
BRANCH   1  74
ATOM     74  C   UNL A   1      31.042  26.690  26.126  1.00  0.00     0.021 C 
BRANCH  74  75
ATOM     75  C   UNL A   1      30.432  25.469  25.441  1.00  0.00     0.116 C 
BRANCH  75  76
ATOM     76  N   UNL A   1      29.795  24.570  26.389  1.00  0.00    -0.352 N 
ATOM     77  C   UNL A   1      30.234  23.363  26.875  1.00  0.00     0.251 C 
ATOM     78  H   UNL A   1      28.922  24.869  26.733  1.00  0.00     0.163 HD
ATOM     79  O   UNL A   1      29.506  22.653  27.555  1.00  0.00    -0.269 OA
BRANCH  77  80
ATOM     80  C   UNL A   1      31.599  22.904  26.547  1.00  0.00     0.039 A 
ATOM     81  C   UNL A   1      32.672  23.414  27.282  1.00  0.00     0.016 A 
ATOM     82  C   UNL A   1      31.818  21.995  25.509  1.00  0.00     0.016 A 
ATOM     83  C   UNL A   1      33.969  22.966  27.024  1.00  0.00     0.029 A 
ATOM     84  C   UNL A   1      33.115  21.560  25.233  1.00  0.00     0.029 A 
ATOM     85  C   UNL A   1      34.195  22.049  25.989  1.00  0.00     0.066 A 
BRANCH  85  86
ATOM     86  N   UNL A   1      35.520  21.671  25.672  1.00  0.00    -0.220 N 
ATOM     87  C   UNL A   1      36.674  22.296  26.061  1.00  0.00     0.141 A 
ATOM     88  N   UNL A   1      35.834  20.578  24.937  1.00  0.00    -0.062 NA
ATOM     89  C   UNL A   1      37.701  21.501  25.603  1.00  0.00     0.093 A 
ATOM     90  N   UNL A   1      37.160  20.485  24.866  1.00  0.00    -0.134 NA
BRANCH  89  91
ATOM     91  C   UNL A   1      39.155  21.757  25.662  1.00  0.00     0.138 C 
BRANCH  91  92
ATOM     92  S   UNL A   1      39.981  22.267  27.172  1.00  0.00    -0.081 SA
BRANCH  92  93
ATOM     93  C   UNL A   1      40.453  23.948  27.140  1.00  0.00     0.176 A 
ATOM     94  N   UNL A   1      39.690  24.662  27.914  1.00  0.00    -0.223 NA
ATOM     95  N   UNL A   1      41.515  24.505  26.433  1.00  0.00    -0.255 N 
ATOM     96  C   UNL A   1      39.863  26.047  27.949  1.00  0.00     0.079 A 
ATOM     97  C   UNL A   1      41.299  25.829  26.009  1.00  0.00     0.266 A 
ATOM     98  C   UNL A   1      39.273  26.813  28.955  1.00  0.00     0.029 A 
ATOM     99  C   UNL A   1      40.526  26.690  26.918  1.00  0.00     0.066 A 
ATOM    100  O   UNL A   1      41.672  26.325  24.947  1.00  0.00    -0.268 OA
ATOM    101  C   UNL A   1      39.285  28.211  28.878  1.00  0.00     0.002 A 
ATOM    102  C   UNL A   1      40.505  28.084  26.799  1.00  0.00     0.016 A 
ATOM    103  C   UNL A   1      39.869  28.845  27.780  1.00  0.00     0.001 A 
BRANCH  95 104
ATOM    104  C   UNL A   1      42.770  23.859  26.065  1.00  0.00     0.051 A 
ATOM    105  C   UNL A   1      43.017  23.478  24.730  1.00  0.00     0.028 A 
ATOM    106  C   UNL A   1      43.819  23.599  26.959  1.00  0.00     0.028 A 
ATOM    107  C   UNL A   1      44.106  22.677  24.362  1.00  0.00     0.018 A 
ATOM    108  C   UNL A   1      44.883  22.748  26.621  1.00  0.00     0.018 A 
ATOM    109  C   UNL A   1      44.997  22.253  25.331  1.00  0.00     0.018 A 
ATOM    110  Br  UNL A   1      46.338  21.000  24.905  1.00  0.00    -0.051 Br
ENDBRANCH  95 104
ENDBRANCH  92  93
ENDBRANCH  91  92
ENDBRANCH  89  91
ENDBRANCH  85  86
ENDBRANCH  77  80
ENDBRANCH  75  76
ENDBRANCH  74  75
ENDBRANCH   1  74
TORSDOF 21
ENDMDL
MODEL 2
REMARK VINA RESULT:     -12.1      2.018      2.278
REMARK SMILES O=C(NCCCCCCNC(=O)c1ccc(-n2cc(CSc3nc4ccccc4c(=O)n3-c3ccc(Br)cc3)nn2)cc1)c1ccc(-c2c3nc(c(-c4cc(S(=O)(=O)[O-])ccc4F)c4ccc([nH]4)c(-c4cc(S(=O)(=O)[O-])ccc4F)c4nc(c(-c5cc(S(=O)(=O)[O-])ccc5F)c5ccc2[nH]5)C=C4)C=C3)cc1
REMARK SMILES IDX 7 1 6 2 5 3 4 4 3 5 1 6 2 7 44 9 45 10 106 11 46 12 105 13
REMARK SMILES IDX 47 14 48 15 49 16 99 17 50 18 104 19 98 20 100 21 51 22
REMARK SMILES IDX 103 23 97 24 96 25 52 27 84 28 64 29 83 30 65 31 68 32 82 33
REMARK SMILES IDX 101 34 66 35 67 36 81 38 102 39 69 40 53 41 54 42 62 43
REMARK SMILES IDX 55 44 61 45 63 46 60 47 56 48 57 49 58 50 59 51 85 52 86 53
REMARK SMILES IDX 94 54 87 55 93 56 95 57 92 58 88 59 89 60 90 61 91 62 70 63
REMARK SMILES IDX 71 64 79 65 72 66 78 67 80 68 77 69 73 70 74 71 75 72 76 73
REMARK SMILES IDX 8 74 9 75 10 76 11 77 12 79 13 80 14 81 43 82 15 83 42 84
REMARK SMILES IDX 16 85 17 86 18 87 41 88 19 89 40 90 20 91 21 92 22 93 23 94
REMARK SMILES IDX 32 95 24 96 30 97 25 98 29 99 31 100 26 101 28 102 27 103
REMARK SMILES IDX 33 104 34 105 39 106 35 107 38 108 36 109 37 110
REMARK H PARENT 3 8 100 26 68 37 10 78
REMARK Flexibility Score: inf
ROOT
ATOM      1  C   UNL A   1      32.227  27.281  25.686  1.00  0.00     0.002 C 
ENDROOT
BRANCH   1   2
ATOM      2  C   UNL A   1      33.169  27.880  26.739  1.00  0.00     0.002 C 
BRANCH   2   3
ATOM      3  C   UNL A   1      34.428  28.576  26.202  1.00  0.00     0.021 C 
BRANCH   3   4
ATOM      4  C   UNL A   1      35.266  29.292  27.258  1.00  0.00     0.116 C 
BRANCH   4   5
ATOM      5  N   UNL A   1      35.175  30.736  27.207  1.00  0.00    -0.352 N 
ATOM      6  O   UNL A   1      35.504  32.900  27.471  1.00  0.00    -0.269 OA
ATOM      7  C   UNL A   1      35.766  31.767  27.885  1.00  0.00     0.251 C 
ATOM      8  H   UNL A   1      34.540  31.050  26.524  1.00  0.00     0.163 HD
BRANCH   7   9
ATOM      9  C   UNL A   1      36.638  31.626  29.085  1.00  0.00     0.039 A 
ATOM     10  C   UNL A   1      36.465  30.712  30.125  1.00  0.00     0.014 A 
ATOM     11  C   UNL A   1      37.738  32.505  29.148  1.00  0.00     0.014 A 
ATOM     12  C   UNL A   1      37.326  30.721  31.225  1.00  0.00     0.010 A 
ATOM     13  C   UNL A   1      38.606  32.510  30.237  1.00  0.00     0.010 A 
ATOM     14  C   UNL A   1      38.385  31.632  31.295  1.00  0.00    -0.014 A 
BRANCH  14  15
ATOM     15  C   UNL A   1      39.336  31.517  32.405  1.00  0.00     0.031 A 
ATOM     16  C   UNL A   1      39.099  32.470  33.534  1.00  0.00     0.074 A 
ATOM     17  C   UNL A   1      40.268  30.547  32.519  1.00  0.00     0.049 A 
ATOM     18  N   UNL A   1      39.901  33.363  34.016  1.00  0.00    -0.248 NA
ATOM     19  C   UNL A   1      37.758  32.493  34.140  1.00  0.00     0.031 C 
ATOM     20  C   UNL A   1      40.462  29.376  31.661  1.00  0.00     0.029 A 
ATOM     21  N   UNL A   1      41.194  30.357  33.506  1.00  0.00    -0.354 N 
ATOM     22  C   UNL A   1      39.244  33.941  35.102  1.00  0.00     0.074 A 
ATOM     23  C   UNL A   1      37.888  33.462  35.048  1.00  0.00     0.031 C 
ATOM     24  C   UNL A   1      41.289  28.499  32.278  1.00  0.00     0.029 A 
ATOM     25  C   UNL A   1      41.790  29.098  33.504  1.00  0.00     0.049 A 
ATOM     26  H   UNL A   1      41.420  31.054  34.164  1.00  0.00     0.167 HD
ATOM     27  C   UNL A   1      39.907  34.647  36.062  1.00  0.00     0.034 A 
ATOM     28  C   UNL A   1      42.601  28.564  34.460  1.00  0.00     0.034 A 
ATOM     29  C   UNL A   1      41.192  35.096  35.589  1.00  0.00     0.049 A 
ATOM     30  C   UNL A   1      43.173  29.695  35.229  1.00  0.00     0.074 A 
ATOM     31  C   UNL A   1      41.603  35.920  34.558  1.00  0.00     0.029 A 
ATOM     32  N   UNL A   1      42.316  34.400  35.965  1.00  0.00    -0.354 N 
ATOM     33  N   UNL A   1      43.993  30.568  34.715  1.00  0.00    -0.248 NA
ATOM     34  C   UNL A   1      42.476  30.132  36.427  1.00  0.00     0.031 C 
ATOM     35  C   UNL A   1      42.768  35.288  34.030  1.00  0.00     0.029 A 
ATOM     36  C   UNL A   1      43.039  34.168  34.819  1.00  0.00     0.049 A 
ATOM     37  H   UNL A   1      42.556  34.121  36.878  1.00  0.00     0.167 HD
ATOM     38  C   UNL A   1      43.597  31.785  35.243  1.00  0.00     0.074 A 
ATOM     39  C   UNL A   1      42.722  31.442  36.363  1.00  0.00     0.031 C 
ATOM     40  C   UNL A   1      43.792  32.954  34.562  1.00  0.00     0.034 A 
BRANCH  27  41
ATOM     41  C   UNL A   1      39.515  34.704  37.522  1.00  0.00     0.023 A 
ATOM     42  C   UNL A   1      39.429  35.967  38.147  1.00  0.00     0.031 A 
ATOM     43  C   UNL A   1      39.487  33.590  38.391  1.00  0.00     0.131 A 
ATOM     44  C   UNL A   1      39.388  36.082  39.549  1.00  0.00     0.055 A 
ATOM     45  C   UNL A   1      39.381  33.706  39.780  1.00  0.00     0.041 A 
ATOM     46  F   UNL A   1      39.657  32.335  37.957  1.00  0.00    -0.206 F 
ATOM     47  C   UNL A   1      39.358  34.957  40.370  1.00  0.00     0.022 A 
BRANCH  44  48
ATOM     48  S   UNL A   1      39.546  37.727  40.296  1.00  0.00     0.124 S 
ATOM     49  O   UNL A   1      40.931  38.064  39.989  1.00  0.00    -0.237 OA
ATOM     50  O   UNL A   1      38.525  38.483  39.579  1.00  0.00    -0.237 OA
ATOM     51  O   UNL A   1      39.264  37.486  41.710  1.00  0.00    -0.744 OA
ENDBRANCH  44  48
ENDBRANCH  27  41
BRANCH  28  52
ATOM     52  C   UNL A   1      42.615  27.156  34.950  1.00  0.00     0.023 A 
ATOM     53  C   UNL A   1      43.572  26.199  34.543  1.00  0.00     0.031 A 
ATOM     54  C   UNL A   1      41.801  26.805  36.051  1.00  0.00     0.131 A 
ATOM     55  C   UNL A   1      43.678  24.959  35.224  1.00  0.00     0.055 A 
ATOM     56  C   UNL A   1      41.909  25.583  36.718  1.00  0.00     0.041 A 
ATOM     57  F   UNL A   1      40.928  27.680  36.574  1.00  0.00    -0.206 F 
ATOM     58  C   UNL A   1      42.854  24.656  36.311  1.00  0.00     0.022 A 
BRANCH  55  59
ATOM     59  S   UNL A   1      44.956  23.743  34.758  1.00  0.00     0.124 S 
ATOM     60  O   UNL A   1      44.379  23.121  33.572  1.00  0.00    -0.237 OA
ATOM     61  O   UNL A   1      46.129  24.584  34.546  1.00  0.00    -0.237 OA
ATOM     62  O   UNL A   1      45.038  22.867  35.929  1.00  0.00    -0.744 OA
ENDBRANCH  55  59
ENDBRANCH  28  52
BRANCH  40  63
ATOM     63  C   UNL A   1      44.675  32.933  33.326  1.00  0.00     0.023 A 
ATOM     64  C   UNL A   1      44.252  32.534  32.036  1.00  0.00     0.031 A 
ATOM     65  C   UNL A   1      45.974  33.459  33.447  1.00  0.00     0.131 A 
ATOM     66  C   UNL A   1      45.124  32.657  30.935  1.00  0.00     0.055 A 
ATOM     67  C   UNL A   1      46.826  33.600  32.353  1.00  0.00     0.041 A 
ATOM     68  F   UNL A   1      46.428  33.884  34.639  1.00  0.00    -0.206 F 
ATOM     69  C   UNL A   1      46.406  33.193  31.091  1.00  0.00     0.022 A 
BRANCH  66  70
ATOM     70  S   UNL A   1      44.613  32.110  29.272  1.00  0.00     0.124 S 
ATOM     71  O   UNL A   1      43.198  32.456  29.217  1.00  0.00    -0.237 OA
ATOM     72  O   UNL A   1      45.497  32.878  28.400  1.00  0.00    -0.237 OA
ATOM     73  O   UNL A   1      44.887  30.670  29.289  1.00  0.00    -0.744 OA
ENDBRANCH  66  70
ENDBRANCH  40  63
ENDBRANCH  14  15
ENDBRANCH   7   9
ENDBRANCH   4   5
ENDBRANCH   3   4
ENDBRANCH   2   3
ENDBRANCH   1   2
BRANCH   1  74
ATOM     74  C   UNL A   1      30.890  26.753  26.212  1.00  0.00     0.021 C 
BRANCH  74  75
ATOM     75  C   UNL A   1      30.359  25.515  25.492  1.00  0.00     0.116 C 
BRANCH  75  76
ATOM     76  N   UNL A   1      29.709  24.587  26.403  1.00  0.00    -0.352 N 
ATOM     77  C   UNL A   1      30.140  23.364  26.854  1.00  0.00     0.251 C 
ATOM     78  H   UNL A   1      28.833  24.878  26.747  1.00  0.00     0.163 HD
ATOM     79  O   UNL A   1      29.402  22.634  27.503  1.00  0.00    -0.269 OA
BRANCH  77  80
ATOM     80  C   UNL A   1      31.507  22.912  26.527  1.00  0.00     0.039 A 
ATOM     81  C   UNL A   1      32.580  23.450  27.243  1.00  0.00     0.016 A 
ATOM     82  C   UNL A   1      31.729  21.982  25.508  1.00  0.00     0.016 A 
ATOM     83  C   UNL A   1      33.880  23.010  26.985  1.00  0.00     0.029 A 
ATOM     84  C   UNL A   1      33.029  21.555  25.233  1.00  0.00     0.029 A 
ATOM     85  C   UNL A   1      34.108  22.072  25.970  1.00  0.00     0.066 A 
BRANCH  85  86
ATOM     86  N   UNL A   1      35.435  21.701  25.652  1.00  0.00    -0.220 N 
ATOM     87  C   UNL A   1      36.585  22.357  26.003  1.00  0.00     0.141 A 
ATOM     88  N   UNL A   1      35.756  20.585  24.955  1.00  0.00    -0.062 NA
ATOM     89  C   UNL A   1      37.617  21.560  25.563  1.00  0.00     0.093 A 
ATOM     90  N   UNL A   1      37.082  20.508  24.872  1.00  0.00    -0.134 NA
BRANCH  89  91
ATOM     91  C   UNL A   1      39.068  21.838  25.596  1.00  0.00     0.138 C 
BRANCH  91  92
ATOM     92  S   UNL A   1      39.922  22.316  27.100  1.00  0.00    -0.081 SA
BRANCH  92  93
ATOM     93  C   UNL A   1      40.414  23.992  27.085  1.00  0.00     0.176 A 
ATOM     94  N   UNL A   1      39.640  24.711  27.845  1.00  0.00    -0.223 NA
ATOM     95  N   UNL A   1      41.498  24.539  26.405  1.00  0.00    -0.255 N 
ATOM     96  C   UNL A   1      39.827  26.093  27.889  1.00  0.00     0.079 A 
ATOM     97  C   UNL A   1      41.306  25.867  25.982  1.00  0.00     0.266 A 
ATOM     98  C   UNL A   1      39.223  26.863  28.884  1.00  0.00     0.029 A 
ATOM     99  C   UNL A   1      40.522  26.733  26.876  1.00  0.00     0.066 A 
ATOM    100  O   UNL A   1      41.710  26.362  24.930  1.00  0.00    -0.268 OA
ATOM    101  C   UNL A   1      39.252  28.260  28.813  1.00  0.00     0.002 A 
ATOM    102  C   UNL A   1      40.519  28.128  26.762  1.00  0.00     0.016 A 
ATOM    103  C   UNL A   1      39.868  28.892  27.731  1.00  0.00     0.001 A 
BRANCH  95 104
ATOM    104  C   UNL A   1      42.754  23.881  26.065  1.00  0.00     0.051 A 
ATOM    105  C   UNL A   1      43.016  23.477  24.739  1.00  0.00     0.028 A 
ATOM    106  C   UNL A   1      43.789  23.629  26.976  1.00  0.00     0.028 A 
ATOM    107  C   UNL A   1      44.106  22.665  24.398  1.00  0.00     0.018 A 
ATOM    108  C   UNL A   1      44.853  22.767  26.666  1.00  0.00     0.018 A 
ATOM    109  C   UNL A   1      44.981  22.251  25.385  1.00  0.00     0.018 A 
ATOM    110  Br  UNL A   1      46.320  20.985  24.997  1.00  0.00    -0.051 Br
ENDBRANCH  95 104
ENDBRANCH  92  93
ENDBRANCH  91  92
ENDBRANCH  89  91
ENDBRANCH  85  86
ENDBRANCH  77  80
ENDBRANCH  75  76
ENDBRANCH  74  75
ENDBRANCH   1  74
TORSDOF 21
ENDMDL
MODEL 3
REMARK VINA RESULT:     -12.0      3.245      4.717
REMARK SMILES O=C(NCCCCCCNC(=O)c1ccc(-n2cc(CSc3nc4ccccc4c(=O)n3-c3ccc(Br)cc3)nn2)cc1)c1ccc(-c2c3nc(c(-c4cc(S(=O)(=O)[O-])ccc4F)c4ccc([nH]4)c(-c4cc(S(=O)(=O)[O-])ccc4F)c4nc(c(-c5cc(S(=O)(=O)[O-])ccc5F)c5ccc2[nH]5)C=C4)C=C3)cc1
REMARK SMILES IDX 7 1 6 2 5 3 4 4 3 5 1 6 2 7 44 9 45 10 106 11 46 12 105 13
REMARK SMILES IDX 47 14 48 15 49 16 99 17 50 18 104 19 98 20 100 21 51 22
REMARK SMILES IDX 103 23 97 24 96 25 52 27 84 28 64 29 83 30 65 31 68 32 82 33
REMARK SMILES IDX 101 34 66 35 67 36 81 38 102 39 69 40 53 41 54 42 62 43
REMARK SMILES IDX 55 44 61 45 63 46 60 47 56 48 57 49 58 50 59 51 85 52 86 53
REMARK SMILES IDX 94 54 87 55 93 56 95 57 92 58 88 59 89 60 90 61 91 62 70 63
REMARK SMILES IDX 71 64 79 65 72 66 78 67 80 68 77 69 73 70 74 71 75 72 76 73
REMARK SMILES IDX 8 74 9 75 10 76 11 77 12 79 13 80 14 81 43 82 15 83 42 84
REMARK SMILES IDX 16 85 17 86 18 87 41 88 19 89 40 90 20 91 21 92 22 93 23 94
REMARK SMILES IDX 32 95 24 96 30 97 25 98 29 99 31 100 26 101 28 102 27 103
REMARK SMILES IDX 33 104 34 105 39 106 35 107 38 108 36 109 37 110
REMARK H PARENT 3 8 100 26 68 37 10 78
REMARK Flexibility Score: inf
ROOT
ATOM      1  C   UNL A   1      32.173  27.817  25.999  1.00  0.00     0.002 C 
ENDROOT
BRANCH   1   2
ATOM      2  C   UNL A   1      33.211  28.539  26.868  1.00  0.00     0.002 C 
BRANCH   2   3
ATOM      3  C   UNL A   1      33.188  30.073  26.816  1.00  0.00     0.021 C 
BRANCH   3   4
ATOM      4  C   UNL A   1      34.294  30.760  27.613  1.00  0.00     0.116 C 
BRANCH   4   5
ATOM      5  N   UNL A   1      33.847  31.899  28.386  1.00  0.00    -0.352 N 
ATOM      6  O   UNL A   1      33.728  33.664  29.702  1.00  0.00    -0.269 OA
ATOM      7  C   UNL A   1      34.406  32.695  29.348  1.00  0.00     0.251 C 
ATOM      8  H   UNL A   1      32.925  32.164  28.167  1.00  0.00     0.163 HD
BRANCH   7   9
ATOM      9  C   UNL A   1      35.717  32.454  30.016  1.00  0.00     0.039 A 
ATOM     10  C   UNL A   1      35.910  31.814  31.241  1.00  0.00     0.014 A 
ATOM     11  C   UNL A   1      36.852  32.920  29.322  1.00  0.00     0.014 A 
ATOM     12  C   UNL A   1      37.191  31.702  31.785  1.00  0.00     0.010 A 
ATOM     13  C   UNL A   1      38.132  32.800  29.855  1.00  0.00     0.010 A 
ATOM     14  C   UNL A   1      38.302  32.212  31.106  1.00  0.00    -0.014 A 
BRANCH  14  15
ATOM     15  C   UNL A   1      39.638  31.956  31.655  1.00  0.00     0.031 A 
ATOM     16  C   UNL A   1      40.320  33.158  32.228  1.00  0.00     0.074 A 
ATOM     17  C   UNL A   1      40.186  30.731  31.799  1.00  0.00     0.049 A 
ATOM     18  N   UNL A   1      41.455  33.679  31.889  1.00  0.00    -0.248 NA
ATOM     19  C   UNL A   1      39.596  33.935  33.247  1.00  0.00     0.031 C 
ATOM     20  C   UNL A   1      39.562  29.428  31.556  1.00  0.00     0.029 A 
ATOM     21  N   UNL A   1      41.414  30.392  32.294  1.00  0.00    -0.354 N 
ATOM     22  C   UNL A   1      41.682  34.739  32.766  1.00  0.00     0.074 A 
ATOM     23  C   UNL A   1      40.452  34.930  33.489  1.00  0.00     0.031 C 
ATOM     24  C   UNL A   1      40.328  28.454  32.101  1.00  0.00     0.029 A 
ATOM     25  C   UNL A   1      41.557  29.043  32.609  1.00  0.00     0.049 A 
ATOM     26  H   UNL A   1      42.138  31.048  32.416  1.00  0.00     0.167 HD
ATOM     27  C   UNL A   1      42.921  35.280  32.948  1.00  0.00     0.034 A 
ATOM     28  C   UNL A   1      42.587  28.454  33.279  1.00  0.00     0.034 A 
ATOM     29  C   UNL A   1      43.797  34.966  31.847  1.00  0.00     0.049 A 
ATOM     30  C   UNL A   1      43.759  29.352  33.157  1.00  0.00     0.074 A 
ATOM     31  C   UNL A   1      43.770  35.231  30.491  1.00  0.00     0.029 A 
ATOM     32  N   UNL A   1      44.713  33.953  32.000  1.00  0.00    -0.354 N 
ATOM     33  N   UNL A   1      44.354  29.602  32.024  1.00  0.00    -0.248 NA
ATOM     34  C   UNL A   1      43.979  30.338  34.202  1.00  0.00     0.031 C 
ATOM     35  C   UNL A   1      44.239  34.032  29.877  1.00  0.00     0.029 A 
ATOM     36  C   UNL A   1      44.595  33.144  30.894  1.00  0.00     0.049 A 
ATOM     37  H   UNL A   1      45.333  33.830  32.754  1.00  0.00     0.167 HD
ATOM     38  C   UNL A   1      44.649  30.954  32.065  1.00  0.00     0.074 A 
ATOM     39  C   UNL A   1      44.482  31.333  33.467  1.00  0.00     0.031 C 
ATOM     40  C   UNL A   1      44.734  31.699  30.922  1.00  0.00     0.034 A 
BRANCH  27  41
ATOM     41  C   UNL A   1      43.428  35.867  34.247  1.00  0.00     0.023 A 
ATOM     42  C   UNL A   1      43.720  34.989  35.313  1.00  0.00     0.031 A 
ATOM     43  C   UNL A   1      43.382  37.239  34.581  1.00  0.00     0.131 A 
ATOM     44  C   UNL A   1      43.882  35.471  36.626  1.00  0.00     0.055 A 
ATOM     45  C   UNL A   1      43.608  37.719  35.874  1.00  0.00     0.041 A 
ATOM     46  F   UNL A   1      43.022  38.182  33.701  1.00  0.00    -0.206 F 
ATOM     47  C   UNL A   1      43.833  36.832  36.912  1.00  0.00     0.022 A 
BRANCH  44  48
ATOM     48  S   UNL A   1      43.990  34.277  37.988  1.00  0.00     0.124 S 
ATOM     49  O   UNL A   1      44.288  33.038  37.279  1.00  0.00    -0.237 OA
ATOM     50  O   UNL A   1      45.071  34.836  38.792  1.00  0.00    -0.237 OA
ATOM     51  O   UNL A   1      42.664  34.339  38.599  1.00  0.00    -0.744 OA
ENDBRANCH  44  48
ENDBRANCH  27  41
BRANCH  28  52
ATOM     52  C   UNL A   1      42.500  27.361  34.292  1.00  0.00     0.023 A 
ATOM     53  C   UNL A   1      43.247  26.164  34.212  1.00  0.00     0.031 A 
ATOM     54  C   UNL A   1      41.837  27.611  35.514  1.00  0.00     0.131 A 
ATOM     55  C   UNL A   1      43.303  25.282  35.321  1.00  0.00     0.055 A 
ATOM     56  C   UNL A   1      41.895  26.739  36.603  1.00  0.00     0.041 A 
ATOM     57  F   UNL A   1      41.180  28.763  35.724  1.00  0.00    -0.206 F 
ATOM     58  C   UNL A   1      42.635  25.571  36.513  1.00  0.00     0.022 A 
BRANCH  55  59
ATOM     59  S   UNL A   1      44.323  23.770  35.261  1.00  0.00     0.124 S 
ATOM     60  O   UNL A   1      43.404  22.796  34.683  1.00  0.00    -0.237 OA
ATOM     61  O   UNL A   1      45.446  24.179  34.426  1.00  0.00    -0.237 OA
ATOM     62  O   UNL A   1      44.663  23.530  36.665  1.00  0.00    -0.744 OA
ENDBRANCH  55  59
ENDBRANCH  28  52
BRANCH  40  63
ATOM     63  C   UNL A   1      44.749  30.977  29.587  1.00  0.00     0.023 A 
ATOM     64  C   UNL A   1      45.882  30.343  29.023  1.00  0.00     0.031 A 
ATOM     65  C   UNL A   1      43.522  30.824  28.917  1.00  0.00     0.131 A 
ATOM     66  C   UNL A   1      45.759  29.606  27.827  1.00  0.00     0.055 A 
ATOM     67  C   UNL A   1      43.399  30.075  27.747  1.00  0.00     0.041 A 
ATOM     68  F   UNL A   1      42.401  31.375  29.414  1.00  0.00    -0.206 F 
ATOM     69  C   UNL A   1      44.520  29.468  27.193  1.00  0.00     0.022 A 
BRANCH  66  70
ATOM     70  S   UNL A   1      47.215  28.818  27.062  1.00  0.00     0.124 S 
ATOM     71  O   UNL A   1      48.224  28.867  28.112  1.00  0.00    -0.237 OA
ATOM     72  O   UNL A   1      46.711  27.491  26.717  1.00  0.00    -0.237 OA
ATOM     73  O   UNL A   1      47.497  29.673  25.907  1.00  0.00    -0.744 OA
ENDBRANCH  66  70
ENDBRANCH  40  63
ENDBRANCH  14  15
ENDBRANCH   7   9
ENDBRANCH   4   5
ENDBRANCH   3   4
ENDBRANCH   2   3
ENDBRANCH   1   2
BRANCH   1  74
ATOM     74  C   UNL A   1      31.421  26.668  26.675  1.00  0.00     0.021 C 
BRANCH  74  75
ATOM     75  C   UNL A   1      30.676  25.736  25.721  1.00  0.00     0.116 C 
BRANCH  75  76
ATOM     76  N   UNL A   1      29.960  24.687  26.427  1.00  0.00    -0.352 N 
ATOM     77  C   UNL A   1      30.346  23.396  26.691  1.00  0.00     0.251 C 
ATOM     78  H   UNL A   1      29.069  24.937  26.764  1.00  0.00     0.163 HD
ATOM     79  O   UNL A   1      29.561  22.587  27.167  1.00  0.00    -0.269 OA
BRANCH  77  80
ATOM     80  C   UNL A   1      31.724  22.972  26.371  1.00  0.00     0.039 A 
ATOM     81  C   UNL A   1      32.701  23.061  27.367  1.00  0.00     0.016 A 
ATOM     82  C   UNL A   1      32.053  22.512  25.093  1.00  0.00     0.016 A 
ATOM     83  C   UNL A   1      34.002  22.627  27.106  1.00  0.00     0.029 A 
ATOM     84  C   UNL A   1      33.357  22.097  24.822  1.00  0.00     0.029 A 
ATOM     85  C   UNL A   1      34.336  22.158  25.829  1.00  0.00     0.066 A 
BRANCH  85  86
ATOM     86  N   UNL A   1      35.677  21.808  25.546  1.00  0.00    -0.220 N 
ATOM     87  C   UNL A   1      36.805  22.296  26.148  1.00  0.00     0.141 A 
ATOM     88  N   UNL A   1      36.032  20.882  24.622  1.00  0.00    -0.062 NA
ATOM     89  C   UNL A   1      37.852  21.579  25.615  1.00  0.00     0.093 A 
ATOM     90  N   UNL A   1      37.357  20.759  24.639  1.00  0.00    -0.134 NA
BRANCH  89  91
ATOM     91  C   UNL A   1      39.300  21.765  25.843  1.00  0.00     0.138 C 
BRANCH  91  92
ATOM     92  S   UNL A   1      39.942  22.912  27.065  1.00  0.00    -0.081 SA
BRANCH  92  93
ATOM     93  C   UNL A   1      41.463  23.621  26.581  1.00  0.00     0.176 A 
ATOM     94  N   UNL A   1      42.095  22.846  25.748  1.00  0.00    -0.223 NA
ATOM     95  N   UNL A   1      41.971  24.857  26.970  1.00  0.00    -0.255 N 
ATOM     96  C   UNL A   1      43.372  23.208  25.319  1.00  0.00     0.079 A 
ATOM     97  C   UNL A   1      43.375  24.910  27.045  1.00  0.00     0.266 A 
ATOM     98  C   UNL A   1      43.965  22.571  24.228  1.00  0.00     0.029 A 
ATOM     99  C   UNL A   1      44.115  24.125  26.044  1.00  0.00     0.066 A 
ATOM    100  O   UNL A   1      44.037  25.528  27.878  1.00  0.00    -0.268 OA
ATOM    101  C   UNL A   1      45.312  22.798  23.923  1.00  0.00     0.002 A 
ATOM    102  C   UNL A   1      45.475  24.326  25.785  1.00  0.00     0.016 A 
ATOM    103  C   UNL A   1      46.077  23.647  24.725  1.00  0.00     0.001 A 
BRANCH  95 104
ATOM    104  C   UNL A   1      41.215  26.050  27.333  1.00  0.00     0.051 A 
ATOM    105  C   UNL A   1      40.348  26.039  28.446  1.00  0.00     0.028 A 
ATOM    106  C   UNL A   1      41.300  27.277  26.662  1.00  0.00     0.028 A 
ATOM    107  C   UNL A   1      39.451  27.081  28.716  1.00  0.00     0.018 A 
ATOM    108  C   UNL A   1      40.368  28.306  26.879  1.00  0.00     0.018 A 
ATOM    109  C   UNL A   1      39.416  28.182  27.879  1.00  0.00     0.018 A 
ATOM    110  Br  UNL A   1      38.076  29.489  28.086  1.00  0.00    -0.051 Br
ENDBRANCH  95 104
ENDBRANCH  92  93
ENDBRANCH  91  92
ENDBRANCH  89  91
ENDBRANCH  85  86
ENDBRANCH  77  80
ENDBRANCH  75  76
ENDBRANCH  74  75
ENDBRANCH   1  74
TORSDOF 21
ENDMDL
