MODEL 1
REMARK VINA RESULT:     -12.3      0.000      0.000
REMARK SMILES CC(C)(C)c1cc2c(cc1Cl)C=C(C(=O)NCCCCCCNC(=O)c1ccc(-c3c4nc(c(-c5cc(S(=O)(=O)[O-])ccc5F)c5ccc([nH]5)c(-c5cc(S(=O)(=O)[O-])ccc5F)c5nc(c(-c6cc(S(=O)(=O)[O-])ccc6F)c6ccc3[nH]6)C=C5)C=C4)cc1)[C@H](C(F)(F)F)O2
REMARK SMILES IDX 20 1 19 2 18 3 17 4 16 5 14 6 15 7 13 9 5 10 6 11 10 12 7 13
REMARK SMILES IDX 9 14 11 15 8 16 94 17 12 18 89 19 2 20 1 21 3 22 4 23 90 24
REMARK SMILES IDX 91 25 92 26 93 27 21 28 22 29 23 30 24 31 25 33 26 34 27 35
REMARK SMILES IDX 88 36 28 37 87 38 29 39 30 40 31 41 81 42 32 43 86 44 80 45
REMARK SMILES IDX 82 46 33 47 85 48 79 49 78 50 34 52 66 53 46 54 65 55 47 56
REMARK SMILES IDX 50 57 64 58 83 59 48 60 49 61 63 63 84 64 51 65 35 66 36 67
REMARK SMILES IDX 44 68 37 69 43 70 45 71 42 72 38 73 39 74 40 75 41 76 67 77
REMARK SMILES IDX 68 78 76 79 69 80 75 81 77 82 74 83 70 84 71 85 72 86 73 87
REMARK SMILES IDX 52 88 53 89 61 90 54 91 60 92 62 93 59 94 55 95 56 96 57 97
REMARK SMILES IDX 58 98
REMARK H PARENT 16 8 23 32 82 51 50 62
REMARK Flexibility Score: inf
ROOT
ATOM      1  C   UNL A   1      31.887  29.981  27.197  1.00  0.00     0.002 C 
ENDROOT
BRANCH   1   2
ATOM      2  C   UNL A   1      31.825  28.909  26.102  1.00  0.00     0.002 C 
BRANCH   2   3
ATOM      3  C   UNL A   1      31.821  27.458  26.590  1.00  0.00     0.021 C 
BRANCH   3   4
ATOM      4  C   UNL A   1      30.778  26.564  25.920  1.00  0.00     0.116 C 
BRANCH   4   5
ATOM      5  N   UNL A   1      30.986  26.481  24.485  1.00  0.00    -0.352 N 
ATOM      6  C   UNL A   1      31.486  25.591  23.597  1.00  0.00     0.251 C 
ATOM      7  O   UNL A   1      31.445  25.956  22.416  1.00  0.00    -0.270 OA
ATOM      8  H   UNL A   1      30.677  27.299  24.032  1.00  0.00     0.163 HD
BRANCH   6   9
ATOM      9  C   UNL A   1      32.059  24.251  23.929  1.00  0.00     0.067 C 
ATOM     10  C   UNL A   1      33.227  19.284  23.887  1.00  0.00    -0.020 A 
ATOM     11  C   UNL A   1      33.458  20.387  24.747  1.00  0.00     0.053 A 
ATOM     12  C   UNL A   1      32.459  19.561  22.734  1.00  0.00     0.045 A 
ATOM     13  C   UNL A   1      32.950  21.661  24.498  1.00  0.00     0.128 A 
ATOM     14  C   UNL A   1      31.934  20.851  22.498  1.00  0.00     0.032 A 
ATOM     15  Cl  UNL A   1      32.093  18.427  21.483  1.00  0.00    -0.084 Cl
ATOM     16  C   UNL A   1      32.177  21.903  23.377  1.00  0.00     0.019 A 
ATOM     17  O   UNL A   1      33.229  22.617  25.427  1.00  0.00    -0.475 OA
ATOM     18  C   UNL A   1      31.632  23.234  23.155  1.00  0.00     0.025 C 
ATOM     19  C   UNL A   1      33.087  24.001  25.000  1.00  0.00     0.314 C 
BRANCH  10  20
ATOM     20  C   UNL A   1      33.886  17.941  24.290  1.00  0.00    -0.012 C 
ATOM     21  C   UNL A   1      33.963  16.838  23.215  1.00  0.00     0.016 C 
ATOM     22  C   UNL A   1      33.119  17.289  25.475  1.00  0.00     0.016 C 
ATOM     23  C   UNL A   1      35.334  18.239  24.744  1.00  0.00     0.016 C 
ENDBRANCH  10  20
BRANCH  19  24
ATOM     24  C   UNL A   1      34.474  24.565  24.648  1.00  0.00     0.429 C 
ATOM     25  F   UNL A   1      35.377  24.382  25.640  1.00  0.00    -0.167 F 
ATOM     26  F   UNL A   1      35.002  24.000  23.538  1.00  0.00    -0.167 F 
ATOM     27  F   UNL A   1      34.399  25.897  24.407  1.00  0.00    -0.167 F 
ENDBRANCH  19  24
ENDBRANCH   6   9
ENDBRANCH   4   5
ENDBRANCH   3   4
ENDBRANCH   2   3
ENDBRANCH   1   2
BRANCH   1  28
ATOM     28  C   UNL A   1      31.930  31.429  26.705  1.00  0.00     0.021 C 
BRANCH  28  29
ATOM     29  C   UNL A   1      33.082  32.263  27.256  1.00  0.00     0.116 C 
BRANCH  29  30
ATOM     30  N   UNL A   1      32.682  33.627  27.567  1.00  0.00    -0.352 N 
ATOM     31  C   UNL A   1      33.153  34.458  28.556  1.00  0.00     0.251 C 
ATOM     32  H   UNL A   1      31.979  34.005  26.991  1.00  0.00     0.163 HD
ATOM     33  O   UNL A   1      32.593  35.527  28.784  1.00  0.00    -0.269 OA
BRANCH  31  34
ATOM     34  C   UNL A   1      34.314  34.031  29.364  1.00  0.00     0.039 A 
ATOM     35  C   UNL A   1      35.615  34.266  28.908  1.00  0.00     0.014 A 
ATOM     36  C   UNL A   1      34.097  33.338  30.557  1.00  0.00     0.014 A 
ATOM     37  C   UNL A   1      36.688  33.669  29.560  1.00  0.00     0.010 A 
ATOM     38  C   UNL A   1      35.185  32.802  31.251  1.00  0.00     0.010 A 
ATOM     39  C   UNL A   1      36.484  32.920  30.731  1.00  0.00    -0.014 A 
BRANCH  39  40
ATOM     40  C   UNL A   1      37.638  32.262  31.397  1.00  0.00     0.031 A 
ATOM     41  C   UNL A   1      38.078  32.693  32.770  1.00  0.00     0.074 A 
ATOM     42  C   UNL A   1      38.265  31.247  30.775  1.00  0.00     0.049 A 
ATOM     43  N   UNL A   1      39.063  32.238  33.499  1.00  0.00    -0.248 NA
ATOM     44  C   UNL A   1      37.313  33.777  33.411  1.00  0.00     0.031 C 
ATOM     45  C   UNL A   1      37.908  30.734  29.452  1.00  0.00     0.029 A 
ATOM     46  N   UNL A   1      39.315  30.456  31.167  1.00  0.00    -0.354 N 
ATOM     47  C   UNL A   1      39.050  32.984  34.672  1.00  0.00     0.074 A 
ATOM     48  C   UNL A   1      37.976  33.944  34.547  1.00  0.00     0.031 C 
ATOM     49  C   UNL A   1      38.694  29.688  29.161  1.00  0.00     0.029 A 
ATOM     50  C   UNL A   1      39.659  29.499  30.240  1.00  0.00     0.049 A 
ATOM     51  H   UNL A   1      39.778  30.562  32.029  1.00  0.00     0.167 HD
ATOM     52  C   UNL A   1      39.853  32.867  35.756  1.00  0.00     0.034 A 
ATOM     53  C   UNL A   1      40.651  28.584  30.246  1.00  0.00     0.034 A 
ATOM     54  C   UNL A   1      40.907  31.892  35.872  1.00  0.00     0.049 A 
ATOM     55  C   UNL A   1      41.561  28.505  31.443  1.00  0.00     0.074 A 
ATOM     56  C   UNL A   1      41.759  31.679  36.942  1.00  0.00     0.029 A 
ATOM     57  N   UNL A   1      41.253  30.969  34.896  1.00  0.00    -0.354 N 
ATOM     58  N   UNL A   1      41.513  29.198  32.557  1.00  0.00    -0.248 NA
ATOM     59  C   UNL A   1      42.659  27.532  31.390  1.00  0.00     0.031 C 
ATOM     60  C   UNL A   1      42.651  30.666  36.593  1.00  0.00     0.029 A 
ATOM     61  C   UNL A   1      42.321  30.201  35.330  1.00  0.00     0.049 A 
ATOM     62  H   UNL A   1      40.805  30.873  34.025  1.00  0.00     0.167 HD
ATOM     63  C   UNL A   1      42.563  28.734  33.343  1.00  0.00     0.074 A 
ATOM     64  C   UNL A   1      43.215  27.684  32.586  1.00  0.00     0.031 C 
ATOM     65  C   UNL A   1      42.955  29.146  34.574  1.00  0.00     0.034 A 
BRANCH  52  66
ATOM     66  C   UNL A   1      39.634  33.797  36.923  1.00  0.00     0.023 A 
ATOM     67  C   UNL A   1      40.548  34.837  37.178  1.00  0.00     0.031 A 
ATOM     68  C   UNL A   1      38.603  33.574  37.854  1.00  0.00     0.131 A 
ATOM     69  C   UNL A   1      40.431  35.596  38.348  1.00  0.00     0.055 A 
ATOM     70  C   UNL A   1      38.472  34.355  39.003  1.00  0.00     0.041 A 
ATOM     71  F   UNL A   1      37.706  32.595  37.654  1.00  0.00    -0.206 F 
ATOM     72  C   UNL A   1      39.395  35.364  39.260  1.00  0.00     0.022 A 
BRANCH  69  73
ATOM     73  S   UNL A   1      41.646  36.876  38.765  1.00  0.00     0.124 S 
ATOM     74  O   UNL A   1      42.481  36.187  39.747  1.00  0.00    -0.237 OA
ATOM     75  O   UNL A   1      42.281  37.128  37.474  1.00  0.00    -0.237 OA
ATOM     76  O   UNL A   1      40.838  37.969  39.295  1.00  0.00    -0.744 OA
ENDBRANCH  69  73
ENDBRANCH  52  66
BRANCH  53  77
ATOM     77  C   UNL A   1      40.786  27.658  29.083  1.00  0.00     0.023 A 
ATOM     78  C   UNL A   1      41.733  27.902  28.071  1.00  0.00     0.031 A 
ATOM     79  C   UNL A   1      39.888  26.594  28.904  1.00  0.00     0.131 A 
ATOM     80  C   UNL A   1      41.705  27.148  26.892  1.00  0.00     0.055 A 
ATOM     81  C   UNL A   1      39.911  25.796  27.759  1.00  0.00     0.041 A 
ATOM     82  F   UNL A   1      38.961  26.328  29.837  1.00  0.00    -0.206 F 
ATOM     83  C   UNL A   1      40.810  26.085  26.736  1.00  0.00     0.022 A 
BRANCH  80  84
ATOM     84  S   UNL A   1      42.723  27.618  25.464  1.00  0.00     0.124 S 
ATOM     85  O   UNL A   1      44.034  27.805  26.075  1.00  0.00    -0.237 OA
ATOM     86  O   UNL A   1      42.588  26.445  24.603  1.00  0.00    -0.237 OA
ATOM     87  O   UNL A   1      42.077  28.827  24.966  1.00  0.00    -0.744 OA
ENDBRANCH  80  84
ENDBRANCH  53  77
BRANCH  65  88
ATOM     88  C   UNL A   1      44.146  28.479  35.215  1.00  0.00     0.023 A 
ATOM     89  C   UNL A   1      43.953  27.449  36.155  1.00  0.00     0.031 A 
ATOM     90  C   UNL A   1      45.446  28.976  35.025  1.00  0.00     0.131 A 
ATOM     91  C   UNL A   1      45.037  26.983  36.908  1.00  0.00     0.055 A 
ATOM     92  C   UNL A   1      46.532  28.475  35.745  1.00  0.00     0.041 A 
ATOM     93  F   UNL A   1      45.676  29.963  34.145  1.00  0.00    -0.206 F 
ATOM     94  C   UNL A   1      46.326  27.485  36.703  1.00  0.00     0.022 A 
BRANCH  91  95
ATOM     95  S   UNL A   1      44.801  25.771  38.237  1.00  0.00     0.124 S 
ATOM     96  O   UNL A   1      44.311  26.609  39.329  1.00  0.00    -0.237 OA
ATOM     97  O   UNL A   1      43.814  24.866  37.655  1.00  0.00    -0.237 OA
ATOM     98  O   UNL A   1      46.130  25.205  38.438  1.00  0.00    -0.744 OA
ENDBRANCH  91  95
ENDBRANCH  65  88
ENDBRANCH  39  40
ENDBRANCH  31  34
ENDBRANCH  29  30
ENDBRANCH  28  29
ENDBRANCH   1  28
TORSDOF 18
ENDMDL
MODEL 2
REMARK VINA RESULT:     -12.3      1.884      2.582
REMARK SMILES CC(C)(C)c1cc2c(cc1Cl)C=C(C(=O)NCCCCCCNC(=O)c1ccc(-c3c4nc(c(-c5cc(S(=O)(=O)[O-])ccc5F)c5ccc([nH]5)c(-c5cc(S(=O)(=O)[O-])ccc5F)c5nc(c(-c6cc(S(=O)(=O)[O-])ccc6F)c6ccc3[nH]6)C=C5)C=C4)cc1)[C@H](C(F)(F)F)O2
REMARK SMILES IDX 20 1 19 2 18 3 17 4 16 5 14 6 15 7 13 9 5 10 6 11 10 12 7 13
REMARK SMILES IDX 9 14 11 15 8 16 94 17 12 18 89 19 2 20 1 21 3 22 4 23 90 24
REMARK SMILES IDX 91 25 92 26 93 27 21 28 22 29 23 30 24 31 25 33 26 34 27 35
REMARK SMILES IDX 88 36 28 37 87 38 29 39 30 40 31 41 81 42 32 43 86 44 80 45
REMARK SMILES IDX 82 46 33 47 85 48 79 49 78 50 34 52 66 53 46 54 65 55 47 56
REMARK SMILES IDX 50 57 64 58 83 59 48 60 49 61 63 63 84 64 51 65 35 66 36 67
REMARK SMILES IDX 44 68 37 69 43 70 45 71 42 72 38 73 39 74 40 75 41 76 67 77
REMARK SMILES IDX 68 78 76 79 69 80 75 81 77 82 74 83 70 84 71 85 72 86 73 87
REMARK SMILES IDX 52 88 53 89 61 90 54 91 60 92 62 93 59 94 55 95 56 96 57 97
REMARK SMILES IDX 58 98
REMARK H PARENT 16 8 23 32 82 51 50 62
REMARK Flexibility Score: inf
ROOT
ATOM      1  C   UNL A   1      34.769  30.663  28.007  1.00  0.00     0.002 C 
ENDROOT
BRANCH   1   2
ATOM      2  C   UNL A   1      34.706  29.556  26.947  1.00  0.00     0.002 C 
BRANCH   2   3
ATOM      3  C   UNL A   1      33.355  28.850  26.802  1.00  0.00     0.021 C 
BRANCH   3   4
ATOM      4  C   UNL A   1      32.398  29.507  25.809  1.00  0.00     0.116 C 
BRANCH   4   5
ATOM      5  N   UNL A   1      32.949  29.525  24.465  1.00  0.00    -0.352 N 
ATOM      6  C   UNL A   1      33.222  28.633  23.483  1.00  0.00     0.251 C 
ATOM      7  O   UNL A   1      33.695  29.124  22.451  1.00  0.00    -0.270 OA
ATOM      8  H   UNL A   1      33.193  30.439  24.191  1.00  0.00     0.163 HD
BRANCH   6   9
ATOM      9  C   UNL A   1      32.998  27.156  23.555  1.00  0.00     0.067 C 
ATOM     10  C   UNL A   1      33.540  22.167  24.477  1.00  0.00    -0.020 A 
ATOM     11  C   UNL A   1      32.631  22.988  23.762  1.00  0.00     0.053 A 
ATOM     12  C   UNL A   1      34.612  22.845  25.099  1.00  0.00     0.045 A 
ATOM     13  C   UNL A   1      32.783  24.369  23.654  1.00  0.00     0.128 A 
ATOM     14  C   UNL A   1      34.767  24.242  24.970  1.00  0.00     0.032 A 
ATOM     15  Cl  UNL A   1      35.816  22.105  26.094  1.00  0.00    -0.084 Cl
ATOM     16  C   UNL A   1      33.856  25.008  24.248  1.00  0.00     0.019 A 
ATOM     17  O   UNL A   1      31.847  25.026  22.912  1.00  0.00    -0.475 OA
ATOM     18  C   UNL A   1      34.009  26.447  24.094  1.00  0.00     0.025 C 
ATOM     19  C   UNL A   1      31.735  26.460  23.127  1.00  0.00     0.314 C 
BRANCH  10  20
ATOM     20  C   UNL A   1      33.213  20.653  24.528  1.00  0.00    -0.012 C 
ATOM     21  C   UNL A   1      34.403  19.672  24.536  1.00  0.00     0.016 C 
ATOM     22  C   UNL A   1      32.362  20.235  23.296  1.00  0.00     0.016 C 
ATOM     23  C   UNL A   1      32.392  20.387  25.810  1.00  0.00     0.016 C 
ENDBRANCH  10  20
BRANCH  19  24
ATOM     24  C   UNL A   1      30.546  26.737  24.063  1.00  0.00     0.429 C 
ATOM     25  F   UNL A   1      30.026  27.975  23.892  1.00  0.00    -0.167 F 
ATOM     26  F   UNL A   1      29.528  25.864  23.889  1.00  0.00    -0.167 F 
ATOM     27  F   UNL A   1      30.928  26.634  25.361  1.00  0.00    -0.167 F 
ENDBRANCH  19  24
ENDBRANCH   6   9
ENDBRANCH   4   5
ENDBRANCH   3   4
ENDBRANCH   2   3
ENDBRANCH   1   2
BRANCH   1  28
ATOM     28  C   UNL A   1      34.407  32.067  27.519  1.00  0.00     0.021 C 
BRANCH  28  29
ATOM     29  C   UNL A   1      32.964  32.488  27.776  1.00  0.00     0.116 C 
BRANCH  29  30
ATOM     30  N   UNL A   1      32.810  33.932  27.854  1.00  0.00    -0.352 N 
ATOM     31  C   UNL A   1      33.477  34.827  28.657  1.00  0.00     0.251 C 
ATOM     32  H   UNL A   1      32.136  34.321  27.251  1.00  0.00     0.163 HD
ATOM     33  O   UNL A   1      33.112  35.998  28.714  1.00  0.00    -0.269 OA
BRANCH  31  34
ATOM     34  C   UNL A   1      34.611  34.353  29.478  1.00  0.00     0.039 A 
ATOM     35  C   UNL A   1      35.926  34.623  29.087  1.00  0.00     0.014 A 
ATOM     36  C   UNL A   1      34.355  33.582  30.614  1.00  0.00     0.014 A 
ATOM     37  C   UNL A   1      36.978  33.989  29.737  1.00  0.00     0.010 A 
ATOM     38  C   UNL A   1      35.421  33.007  31.311  1.00  0.00     0.010 A 
ATOM     39  C   UNL A   1      36.736  33.164  30.849  1.00  0.00    -0.014 A 
BRANCH  39  40
ATOM     40  C   UNL A   1      37.870  32.469  31.513  1.00  0.00     0.031 A 
ATOM     41  C   UNL A   1      38.328  32.886  32.884  1.00  0.00     0.074 A 
ATOM     42  C   UNL A   1      38.461  31.432  30.889  1.00  0.00     0.049 A 
ATOM     43  N   UNL A   1      39.299  32.399  33.610  1.00  0.00    -0.248 NA
ATOM     44  C   UNL A   1      37.601  33.995  33.525  1.00  0.00     0.031 C 
ATOM     45  C   UNL A   1      38.083  30.931  29.568  1.00  0.00     0.029 A 
ATOM     46  N   UNL A   1      39.485  30.607  31.280  1.00  0.00    -0.354 N 
ATOM     47  C   UNL A   1      39.314  33.147  34.783  1.00  0.00     0.074 A 
ATOM     48  C   UNL A   1      38.272  34.142  34.660  1.00  0.00     0.031 C 
ATOM     49  C   UNL A   1      38.834  29.859  29.276  1.00  0.00     0.029 A 
ATOM     50  C   UNL A   1      39.795  29.639  30.353  1.00  0.00     0.049 A 
ATOM     51  H   UNL A   1      39.954  30.699  32.140  1.00  0.00     0.167 HD
ATOM     52  C   UNL A   1      40.115  33.004  35.865  1.00  0.00     0.034 A 
ATOM     53  C   UNL A   1      40.756  28.692  30.357  1.00  0.00     0.034 A 
ATOM     54  C   UNL A   1      41.137  31.995  35.979  1.00  0.00     0.049 A 
ATOM     55  C   UNL A   1      41.666  28.584  31.552  1.00  0.00     0.074 A 
ATOM     56  C   UNL A   1      41.984  31.754  37.047  1.00  0.00     0.029 A 
ATOM     57  N   UNL A   1      41.449  31.059  35.003  1.00  0.00    -0.354 N 
ATOM     58  N   UNL A   1      41.644  29.279  32.665  1.00  0.00    -0.248 NA
ATOM     59  C   UNL A   1      42.731  27.575  31.497  1.00  0.00     0.031 C 
ATOM     60  C   UNL A   1      42.841  30.711  36.697  1.00  0.00     0.029 A 
ATOM     61  C   UNL A   1      42.492  30.257  35.435  1.00  0.00     0.049 A 
ATOM     62  H   UNL A   1      40.996  30.977  34.133  1.00  0.00     0.167 HD
ATOM     63  C   UNL A   1      42.680  28.781  33.449  1.00  0.00     0.074 A 
ATOM     64  C   UNL A   1      43.295  27.709  32.691  1.00  0.00     0.031 C 
ATOM     65  C   UNL A   1      43.089  29.181  34.679  1.00  0.00     0.034 A 
BRANCH  52  66
ATOM     66  C   UNL A   1      39.930  33.941  37.032  1.00  0.00     0.023 A 
ATOM     67  C   UNL A   1      39.294  33.491  38.205  1.00  0.00     0.031 A 
ATOM     68  C   UNL A   1      40.262  35.305  36.935  1.00  0.00     0.131 A 
ATOM     69  C   UNL A   1      38.983  34.402  39.221  1.00  0.00     0.055 A 
ATOM     70  C   UNL A   1      39.978  36.202  37.966  1.00  0.00     0.041 A 
ATOM     71  F   UNL A   1      40.871  35.781  35.838  1.00  0.00    -0.206 F 
ATOM     72  C   UNL A   1      39.326  35.754  39.111  1.00  0.00     0.022 A 
BRANCH  69  73
ATOM     73  S   UNL A   1      38.073  33.884  40.702  1.00  0.00     0.124 S 
ATOM     74  O   UNL A   1      38.948  32.846  41.242  1.00  0.00    -0.237 OA
ATOM     75  O   UNL A   1      38.021  35.121  41.478  1.00  0.00    -0.237 OA
ATOM     76  O   UNL A   1      36.795  33.411  40.182  1.00  0.00    -0.744 OA
ENDBRANCH  69  73
ENDBRANCH  52  66
BRANCH  53  77
ATOM     77  C   UNL A   1      40.857  27.760  29.195  1.00  0.00     0.023 A 
ATOM     78  C   UNL A   1      41.797  27.982  28.171  1.00  0.00     0.031 A 
ATOM     79  C   UNL A   1      39.934  26.715  29.029  1.00  0.00     0.131 A 
ATOM     80  C   UNL A   1      41.738  27.226  26.994  1.00  0.00     0.055 A 
ATOM     81  C   UNL A   1      39.927  25.915  27.885  1.00  0.00     0.041 A 
ATOM     82  F   UNL A   1      39.013  26.471  29.974  1.00  0.00    -0.206 F 
ATOM     83  C   UNL A   1      40.819  26.183  26.851  1.00  0.00     0.022 A 
BRANCH  80  84
ATOM     84  S   UNL A   1      42.749  27.671  25.553  1.00  0.00     0.124 S 
ATOM     85  O   UNL A   1      44.066  27.858  26.152  1.00  0.00    -0.237 OA
ATOM     86  O   UNL A   1      42.601  26.488  24.708  1.00  0.00    -0.237 OA
ATOM     87  O   UNL A   1      42.107  28.878  25.044  1.00  0.00    -0.744 OA
ENDBRANCH  80  84
ENDBRANCH  53  77
BRANCH  65  88
ATOM     88  C   UNL A   1      44.258  28.475  35.317  1.00  0.00     0.023 A 
ATOM     89  C   UNL A   1      44.036  27.512  36.320  1.00  0.00     0.031 A 
ATOM     90  C   UNL A   1      45.579  28.877  35.057  1.00  0.00     0.131 A 
ATOM     91  C   UNL A   1      45.115  27.019  37.062  1.00  0.00     0.055 A 
ATOM     92  C   UNL A   1      46.657  28.349  35.769  1.00  0.00     0.041 A 
ATOM     93  F   UNL A   1      45.838  29.798  34.115  1.00  0.00    -0.206 F 
ATOM     94  C   UNL A   1      46.426  27.427  36.787  1.00  0.00     0.022 A 
BRANCH  91  95
ATOM     95  S   UNL A   1      44.853  25.899  38.464  1.00  0.00     0.124 S 
ATOM     96  O   UNL A   1      44.495  24.651  37.793  1.00  0.00    -0.237 OA
ATOM     97  O   UNL A   1      46.163  25.905  39.111  1.00  0.00    -0.237 OA
ATOM     98  O   UNL A   1      43.776  26.527  39.221  1.00  0.00    -0.744 OA
ENDBRANCH  91  95
ENDBRANCH  65  88
ENDBRANCH  39  40
ENDBRANCH  31  34
ENDBRANCH  29  30
ENDBRANCH  28  29
ENDBRANCH   1  28
TORSDOF 18
ENDMDL
MODEL 3
REMARK VINA RESULT:     -12.2      2.672      7.998
REMARK SMILES CC(C)(C)c1cc2c(cc1Cl)C=C(C(=O)NCCCCCCNC(=O)c1ccc(-c3c4nc(c(-c5cc(S(=O)(=O)[O-])ccc5F)c5ccc([nH]5)c(-c5cc(S(=O)(=O)[O-])ccc5F)c5nc(c(-c6cc(S(=O)(=O)[O-])ccc6F)c6ccc3[nH]6)C=C5)C=C4)cc1)[C@H](C(F)(F)F)O2
REMARK SMILES IDX 20 1 19 2 18 3 17 4 16 5 14 6 15 7 13 9 5 10 6 11 10 12 7 13
REMARK SMILES IDX 9 14 11 15 8 16 94 17 12 18 89 19 2 20 1 21 3 22 4 23 90 24
REMARK SMILES IDX 91 25 92 26 93 27 21 28 22 29 23 30 24 31 25 33 26 34 27 35
REMARK SMILES IDX 88 36 28 37 87 38 29 39 30 40 31 41 81 42 32 43 86 44 80 45
REMARK SMILES IDX 82 46 33 47 85 48 79 49 78 50 34 52 66 53 46 54 65 55 47 56
REMARK SMILES IDX 50 57 64 58 83 59 48 60 49 61 63 63 84 64 51 65 35 66 36 67
REMARK SMILES IDX 44 68 37 69 43 70 45 71 42 72 38 73 39 74 40 75 41 76 67 77
REMARK SMILES IDX 68 78 76 79 69 80 75 81 77 82 74 83 70 84 71 85 72 86 73 87
REMARK SMILES IDX 52 88 53 89 61 90 54 91 60 92 62 93 59 94 55 95 56 96 57 97
REMARK SMILES IDX 58 98
REMARK H PARENT 16 8 23 32 82 51 50 62
REMARK Flexibility Score: inf
ROOT
ATOM      1  C   UNL A   1      31.224  28.531  24.933  1.00  0.00     0.002 C 
ENDROOT
BRANCH   1   2
ATOM      2  C   UNL A   1      30.802  27.062  24.803  1.00  0.00     0.002 C 
BRANCH   2   3
ATOM      3  C   UNL A   1      30.776  26.259  26.106  1.00  0.00     0.021 C 
BRANCH   3   4
ATOM      4  C   UNL A   1      31.930  25.271  26.268  1.00  0.00     0.116 C 
BRANCH   4   5
ATOM      5  N   UNL A   1      33.006  25.546  25.331  1.00  0.00    -0.352 N 
ATOM      6  C   UNL A   1      33.957  24.848  24.668  1.00  0.00     0.251 C 
ATOM      7  O   UNL A   1      34.680  25.526  23.929  1.00  0.00    -0.270 OA
ATOM      8  H   UNL A   1      33.058  26.506  25.118  1.00  0.00     0.163 HD
BRANCH   6   9
ATOM      9  C   UNL A   1      34.186  23.373  24.762  1.00  0.00     0.067 C 
ATOM     10  C   UNL A   1      33.793  18.317  24.200  1.00  0.00    -0.020 A 
ATOM     11  C   UNL A   1      34.573  19.207  24.980  1.00  0.00     0.053 A 
ATOM     12  C   UNL A   1      32.839  18.926  23.354  1.00  0.00     0.045 A 
ATOM     13  C   UNL A   1      34.409  20.591  24.942  1.00  0.00     0.128 A 
ATOM     14  C   UNL A   1      32.667  20.327  23.334  1.00  0.00     0.032 A 
ATOM     15  Cl  UNL A   1      31.813  18.089  22.244  1.00  0.00    -0.084 Cl
ATOM     16  C   UNL A   1      33.449  21.163  24.127  1.00  0.00     0.019 A 
ATOM     17  O   UNL A   1      35.211  21.320  25.767  1.00  0.00    -0.475 OA
ATOM     18  C   UNL A   1      33.276  22.608  24.129  1.00  0.00     0.025 C 
ATOM     19  C   UNL A   1      35.360  22.732  25.450  1.00  0.00     0.314 C 
BRANCH  10  20
ATOM     20  C   UNL A   1      34.119  16.809  24.335  1.00  0.00    -0.012 C 
ATOM     21  C   UNL A   1      33.021  15.894  24.914  1.00  0.00     0.016 C 
ATOM     22  C   UNL A   1      35.346  16.595  25.266  1.00  0.00     0.016 C 
ATOM     23  C   UNL A   1      34.468  16.271  22.928  1.00  0.00     0.016 C 
ENDBRANCH  10  20
BRANCH  19  24
ATOM     24  C   UNL A   1      36.688  22.942  24.701  1.00  0.00     0.429 C 
ATOM     25  F   UNL A   1      37.573  21.942  24.919  1.00  0.00    -0.167 F 
ATOM     26  F   UNL A   1      36.524  23.025  23.361  1.00  0.00    -0.167 F 
ATOM     27  F   UNL A   1      37.277  24.099  25.093  1.00  0.00    -0.167 F 
ENDBRANCH  19  24
ENDBRANCH   6   9
ENDBRANCH   4   5
ENDBRANCH   3   4
ENDBRANCH   2   3
ENDBRANCH   1   2
BRANCH   1  28
ATOM     28  C   UNL A   1      31.766  28.944  26.304  1.00  0.00     0.021 C 
BRANCH  28  29
ATOM     29  C   UNL A   1      33.076  29.724  26.271  1.00  0.00     0.116 C 
BRANCH  29  30
ATOM     30  N   UNL A   1      32.915  31.101  26.712  1.00  0.00    -0.352 N 
ATOM     31  C   UNL A   1      33.723  31.838  27.545  1.00  0.00     0.251 C 
ATOM     32  H   UNL A   1      32.119  31.567  26.369  1.00  0.00     0.163 HD
ATOM     33  O   UNL A   1      33.358  32.939  27.947  1.00  0.00    -0.269 OA
BRANCH  31  34
ATOM     34  C   UNL A   1      35.017  31.271  27.980  1.00  0.00     0.039 A 
ATOM     35  C   UNL A   1      35.093  29.951  28.433  1.00  0.00     0.014 A 
ATOM     36  C   UNL A   1      36.150  32.088  27.989  1.00  0.00     0.014 A 
ATOM     37  C   UNL A   1      36.258  29.501  29.043  1.00  0.00     0.010 A 
ATOM     38  C   UNL A   1      37.343  31.607  28.536  1.00  0.00     0.010 A 
ATOM     39  C   UNL A   1      37.392  30.328  29.113  1.00  0.00    -0.014 A 
BRANCH  39  40
ATOM     40  C   UNL A   1      38.618  29.843  29.797  1.00  0.00     0.031 A 
ATOM     41  C   UNL A   1      39.518  28.835  29.134  1.00  0.00     0.074 A 
ATOM     42  C   UNL A   1      38.940  30.345  31.004  1.00  0.00     0.049 A 
ATOM     43  N   UNL A   1      40.621  28.297  29.583  1.00  0.00    -0.248 NA
ATOM     44  C   UNL A   1      39.129  28.369  27.793  1.00  0.00     0.031 C 
ATOM     45  C   UNL A   1      38.151  31.342  31.728  1.00  0.00     0.029 A 
ATOM     46  N   UNL A   1      40.011  30.105  31.827  1.00  0.00    -0.354 N 
ATOM     47  C   UNL A   1      41.051  27.420  28.593  1.00  0.00     0.074 A 
ATOM     48  C   UNL A   1      40.073  27.475  27.530  1.00  0.00     0.031 C 
ATOM     49  C   UNL A   1      38.785  31.660  32.865  1.00  0.00     0.029 A 
ATOM     50  C   UNL A   1      39.987  30.840  32.990  1.00  0.00     0.049 A 
ATOM     51  H   UNL A   1      40.728  29.467  31.608  1.00  0.00     0.167 HD
ATOM     52  C   UNL A   1      42.166  26.653  28.571  1.00  0.00     0.034 A 
ATOM     53  C   UNL A   1      40.825  30.844  34.047  1.00  0.00     0.034 A 
ATOM     54  C   UNL A   1      43.141  26.624  29.632  1.00  0.00     0.049 A 
ATOM     55  C   UNL A   1      42.034  29.946  34.020  1.00  0.00     0.074 A 
ATOM     56  C   UNL A   1      44.317  25.897  29.691  1.00  0.00     0.029 A 
ATOM     57  N   UNL A   1      43.061  27.351  30.811  1.00  0.00    -0.354 N 
ATOM     58  N   UNL A   1      42.441  29.147  33.061  1.00  0.00    -0.248 NA
ATOM     59  C   UNL A   1      42.893  29.940  35.210  1.00  0.00     0.031 C 
ATOM     60  C   UNL A   1      44.920  26.142  30.925  1.00  0.00     0.029 A 
ATOM     61  C   UNL A   1      44.155  27.070  31.614  1.00  0.00     0.049 A 
ATOM     62  H   UNL A   1      42.336  27.975  31.043  1.00  0.00     0.167 HD
ATOM     63  C   UNL A   1      43.612  28.556  33.526  1.00  0.00     0.074 A 
ATOM     64  C   UNL A   1      43.860  29.107  34.843  1.00  0.00     0.031 C 
ATOM     65  C   UNL A   1      44.402  27.636  32.919  1.00  0.00     0.034 A 
BRANCH  52  66
ATOM     66  C   UNL A   1      42.423  25.782  27.368  1.00  0.00     0.023 A 
ATOM     67  C   UNL A   1      42.031  24.429  27.379  1.00  0.00     0.031 A 
ATOM     68  C   UNL A   1      43.167  26.249  26.270  1.00  0.00     0.131 A 
ATOM     69  C   UNL A   1      42.410  23.585  26.329  1.00  0.00     0.055 A 
ATOM     70  C   UNL A   1      43.515  25.411  25.210  1.00  0.00     0.041 A 
ATOM     71  F   UNL A   1      43.563  27.531  26.213  1.00  0.00    -0.206 F 
ATOM     72  C   UNL A   1      43.146  24.070  25.241  1.00  0.00     0.022 A 
BRANCH  69  73
ATOM     73  S   UNL A   1      42.015  21.816  26.354  1.00  0.00     0.124 S 
ATOM     74  O   UNL A   1      42.386  21.446  27.718  1.00  0.00    -0.237 OA
ATOM     75  O   UNL A   1      40.581  21.818  26.077  1.00  0.00    -0.237 OA
ATOM     76  O   UNL A   1      42.859  21.252  25.306  1.00  0.00    -0.744 OA
ENDBRANCH  69  73
ENDBRANCH  52  66
BRANCH  53  77
ATOM     77  C   UNL A   1      40.546  31.766  35.187  1.00  0.00     0.023 A 
ATOM     78  C   UNL A   1      39.495  31.504  36.087  1.00  0.00     0.031 A 
ATOM     79  C   UNL A   1      41.239  32.979  35.317  1.00  0.00     0.131 A 
ATOM     80  C   UNL A   1      39.115  32.478  37.018  1.00  0.00     0.055 A 
ATOM     81  C   UNL A   1      40.905  33.917  36.296  1.00  0.00     0.041 A 
ATOM     82  F   UNL A   1      42.243  33.277  34.477  1.00  0.00    -0.206 F 
ATOM     83  C   UNL A   1      39.824  33.677  37.139  1.00  0.00     0.022 A 
BRANCH  80  84
ATOM     84  S   UNL A   1      37.598  32.287  37.996  1.00  0.00     0.124 S 
ATOM     85  O   UNL A   1      37.382  30.845  37.942  1.00  0.00    -0.237 OA
ATOM     86  O   UNL A   1      38.010  32.817  39.294  1.00  0.00    -0.237 OA
ATOM     87  O   UNL A   1      36.622  33.101  37.277  1.00  0.00    -0.744 OA
ENDBRANCH  80  84
ENDBRANCH  53  77
BRANCH  65  88
ATOM     88  C   UNL A   1      45.626  27.142  33.648  1.00  0.00     0.023 A 
ATOM     89  C   UNL A   1      45.512  26.096  34.584  1.00  0.00     0.031 A 
ATOM     90  C   UNL A   1      46.854  27.815  33.544  1.00  0.00     0.131 A 
ATOM     91  C   UNL A   1      46.595  25.786  35.415  1.00  0.00     0.055 A 
ATOM     92  C   UNL A   1      47.946  27.472  34.343  1.00  0.00     0.041 A 
ATOM     93  F   UNL A   1      47.007  28.824  32.671  1.00  0.00    -0.206 F 
ATOM     94  C   UNL A   1      47.814  26.464  35.295  1.00  0.00     0.022 A 
BRANCH  91  95
ATOM     95  S   UNL A   1      46.438  24.554  36.737  1.00  0.00     0.124 S 
ATOM     96  O   UNL A   1      46.697  25.356  37.931  1.00  0.00    -0.237 OA
ATOM     97  O   UNL A   1      45.057  24.106  36.576  1.00  0.00    -0.237 OA
ATOM     98  O   UNL A   1      47.461  23.564  36.421  1.00  0.00    -0.744 OA
ENDBRANCH  91  95
ENDBRANCH  65  88
ENDBRANCH  39  40
ENDBRANCH  31  34
ENDBRANCH  29  30
ENDBRANCH  28  29
ENDBRANCH   1  28
TORSDOF 18
ENDMDL
