MODEL 1
REMARK VINA RESULT:     -12.3      0.000      0.000
REMARK SMILES CC1=C[C@@H](C)[C@H]2C(=O)N([C@H](Cc3ccccc3)C(=O)NCCCCCCNC(=O)c3ccc(-c4c5nc(c(-c6cc(S(=O)(=O)[O-])ccc6F)c6ccc([nH]6)c(-c6cc(S(=O)(=O)[O-])ccc6F)c6nc(c(-c7cc(S(=O)(=O)[O-])ccc7F)c7ccc4[nH]7)C=C6)C=C5)cc3)C(=O)[C@H]2C1
REMARK SMILES IDX 24 1 23 2 22 3 21 4 20 5 18 6 19 7 10 9 9 10 1 11 2 12 3 13
REMARK SMILES IDX 96 14 4 15 95 16 6 17 5 18 93 19 7 20 94 21 8 22 11 23 12 24
REMARK SMILES IDX 13 25 17 26 14 27 16 28 15 29 25 30 26 31 27 32 28 33 29 35
REMARK SMILES IDX 30 36 31 37 92 38 32 39 91 40 33 41 34 42 35 43 85 44 36 45
REMARK SMILES IDX 90 46 84 47 86 48 37 49 89 50 83 51 82 52 38 54 70 55 50 56
REMARK SMILES IDX 69 57 51 58 54 59 68 60 87 61 52 62 53 63 67 65 88 66 55 67
REMARK SMILES IDX 39 68 40 69 48 70 41 71 47 72 49 73 46 74 42 75 43 76 44 77
REMARK SMILES IDX 45 78 71 79 72 80 80 81 73 82 79 83 81 84 78 85 74 86 75 87
REMARK SMILES IDX 76 88 77 89 56 90 57 91 65 92 58 93 64 94 66 95 63 96 59 97
REMARK SMILES IDX 60 98 61 99 62 100
REMARK H PARENT 20 8 27 34 86 53 54 64
REMARK Flexibility Score: inf
ROOT
ATOM      1  C   UNL A   1      34.572  31.244  27.631  1.00  0.00     0.002 C 
ENDROOT
BRANCH   1   2
ATOM      2  C   UNL A   1      34.169  29.839  27.168  1.00  0.00     0.002 C 
BRANCH   2   3
ATOM      3  C   UNL A   1      32.664  29.554  27.131  1.00  0.00     0.021 C 
BRANCH   3   4
ATOM      4  C   UNL A   1      32.005  29.874  25.797  1.00  0.00     0.116 C 
BRANCH   4   5
ATOM      5  N   UNL A   1      32.903  29.792  24.659  1.00  0.00    -0.354 N 
ATOM      6  C   UNL A   1      32.916  28.917  23.607  1.00  0.00     0.243 C 
ATOM      7  O   UNL A   1      33.521  29.278  22.590  1.00  0.00    -0.273 OA
ATOM      8  H   UNL A   1      33.613  30.473  24.641  1.00  0.00     0.163 HD
BRANCH   6   9
ATOM      9  C   UNL A   1      32.178  27.558  23.624  1.00  0.00     0.186 C 
BRANCH   9  10
ATOM     10  N   UNL A   1      33.058  26.378  23.776  1.00  0.00    -0.269 N 
ATOM     11  C   UNL A   1      33.645  21.138  26.325  1.00  0.00     0.039 C 
ATOM     12  C   UNL A   1      33.618  22.274  25.341  1.00  0.00    -0.076 C 
ATOM     13  C   UNL A   1      33.013  22.145  24.150  1.00  0.00    -0.024 C 
ATOM     14  C   UNL A   1      34.313  23.538  25.780  1.00  0.00     0.044 C 
ATOM     15  C   UNL A   1      32.923  23.238  23.125  1.00  0.00     0.022 C 
ATOM     16  C   UNL A   1      34.306  24.686  24.781  1.00  0.00     0.096 C 
ATOM     17  C   UNL A   1      34.025  24.301  23.338  1.00  0.00     0.098 C 
ATOM     18  C   UNL A   1      31.471  23.732  23.118  1.00  0.00     0.013 C 
ATOM     19  C   UNL A   1      33.302  25.796  25.000  1.00  0.00     0.234 C 
ATOM     20  C   UNL A   1      33.639  25.640  22.785  1.00  0.00     0.234 C 
ATOM     21  O   UNL A   1      32.845  26.142  26.076  1.00  0.00    -0.274 OA
ATOM     22  O   UNL A   1      33.867  25.958  21.628  1.00  0.00    -0.274 OA
ENDBRANCH   9  10
BRANCH   9  23
ATOM     23  C   UNL A   1      31.066  27.363  22.569  1.00  0.00     0.071 C 
BRANCH  23  24
ATOM     24  C   UNL A   1      29.891  28.316  22.657  1.00  0.00    -0.045 A 
ATOM     25  C   UNL A   1      28.648  27.873  23.130  1.00  0.00     0.004 A 
ATOM     26  C   UNL A   1      30.001  29.642  22.219  1.00  0.00     0.004 A 
ATOM     27  C   UNL A   1      27.545  28.731  23.143  1.00  0.00     0.000 A 
ATOM     28  C   UNL A   1      28.902  30.501  22.238  1.00  0.00     0.000 A 
ATOM     29  C   UNL A   1      27.670  30.044  22.695  1.00  0.00     0.000 A 
ENDBRANCH  23  24
ENDBRANCH   9  23
ENDBRANCH   6   9
ENDBRANCH   4   5
ENDBRANCH   3   4
ENDBRANCH   2   3
ENDBRANCH   1   2
BRANCH   1  30
ATOM     30  C   UNL A   1      33.419  32.184  28.001  1.00  0.00     0.021 C 
BRANCH  30  31
ATOM     31  C   UNL A   1      33.626  33.648  27.629  1.00  0.00     0.116 C 
BRANCH  31  32
ATOM     32  N   UNL A   1      33.075  34.555  28.619  1.00  0.00    -0.352 N 
ATOM     33  C   UNL A   1      33.420  34.712  29.938  1.00  0.00     0.251 C 
ATOM     34  H   UNL A   1      32.350  35.139  28.300  1.00  0.00     0.163 HD
ATOM     35  O   UNL A   1      32.731  35.421  30.665  1.00  0.00    -0.269 OA
BRANCH  33  36
ATOM     36  C   UNL A   1      34.600  34.006  30.483  1.00  0.00     0.039 A 
ATOM     37  C   UNL A   1      34.400  33.001  31.432  1.00  0.00     0.014 A 
ATOM     38  C   UNL A   1      35.895  34.338  30.072  1.00  0.00     0.014 A 
ATOM     39  C   UNL A   1      35.495  32.292  31.932  1.00  0.00     0.010 A 
ATOM     40  C   UNL A   1      36.980  33.591  30.528  1.00  0.00     0.010 A 
ATOM     41  C   UNL A   1      36.790  32.563  31.464  1.00  0.00    -0.014 A 
BRANCH  41  42
ATOM     42  C   UNL A   1      37.960  31.790  31.956  1.00  0.00     0.031 A 
ATOM     43  C   UNL A   1      38.601  32.152  33.269  1.00  0.00     0.074 A 
ATOM     44  C   UNL A   1      38.474  30.801  31.198  1.00  0.00     0.049 A 
ATOM     45  N   UNL A   1      39.676  31.661  33.829  1.00  0.00    -0.248 NA
ATOM     46  C   UNL A   1      37.960  33.229  34.038  1.00  0.00     0.031 C 
ATOM     47  C   UNL A   1      37.957  30.381  29.893  1.00  0.00     0.029 A 
ATOM     48  N   UNL A   1      39.551  29.976  31.407  1.00  0.00    -0.354 N 
ATOM     49  C   UNL A   1      39.846  32.370  35.012  1.00  0.00     0.074 A 
ATOM     50  C   UNL A   1      38.795  33.366  35.057  1.00  0.00     0.031 C 
ATOM     51  C   UNL A   1      38.709  29.371  29.426  1.00  0.00     0.029 A 
ATOM     52  C   UNL A   1      39.784  29.098  30.374  1.00  0.00     0.049 A 
ATOM     53  H   UNL A   1      40.104  30.010  32.221  1.00  0.00     0.167 HD
ATOM     54  C   UNL A   1      40.778  32.194  35.981  1.00  0.00     0.034 A 
ATOM     55  C   UNL A   1      40.762  28.186  30.204  1.00  0.00     0.034 A 
ATOM     56  C   UNL A   1      41.812  31.190  35.928  1.00  0.00     0.049 A 
ATOM     57  C   UNL A   1      41.798  28.019  31.290  1.00  0.00     0.074 A 
ATOM     58  C   UNL A   1      42.787  30.902  36.868  1.00  0.00     0.029 A 
ATOM     59  N   UNL A   1      42.005  30.304  34.875  1.00  0.00    -0.354 N 
ATOM     60  N   UNL A   1      41.923  28.678  32.419  1.00  0.00    -0.248 NA
ATOM     61  C   UNL A   1      42.813  26.978  31.086  1.00  0.00     0.031 C 
ATOM     62  C   UNL A   1      43.600  29.883  36.360  1.00  0.00     0.029 A 
ATOM     63  C   UNL A   1      43.094  29.486  35.134  1.00  0.00     0.049 A 
ATOM     64  H   UNL A   1      41.450  30.263  34.062  1.00  0.00     0.167 HD
ATOM     65  C   UNL A   1      43.011  28.107  33.072  1.00  0.00     0.074 A 
ATOM     66  C   UNL A   1      43.495  27.041  32.218  1.00  0.00     0.031 C 
ATOM     67  C   UNL A   1      43.562  28.430  34.269  1.00  0.00     0.034 A 
BRANCH  54  68
ATOM     68  C   UNL A   1      40.728  33.121  37.170  1.00  0.00     0.023 A 
ATOM     69  C   UNL A   1      40.061  32.763  38.355  1.00  0.00     0.031 A 
ATOM     70  C   UNL A   1      41.340  34.386  37.117  1.00  0.00     0.131 A 
ATOM     71  C   UNL A   1      39.966  33.682  39.411  1.00  0.00     0.055 A 
ATOM     72  C   UNL A   1      41.307  35.267  38.200  1.00  0.00     0.041 A 
ATOM     73  F   UNL A   1      41.973  34.793  36.005  1.00  0.00    -0.206 F 
ATOM     74  C   UNL A   1      40.606  34.921  39.352  1.00  0.00     0.022 A 
BRANCH  71  75
ATOM     75  S   UNL A   1      38.890  33.279  40.815  1.00  0.00     0.124 S 
ATOM     76  O   UNL A   1      39.378  34.206  41.833  1.00  0.00    -0.237 OA
ATOM     77  O   UNL A   1      37.560  33.554  40.285  1.00  0.00    -0.237 OA
ATOM     78  O   UNL A   1      39.180  31.870  41.074  1.00  0.00    -0.744 OA
ENDBRANCH  71  75
ENDBRANCH  54  68
BRANCH  55  79
ATOM     79  C   UNL A   1      40.833  27.369  28.959  1.00  0.00     0.023 A 
ATOM     80  C   UNL A   1      41.784  27.644  27.965  1.00  0.00     0.031 A 
ATOM     81  C   UNL A   1      39.907  26.337  28.718  1.00  0.00     0.131 A 
ATOM     82  C   UNL A   1      41.754  26.938  26.753  1.00  0.00     0.055 A 
ATOM     83  C   UNL A   1      39.917  25.599  27.533  1.00  0.00     0.041 A 
ATOM     84  F   UNL A   1      38.979  26.028  29.638  1.00  0.00    -0.206 F 
ATOM     85  C   UNL A   1      40.835  25.910  26.535  1.00  0.00     0.022 A 
BRANCH  82  86
ATOM     86  S   UNL A   1      42.868  27.458  25.418  1.00  0.00     0.124 S 
ATOM     87  O   UNL A   1      42.094  28.514  24.778  1.00  0.00    -0.237 OA
ATOM     88  O   UNL A   1      44.048  27.887  26.162  1.00  0.00    -0.237 OA
ATOM     89  O   UNL A   1      43.040  26.243  24.627  1.00  0.00    -0.744 OA
ENDBRANCH  82  86
ENDBRANCH  55  79
BRANCH  67  90
ATOM     90  C   UNL A   1      44.717  27.583  34.740  1.00  0.00     0.023 A 
ATOM     91  C   UNL A   1      44.515  26.360  35.404  1.00  0.00     0.031 A 
ATOM     92  C   UNL A   1      46.039  28.014  34.533  1.00  0.00     0.131 A 
ATOM     93  C   UNL A   1      45.617  25.637  35.885  1.00  0.00     0.055 A 
ATOM     94  C   UNL A   1      47.133  27.264  34.966  1.00  0.00     0.041 A 
ATOM     95  F   UNL A   1      46.288  29.175  33.906  1.00  0.00    -0.206 F 
ATOM     96  C   UNL A   1      46.924  26.074  35.658  1.00  0.00     0.022 A 
BRANCH  93  97
ATOM     97  S   UNL A   1      45.314  24.157  36.889  1.00  0.00     0.124 S 
ATOM     98  O   UNL A   1      46.671  23.737  37.226  1.00  0.00    -0.237 OA
ATOM     99  O   UNL A   1      44.519  24.685  37.992  1.00  0.00    -0.237 OA
ATOM    100  O   UNL A   1      44.596  23.266  35.980  1.00  0.00    -0.744 OA
ENDBRANCH  93  97
ENDBRANCH  67  90
ENDBRANCH  41  42
ENDBRANCH  33  36
ENDBRANCH  31  32
ENDBRANCH  30  31
ENDBRANCH   1  30
TORSDOF 19
ENDMDL
MODEL 2
REMARK VINA RESULT:     -12.3      1.614      7.472
REMARK SMILES CC1=C[C@@H](C)[C@H]2C(=O)N([C@H](Cc3ccccc3)C(=O)NCCCCCCNC(=O)c3ccc(-c4c5nc(c(-c6cc(S(=O)(=O)[O-])ccc6F)c6ccc([nH]6)c(-c6cc(S(=O)(=O)[O-])ccc6F)c6nc(c(-c7cc(S(=O)(=O)[O-])ccc7F)c7ccc4[nH]7)C=C6)C=C5)cc3)C(=O)[C@H]2C1
REMARK SMILES IDX 24 1 23 2 22 3 21 4 20 5 18 6 19 7 10 9 9 10 1 11 2 12 3 13
REMARK SMILES IDX 96 14 4 15 95 16 6 17 5 18 93 19 7 20 94 21 8 22 11 23 12 24
REMARK SMILES IDX 13 25 17 26 14 27 16 28 15 29 25 30 26 31 27 32 28 33 29 35
REMARK SMILES IDX 30 36 31 37 92 38 32 39 91 40 33 41 34 42 35 43 85 44 36 45
REMARK SMILES IDX 90 46 84 47 86 48 37 49 89 50 83 51 82 52 38 54 70 55 50 56
REMARK SMILES IDX 69 57 51 58 54 59 68 60 87 61 52 62 53 63 67 65 88 66 55 67
REMARK SMILES IDX 39 68 40 69 48 70 41 71 47 72 49 73 46 74 42 75 43 76 44 77
REMARK SMILES IDX 45 78 71 79 72 80 80 81 73 82 79 83 81 84 78 85 74 86 75 87
REMARK SMILES IDX 76 88 77 89 56 90 57 91 65 92 58 93 64 94 66 95 63 96 59 97
REMARK SMILES IDX 60 98 61 99 62 100
REMARK H PARENT 20 8 27 34 86 53 54 64
REMARK Flexibility Score: inf
ROOT
ATOM      1  C   UNL A   1      31.736  30.335  27.261  1.00  0.00     0.002 C 
ENDROOT
BRANCH   1   2
ATOM      2  C   UNL A   1      31.557  29.372  26.082  1.00  0.00     0.002 C 
BRANCH   2   3
ATOM      3  C   UNL A   1      32.453  29.631  24.867  1.00  0.00     0.021 C 
BRANCH   3   4
ATOM      4  C   UNL A   1      33.768  28.865  24.890  1.00  0.00     0.116 C 
BRANCH   4   5
ATOM      5  N   UNL A   1      34.332  28.617  23.575  1.00  0.00    -0.354 N 
ATOM      6  C   UNL A   1      33.866  27.842  22.549  1.00  0.00     0.243 C 
ATOM      7  O   UNL A   1      34.306  28.091  21.419  1.00  0.00    -0.273 OA
ATOM      8  H   UNL A   1      35.182  29.078  23.394  1.00  0.00     0.163 HD
BRANCH   6   9
ATOM      9  C   UNL A   1      32.799  26.737  22.734  1.00  0.00     0.186 C 
BRANCH   9  10
ATOM     10  N   UNL A   1      33.338  25.361  22.792  1.00  0.00    -0.269 N 
ATOM     11  C   UNL A   1      33.535  20.423  25.935  1.00  0.00     0.039 C 
ATOM     12  C   UNL A   1      33.412  21.427  24.824  1.00  0.00    -0.076 C 
ATOM     13  C   UNL A   1      32.375  21.393  23.972  1.00  0.00    -0.024 C 
ATOM     14  C   UNL A   1      34.518  22.447  24.736  1.00  0.00     0.044 C 
ATOM     15  C   UNL A   1      32.168  22.372  22.853  1.00  0.00     0.022 C 
ATOM     16  C   UNL A   1      34.409  23.455  23.600  1.00  0.00     0.096 C 
ATOM     17  C   UNL A   1      33.495  23.059  22.453  1.00  0.00     0.098 C 
ATOM     18  C   UNL A   1      31.007  23.288  23.262  1.00  0.00     0.013 C 
ATOM     19  C   UNL A   1      33.889  24.835  23.940  1.00  0.00     0.234 C 
ATOM     20  C   UNL A   1      33.275  24.401  21.824  1.00  0.00     0.234 C 
ATOM     21  O   UNL A   1      33.996  25.392  25.019  1.00  0.00    -0.274 OA
ATOM     22  O   UNL A   1      33.100  24.537  20.622  1.00  0.00    -0.274 OA
ENDBRANCH   9  10
BRANCH   9  23
ATOM     23  C   UNL A   1      31.520  26.861  21.876  1.00  0.00     0.071 C 
BRANCH  23  24
ATOM     24  C   UNL A   1      30.481  27.846  22.370  1.00  0.00    -0.045 A 
ATOM     25  C   UNL A   1      29.413  27.415  23.168  1.00  0.00     0.004 A 
ATOM     26  C   UNL A   1      30.528  29.196  21.996  1.00  0.00     0.004 A 
ATOM     27  C   UNL A   1      28.413  28.309  23.564  1.00  0.00     0.000 A 
ATOM     28  C   UNL A   1      29.535  30.090  22.396  1.00  0.00     0.000 A 
ATOM     29  C   UNL A   1      28.472  29.646  23.176  1.00  0.00     0.000 A 
ENDBRANCH  23  24
ENDBRANCH   9  23
ENDBRANCH   6   9
ENDBRANCH   4   5
ENDBRANCH   3   4
ENDBRANCH   2   3
ENDBRANCH   1   2
BRANCH   1  30
ATOM     30  C   UNL A   1      31.618  31.827  26.932  1.00  0.00     0.021 C 
BRANCH  30  31
ATOM     31  C   UNL A   1      32.882  32.648  27.161  1.00  0.00     0.116 C 
BRANCH  31  32
ATOM     32  N   UNL A   1      32.592  34.000  27.602  1.00  0.00    -0.352 N 
ATOM     33  C   UNL A   1      33.143  34.712  28.639  1.00  0.00     0.251 C 
ATOM     34  H   UNL A   1      31.902  34.475  27.085  1.00  0.00     0.163 HD
ATOM     35  O   UNL A   1      32.656  35.791  28.960  1.00  0.00    -0.269 OA
BRANCH  33  36
ATOM     36  C   UNL A   1      34.299  34.162  29.380  1.00  0.00     0.039 A 
ATOM     37  C   UNL A   1      34.058  33.321  30.469  1.00  0.00     0.014 A 
ATOM     38  C   UNL A   1      35.610  34.481  29.014  1.00  0.00     0.014 A 
ATOM     39  C   UNL A   1      35.132  32.758  31.161  1.00  0.00     0.010 A 
ATOM     40  C   UNL A   1      36.680  33.872  29.669  1.00  0.00     0.010 A 
ATOM     41  C   UNL A   1      36.451  33.007  30.750  1.00  0.00    -0.014 A 
BRANCH  41  42
ATOM     42  C   UNL A   1      37.604  32.383  31.450  1.00  0.00     0.031 A 
ATOM     43  C   UNL A   1      38.362  31.260  30.795  1.00  0.00     0.074 A 
ATOM     44  C   UNL A   1      37.933  32.792  32.691  1.00  0.00     0.049 A 
ATOM     45  N   UNL A   1      39.336  30.529  31.272  1.00  0.00    -0.248 NA
ATOM     46  C   UNL A   1      37.948  30.894  29.432  1.00  0.00     0.031 C 
ATOM     47  C   UNL A   1      37.251  33.851  33.440  1.00  0.00     0.029 A 
ATOM     48  N   UNL A   1      38.915  32.362  33.548  1.00  0.00    -0.354 N 
ATOM     49  C   UNL A   1      39.649  29.614  30.274  1.00  0.00     0.074 A 
ATOM     50  C   UNL A   1      38.718  29.845  29.188  1.00  0.00     0.031 C 
ATOM     51  C   UNL A   1      37.843  33.995  34.637  1.00  0.00     0.029 A 
ATOM     52  C   UNL A   1      38.917  33.015  34.760  1.00  0.00     0.049 A 
ATOM     53  H   UNL A   1      39.557  31.653  33.317  1.00  0.00     0.167 HD
ATOM     54  C   UNL A   1      40.633  28.682  30.255  1.00  0.00     0.034 A 
ATOM     55  C   UNL A   1      39.688  32.833  35.850  1.00  0.00     0.034 A 
ATOM     56  C   UNL A   1      41.560  28.471  31.340  1.00  0.00     0.049 A 
ATOM     57  C   UNL A   1      40.767  31.778  35.811  1.00  0.00     0.074 A 
ATOM     58  C   UNL A   1      42.615  27.577  31.413  1.00  0.00     0.029 A 
ATOM     59  N   UNL A   1      41.545  29.164  32.544  1.00  0.00    -0.354 N 
ATOM     60  N   UNL A   1      41.069  30.943  34.843  1.00  0.00    -0.248 NA
ATOM     61  C   UNL A   1      41.617  31.652  37.002  1.00  0.00     0.031 C 
ATOM     62  C   UNL A   1      43.201  27.692  32.679  1.00  0.00     0.029 A 
ATOM     63  C   UNL A   1      42.558  28.704  33.371  1.00  0.00     0.049 A 
ATOM     64  H   UNL A   1      40.908  29.878  32.776  1.00  0.00     0.167 HD
ATOM     65  C   UNL A   1      42.165  30.216  35.300  1.00  0.00     0.074 A 
ATOM     66  C   UNL A   1      42.479  30.723  36.620  1.00  0.00     0.031 C 
ATOM     67  C   UNL A   1      42.853  29.220  34.685  1.00  0.00     0.034 A 
BRANCH  54  68
ATOM     68  C   UNL A   1      40.742  27.811  29.027  1.00  0.00     0.023 A 
ATOM     69  C   UNL A   1      41.663  28.094  28.004  1.00  0.00     0.031 A 
ATOM     70  C   UNL A   1      39.906  26.691  28.869  1.00  0.00     0.131 A 
ATOM     71  C   UNL A   1      41.682  27.310  26.841  1.00  0.00     0.055 A 
ATOM     72  C   UNL A   1      39.981  25.870  27.742  1.00  0.00     0.041 A 
ATOM     73  F   UNL A   1      38.992  26.383  29.803  1.00  0.00    -0.206 F 
ATOM     74  C   UNL A   1      40.865  26.185  26.714  1.00  0.00     0.022 A 
BRANCH  71  75
ATOM     75  S   UNL A   1      42.704  27.854  25.445  1.00  0.00     0.124 S 
ATOM     76  O   UNL A   1      42.694  26.668  24.594  1.00  0.00    -0.237 OA
ATOM     77  O   UNL A   1      41.966  29.008  24.942  1.00  0.00    -0.237 OA
ATOM     78  O   UNL A   1      43.992  28.159  26.064  1.00  0.00    -0.744 OA
ENDBRANCH  71  75
ENDBRANCH  54  68
BRANCH  55  79
ATOM     79  C   UNL A   1      39.468  33.646  37.081  1.00  0.00     0.023 A 
ATOM     80  C   UNL A   1      40.249  34.780  37.349  1.00  0.00     0.031 A 
ATOM     81  C   UNL A   1      38.512  33.263  38.039  1.00  0.00     0.131 A 
ATOM     82  C   UNL A   1      40.103  35.459  38.568  1.00  0.00     0.055 A 
ATOM     83  C   UNL A   1      38.331  33.975  39.226  1.00  0.00     0.041 A 
ATOM     84  F   UNL A   1      37.734  32.189  37.831  1.00  0.00    -0.206 F 
ATOM     85  C   UNL A   1      39.141  35.072  39.503  1.00  0.00     0.022 A 
BRANCH  82  86
ATOM     86  S   UNL A   1      41.266  36.795  38.963  1.00  0.00     0.124 S 
ATOM     87  O   UNL A   1      41.983  36.239  40.104  1.00  0.00    -0.237 OA
ATOM     88  O   UNL A   1      42.025  36.908  37.721  1.00  0.00    -0.237 OA
ATOM     89  O   UNL A   1      40.394  37.927  39.264  1.00  0.00    -0.744 OA
ENDBRANCH  82  86
ENDBRANCH  55  79
BRANCH  67  90
ATOM     90  C   UNL A   1      44.042  28.657  35.422  1.00  0.00     0.023 A 
ATOM     91  C   UNL A   1      43.914  27.583  36.320  1.00  0.00     0.031 A 
ATOM     92  C   UNL A   1      45.319  29.213  35.231  1.00  0.00     0.131 A 
ATOM     93  C   UNL A   1      45.035  27.135  37.036  1.00  0.00     0.055 A 
ATOM     94  C   UNL A   1      46.440  28.727  35.904  1.00  0.00     0.041 A 
ATOM     95  F   UNL A   1      45.496  30.241  34.385  1.00  0.00    -0.206 F 
ATOM     96  C   UNL A   1      46.299  27.691  36.823  1.00  0.00     0.022 A 
BRANCH  93  97
ATOM     97  S   UNL A   1      44.802  25.870  38.314  1.00  0.00     0.124 S 
ATOM     98  O   UNL A   1      43.802  25.000  37.703  1.00  0.00    -0.237 OA
ATOM     99  O   UNL A   1      46.142  25.307  38.444  1.00  0.00    -0.237 OA
ATOM    100  O   UNL A   1      44.337  26.632  39.471  1.00  0.00    -0.744 OA
ENDBRANCH  93  97
ENDBRANCH  67  90
ENDBRANCH  41  42
ENDBRANCH  33  36
ENDBRANCH  31  32
ENDBRANCH  30  31
ENDBRANCH   1  30
TORSDOF 19
ENDMDL
MODEL 3
REMARK VINA RESULT:     -12.3      5.737     10.212
REMARK SMILES CC1=C[C@@H](C)[C@H]2C(=O)N([C@H](Cc3ccccc3)C(=O)NCCCCCCNC(=O)c3ccc(-c4c5nc(c(-c6cc(S(=O)(=O)[O-])ccc6F)c6ccc([nH]6)c(-c6cc(S(=O)(=O)[O-])ccc6F)c6nc(c(-c7cc(S(=O)(=O)[O-])ccc7F)c7ccc4[nH]7)C=C6)C=C5)cc3)C(=O)[C@H]2C1
REMARK SMILES IDX 24 1 23 2 22 3 21 4 20 5 18 6 19 7 10 9 9 10 1 11 2 12 3 13
REMARK SMILES IDX 96 14 4 15 95 16 6 17 5 18 93 19 7 20 94 21 8 22 11 23 12 24
REMARK SMILES IDX 13 25 17 26 14 27 16 28 15 29 25 30 26 31 27 32 28 33 29 35
REMARK SMILES IDX 30 36 31 37 92 38 32 39 91 40 33 41 34 42 35 43 85 44 36 45
REMARK SMILES IDX 90 46 84 47 86 48 37 49 89 50 83 51 82 52 38 54 70 55 50 56
REMARK SMILES IDX 69 57 51 58 54 59 68 60 87 61 52 62 53 63 67 65 88 66 55 67
REMARK SMILES IDX 39 68 40 69 48 70 41 71 47 72 49 73 46 74 42 75 43 76 44 77
REMARK SMILES IDX 45 78 71 79 72 80 80 81 73 82 79 83 81 84 78 85 74 86 75 87
REMARK SMILES IDX 76 88 77 89 56 90 57 91 65 92 58 93 64 94 66 95 63 96 59 97
REMARK SMILES IDX 60 98 61 99 62 100
REMARK H PARENT 20 8 27 34 86 53 54 64
REMARK Flexibility Score: inf
ROOT
ATOM      1  C   UNL A   1      39.627  22.710  26.177  1.00  0.00     0.002 C 
ENDROOT
BRANCH   1   2
ATOM      2  C   UNL A   1      38.485  23.604  26.677  1.00  0.00     0.002 C 
BRANCH   2   3
ATOM      3  C   UNL A   1      37.262  23.701  25.760  1.00  0.00     0.021 C 
BRANCH   3   4
ATOM      4  C   UNL A   1      36.378  22.461  25.772  1.00  0.00     0.116 C 
BRANCH   4   5
ATOM      5  N   UNL A   1      35.163  22.609  26.551  1.00  0.00    -0.354 N 
ATOM      6  C   UNL A   1      33.885  22.204  26.277  1.00  0.00     0.243 C 
ATOM      7  O   UNL A   1      33.115  22.100  27.241  1.00  0.00    -0.273 OA
ATOM      8  H   UNL A   1      35.275  23.073  27.412  1.00  0.00     0.163 HD
BRANCH   6   9
ATOM      9  C   UNL A   1      33.399  21.830  24.857  1.00  0.00     0.186 C 
BRANCH   9  10
ATOM     10  N   UNL A   1      33.037  22.983  24.004  1.00  0.00    -0.269 N 
ATOM     11  C   UNL A   1      30.528  28.275  23.917  1.00  0.00     0.039 C 
ATOM     12  C   UNL A   1      31.459  27.112  23.722  1.00  0.00    -0.076 C 
ATOM     13  C   UNL A   1      32.772  27.225  23.976  1.00  0.00    -0.024 C 
ATOM     14  C   UNL A   1      30.823  25.838  23.225  1.00  0.00     0.044 C 
ATOM     15  C   UNL A   1      33.761  26.105  23.829  1.00  0.00     0.022 C 
ATOM     16  C   UNL A   1      31.764  24.662  23.007  1.00  0.00     0.096 C 
ATOM     17  C   UNL A   1      33.236  25.012  22.871  1.00  0.00     0.098 C 
ATOM     18  C   UNL A   1      34.154  25.660  25.244  1.00  0.00     0.013 C 
ATOM     19  C   UNL A   1      31.804  23.593  24.077  1.00  0.00     0.234 C 
ATOM     20  C   UNL A   1      33.846  23.671  23.147  1.00  0.00     0.234 C 
ATOM     21  O   UNL A   1      30.886  23.295  24.823  1.00  0.00    -0.274 OA
ATOM     22  O   UNL A   1      34.891  23.310  22.627  1.00  0.00    -0.274 OA
ENDBRANCH   9  10
BRANCH   9  23
ATOM     23  C   UNL A   1      32.401  20.654  24.756  1.00  0.00     0.071 C 
BRANCH  23  24
ATOM     24  C   UNL A   1      32.964  19.348  24.235  1.00  0.00    -0.045 A 
ATOM     25  C   UNL A   1      34.149  18.820  24.767  1.00  0.00     0.004 A 
ATOM     26  C   UNL A   1      32.350  18.667  23.176  1.00  0.00     0.004 A 
ATOM     27  C   UNL A   1      34.709  17.654  24.237  1.00  0.00     0.000 A 
ATOM     28  C   UNL A   1      32.905  17.499  22.651  1.00  0.00     0.000 A 
ATOM     29  C   UNL A   1      34.089  16.994  23.177  1.00  0.00     0.000 A 
ENDBRANCH  23  24
ENDBRANCH   9  23
ENDBRANCH   6   9
ENDBRANCH   4   5
ENDBRANCH   3   4
ENDBRANCH   2   3
ENDBRANCH   1   2
BRANCH   1  30
ATOM     30  C   UNL A   1      39.618  21.264  26.687  1.00  0.00     0.021 C 
BRANCH  30  31
ATOM     31  C   UNL A   1      39.759  20.193  25.611  1.00  0.00     0.116 C 
BRANCH  31  32
ATOM     32  N   UNL A   1      40.723  19.170  25.972  1.00  0.00    -0.352 N 
ATOM     33  C   UNL A   1      42.031  19.311  26.367  1.00  0.00     0.251 C 
ATOM     34  H   UNL A   1      40.394  18.244  25.927  1.00  0.00     0.163 HD
ATOM     35  O   UNL A   1      42.741  18.316  26.479  1.00  0.00    -0.269 OA
BRANCH  33  36
ATOM     36  C   UNL A   1      42.583  20.658  26.627  1.00  0.00     0.039 A 
ATOM     37  C   UNL A   1      43.064  21.405  25.549  1.00  0.00     0.014 A 
ATOM     38  C   UNL A   1      42.639  21.179  27.924  1.00  0.00     0.014 A 
ATOM     39  C   UNL A   1      43.554  22.696  25.763  1.00  0.00     0.010 A 
ATOM     40  C   UNL A   1      43.074  22.487  28.128  1.00  0.00     0.010 A 
ATOM     41  C   UNL A   1      43.538  23.257  27.050  1.00  0.00    -0.014 A 
BRANCH  41  42
ATOM     42  C   UNL A   1      44.018  24.643  27.288  1.00  0.00     0.031 A 
ATOM     43  C   UNL A   1      43.058  25.698  27.768  1.00  0.00     0.074 A 
ATOM     44  C   UNL A   1      45.300  24.961  27.023  1.00  0.00     0.049 A 
ATOM     45  N   UNL A   1      43.257  26.977  27.952  1.00  0.00    -0.248 NA
ATOM     46  C   UNL A   1      41.684  25.257  28.052  1.00  0.00     0.031 C 
ATOM     47  C   UNL A   1      46.315  24.029  26.523  1.00  0.00     0.029 A 
ATOM     48  N   UNL A   1      45.970  26.155  27.124  1.00  0.00    -0.354 N 
ATOM     49  C   UNL A   1      42.036  27.497  28.367  1.00  0.00     0.074 A 
ATOM     50  C   UNL A   1      41.089  26.402  28.349  1.00  0.00     0.031 C 
ATOM     51  C   UNL A   1      47.478  24.685  26.375  1.00  0.00     0.029 A 
ATOM     52  C   UNL A   1      47.285  26.087  26.727  1.00  0.00     0.049 A 
ATOM     53  H   UNL A   1      45.547  26.981  27.451  1.00  0.00     0.167 HD
ATOM     54  C   UNL A   1      41.738  28.764  28.747  1.00  0.00     0.034 A 
ATOM     55  C   UNL A   1      48.225  27.051  26.642  1.00  0.00     0.034 A 
ATOM     56  C   UNL A   1      42.696  29.842  28.770  1.00  0.00     0.049 A 
ATOM     57  C   UNL A   1      47.864  28.457  27.056  1.00  0.00     0.074 A 
ATOM     58  C   UNL A   1      42.510  31.155  29.168  1.00  0.00     0.029 A 
ATOM     59  N   UNL A   1      44.025  29.732  28.379  1.00  0.00    -0.354 N 
ATOM     60  N   UNL A   1      46.710  28.922  27.478  1.00  0.00    -0.248 NA
ATOM     61  C   UNL A   1      48.933  29.461  26.997  1.00  0.00     0.031 C 
ATOM     62  C   UNL A   1      43.708  31.849  28.967  1.00  0.00     0.029 A 
ATOM     63  C   UNL A   1      44.662  30.957  28.508  1.00  0.00     0.049 A 
ATOM     64  H   UNL A   1      44.452  28.905  28.058  1.00  0.00     0.167 HD
ATOM     65  C   UNL A   1      46.928  30.267  27.765  1.00  0.00     0.074 A 
ATOM     66  C   UNL A   1      48.324  30.531  27.483  1.00  0.00     0.031 C 
ATOM     67  C   UNL A   1      46.055  31.201  28.220  1.00  0.00     0.034 A 
BRANCH  54  68
ATOM     68  C   UNL A   1      40.313  29.050  29.151  1.00  0.00     0.023 A 
ATOM     69  C   UNL A   1      39.913  29.034  30.498  1.00  0.00     0.031 A 
ATOM     70  C   UNL A   1      39.337  29.330  28.178  1.00  0.00     0.131 A 
ATOM     71  C   UNL A   1      38.563  29.225  30.831  1.00  0.00     0.055 A 
ATOM     72  C   UNL A   1      38.010  29.595  28.521  1.00  0.00     0.041 A 
ATOM     73  F   UNL A   1      39.655  29.339  26.874  1.00  0.00    -0.206 F 
ATOM     74  C   UNL A   1      37.614  29.532  29.854  1.00  0.00     0.022 A 
BRANCH  71  75
ATOM     75  S   UNL A   1      38.047  28.949  32.547  1.00  0.00     0.124 S 
ATOM     76  O   UNL A   1      39.053  29.711  33.283  1.00  0.00    -0.237 OA
ATOM     77  O   UNL A   1      36.694  29.493  32.564  1.00  0.00    -0.237 OA
ATOM     78  O   UNL A   1      38.138  27.498  32.702  1.00  0.00    -0.744 OA
ENDBRANCH  71  75
ENDBRANCH  54  68
BRANCH  55  79
ATOM     79  C   UNL A   1      49.590  26.738  26.131  1.00  0.00     0.023 A 
ATOM     80  C   UNL A   1      49.995  27.146  24.851  1.00  0.00     0.031 A 
ATOM     81  C   UNL A   1      50.490  25.973  26.894  1.00  0.00     0.131 A 
ATOM     82  C   UNL A   1      51.240  26.740  24.347  1.00  0.00     0.055 A 
ATOM     83  C   UNL A   1      51.751  25.618  26.411  1.00  0.00     0.041 A 
ATOM     84  F   UNL A   1      50.156  25.561  28.127  1.00  0.00    -0.206 F 
ATOM     85  C   UNL A   1      52.126  25.988  25.123  1.00  0.00     0.022 A 
BRANCH  82  86
ATOM     86  S   UNL A   1      51.642  27.116  22.619  1.00  0.00     0.124 S 
ATOM     87  O   UNL A   1      50.358  26.909  21.962  1.00  0.00    -0.237 OA
ATOM     88  O   UNL A   1      52.101  28.499  22.712  1.00  0.00    -0.237 OA
ATOM     89  O   UNL A   1      52.677  26.139  22.290  1.00  0.00    -0.744 OA
ENDBRANCH  82  86
ENDBRANCH  55  79
BRANCH  67  90
ATOM     90  C   UNL A   1      46.607  32.578  28.489  1.00  0.00     0.023 A 
ATOM     91  C   UNL A   1      46.762  33.526  27.463  1.00  0.00     0.031 A 
ATOM     92  C   UNL A   1      46.997  32.940  29.791  1.00  0.00     0.131 A 
ATOM     93  C   UNL A   1      47.344  34.771  27.745  1.00  0.00     0.055 A 
ATOM     94  C   UNL A   1      47.524  34.200  30.076  1.00  0.00     0.041 A 
ATOM     95  F   UNL A   1      46.871  32.072  30.808  1.00  0.00    -0.206 F 
ATOM     96  C   UNL A   1      47.712  35.119  29.047  1.00  0.00     0.022 A 
BRANCH  93  97
ATOM     97  S   UNL A   1      47.691  35.901  26.370  1.00  0.00     0.124 S 
ATOM     98  O   UNL A   1      47.900  34.975  25.261  1.00  0.00    -0.237 OA
ATOM     99  O   UNL A   1      46.474  36.703  26.308  1.00  0.00    -0.237 OA
ATOM    100  O   UNL A   1      48.885  36.621  26.810  1.00  0.00    -0.744 OA
ENDBRANCH  93  97
ENDBRANCH  67  90
ENDBRANCH  41  42
ENDBRANCH  33  36
ENDBRANCH  31  32
ENDBRANCH  30  31
ENDBRANCH   1  30
TORSDOF 19
ENDMDL
