MODEL 1
REMARK VINA RESULT:     -12.5      0.000      0.000
REMARK SMILES Cc1c2c([nH]c(=O)c1C(=O)NCCCCCCNC(=O)c1ccc(-c3c4nc(c(-c5cc(S(=O)(=O)[O-])ccc5F)c5ccc([nH]5)c(-c5cc(S(=O)(=O)[O-])ccc5F)c5nc(c(-c6cc(S(=O)(=O)[O-])ccc6F)c6ccc3[nH]6)C=C5)C=C4)cc1)CC(C)(C)CC2=O
REMARK SMILES IDX 16 1 15 2 14 3 13 4 12 5 11 6 9 7 10 8 8 10 1 11 2 12 3 13
REMARK SMILES IDX 4 14 89 15 6 16 5 17 84 18 88 19 90 20 7 21 85 23 86 24
REMARK SMILES IDX 87 25 17 26 18 27 19 28 20 30 21 31 22 32 83 33 23 34 82 35
REMARK SMILES IDX 24 36 25 37 26 38 76 39 27 40 81 41 75 42 77 43 28 44 80 45
REMARK SMILES IDX 74 46 73 47 29 49 61 50 41 51 60 52 42 53 45 54 59 55 78 56
REMARK SMILES IDX 43 57 44 58 58 60 79 61 46 62 30 63 31 64 39 65 32 66 38 67
REMARK SMILES IDX 40 68 37 69 33 70 34 71 35 72 36 73 62 74 63 75 71 76 64 77
REMARK SMILES IDX 70 78 72 79 69 80 65 81 66 82 67 83 68 84 47 85 48 86 56 87
REMARK SMILES IDX 49 88 55 89 57 90 54 91 50 92 51 93 52 94 53 95
REMARK H PARENT 11 9 5 22 18 29 77 48 45 59
REMARK Flexibility Score: inf
ROOT
ATOM      1  C   UNL A   1      31.651  31.852  26.787  1.00  0.00     0.021 C 
ENDROOT
BRANCH   1   2
ATOM      2  C   UNL A   1      31.771  30.327  26.714  1.00  0.00     0.002 C 
BRANCH   2   3
ATOM      3  C   UNL A   1      31.856  29.687  25.323  1.00  0.00     0.002 C 
BRANCH   3   4
ATOM      4  C   UNL A   1      33.234  29.246  24.820  1.00  0.00     0.021 C 
BRANCH   4   5
ATOM      5  C   UNL A   1      33.356  28.933  23.337  1.00  0.00     0.116 C 
BRANCH   5   6
ATOM      6  N   UNL A   1      32.131  28.948  22.566  1.00  0.00    -0.352 N 
ATOM      7  C   UNL A   1      31.183  27.964  22.430  1.00  0.00     0.257 C 
ATOM      8  O   UNL A   1      30.101  28.275  21.930  1.00  0.00    -0.269 OA
ATOM      9  H   UNL A   1      31.953  29.780  22.071  1.00  0.00     0.163 HD
BRANCH   7  10
ATOM     10  C   UNL A   1      31.470  26.540  22.816  1.00  0.00     0.108 A 
ATOM     11  C   UNL A   1      29.737  26.373  24.666  1.00  0.00     0.046 C 
ATOM     12  C   UNL A   1      30.910  25.878  23.860  1.00  0.00    -0.020 A 
ATOM     13  C   UNL A   1      31.354  24.522  24.203  1.00  0.00     0.041 A 
ATOM     14  C   UNL A   1      32.016  23.773  23.304  1.00  0.00     0.030 A 
ATOM     15  C   UNL A   1      31.126  23.925  25.559  1.00  0.00     0.165 C 
ATOM     16  C   UNL A   1      32.305  25.717  21.862  1.00  0.00     0.261 A 
ATOM     17  N   UNL A   1      32.427  24.371  22.138  1.00  0.00    -0.325 N 
ATOM     18  C   UNL A   1      32.407  22.324  23.500  1.00  0.00     0.061 C 
ATOM     19  C   UNL A   1      31.139  22.422  25.666  1.00  0.00     0.088 C 
ATOM     20  O   UNL A   1      30.962  24.632  26.550  1.00  0.00    -0.294 OA
ATOM     21  O   UNL A   1      32.858  26.175  20.867  1.00  0.00    -0.269 OA
ATOM     22  H   UNL A   1      32.840  23.799  21.450  1.00  0.00     0.169 HD
ATOM     23  C   UNL A   1      32.386  21.855  24.974  1.00  0.00    -0.023 C 
ATOM     24  C   UNL A   1      33.669  22.320  25.697  1.00  0.00     0.012 C 
ATOM     25  C   UNL A   1      32.329  20.320  25.039  1.00  0.00     0.012 C 
ENDBRANCH   7  10
ENDBRANCH   5   6
ENDBRANCH   4   5
ENDBRANCH   3   4
ENDBRANCH   2   3
ENDBRANCH   1   2
BRANCH   1  26
ATOM     26  C   UNL A   1      32.925  32.618  27.124  1.00  0.00     0.116 C 
BRANCH  26  27
ATOM     27  N   UNL A   1      32.664  33.916  27.717  1.00  0.00    -0.352 N 
ATOM     28  C   UNL A   1      33.244  34.522  28.805  1.00  0.00     0.251 C 
ATOM     29  H   UNL A   1      31.962  34.444  27.271  1.00  0.00     0.163 HD
ATOM     30  O   UNL A   1      32.772  35.565  29.239  1.00  0.00    -0.269 OA
BRANCH  28  31
ATOM     31  C   UNL A   1      34.416  33.902  29.466  1.00  0.00     0.039 A 
ATOM     32  C   UNL A   1      34.195  32.945  30.460  1.00  0.00     0.014 A 
ATOM     33  C   UNL A   1      35.720  34.269  29.123  1.00  0.00     0.014 A 
ATOM     34  C   UNL A   1      35.283  32.316  31.069  1.00  0.00     0.010 A 
ATOM     35  C   UNL A   1      36.802  33.590  29.679  1.00  0.00     0.010 A 
ATOM     36  C   UNL A   1      36.595  32.610  30.661  1.00  0.00    -0.014 A 
BRANCH  36  37
ATOM     37  C   UNL A   1      37.758  31.915  31.271  1.00  0.00     0.031 A 
ATOM     38  C   UNL A   1      38.222  32.294  32.650  1.00  0.00     0.074 A 
ATOM     39  C   UNL A   1      38.405  30.958  30.576  1.00  0.00     0.049 A 
ATOM     40  N   UNL A   1      39.238  31.835  33.334  1.00  0.00    -0.248 NA
ATOM     41  C   UNL A   1      37.454  33.341  33.345  1.00  0.00     0.031 C 
ATOM     42  C   UNL A   1      38.053  30.514  29.225  1.00  0.00     0.029 A 
ATOM     43  N   UNL A   1      39.486  30.181  30.909  1.00  0.00    -0.354 N 
ATOM     44  C   UNL A   1      39.229  32.530  34.538  1.00  0.00     0.074 A 
ATOM     45  C   UNL A   1      38.147  33.487  34.466  1.00  0.00     0.031 C 
ATOM     46  C   UNL A   1      38.875  29.515  28.864  1.00  0.00     0.029 A 
ATOM     47  C   UNL A   1      39.842  29.278  29.932  1.00  0.00     0.049 A 
ATOM     48  H   UNL A   1      39.962  30.260  31.767  1.00  0.00     0.167 HD
ATOM     49  C   UNL A   1      40.030  32.364  35.618  1.00  0.00     0.034 A 
ATOM     50  C   UNL A   1      40.836  28.368  29.899  1.00  0.00     0.034 A 
ATOM     51  C   UNL A   1      41.095  31.397  35.685  1.00  0.00     0.049 A 
ATOM     52  C   UNL A   1      41.753  28.247  31.086  1.00  0.00     0.074 A 
ATOM     53  C   UNL A   1      41.947  31.129  36.743  1.00  0.00     0.029 A 
ATOM     54  N   UNL A   1      41.457  30.539  34.656  1.00  0.00    -0.354 N 
ATOM     55  N   UNL A   1      41.726  28.909  32.220  1.00  0.00    -0.248 NA
ATOM     56  C   UNL A   1      42.837  27.259  30.992  1.00  0.00     0.031 C 
ATOM     57  C   UNL A   1      42.862  30.158  36.331  1.00  0.00     0.029 A 
ATOM     58  C   UNL A   1      42.538  29.764  35.043  1.00  0.00     0.049 A 
ATOM     59  H   UNL A   1      41.009  30.487  33.779  1.00  0.00     0.167 HD
ATOM     60  C   UNL A   1      42.774  28.402  32.981  1.00  0.00     0.074 A 
ATOM     61  C   UNL A   1      43.410  27.373  32.183  1.00  0.00     0.031 C 
ATOM     62  C   UNL A   1      43.171  28.753  34.230  1.00  0.00     0.034 A 
BRANCH  49  63
ATOM     63  C   UNL A   1      39.789  33.250  36.812  1.00  0.00     0.023 A 
ATOM     64  C   UNL A   1      39.060  32.796  37.924  1.00  0.00     0.031 A 
ATOM     65  C   UNL A   1      40.318  34.553  36.853  1.00  0.00     0.131 A 
ATOM     66  C   UNL A   1      38.842  33.652  39.013  1.00  0.00     0.055 A 
ATOM     67  C   UNL A   1      40.152  35.377  37.967  1.00  0.00     0.041 A 
ATOM     68  F   UNL A   1      41.006  35.043  35.810  1.00  0.00    -0.206 F 
ATOM     69  C   UNL A   1      39.405  34.930  39.053  1.00  0.00     0.022 A 
BRANCH  66  70
ATOM     70  S   UNL A   1      37.744  33.100  40.346  1.00  0.00     0.124 S 
ATOM     71  O   UNL A   1      36.526  32.774  39.606  1.00  0.00    -0.237 OA
ATOM     72  O   UNL A   1      38.472  31.968  40.908  1.00  0.00    -0.237 OA
ATOM     73  O   UNL A   1      37.645  34.270  41.214  1.00  0.00    -0.744 OA
ENDBRANCH  66  70
ENDBRANCH  49  63
BRANCH  50  74
ATOM     74  C   UNL A   1      41.014  27.502  28.699  1.00  0.00     0.023 A 
ATOM     75  C   UNL A   1      42.013  27.779  27.753  1.00  0.00     0.031 A 
ATOM     76  C   UNL A   1      40.190  26.383  28.483  1.00  0.00     0.131 A 
ATOM     77  C   UNL A   1      42.150  26.960  26.621  1.00  0.00     0.055 A 
ATOM     78  C   UNL A   1      40.356  25.548  27.377  1.00  0.00     0.041 A 
ATOM     79  F   UNL A   1      39.223  26.073  29.361  1.00  0.00    -0.206 F 
ATOM     80  C   UNL A   1      41.338  25.839  26.435  1.00  0.00     0.022 A 
BRANCH  77  81
ATOM     81  S   UNL A   1      43.389  27.400  25.371  1.00  0.00     0.124 S 
ATOM     82  O   UNL A   1      44.079  26.131  25.177  1.00  0.00    -0.237 OA
ATOM     83  O   UNL A   1      42.556  27.856  24.264  1.00  0.00    -0.237 OA
ATOM     84  O   UNL A   1      44.174  28.444  26.027  1.00  0.00    -0.744 OA
ENDBRANCH  77  81
ENDBRANCH  50  74
BRANCH  62  85
ATOM     85  C   UNL A   1      44.338  28.011  34.824  1.00  0.00     0.023 A 
ATOM     86  C   UNL A   1      44.169  26.773  35.465  1.00  0.00     0.031 A 
ATOM     87  C   UNL A   1      45.642  28.523  34.698  1.00  0.00     0.131 A 
ATOM     88  C   UNL A   1      45.285  26.096  35.979  1.00  0.00     0.055 A 
ATOM     89  C   UNL A   1      46.754  27.821  35.166  1.00  0.00     0.041 A 
ATOM     90  F   UNL A   1      45.858  29.700  34.090  1.00  0.00    -0.206 F 
ATOM     91  C   UNL A   1      46.577  26.603  35.816  1.00  0.00     0.022 A 
BRANCH  88  92
ATOM     92  S   UNL A   1      45.021  24.556  36.899  1.00  0.00     0.124 S 
ATOM     93  O   UNL A   1      44.064  23.855  36.048  1.00  0.00    -0.237 OA
ATOM     94  O   UNL A   1      46.364  23.986  36.950  1.00  0.00    -0.237 OA
ATOM     95  O   UNL A   1      44.493  25.010  38.184  1.00  0.00    -0.744 OA
ENDBRANCH  88  92
ENDBRANCH  62  85
ENDBRANCH  36  37
ENDBRANCH  28  31
ENDBRANCH  26  27
ENDBRANCH   1  26
TORSDOF 16
ENDMDL
MODEL 2
REMARK VINA RESULT:     -12.4      5.520      9.821
REMARK SMILES Cc1c2c([nH]c(=O)c1C(=O)NCCCCCCNC(=O)c1ccc(-c3c4nc(c(-c5cc(S(=O)(=O)[O-])ccc5F)c5ccc([nH]5)c(-c5cc(S(=O)(=O)[O-])ccc5F)c5nc(c(-c6cc(S(=O)(=O)[O-])ccc6F)c6ccc3[nH]6)C=C5)C=C4)cc1)CC(C)(C)CC2=O
REMARK SMILES IDX 16 1 15 2 14 3 13 4 12 5 11 6 9 7 10 8 8 10 1 11 2 12 3 13
REMARK SMILES IDX 4 14 89 15 6 16 5 17 84 18 88 19 90 20 7 21 85 23 86 24
REMARK SMILES IDX 87 25 17 26 18 27 19 28 20 30 21 31 22 32 83 33 23 34 82 35
REMARK SMILES IDX 24 36 25 37 26 38 76 39 27 40 81 41 75 42 77 43 28 44 80 45
REMARK SMILES IDX 74 46 73 47 29 49 61 50 41 51 60 52 42 53 45 54 59 55 78 56
REMARK SMILES IDX 43 57 44 58 58 60 79 61 46 62 30 63 31 64 39 65 32 66 38 67
REMARK SMILES IDX 40 68 37 69 33 70 34 71 35 72 36 73 62 74 63 75 71 76 64 77
REMARK SMILES IDX 70 78 72 79 69 80 65 81 66 82 67 83 68 84 47 85 48 86 56 87
REMARK SMILES IDX 49 88 55 89 57 90 54 91 50 92 51 93 52 94 53 95
REMARK H PARENT 11 9 5 22 18 29 77 48 45 59
REMARK Flexibility Score: inf
ROOT
ATOM      1  C   UNL A   1      38.181  19.950  24.995  1.00  0.00     0.021 C 
ENDROOT
BRANCH   1   2
ATOM      2  C   UNL A   1      37.305  21.143  24.603  1.00  0.00     0.002 C 
BRANCH   2   3
ATOM      3  C   UNL A   1      35.847  21.141  25.078  1.00  0.00     0.002 C 
BRANCH   3   4
ATOM      4  C   UNL A   1      35.409  22.235  26.056  1.00  0.00     0.021 C 
BRANCH   4   5
ATOM      5  C   UNL A   1      34.240  21.908  26.973  1.00  0.00     0.116 C 
BRANCH   5   6
ATOM      6  N   UNL A   1      33.285  20.935  26.489  1.00  0.00    -0.352 N 
ATOM      7  C   UNL A   1      32.309  21.083  25.534  1.00  0.00     0.257 C 
ATOM      8  O   UNL A   1      31.774  20.064  25.098  1.00  0.00    -0.269 OA
ATOM      9  H   UNL A   1      33.343  20.044  26.901  1.00  0.00     0.163 HD
BRANCH   7  10
ATOM     10  C   UNL A   1      31.858  22.442  25.077  1.00  0.00     0.108 A 
ATOM     11  C   UNL A   1      32.654  22.235  22.674  1.00  0.00     0.046 C 
ATOM     12  C   UNL A   1      32.100  22.985  23.858  1.00  0.00    -0.020 A 
ATOM     13  C   UNL A   1      31.703  24.368  23.568  1.00  0.00     0.041 A 
ATOM     14  C   UNL A   1      30.780  24.984  24.326  1.00  0.00     0.030 A 
ATOM     15  C   UNL A   1      32.317  25.160  22.453  1.00  0.00     0.165 C 
ATOM     16  C   UNL A   1      30.901  23.194  25.975  1.00  0.00     0.261 A 
ATOM     17  N   UNL A   1      30.363  24.362  25.478  1.00  0.00    -0.325 N 
ATOM     18  C   UNL A   1      30.200  26.354  24.046  1.00  0.00     0.061 C 
ATOM     19  C   UNL A   1      31.527  26.324  21.914  1.00  0.00     0.088 C 
ATOM     20  O   UNL A   1      33.432  24.888  22.014  1.00  0.00    -0.294 OA
ATOM     21  O   UNL A   1      30.576  22.816  27.096  1.00  0.00    -0.269 OA
ATOM     22  H   UNL A   1      29.630  24.781  25.985  1.00  0.00     0.169 HD
ATOM     23  C   UNL A   1      31.039  27.210  23.068  1.00  0.00    -0.023 C 
ATOM     24  C   UNL A   1      32.235  27.845  23.810  1.00  0.00     0.012 C 
ATOM     25  C   UNL A   1      30.179  28.345  22.486  1.00  0.00     0.012 C 
ENDBRANCH   7  10
ENDBRANCH   5   6
ENDBRANCH   4   5
ENDBRANCH   3   4
ENDBRANCH   2   3
ENDBRANCH   1   2
BRANCH   1  26
ATOM     26  C   UNL A   1      39.269  20.218  26.029  1.00  0.00     0.116 C 
BRANCH  26  27
ATOM     27  N   UNL A   1      40.331  19.230  25.999  1.00  0.00    -0.352 N 
ATOM     28  C   UNL A   1      41.693  19.397  26.073  1.00  0.00     0.251 C 
ATOM     29  H   UNL A   1      40.030  18.296  25.912  1.00  0.00     0.163 HD
ATOM     30  O   UNL A   1      42.431  18.439  25.875  1.00  0.00    -0.269 OA
BRANCH  28  31
ATOM     31  C   UNL A   1      42.265  20.731  26.363  1.00  0.00     0.039 A 
ATOM     32  C   UNL A   1      42.536  21.590  25.295  1.00  0.00     0.014 A 
ATOM     33  C   UNL A   1      42.550  21.130  27.672  1.00  0.00     0.014 A 
ATOM     34  C   UNL A   1      43.036  22.870  25.544  1.00  0.00     0.010 A 
ATOM     35  C   UNL A   1      42.981  22.431  27.924  1.00  0.00     0.010 A 
ATOM     36  C   UNL A   1      43.234  23.312  26.862  1.00  0.00    -0.014 A 
BRANCH  36  37
ATOM     37  C   UNL A   1      43.724  24.687  27.142  1.00  0.00     0.031 A 
ATOM     38  C   UNL A   1      42.770  25.738  27.640  1.00  0.00     0.074 A 
ATOM     39  C   UNL A   1      45.020  24.991  26.929  1.00  0.00     0.049 A 
ATOM     40  N   UNL A   1      42.996  27.000  27.900  1.00  0.00    -0.248 NA
ATOM     41  C   UNL A   1      41.375  25.320  27.856  1.00  0.00     0.031 C 
ATOM     42  C   UNL A   1      46.035  24.058  26.436  1.00  0.00     0.029 A 
ATOM     43  N   UNL A   1      45.708  26.166  27.107  1.00  0.00    -0.354 N 
ATOM     44  C   UNL A   1      41.777  27.524  28.315  1.00  0.00     0.074 A 
ATOM     45  C   UNL A   1      40.801  26.462  28.209  1.00  0.00     0.031 C 
ATOM     46  C   UNL A   1      47.222  24.683  26.393  1.00  0.00     0.029 A 
ATOM     47  C   UNL A   1      47.048  26.073  26.807  1.00  0.00     0.049 A 
ATOM     48  H   UNL A   1      45.283  26.996  27.421  1.00  0.00     0.167 HD
ATOM     49  C   UNL A   1      41.503  28.769  28.772  1.00  0.00     0.034 A 
ATOM     50  C   UNL A   1      48.024  27.002  26.854  1.00  0.00     0.034 A 
ATOM     51  C   UNL A   1      42.486  29.816  28.887  1.00  0.00     0.049 A 
ATOM     52  C   UNL A   1      47.681  28.397  27.304  1.00  0.00     0.074 A 
ATOM     53  C   UNL A   1      42.317  31.105  29.365  1.00  0.00     0.029 A 
ATOM     54  N   UNL A   1      43.820  29.698  28.523  1.00  0.00    -0.354 N 
ATOM     55  N   UNL A   1      46.523  28.874  27.699  1.00  0.00    -0.248 NA
ATOM     56  C   UNL A   1      48.772  29.381  27.315  1.00  0.00     0.031 C 
ATOM     57  C   UNL A   1      43.531  31.783  29.229  1.00  0.00     0.029 A 
ATOM     58  C   UNL A   1      44.477  30.899  28.736  1.00  0.00     0.049 A 
ATOM     59  H   UNL A   1      44.239  28.880  28.167  1.00  0.00     0.167 HD
ATOM     60  C   UNL A   1      46.752  30.207  28.025  1.00  0.00     0.074 A 
ATOM     61  C   UNL A   1      48.160  30.457  27.789  1.00  0.00     0.031 C 
ATOM     62  C   UNL A   1      45.878  31.138  28.482  1.00  0.00     0.034 A 
BRANCH  49  63
ATOM     63  C   UNL A   1      40.083  29.072  29.175  1.00  0.00     0.023 A 
ATOM     64  C   UNL A   1      39.697  29.095  30.526  1.00  0.00     0.031 A 
ATOM     65  C   UNL A   1      39.112  29.367  28.203  1.00  0.00     0.131 A 
ATOM     66  C   UNL A   1      38.363  29.365  30.866  1.00  0.00     0.055 A 
ATOM     67  C   UNL A   1      37.802  29.699  28.551  1.00  0.00     0.041 A 
ATOM     68  F   UNL A   1      39.423  29.341  26.897  1.00  0.00    -0.206 F 
ATOM     69  C   UNL A   1      37.419  29.692  29.890  1.00  0.00     0.022 A 
BRANCH  66  70
ATOM     70  S   UNL A   1      37.860  29.204  32.601  1.00  0.00     0.124 S 
ATOM     71  O   UNL A   1      36.585  29.916  32.603  1.00  0.00    -0.237 OA
ATOM     72  O   UNL A   1      37.785  27.758  32.776  1.00  0.00    -0.237 OA
ATOM     73  O   UNL A   1      38.938  29.865  33.332  1.00  0.00    -0.744 OA
ENDBRANCH  66  70
ENDBRANCH  49  63
BRANCH  50  74
ATOM     74  C   UNL A   1      49.417  26.642  26.464  1.00  0.00     0.023 A 
ATOM     75  C   UNL A   1      49.943  27.042  25.227  1.00  0.00     0.031 A 
ATOM     76  C   UNL A   1      50.241  25.895  27.324  1.00  0.00     0.131 A 
ATOM     77  C   UNL A   1      51.252  26.676  24.873  1.00  0.00     0.055 A 
ATOM     78  C   UNL A   1      51.554  25.567  26.985  1.00  0.00     0.041 A 
ATOM     79  F   UNL A   1      49.785  25.492  28.521  1.00  0.00    -0.206 F 
ATOM     80  C   UNL A   1      52.065  25.954  25.749  1.00  0.00     0.022 A 
BRANCH  77  81
ATOM     81  S   UNL A   1      51.869  27.129  23.228  1.00  0.00     0.124 S 
ATOM     82  O   UNL A   1      52.940  26.158  23.035  1.00  0.00    -0.237 OA
ATOM     83  O   UNL A   1      50.683  26.952  22.398  1.00  0.00    -0.237 OA
ATOM     84  O   UNL A   1      52.305  28.514  23.400  1.00  0.00    -0.744 OA
ENDBRANCH  77  81
ENDBRANCH  50  74
BRANCH  62  85
ATOM     85  C   UNL A   1      46.415  32.513  28.777  1.00  0.00     0.023 A 
ATOM     86  C   UNL A   1      46.390  33.531  27.811  1.00  0.00     0.031 A 
ATOM     87  C   UNL A   1      46.906  32.823  30.058  1.00  0.00     0.131 A 
ATOM     88  C   UNL A   1      46.871  34.809  28.132  1.00  0.00     0.055 A 
ATOM     89  C   UNL A   1      47.335  34.108  30.388  1.00  0.00     0.041 A 
ATOM     90  F   UNL A   1      46.947  31.885  31.019  1.00  0.00    -0.206 F 
ATOM     91  C   UNL A   1      47.324  35.108  29.420  1.00  0.00     0.022 A 
BRANCH  88  92
ATOM     92  S   UNL A   1      46.929  36.071  26.831  1.00  0.00     0.124 S 
ATOM     93  O   UNL A   1      45.695  36.812  27.073  1.00  0.00    -0.237 OA
ATOM     94  O   UNL A   1      48.168  36.780  27.135  1.00  0.00    -0.237 OA
ATOM     95  O   UNL A   1      46.952  35.289  25.596  1.00  0.00    -0.744 OA
ENDBRANCH  88  92
ENDBRANCH  62  85
ENDBRANCH  36  37
ENDBRANCH  28  31
ENDBRANCH  26  27
ENDBRANCH   1  26
TORSDOF 16
ENDMDL
MODEL 3
REMARK VINA RESULT:     -12.4      0.614      7.734
REMARK SMILES Cc1c2c([nH]c(=O)c1C(=O)NCCCCCCNC(=O)c1ccc(-c3c4nc(c(-c5cc(S(=O)(=O)[O-])ccc5F)c5ccc([nH]5)c(-c5cc(S(=O)(=O)[O-])ccc5F)c5nc(c(-c6cc(S(=O)(=O)[O-])ccc6F)c6ccc3[nH]6)C=C5)C=C4)cc1)CC(C)(C)CC2=O
REMARK SMILES IDX 16 1 15 2 14 3 13 4 12 5 11 6 9 7 10 8 8 10 1 11 2 12 3 13
REMARK SMILES IDX 4 14 89 15 6 16 5 17 84 18 88 19 90 20 7 21 85 23 86 24
REMARK SMILES IDX 87 25 17 26 18 27 19 28 20 30 21 31 22 32 83 33 23 34 82 35
REMARK SMILES IDX 24 36 25 37 26 38 76 39 27 40 81 41 75 42 77 43 28 44 80 45
REMARK SMILES IDX 74 46 73 47 29 49 61 50 41 51 60 52 42 53 45 54 59 55 78 56
REMARK SMILES IDX 43 57 44 58 58 60 79 61 46 62 30 63 31 64 39 65 32 66 38 67
REMARK SMILES IDX 40 68 37 69 33 70 34 71 35 72 36 73 62 74 63 75 71 76 64 77
REMARK SMILES IDX 70 78 72 79 69 80 65 81 66 82 67 83 68 84 47 85 48 86 56 87
REMARK SMILES IDX 49 88 55 89 57 90 54 91 50 92 51 93 52 94 53 95
REMARK H PARENT 11 9 5 22 18 29 77 48 45 59
REMARK Flexibility Score: inf
ROOT
ATOM      1  C   UNL A   1      31.541  31.617  26.554  1.00  0.00     0.021 C 
ENDROOT
BRANCH   1   2
ATOM      2  C   UNL A   1      31.757  30.308  25.789  1.00  0.00     0.002 C 
BRANCH   2   3
ATOM      3  C   UNL A   1      33.175  29.725  25.764  1.00  0.00     0.002 C 
BRANCH   3   4
ATOM      4  C   UNL A   1      33.403  28.431  24.977  1.00  0.00     0.021 C 
BRANCH   4   5
ATOM      5  C   UNL A   1      33.598  28.567  23.474  1.00  0.00     0.116 C 
BRANCH   5   6
ATOM      6  N   UNL A   1      32.400  28.630  22.666  1.00  0.00    -0.352 N 
ATOM      7  C   UNL A   1      31.458  27.655  22.438  1.00  0.00     0.257 C 
ATOM      8  O   UNL A   1      30.393  27.996  21.923  1.00  0.00    -0.269 OA
ATOM      9  H   UNL A   1      32.236  29.490  22.218  1.00  0.00     0.163 HD
BRANCH   7  10
ATOM     10  C   UNL A   1      31.735  26.210  22.744  1.00  0.00     0.108 A 
ATOM     11  C   UNL A   1      30.001  25.952  24.583  1.00  0.00     0.046 C 
ATOM     12  C   UNL A   1      31.171  25.495  23.750  1.00  0.00    -0.020 A 
ATOM     13  C   UNL A   1      31.606  24.119  24.018  1.00  0.00     0.041 A 
ATOM     14  C   UNL A   1      32.262  23.417  23.078  1.00  0.00     0.030 A 
ATOM     15  C   UNL A   1      31.374  23.450  25.339  1.00  0.00     0.165 C 
ATOM     16  C   UNL A   1      32.564  25.436  21.746  1.00  0.00     0.261 A 
ATOM     17  N   UNL A   1      32.677  24.076  21.946  1.00  0.00    -0.325 N 
ATOM     18  C   UNL A   1      32.643  21.957  23.193  1.00  0.00     0.061 C 
ATOM     19  C   UNL A   1      31.376  21.943  25.361  1.00  0.00     0.088 C 
ATOM     20  O   UNL A   1      31.215  24.102  26.367  1.00  0.00    -0.294 OA
ATOM     21  O   UNL A   1      33.121  25.944  20.778  1.00  0.00    -0.269 OA
ATOM     22  H   UNL A   1      33.086  23.540  21.228  1.00  0.00     0.169 HD
ATOM     23  C   UNL A   1      32.619  21.407  24.639  1.00  0.00    -0.023 C 
ATOM     24  C   UNL A   1      33.905  21.822  25.386  1.00  0.00     0.012 C 
ATOM     25  C   UNL A   1      32.551  19.871  24.619  1.00  0.00     0.012 C 
ENDBRANCH   7  10
ENDBRANCH   5   6
ENDBRANCH   4   5
ENDBRANCH   3   4
ENDBRANCH   2   3
ENDBRANCH   1   2
BRANCH   1  26
ATOM     26  C   UNL A   1      32.783  32.261  27.161  1.00  0.00     0.116 C 
BRANCH  26  27
ATOM     27  N   UNL A   1      32.581  33.654  27.514  1.00  0.00    -0.352 N 
ATOM     28  C   UNL A   1      33.200  34.419  28.473  1.00  0.00     0.251 C 
ATOM     29  H   UNL A   1      31.895  34.122  26.986  1.00  0.00     0.163 HD
ATOM     30  O   UNL A   1      32.775  35.542  28.717  1.00  0.00    -0.269 OA
BRANCH  28  31
ATOM     31  C   UNL A   1      34.355  33.880  29.226  1.00  0.00     0.039 A 
ATOM     32  C   UNL A   1      34.111  33.053  30.325  1.00  0.00     0.014 A 
ATOM     33  C   UNL A   1      35.668  34.197  28.865  1.00  0.00     0.014 A 
ATOM     34  C   UNL A   1      35.184  32.497  31.026  1.00  0.00     0.010 A 
ATOM     35  C   UNL A   1      36.735  33.585  29.520  1.00  0.00     0.010 A 
ATOM     36  C   UNL A   1      36.504  32.733  30.610  1.00  0.00    -0.014 A 
BRANCH  36  37
ATOM     37  C   UNL A   1      37.652  32.112  31.321  1.00  0.00     0.031 A 
ATOM     38  C   UNL A   1      38.416  30.989  30.675  1.00  0.00     0.074 A 
ATOM     39  C   UNL A   1      37.992  32.547  32.550  1.00  0.00     0.049 A 
ATOM     40  N   UNL A   1      39.417  30.293  31.150  1.00  0.00    -0.248 NA
ATOM     41  C   UNL A   1      37.987  30.582  29.327  1.00  0.00     0.031 C 
ATOM     42  C   UNL A   1      37.316  33.621  33.282  1.00  0.00     0.029 A 
ATOM     43  N   UNL A   1      38.993  32.146  33.400  1.00  0.00    -0.354 N 
ATOM     44  C   UNL A   1      39.740  29.372  30.160  1.00  0.00     0.074 A 
ATOM     45  C   UNL A   1      38.789  29.554  29.086  1.00  0.00     0.031 C 
ATOM     46  C   UNL A   1      37.948  33.823  34.449  1.00  0.00     0.029 A 
ATOM     47  C   UNL A   1      39.042  32.863  34.575  1.00  0.00     0.049 A 
ATOM     48  H   UNL A   1      39.617  31.416  33.190  1.00  0.00     0.167 HD
ATOM     49  C   UNL A   1      40.757  28.478  30.135  1.00  0.00     0.034 A 
ATOM     50  C   UNL A   1      39.870  32.757  35.633  1.00  0.00     0.034 A 
ATOM     51  C   UNL A   1      41.708  28.315  31.205  1.00  0.00     0.049 A 
ATOM     52  C   UNL A   1      40.953  31.711  35.609  1.00  0.00     0.074 A 
ATOM     53  C   UNL A   1      42.793  27.457  31.266  1.00  0.00     0.029 A 
ATOM     54  N   UNL A   1      41.692  29.023  32.398  1.00  0.00    -0.354 N 
ATOM     55  N   UNL A   1      41.248  30.852  34.661  1.00  0.00    -0.248 NA
ATOM     56  C   UNL A   1      41.813  31.616  36.797  1.00  0.00     0.031 C 
ATOM     57  C   UNL A   1      43.391  27.600  32.521  1.00  0.00     0.029 A 
ATOM     58  C   UNL A   1      42.728  28.598  33.215  1.00  0.00     0.049 A 
ATOM     59  H   UNL A   1      41.041  29.725  32.631  1.00  0.00     0.167 HD
ATOM     60  C   UNL A   1      42.342  30.131  35.129  1.00  0.00     0.074 A 
ATOM     61  C   UNL A   1      42.660  30.660  36.440  1.00  0.00     0.031 C 
ATOM     62  C   UNL A   1      43.023  29.125  34.526  1.00  0.00     0.034 A 
BRANCH  49  63
ATOM     63  C   UNL A   1      40.891  27.601  28.917  1.00  0.00     0.023 A 
ATOM     64  C   UNL A   1      41.892  27.831  27.958  1.00  0.00     0.031 A 
ATOM     65  C   UNL A   1      40.027  26.508  28.725  1.00  0.00     0.131 A 
ATOM     66  C   UNL A   1      41.979  27.005  26.829  1.00  0.00     0.055 A 
ATOM     67  C   UNL A   1      40.161  25.651  27.632  1.00  0.00     0.041 A 
ATOM     68  F   UNL A   1      39.042  26.255  29.602  1.00  0.00    -0.206 F 
ATOM     69  C   UNL A   1      41.137  25.902  26.672  1.00  0.00     0.022 A 
BRANCH  66  70
ATOM     70  S   UNL A   1      43.160  27.441  25.523  1.00  0.00     0.124 S 
ATOM     71  O   UNL A   1      42.320  28.220  24.616  1.00  0.00    -0.237 OA
ATOM     72  O   UNL A   1      44.178  28.188  26.253  1.00  0.00    -0.237 OA
ATOM     73  O   UNL A   1      43.591  26.144  25.006  1.00  0.00    -0.744 OA
ENDBRANCH  66  70
ENDBRANCH  49  63
BRANCH  50  74
ATOM     74  C   UNL A   1      39.706  33.665  36.803  1.00  0.00     0.023 A 
ATOM     75  C   UNL A   1      39.200  33.185  38.021  1.00  0.00     0.031 A 
ATOM     76  C   UNL A   1      40.053  35.025  36.721  1.00  0.00     0.131 A 
ATOM     77  C   UNL A   1      39.037  34.064  39.104  1.00  0.00     0.055 A 
ATOM     78  C   UNL A   1      39.927  35.886  37.812  1.00  0.00     0.041 A 
ATOM     79  F   UNL A   1      40.546  35.531  35.579  1.00  0.00    -0.206 F 
ATOM     80  C   UNL A   1      39.410  35.406  39.012  1.00  0.00     0.022 A 
BRANCH  77  81
ATOM     81  S   UNL A   1      38.294  33.432  40.634  1.00  0.00     0.124 S 
ATOM     82  O   UNL A   1      36.877  33.414  40.290  1.00  0.00    -0.237 OA
ATOM     83  O   UNL A   1      38.940  32.132  40.773  1.00  0.00    -0.237 OA
ATOM     84  O   UNL A   1      38.680  34.426  41.634  1.00  0.00    -0.744 OA
ENDBRANCH  77  81
ENDBRANCH  50  74
BRANCH  62  85
ATOM     85  C   UNL A   1      44.195  28.536  35.266  1.00  0.00     0.023 A 
ATOM     86  C   UNL A   1      44.022  27.525  36.224  1.00  0.00     0.031 A 
ATOM     87  C   UNL A   1      45.504  28.953  34.966  1.00  0.00     0.131 A 
ATOM     88  C   UNL A   1      45.141  26.979  36.870  1.00  0.00     0.055 A 
ATOM     89  C   UNL A   1      46.617  28.370  35.574  1.00  0.00     0.041 A 
ATOM     90  F   UNL A   1      45.724  29.913  34.054  1.00  0.00    -0.206 F 
ATOM     91  C   UNL A   1      46.437  27.381  36.537  1.00  0.00     0.022 A 
BRANCH  88  92
ATOM     92  S   UNL A   1      44.877  25.756  38.183  1.00  0.00     0.124 S 
ATOM     93  O   UNL A   1      46.227  25.585  38.713  1.00  0.00    -0.237 OA
ATOM     94  O   UNL A   1      43.930  26.435  39.061  1.00  0.00    -0.237 OA
ATOM     95  O   UNL A   1      44.339  24.599  37.470  1.00  0.00    -0.744 OA
ENDBRANCH  88  92
ENDBRANCH  62  85
ENDBRANCH  36  37
ENDBRANCH  28  31
ENDBRANCH  26  27
ENDBRANCH   1  26
TORSDOF 16
ENDMDL
