MODEL 1
REMARK VINA RESULT:     -12.3      0.000      0.000
REMARK SMILES Cc1cc2nc(NC(=O)[C@H]3[C@@H](C(=O)NCCCCCCNC(=O)c4ccc(-c5c6nc(c(-c7cc(S(=O)(=O)[O-])ccc7F)c7ccc([nH]7)c(-c7cc(S(=O)(=O)[O-])ccc7F)c7nc(c(-c8cc(S(=O)(=O)[O-])ccc8F)c8ccc5[nH]8)C=C7)C=C6)cc4)[C@@H]4C=C[C@H]3C4)sc2cc1C
REMARK SMILES IDX 18 1 17 2 16 3 15 4 14 5 12 6 13 7 11 9 10 10 90 11 87 12
REMARK SMILES IDX 89 13 91 14 88 15 8 16 7 17 9 19 6 20 1 21 2 22 3 23 95 24
REMARK SMILES IDX 4 25 94 26 96 27 5 28 93 29 92 30 19 31 20 32 21 33 22 34
REMARK SMILES IDX 23 36 24 37 25 38 86 39 26 40 85 41 27 42 28 43 29 44 79 45
REMARK SMILES IDX 30 46 84 47 78 48 80 49 31 50 83 51 77 52 76 53 32 55 64 56
REMARK SMILES IDX 44 57 63 58 45 59 48 60 62 61 81 62 46 63 47 64 61 66 82 67
REMARK SMILES IDX 49 68 33 69 34 70 42 71 35 72 41 73 43 74 40 75 36 76 37 77
REMARK SMILES IDX 38 78 39 79 65 80 66 81 74 82 67 83 73 84 75 85 72 86 68 87
REMARK SMILES IDX 69 88 70 89 71 90 50 91 51 92 59 93 52 94 58 95 60 96 57 97
REMARK SMILES IDX 53 98 54 99 55 100 56 101
REMARK H PARENT 14 8 7 18 21 35 80 54 48 65
REMARK Flexibility Score: inf
ROOT
ATOM      1  C   UNL A   1      35.528  22.555  25.722  1.00  0.00     0.002 C 
ENDROOT
BRANCH   1   2
ATOM      2  C   UNL A   1      35.819  24.059  25.613  1.00  0.00     0.002 C 
BRANCH   2   3
ATOM      3  C   UNL A   1      34.626  24.940  25.220  1.00  0.00     0.021 C 
BRANCH   3   4
ATOM      4  C   UNL A   1      34.171  24.767  23.771  1.00  0.00     0.116 C 
BRANCH   4   5
ATOM      5  N   UNL A   1      33.961  26.018  23.088  1.00  0.00    -0.356 N 
ATOM      6  C   UNL A   1      33.613  27.246  23.532  1.00  0.00     0.224 C 
ATOM      7  O   UNL A   1      33.664  28.141  22.672  1.00  0.00    -0.275 OA
ATOM      8  H   UNL A   1      34.096  25.969  22.114  1.00  0.00     0.163 HD
BRANCH   6   9
ATOM      9  C   UNL A   1      33.039  27.600  24.904  1.00  0.00     0.098 C 
ATOM     10  C   UNL A   1      31.545  27.929  25.253  1.00  0.00     0.099 C 
ATOM     11  C   UNL A   1      31.707  29.153  26.188  1.00  0.00     0.025 C 
ATOM     12  C   UNL A   1      33.834  28.742  25.606  1.00  0.00     0.025 C 
ATOM     13  C   UNL A   1      32.458  28.726  27.444  1.00  0.00    -0.027 C 
ATOM     14  C   UNL A   1      32.869  29.921  25.545  1.00  0.00     0.017 C 
ATOM     15  C   UNL A   1      33.736  28.507  27.099  1.00  0.00    -0.027 C 
BRANCH  10  16
ATOM     16  C   UNL A   1      30.526  27.770  24.115  1.00  0.00     0.230 C 
ATOM     17  N   UNL A   1      30.107  26.643  23.485  1.00  0.00    -0.302 N 
ATOM     18  H   UNL A   1      29.603  26.787  22.652  1.00  0.00     0.172 HD
ATOM     19  O   UNL A   1      29.996  28.817  23.701  1.00  0.00    -0.274 OA
BRANCH  17  20
ATOM     20  C   UNL A   1      30.285  25.341  23.839  1.00  0.00     0.190 A 
ATOM     21  C   UNL A   1      32.780  19.944  23.410  1.00  0.00     0.044 C 
ATOM     22  C   UNL A   1      32.192  21.158  24.076  1.00  0.00    -0.046 A 
ATOM     23  C   UNL A   1      31.583  22.114  23.256  1.00  0.00     0.033 A 
ATOM     24  C   UNL A   1      32.242  21.376  25.464  1.00  0.00    -0.047 A 
ATOM     25  C   UNL A   1      31.055  23.292  23.805  1.00  0.00     0.084 A 
ATOM     26  C   UNL A   1      31.651  22.533  26.034  1.00  0.00     0.025 A 
ATOM     27  C   UNL A   1      32.963  20.431  26.390  1.00  0.00     0.044 C 
ATOM     28  N   UNL A   1      30.591  24.348  23.068  1.00  0.00    -0.220 NA
ATOM     29  C   UNL A   1      31.060  23.481  25.182  1.00  0.00     0.057 A 
ATOM     30  S   UNL A   1      30.274  24.996  25.511  1.00  0.00    -0.097 S 
ENDBRANCH  17  20
ENDBRANCH  10  16
ENDBRANCH   6   9
ENDBRANCH   4   5
ENDBRANCH   3   4
ENDBRANCH   2   3
ENDBRANCH   1   2
BRANCH   1  31
ATOM     31  C   UNL A   1      36.729  21.628  25.510  1.00  0.00     0.021 C 
BRANCH  31  32
ATOM     32  C   UNL A   1      38.036  22.308  25.118  1.00  0.00     0.116 C 
BRANCH  32  33
ATOM     33  N   UNL A   1      39.193  21.786  25.808  1.00  0.00    -0.352 N 
ATOM     34  C   UNL A   1      40.029  22.243  26.788  1.00  0.00     0.251 C 
ATOM     35  H   UNL A   1      39.437  20.884  25.499  1.00  0.00     0.163 HD
ATOM     36  O   UNL A   1      40.863  21.424  27.188  1.00  0.00    -0.269 OA
BRANCH  34  37
ATOM     37  C   UNL A   1      40.045  23.622  27.358  1.00  0.00     0.039 A 
ATOM     38  C   UNL A   1      39.025  24.569  27.261  1.00  0.00     0.014 A 
ATOM     39  C   UNL A   1      41.236  23.994  28.016  1.00  0.00     0.014 A 
ATOM     40  C   UNL A   1      39.220  25.868  27.737  1.00  0.00     0.010 A 
ATOM     41  C   UNL A   1      41.429  25.283  28.507  1.00  0.00     0.010 A 
ATOM     42  C   UNL A   1      40.433  26.236  28.335  1.00  0.00    -0.014 A 
BRANCH  42  43
ATOM     43  C   UNL A   1      40.559  27.593  28.873  1.00  0.00     0.031 A 
ATOM     44  C   UNL A   1      41.644  28.402  28.255  1.00  0.00     0.074 A 
ATOM     45  C   UNL A   1      39.717  28.159  29.764  1.00  0.00     0.049 A 
ATOM     46  N   UNL A   1      42.744  28.805  28.801  1.00  0.00    -0.248 NA
ATOM     47  C   UNL A   1      41.551  28.687  26.816  1.00  0.00     0.031 C 
ATOM     48  C   UNL A   1      38.420  27.638  30.208  1.00  0.00     0.029 A 
ATOM     49  N   UNL A   1      39.794  29.374  30.390  1.00  0.00    -0.354 N 
ATOM     50  C   UNL A   1      43.387  29.582  27.836  1.00  0.00     0.074 A 
ATOM     51  C   UNL A   1      42.701  29.326  26.596  1.00  0.00     0.031 C 
ATOM     52  C   UNL A   1      37.739  28.620  30.840  1.00  0.00     0.029 A 
ATOM     53  C   UNL A   1      38.609  29.774  30.995  1.00  0.00     0.049 A 
ATOM     54  H   UNL A   1      40.615  29.916  30.408  1.00  0.00     0.167 HD
ATOM     55  C   UNL A   1      44.277  30.555  28.188  1.00  0.00     0.034 A 
ATOM     56  C   UNL A   1      38.335  30.974  31.559  1.00  0.00     0.034 A 
ATOM     57  C   UNL A   1      44.614  30.464  29.581  1.00  0.00     0.049 A 
ATOM     58  C   UNL A   1      39.599  31.652  31.907  1.00  0.00     0.074 A 
ATOM     59  C   UNL A   1      45.462  29.721  30.366  1.00  0.00     0.029 A 
ATOM     60  N   UNL A   1      43.722  31.091  30.409  1.00  0.00    -0.354 N 
ATOM     61  N   UNL A   1      40.394  31.261  32.861  1.00  0.00    -0.248 NA
ATOM     62  C   UNL A   1      40.156  32.646  30.995  1.00  0.00     0.031 C 
ATOM     63  C   UNL A   1      44.943  29.796  31.690  1.00  0.00     0.029 A 
ATOM     64  C   UNL A   1      43.806  30.604  31.685  1.00  0.00     0.049 A 
ATOM     65  H   UNL A   1      43.101  31.800  30.124  1.00  0.00     0.167 HD
ATOM     66  C   UNL A   1      41.650  31.587  32.396  1.00  0.00     0.074 A 
ATOM     67  C   UNL A   1      41.435  32.603  31.376  1.00  0.00     0.031 C 
ATOM     68  C   UNL A   1      42.712  30.765  32.622  1.00  0.00     0.034 A 
BRANCH  55  69
ATOM     69  C   UNL A   1      44.519  31.842  27.424  1.00  0.00     0.023 A 
ATOM     70  C   UNL A   1      43.827  33.037  27.687  1.00  0.00     0.031 A 
ATOM     71  C   UNL A   1      45.645  31.964  26.576  1.00  0.00     0.131 A 
ATOM     72  C   UNL A   1      44.240  34.263  27.146  1.00  0.00     0.055 A 
ATOM     73  C   UNL A   1      46.094  33.198  26.085  1.00  0.00     0.041 A 
ATOM     74  F   UNL A   1      46.382  30.893  26.242  1.00  0.00    -0.206 F 
ATOM     75  C   UNL A   1      45.391  34.360  26.375  1.00  0.00     0.022 A 
BRANCH  72  76
ATOM     76  S   UNL A   1      43.281  35.769  27.471  1.00  0.00     0.124 S 
ATOM     77  O   UNL A   1      42.796  36.111  26.139  1.00  0.00    -0.237 OA
ATOM     78  O   UNL A   1      42.273  35.279  28.407  1.00  0.00    -0.237 OA
ATOM     79  O   UNL A   1      44.265  36.682  28.044  1.00  0.00    -0.744 OA
ENDBRANCH  72  76
ENDBRANCH  55  69
BRANCH  56  80
ATOM     80  C   UNL A   1      37.057  31.717  31.554  1.00  0.00     0.023 A 
ATOM     81  C   UNL A   1      36.361  31.865  30.343  1.00  0.00     0.031 A 
ATOM     82  C   UNL A   1      36.699  32.562  32.621  1.00  0.00     0.131 A 
ATOM     83  C   UNL A   1      35.405  32.878  30.198  1.00  0.00     0.055 A 
ATOM     84  C   UNL A   1      35.726  33.557  32.481  1.00  0.00     0.041 A 
ATOM     85  F   UNL A   1      37.343  32.488  33.795  1.00  0.00    -0.206 F 
ATOM     86  C   UNL A   1      35.088  33.733  31.257  1.00  0.00     0.022 A 
BRANCH  83  87
ATOM     87  S   UNL A   1      34.632  33.183  28.587  1.00  0.00     0.124 S 
ATOM     88  O   UNL A   1      33.894  31.943  28.360  1.00  0.00    -0.237 OA
ATOM     89  O   UNL A   1      33.817  34.359  28.869  1.00  0.00    -0.237 OA
ATOM     90  O   UNL A   1      35.771  33.395  27.697  1.00  0.00    -0.744 OA
ENDBRANCH  83  87
ENDBRANCH  56  80
BRANCH  68  91
ATOM     91  C   UNL A   1      42.663  29.835  33.801  1.00  0.00     0.023 A 
ATOM     92  C   UNL A   1      43.303  30.278  34.970  1.00  0.00     0.031 A 
ATOM     93  C   UNL A   1      42.174  28.518  33.776  1.00  0.00     0.131 A 
ATOM     94  C   UNL A   1      43.496  29.405  36.043  1.00  0.00     0.055 A 
ATOM     95  C   UNL A   1      42.294  27.674  34.885  1.00  0.00     0.041 A 
ATOM     96  F   UNL A   1      41.636  27.987  32.669  1.00  0.00    -0.206 F 
ATOM     97  C   UNL A   1      42.976  28.110  36.018  1.00  0.00     0.022 A 
BRANCH  94  98
ATOM     98  S   UNL A   1      44.578  29.889  37.411  1.00  0.00     0.124 S 
ATOM     99  O   UNL A   1      44.516  28.715  38.282  1.00  0.00    -0.237 OA
ATOM    100  O   UNL A   1      45.858  30.096  36.732  1.00  0.00    -0.237 OA
ATOM    101  O   UNL A   1      43.962  31.094  37.942  1.00  0.00    -0.744 OA
ENDBRANCH  94  98
ENDBRANCH  68  91
ENDBRANCH  42  43
ENDBRANCH  34  37
ENDBRANCH  32  33
ENDBRANCH  31  32
ENDBRANCH   1  31
TORSDOF 18
ENDMDL
MODEL 2
REMARK VINA RESULT:     -12.3      1.757      3.510
REMARK SMILES Cc1cc2nc(NC(=O)[C@H]3[C@@H](C(=O)NCCCCCCNC(=O)c4ccc(-c5c6nc(c(-c7cc(S(=O)(=O)[O-])ccc7F)c7ccc([nH]7)c(-c7cc(S(=O)(=O)[O-])ccc7F)c7nc(c(-c8cc(S(=O)(=O)[O-])ccc8F)c8ccc5[nH]8)C=C7)C=C6)cc4)[C@@H]4C=C[C@H]3C4)sc2cc1C
REMARK SMILES IDX 18 1 17 2 16 3 15 4 14 5 12 6 13 7 11 9 10 10 90 11 87 12
REMARK SMILES IDX 89 13 91 14 88 15 8 16 7 17 9 19 6 20 1 21 2 22 3 23 95 24
REMARK SMILES IDX 4 25 94 26 96 27 5 28 93 29 92 30 19 31 20 32 21 33 22 34
REMARK SMILES IDX 23 36 24 37 25 38 86 39 26 40 85 41 27 42 28 43 29 44 79 45
REMARK SMILES IDX 30 46 84 47 78 48 80 49 31 50 83 51 77 52 76 53 32 55 64 56
REMARK SMILES IDX 44 57 63 58 45 59 48 60 62 61 81 62 46 63 47 64 61 66 82 67
REMARK SMILES IDX 49 68 33 69 34 70 42 71 35 72 41 73 43 74 40 75 36 76 37 77
REMARK SMILES IDX 38 78 39 79 65 80 66 81 74 82 67 83 73 84 75 85 72 86 68 87
REMARK SMILES IDX 69 88 70 89 71 90 50 91 51 92 59 93 52 94 58 95 60 96 57 97
REMARK SMILES IDX 53 98 54 99 55 100 56 101
REMARK H PARENT 14 8 7 18 21 35 80 54 48 65
REMARK Flexibility Score: inf
ROOT
ATOM      1  C   UNL A   1      37.629  21.143  25.344  1.00  0.00     0.002 C 
ENDROOT
BRANCH   1   2
ATOM      2  C   UNL A   1      36.750  21.675  24.204  1.00  0.00     0.002 C 
BRANCH   2   3
ATOM      3  C   UNL A   1      35.500  22.454  24.636  1.00  0.00     0.021 C 
BRANCH   3   4
ATOM      4  C   UNL A   1      34.787  21.867  25.853  1.00  0.00     0.116 C 
BRANCH   4   5
ATOM      5  N   UNL A   1      33.897  20.782  25.522  1.00  0.00    -0.356 N 
ATOM      6  C   UNL A   1      32.587  20.752  25.194  1.00  0.00     0.224 C 
ATOM      7  O   UNL A   1      32.171  19.642  24.824  1.00  0.00    -0.275 OA
ATOM      8  H   UNL A   1      34.326  19.896  25.539  1.00  0.00     0.163 HD
BRANCH   6   9
ATOM      9  C   UNL A   1      31.569  21.879  25.371  1.00  0.00     0.098 C 
ATOM     10  C   UNL A   1      31.335  23.107  24.422  1.00  0.00     0.099 C 
ATOM     11  C   UNL A   1      31.200  24.265  25.441  1.00  0.00     0.025 C 
ATOM     12  C   UNL A   1      31.637  22.525  26.788  1.00  0.00     0.025 C 
ATOM     13  C   UNL A   1      29.969  24.029  26.307  1.00  0.00    -0.027 C 
ATOM     14  C   UNL A   1      32.238  23.899  26.511  1.00  0.00     0.017 C 
ATOM     15  C   UNL A   1      30.242  23.005  27.131  1.00  0.00    -0.027 C 
BRANCH  10  16
ATOM     16  C   UNL A   1      32.137  23.122  23.113  1.00  0.00     0.230 C 
ATOM     17  N   UNL A   1      32.426  24.164  22.292  1.00  0.00    -0.302 N 
ATOM     18  H   UNL A   1      32.778  23.918  21.406  1.00  0.00     0.172 HD
ATOM     19  O   UNL A   1      32.598  22.029  22.738  1.00  0.00    -0.274 OA
BRANCH  17  20
ATOM     20  C   UNL A   1      32.298  25.499  22.517  1.00  0.00     0.190 A 
ATOM     21  C   UNL A   1      29.239  30.501  23.594  1.00  0.00     0.044 C 
ATOM     22  C   UNL A   1      30.364  29.508  23.692  1.00  0.00    -0.046 A 
ATOM     23  C   UNL A   1      30.352  28.427  22.805  1.00  0.00     0.033 A 
ATOM     24  C   UNL A   1      31.403  29.612  24.634  1.00  0.00    -0.047 A 
ATOM     25  C   UNL A   1      31.345  27.439  22.872  1.00  0.00     0.084 A 
ATOM     26  C   UNL A   1      32.448  28.652  24.663  1.00  0.00     0.025 A 
ATOM     27  C   UNL A   1      31.425  30.701  25.675  1.00  0.00     0.044 C 
ATOM     28  N   UNL A   1      31.321  26.271  22.159  1.00  0.00    -0.220 NA
ATOM     29  C   UNL A   1      32.398  27.570  23.769  1.00  0.00     0.057 A 
ATOM     30  S   UNL A   1      33.466  26.219  23.533  1.00  0.00    -0.097 S 
ENDBRANCH  17  20
ENDBRANCH  10  16
ENDBRANCH   6   9
ENDBRANCH   4   5
ENDBRANCH   3   4
ENDBRANCH   2   3
ENDBRANCH   1   2
BRANCH   1  31
ATOM     31  C   UNL A   1      38.646  22.135  25.919  1.00  0.00     0.021 C 
BRANCH  31  32
ATOM     32  C   UNL A   1      39.862  21.521  26.604  1.00  0.00     0.116 C 
BRANCH  32  33
ATOM     33  N   UNL A   1      41.098  21.725  25.885  1.00  0.00    -0.352 N 
ATOM     34  C   UNL A   1      42.062  22.693  25.862  1.00  0.00     0.251 C 
ATOM     35  H   UNL A   1      41.294  20.988  25.263  1.00  0.00     0.163 HD
ATOM     36  O   UNL A   1      43.047  22.435  25.162  1.00  0.00    -0.269 OA
BRANCH  34  37
ATOM     37  C   UNL A   1      41.998  24.014  26.552  1.00  0.00     0.039 A 
ATOM     38  C   UNL A   1      42.628  24.353  27.750  1.00  0.00     0.014 A 
ATOM     39  C   UNL A   1      41.180  24.984  25.936  1.00  0.00     0.014 A 
ATOM     40  C   UNL A   1      42.384  25.590  28.351  1.00  0.00     0.010 A 
ATOM     41  C   UNL A   1      40.947  26.226  26.523  1.00  0.00     0.010 A 
ATOM     42  C   UNL A   1      41.521  26.518  27.754  1.00  0.00    -0.014 A 
BRANCH  42  43
ATOM     43  C   UNL A   1      41.352  27.825  28.396  1.00  0.00     0.031 A 
ATOM     44  C   UNL A   1      42.298  28.870  27.921  1.00  0.00     0.074 A 
ATOM     45  C   UNL A   1      40.364  28.147  29.257  1.00  0.00     0.049 A 
ATOM     46  N   UNL A   1      43.265  29.422  28.576  1.00  0.00    -0.248 NA
ATOM     47  C   UNL A   1      42.242  29.253  26.503  1.00  0.00     0.031 C 
ATOM     48  C   UNL A   1      39.166  27.360  29.563  1.00  0.00     0.029 A 
ATOM     49  N   UNL A   1      40.168  29.299  29.971  1.00  0.00    -0.354 N 
ATOM     50  C   UNL A   1      43.806  30.384  27.720  1.00  0.00     0.074 A 
ATOM     51  C   UNL A   1      43.259  30.110  26.416  1.00  0.00     0.031 C 
ATOM     52  C   UNL A   1      38.272  28.142  30.209  1.00  0.00     0.029 A 
ATOM     53  C   UNL A   1      38.894  29.420  30.511  1.00  0.00     0.049 A 
ATOM     54  H   UNL A   1      40.868  29.981  30.091  1.00  0.00     0.167 HD
ATOM     55  C   UNL A   1      44.470  31.472  28.207  1.00  0.00     0.034 A 
ATOM     56  C   UNL A   1      38.362  30.496  31.137  1.00  0.00     0.034 A 
ATOM     57  C   UNL A   1      44.732  31.329  29.612  1.00  0.00     0.049 A 
ATOM     58  C   UNL A   1      39.449  31.366  31.627  1.00  0.00     0.074 A 
ATOM     59  C   UNL A   1      45.657  30.692  30.405  1.00  0.00     0.029 A 
ATOM     60  N   UNL A   1      43.688  31.708  30.412  1.00  0.00    -0.354 N 
ATOM     61  N   UNL A   1      40.244  31.050  32.609  1.00  0.00    -0.248 NA
ATOM     62  C   UNL A   1      39.861  32.519  30.833  1.00  0.00     0.031 C 
ATOM     63  C   UNL A   1      45.052  30.559  31.687  1.00  0.00     0.029 A 
ATOM     64  C   UNL A   1      43.785  31.139  31.652  1.00  0.00     0.049 A 
ATOM     65  H   UNL A   1      42.962  32.311  30.131  1.00  0.00     0.167 HD
ATOM     66  C   UNL A   1      41.440  31.641  32.265  1.00  0.00     0.074 A 
ATOM     67  C   UNL A   1      41.099  32.682  31.306  1.00  0.00     0.031 C 
ATOM     68  C   UNL A   1      42.624  31.015  32.512  1.00  0.00     0.034 A 
BRANCH  55  69
ATOM     69  C   UNL A   1      44.510  32.841  27.557  1.00  0.00     0.023 A 
ATOM     70  C   UNL A   1      43.617  33.876  27.886  1.00  0.00     0.031 A 
ATOM     71  C   UNL A   1      45.619  33.222  26.766  1.00  0.00     0.131 A 
ATOM     72  C   UNL A   1      43.828  35.195  27.460  1.00  0.00     0.055 A 
ATOM     73  C   UNL A   1      45.864  34.550  26.393  1.00  0.00     0.041 A 
ATOM     74  F   UNL A   1      46.536  32.322  26.378  1.00  0.00    -0.206 F 
ATOM     75  C   UNL A   1      44.966  35.549  26.744  1.00  0.00     0.022 A 
BRANCH  72  76
ATOM     76  S   UNL A   1      42.619  36.486  27.864  1.00  0.00     0.124 S 
ATOM     77  O   UNL A   1      42.952  37.526  26.897  1.00  0.00    -0.237 OA
ATOM     78  O   UNL A   1      41.356  35.788  27.634  1.00  0.00    -0.237 OA
ATOM     79  O   UNL A   1      42.907  36.798  29.260  1.00  0.00    -0.744 OA
ENDBRANCH  72  76
ENDBRANCH  55  69
BRANCH  56  80
ATOM     80  C   UNL A   1      36.969  30.987  31.086  1.00  0.00     0.023 A 
ATOM     81  C   UNL A   1      36.391  31.269  29.837  1.00  0.00     0.031 A 
ATOM     82  C   UNL A   1      36.334  31.505  32.231  1.00  0.00     0.131 A 
ATOM     83  C   UNL A   1      35.272  32.107  29.751  1.00  0.00     0.055 A 
ATOM     84  C   UNL A   1      35.202  32.320  32.143  1.00  0.00     0.041 A 
ATOM     85  F   UNL A   1      36.850  31.292  33.451  1.00  0.00    -0.206 F 
ATOM     86  C   UNL A   1      34.677  32.642  30.895  1.00  0.00     0.022 A 
BRANCH  83  87
ATOM     87  S   UNL A   1      34.631  32.613  28.132  1.00  0.00     0.124 S 
ATOM     88  O   UNL A   1      34.333  31.328  27.503  1.00  0.00    -0.237 OA
ATOM     89  O   UNL A   1      33.471  33.412  28.512  1.00  0.00    -0.237 OA
ATOM     90  O   UNL A   1      35.745  33.347  27.539  1.00  0.00    -0.744 OA
ENDBRANCH  83  87
ENDBRANCH  56  80
BRANCH  68  91
ATOM     91  C   UNL A   1      42.682  29.996  33.615  1.00  0.00     0.023 A 
ATOM     92  C   UNL A   1      43.123  30.457  34.866  1.00  0.00     0.031 A 
ATOM     93  C   UNL A   1      42.483  28.615  33.456  1.00  0.00     0.131 A 
ATOM     94  C   UNL A   1      43.412  29.553  35.890  1.00  0.00     0.055 A 
ATOM     95  C   UNL A   1      42.691  27.720  34.510  1.00  0.00     0.041 A 
ATOM     96  F   UNL A   1      42.154  28.084  32.270  1.00  0.00    -0.206 F 
ATOM     97  C   UNL A   1      43.179  28.186  35.729  1.00  0.00     0.022 A 
BRANCH  94  98
ATOM     98  S   UNL A   1      44.261  30.127  37.383  1.00  0.00     0.124 S 
ATOM     99  O   UNL A   1      45.401  30.857  36.827  1.00  0.00    -0.237 OA
ATOM    100  O   UNL A   1      43.237  30.958  38.018  1.00  0.00    -0.237 OA
ATOM    101  O   UNL A   1      44.589  28.904  38.097  1.00  0.00    -0.744 OA
ENDBRANCH  94  98
ENDBRANCH  68  91
ENDBRANCH  42  43
ENDBRANCH  34  37
ENDBRANCH  32  33
ENDBRANCH  31  32
ENDBRANCH   1  31
TORSDOF 18
ENDMDL
MODEL 3
REMARK VINA RESULT:     -12.1      1.978      2.479
REMARK SMILES Cc1cc2nc(NC(=O)[C@H]3[C@@H](C(=O)NCCCCCCNC(=O)c4ccc(-c5c6nc(c(-c7cc(S(=O)(=O)[O-])ccc7F)c7ccc([nH]7)c(-c7cc(S(=O)(=O)[O-])ccc7F)c7nc(c(-c8cc(S(=O)(=O)[O-])ccc8F)c8ccc5[nH]8)C=C7)C=C6)cc4)[C@@H]4C=C[C@H]3C4)sc2cc1C
REMARK SMILES IDX 18 1 17 2 16 3 15 4 14 5 12 6 13 7 11 9 10 10 90 11 87 12
REMARK SMILES IDX 89 13 91 14 88 15 8 16 7 17 9 19 6 20 1 21 2 22 3 23 95 24
REMARK SMILES IDX 4 25 94 26 96 27 5 28 93 29 92 30 19 31 20 32 21 33 22 34
REMARK SMILES IDX 23 36 24 37 25 38 86 39 26 40 85 41 27 42 28 43 29 44 79 45
REMARK SMILES IDX 30 46 84 47 78 48 80 49 31 50 83 51 77 52 76 53 32 55 64 56
REMARK SMILES IDX 44 57 63 58 45 59 48 60 62 61 81 62 46 63 47 64 61 66 82 67
REMARK SMILES IDX 49 68 33 69 34 70 42 71 35 72 41 73 43 74 40 75 36 76 37 77
REMARK SMILES IDX 38 78 39 79 65 80 66 81 74 82 67 83 73 84 75 85 72 86 68 87
REMARK SMILES IDX 69 88 70 89 71 90 50 91 51 92 59 93 52 94 58 95 60 96 57 97
REMARK SMILES IDX 53 98 54 99 55 100 56 101
REMARK H PARENT 14 8 7 18 21 35 80 54 48 65
REMARK Flexibility Score: inf
ROOT
ATOM      1  C   UNL A   1      36.006  23.650  24.493  1.00  0.00     0.002 C 
ENDROOT
BRANCH   1   2
ATOM      2  C   UNL A   1      35.389  23.620  23.088  1.00  0.00     0.002 C 
BRANCH   2   3
ATOM      3  C   UNL A   1      34.073  22.843  22.956  1.00  0.00     0.021 C 
BRANCH   3   4
ATOM      4  C   UNL A   1      33.148  23.362  21.856  1.00  0.00     0.116 C 
BRANCH   4   5
ATOM      5  N   UNL A   1      31.814  23.647  22.322  1.00  0.00    -0.356 N 
ATOM      6  C   UNL A   1      31.335  24.555  23.200  1.00  0.00     0.224 C 
ATOM      7  O   UNL A   1      30.096  24.618  23.255  1.00  0.00    -0.275 OA
ATOM      8  H   UNL A   1      31.122  23.071  21.925  1.00  0.00     0.163 HD
BRANCH   6   9
ATOM      9  C   UNL A   1      32.142  25.377  24.205  1.00  0.00     0.098 C 
ATOM     10  C   UNL A   1      31.765  25.692  25.696  1.00  0.00     0.099 C 
ATOM     11  C   UNL A   1      32.122  27.196  25.795  1.00  0.00     0.025 C 
ATOM     12  C   UNL A   1      32.564  26.766  23.638  1.00  0.00     0.025 C 
ATOM     13  C   UNL A   1      33.621  27.369  25.585  1.00  0.00    -0.027 C 
ATOM     14  C   UNL A   1      31.692  27.738  24.425  1.00  0.00     0.017 C 
ATOM     15  C   UNL A   1      33.880  27.137  24.289  1.00  0.00    -0.027 C 
BRANCH  10  16
ATOM     16  C   UNL A   1      30.502  25.009  26.241  1.00  0.00     0.230 C 
ATOM     17  N   UNL A   1      30.228  23.686  26.375  1.00  0.00    -0.302 N 
ATOM     18  H   UNL A   1      29.286  23.466  26.555  1.00  0.00     0.172 HD
ATOM     19  O   UNL A   1      29.589  25.764  26.621  1.00  0.00    -0.274 OA
BRANCH  17  20
ATOM     20  C   UNL A   1      31.069  22.620  26.295  1.00  0.00     0.190 A 
ATOM     21  C   UNL A   1      33.785  18.113  23.493  1.00  0.00     0.044 C 
ATOM     22  C   UNL A   1      33.629  19.277  24.432  1.00  0.00    -0.046 A 
ATOM     23  C   UNL A   1      32.340  19.786  24.622  1.00  0.00     0.033 A 
ATOM     24  C   UNL A   1      34.708  19.874  25.107  1.00  0.00    -0.047 A 
ATOM     25  C   UNL A   1      32.128  20.899  25.448  1.00  0.00     0.084 A 
ATOM     26  C   UNL A   1      34.493  20.958  25.996  1.00  0.00     0.025 A 
ATOM     27  C   UNL A   1      36.130  19.431  24.876  1.00  0.00     0.044 C 
ATOM     28  N   UNL A   1      30.935  21.561  25.562  1.00  0.00    -0.220 NA
ATOM     29  C   UNL A   1      33.188  21.456  26.153  1.00  0.00     0.057 A 
ATOM     30  S   UNL A   1      32.559  22.757  27.118  1.00  0.00    -0.097 S 
ENDBRANCH  17  20
ENDBRANCH  10  16
ENDBRANCH   6   9
ENDBRANCH   4   5
ENDBRANCH   3   4
ENDBRANCH   2   3
ENDBRANCH   1   2
BRANCH   1  31
ATOM     31  C   UNL A   1      37.294  22.840  24.673  1.00  0.00     0.021 C 
BRANCH  31  32
ATOM     32  C   UNL A   1      37.792  22.686  26.106  1.00  0.00     0.116 C 
BRANCH  32  33
ATOM     33  N   UNL A   1      39.180  22.299  26.200  1.00  0.00    -0.352 N 
ATOM     34  C   UNL A   1      40.285  22.788  26.838  1.00  0.00     0.251 C 
ATOM     35  H   UNL A   1      39.378  21.486  25.681  1.00  0.00     0.163 HD
ATOM     36  O   UNL A   1      41.297  22.085  26.747  1.00  0.00    -0.269 OA
BRANCH  34  37
ATOM     37  C   UNL A   1      40.376  24.086  27.568  1.00  0.00     0.039 A 
ATOM     38  C   UNL A   1      39.329  24.977  27.805  1.00  0.00     0.014 A 
ATOM     39  C   UNL A   1      41.666  24.444  28.015  1.00  0.00     0.014 A 
ATOM     40  C   UNL A   1      39.578  26.218  28.398  1.00  0.00     0.010 A 
ATOM     41  C   UNL A   1      41.916  25.673  28.621  1.00  0.00     0.010 A 
ATOM     42  C   UNL A   1      40.876  26.580  28.780  1.00  0.00    -0.014 A 
BRANCH  42  43
ATOM     43  C   UNL A   1      41.069  27.867  29.456  1.00  0.00     0.031 A 
ATOM     44  C   UNL A   1      41.986  28.800  28.750  1.00  0.00     0.074 A 
ATOM     45  C   UNL A   1      40.404  28.275  30.558  1.00  0.00     0.049 A 
ATOM     46  N   UNL A   1      43.161  29.191  29.120  1.00  0.00    -0.248 NA
ATOM     47  C   UNL A   1      41.603  29.253  27.405  1.00  0.00     0.031 C 
ATOM     48  C   UNL A   1      39.236  27.636  31.172  1.00  0.00     0.029 A 
ATOM     49  N   UNL A   1      40.569  29.408  31.309  1.00  0.00    -0.354 N 
ATOM     50  C   UNL A   1      43.578  30.113  28.158  1.00  0.00     0.074 A 
ATOM     51  C   UNL A   1      42.668  29.974  27.051  1.00  0.00     0.031 C 
ATOM     52  C   UNL A   1      38.666  28.497  32.046  1.00  0.00     0.029 A 
ATOM     53  C   UNL A   1      39.517  29.667  32.178  1.00  0.00     0.049 A 
ATOM     54  H   UNL A   1      41.362  29.986  31.238  1.00  0.00     0.167 HD
ATOM     55  C   UNL A   1      44.493  31.081  28.455  1.00  0.00     0.034 A 
ATOM     56  C   UNL A   1      39.327  30.774  32.935  1.00  0.00     0.034 A 
ATOM     57  C   UNL A   1      45.101  30.840  29.733  1.00  0.00     0.049 A 
ATOM     58  C   UNL A   1      40.616  31.471  33.117  1.00  0.00     0.074 A 
ATOM     59  C   UNL A   1      46.108  30.053  30.237  1.00  0.00     0.029 A 
ATOM     60  N   UNL A   1      44.374  31.314  30.792  1.00  0.00    -0.354 N 
ATOM     61  N   UNL A   1      41.595  31.009  33.841  1.00  0.00    -0.248 NA
ATOM     62  C   UNL A   1      40.953  32.596  32.251  1.00  0.00     0.031 C 
ATOM     63  C   UNL A   1      45.860  29.940  31.634  1.00  0.00     0.029 A 
ATOM     64  C   UNL A   1      44.723  30.681  31.953  1.00  0.00     0.049 A 
ATOM     65  H   UNL A   1      43.690  32.019  30.726  1.00  0.00     0.167 HD
ATOM     66  C   UNL A   1      42.723  31.455  33.188  1.00  0.00     0.074 A 
ATOM     67  C   UNL A   1      42.282  32.575  32.369  1.00  0.00     0.031 C 
ATOM     68  C   UNL A   1      43.832  30.669  33.097  1.00  0.00     0.034 A 
BRANCH  55  69
ATOM     69  C   UNL A   1      44.543  32.463  27.831  1.00  0.00     0.023 A 
ATOM     70  C   UNL A   1      43.634  33.486  28.151  1.00  0.00     0.031 A 
ATOM     71  C   UNL A   1      45.675  32.864  27.083  1.00  0.00     0.131 A 
ATOM     72  C   UNL A   1      43.850  34.814  27.756  1.00  0.00     0.055 A 
ATOM     73  C   UNL A   1      45.922  34.201  26.741  1.00  0.00     0.041 A 
ATOM     74  F   UNL A   1      46.609  31.977  26.707  1.00  0.00    -0.206 F 
ATOM     75  C   UNL A   1      45.007  35.188  27.083  1.00  0.00     0.022 A 
BRANCH  72  76
ATOM     76  S   UNL A   1      42.621  36.091  28.146  1.00  0.00     0.124 S 
ATOM     77  O   UNL A   1      42.441  36.742  26.854  1.00  0.00    -0.237 OA
ATOM     78  O   UNL A   1      41.496  35.283  28.610  1.00  0.00    -0.237 OA
ATOM     79  O   UNL A   1      43.275  36.890  29.177  1.00  0.00    -0.744 OA
ENDBRANCH  72  76
ENDBRANCH  55  69
BRANCH  56  80
ATOM     80  C   UNL A   1      38.054  31.444  33.273  1.00  0.00     0.023 A 
ATOM     81  C   UNL A   1      37.222  31.890  32.231  1.00  0.00     0.031 A 
ATOM     82  C   UNL A   1      37.815  31.953  34.563  1.00  0.00     0.131 A 
ATOM     83  C   UNL A   1      36.252  32.870  32.475  1.00  0.00     0.055 A 
ATOM     84  C   UNL A   1      36.829  32.914  34.807  1.00  0.00     0.041 A 
ATOM     85  F   UNL A   1      38.590  31.587  35.594  1.00  0.00    -0.206 F 
ATOM     86  C   UNL A   1      36.053  33.392  33.755  1.00  0.00     0.022 A 
BRANCH  83  87
ATOM     87  S   UNL A   1      35.297  33.572  31.103  1.00  0.00     0.124 S 
ATOM     88  O   UNL A   1      34.230  32.589  30.934  1.00  0.00    -0.237 OA
ATOM     89  O   UNL A   1      34.888  34.858  31.657  1.00  0.00    -0.237 OA
ATOM     90  O   UNL A   1      36.263  33.628  30.009  1.00  0.00    -0.744 OA
ENDBRANCH  83  87
ENDBRANCH  56  80
BRANCH  68  91
ATOM     91  C   UNL A   1      44.044  29.601  34.132  1.00  0.00     0.023 A 
ATOM     92  C   UNL A   1      43.106  28.555  34.147  1.00  0.00     0.031 A 
ATOM     93  C   UNL A   1      44.994  29.649  35.166  1.00  0.00     0.131 A 
ATOM     94  C   UNL A   1      43.093  27.635  35.197  1.00  0.00     0.055 A 
ATOM     95  C   UNL A   1      45.030  28.676  36.170  1.00  0.00     0.041 A 
ATOM     96  F   UNL A   1      45.861  30.664  35.278  1.00  0.00    -0.206 F 
ATOM     97  C   UNL A   1      44.063  27.674  36.200  1.00  0.00     0.022 A 
BRANCH  94  98
ATOM     98  S   UNL A   1      41.706  26.483  35.365  1.00  0.00     0.124 S 
ATOM     99  O   UNL A   1      40.778  26.969  34.343  1.00  0.00    -0.237 OA
ATOM    100  O   UNL A   1      42.338  25.196  35.073  1.00  0.00    -0.237 OA
ATOM    101  O   UNL A   1      41.267  26.654  36.740  1.00  0.00    -0.744 OA
ENDBRANCH  94  98
ENDBRANCH  68  91
ENDBRANCH  42  43
ENDBRANCH  34  37
ENDBRANCH  32  33
ENDBRANCH  31  32
ENDBRANCH   1  31
TORSDOF 18
ENDMDL
