MODEL 1
REMARK VINA RESULT:     -11.9      0.000      0.000
REMARK SMILES O=C(Cc1cccn1-c1ccccc1F)NCCCCCCNC(=O)c1ccc(-c2c3nc(c(-c4cc(S(=O)(=O)[O-])ccc4F)c4ccc([nH]4)c(-c4cc(S(=O)(=O)[O-])ccc4F)c4nc(c(-c5cc(S(=O)(=O)[O-])ccc5F)c5ccc2[nH]5)C=C4)C=C3)cc1
REMARK SMILES IDX 20 1 19 2 18 3 17 4 16 5 1 6 2 7 3 9 4 10 5 11 8 12 6 13
REMARK SMILES IDX 7 14 9 15 10 16 14 17 11 18 13 19 15 20 12 21 21 22 22 23
REMARK SMILES IDX 23 24 24 25 25 27 26 28 27 29 88 30 28 31 87 32 29 33 30 34
REMARK SMILES IDX 31 35 81 36 32 37 86 38 80 39 82 40 33 41 85 42 79 43 78 44
REMARK SMILES IDX 34 46 66 47 46 48 65 49 47 50 50 51 64 52 83 53 48 54 49 55
REMARK SMILES IDX 63 57 84 58 51 59 35 60 36 61 44 62 37 63 43 64 45 65 42 66
REMARK SMILES IDX 38 67 39 68 40 69 41 70 67 71 68 72 76 73 69 74 75 75 77 76
REMARK SMILES IDX 74 77 70 78 71 79 72 80 73 81 52 82 53 83 61 84 54 85 60 86
REMARK SMILES IDX 62 87 59 88 55 89 56 90 57 91 58 92
REMARK H PARENT 16 8 23 26 82 45 50 56
REMARK Flexibility Score: inf
ROOT
ATOM      1  C   UNL A   1      32.464  29.232  26.701  1.00  0.00     0.002 C 
ENDROOT
BRANCH   1   2
ATOM      2  C   UNL A   1      32.015  28.442  25.469  1.00  0.00     0.002 C 
BRANCH   2   3
ATOM      3  C   UNL A   1      32.432  29.036  24.117  1.00  0.00     0.021 C 
BRANCH   3   4
ATOM      4  C   UNL A   1      33.114  28.059  23.157  1.00  0.00     0.116 C 
BRANCH   4   5
ATOM      5  N   UNL A   1      32.716  26.689  23.404  1.00  0.00    -0.356 N 
ATOM      6  O   UNL A   1      33.718  25.783  21.547  1.00  0.00    -0.275 OA
ATOM      7  C   UNL A   1      33.049  25.646  22.568  1.00  0.00     0.225 C 
ATOM      8  H   UNL A   1      32.181  26.494  24.209  1.00  0.00     0.163 HD
BRANCH   7   9
ATOM      9  C   UNL A   1      32.507  24.295  23.023  1.00  0.00     0.154 C 
BRANCH   9  10
ATOM     10  C   UNL A   1      32.422  24.237  24.522  1.00  0.00     0.032 A 
ATOM     11  C   UNL A   1      31.387  24.728  25.304  1.00  0.00     0.024 A 
ATOM     12  N   UNL A   1      33.312  23.581  25.368  1.00  0.00    -0.318 N 
ATOM     13  C   UNL A   1      31.584  24.287  26.625  1.00  0.00     0.020 A 
ATOM     14  C   UNL A   1      32.736  23.539  26.627  1.00  0.00     0.091 A 
BRANCH  12  15
ATOM     15  C   UNL A   1      34.581  23.015  25.080  1.00  0.00     0.081 A 
ATOM     16  C   UNL A   1      35.629  23.854  24.670  1.00  0.00     0.030 A 
ATOM     17  C   UNL A   1      34.791  21.637  25.132  1.00  0.00     0.147 A 
ATOM     18  C   UNL A   1      36.875  23.310  24.354  1.00  0.00     0.002 A 
ATOM     19  C   UNL A   1      36.038  21.097  24.825  1.00  0.00     0.041 A 
ATOM     20  F   UNL A   1      33.791  20.788  25.402  1.00  0.00    -0.205 F 
ATOM     21  C   UNL A   1      37.084  21.934  24.440  1.00  0.00     0.003 A 
ENDBRANCH  12  15
ENDBRANCH   9  10
ENDBRANCH   7   9
ENDBRANCH   4   5
ENDBRANCH   3   4
ENDBRANCH   2   3
ENDBRANCH   1   2
BRANCH   1  22
ATOM     22  C   UNL A   1      33.662  28.651  27.457  1.00  0.00     0.021 C 
BRANCH  22  23
ATOM     23  C   UNL A   1      35.008  29.070  26.870  1.00  0.00     0.116 C 
BRANCH  23  24
ATOM     24  N   UNL A   1      35.388  30.407  27.309  1.00  0.00    -0.352 N 
ATOM     25  C   UNL A   1      36.426  30.782  28.129  1.00  0.00     0.251 C 
ATOM     26  H   UNL A   1      34.825  31.142  26.972  1.00  0.00     0.163 HD
ATOM     27  O   UNL A   1      36.420  31.881  28.663  1.00  0.00    -0.269 OA
BRANCH  25  28
ATOM     28  C   UNL A   1      37.531  29.837  28.380  1.00  0.00     0.039 A 
ATOM     29  C   UNL A   1      38.658  29.886  27.556  1.00  0.00     0.014 A 
ATOM     30  C   UNL A   1      37.433  28.895  29.411  1.00  0.00     0.014 A 
ATOM     31  C   UNL A   1      39.730  29.040  27.818  1.00  0.00     0.010 A 
ATOM     32  C   UNL A   1      38.515  28.077  29.699  1.00  0.00     0.010 A 
ATOM     33  C   UNL A   1      39.666  28.160  28.907  1.00  0.00    -0.014 A 
BRANCH  33  34
ATOM     34  C   UNL A   1      40.878  27.407  29.293  1.00  0.00     0.031 A 
ATOM     35  C   UNL A   1      41.209  26.297  28.262  1.00  0.00     0.074 A 
ATOM     36  C   UNL A   1      41.475  27.794  30.462  1.00  0.00     0.049 A 
ATOM     37  N   UNL A   1      41.774  25.141  28.423  1.00  0.00    -0.248 NA
ATOM     38  C   UNL A   1      40.757  26.464  26.849  1.00  0.00     0.031 C 
ATOM     39  C   UNL A   1      41.010  28.912  31.324  1.00  0.00     0.029 A 
ATOM     40  N   UNL A   1      42.572  27.359  31.174  1.00  0.00    -0.354 N 
ATOM     41  C   UNL A   1      41.950  24.556  27.142  1.00  0.00     0.074 A 
ATOM     42  C   UNL A   1      41.175  25.351  26.238  1.00  0.00     0.031 C 
ATOM     43  C   UNL A   1      41.748  29.004  32.451  1.00  0.00     0.029 A 
ATOM     44  C   UNL A   1      42.771  27.980  32.440  1.00  0.00     0.049 A 
ATOM     45  H   UNL A   1      43.179  26.664  30.829  1.00  0.00     0.167 HD
ATOM     46  C   UNL A   1      42.837  23.543  26.888  1.00  0.00     0.034 A 
ATOM     47  C   UNL A   1      43.662  27.657  33.429  1.00  0.00     0.034 A 
ATOM     48  C   UNL A   1      43.539  23.220  28.083  1.00  0.00     0.049 A 
ATOM     49  C   UNL A   1      44.518  26.616  32.836  1.00  0.00     0.074 A 
ATOM     50  C   UNL A   1      43.160  22.592  29.239  1.00  0.00     0.029 A 
ATOM     51  N   UNL A   1      44.723  23.890  28.299  1.00  0.00    -0.354 N 
ATOM     52  N   UNL A   1      45.398  26.814  31.903  1.00  0.00    -0.248 NA
ATOM     53  C   UNL A   1      44.303  25.222  33.245  1.00  0.00     0.031 C 
ATOM     54  C   UNL A   1      43.830  23.337  30.230  1.00  0.00     0.029 A 
ATOM     55  C   UNL A   1      44.762  24.197  29.634  1.00  0.00     0.049 A 
ATOM     56  H   UNL A   1      45.407  24.105  27.625  1.00  0.00     0.167 HD
ATOM     57  C   UNL A   1      45.588  25.552  31.399  1.00  0.00     0.074 A 
ATOM     58  C   UNL A   1      45.164  24.625  32.427  1.00  0.00     0.031 C 
ATOM     59  C   UNL A   1      45.527  25.351  30.057  1.00  0.00     0.034 A 
BRANCH  46  60
ATOM     60  C   UNL A   1      43.369  22.901  25.629  1.00  0.00     0.023 A 
ATOM     61  C   UNL A   1      43.375  21.479  25.591  1.00  0.00     0.031 A 
ATOM     62  C   UNL A   1      44.131  23.549  24.650  1.00  0.00     0.131 A 
ATOM     63  C   UNL A   1      44.194  20.766  24.704  1.00  0.00     0.055 A 
ATOM     64  C   UNL A   1      44.910  22.832  23.726  1.00  0.00     0.041 A 
ATOM     65  F   UNL A   1      44.218  24.885  24.606  1.00  0.00    -0.206 F 
ATOM     66  C   UNL A   1      44.972  21.440  23.769  1.00  0.00     0.022 A 
BRANCH  63  67
ATOM     67  S   UNL A   1      44.331  18.963  24.900  1.00  0.00     0.124 S 
ATOM     68  O   UNL A   1      45.385  18.836  25.901  1.00  0.00    -0.237 OA
ATOM     69  O   UNL A   1      42.987  18.601  25.340  1.00  0.00    -0.237 OA
ATOM     70  O   UNL A   1      44.688  18.500  23.560  1.00  0.00    -0.744 OA
ENDBRANCH  63  67
ENDBRANCH  46  60
BRANCH  47  71
ATOM     71  C   UNL A   1      43.900  27.969  34.899  1.00  0.00     0.023 A 
ATOM     72  C   UNL A   1      44.176  27.043  35.918  1.00  0.00     0.031 A 
ATOM     73  C   UNL A   1      43.971  29.339  35.306  1.00  0.00     0.131 A 
ATOM     74  C   UNL A   1      44.591  27.494  37.203  1.00  0.00     0.055 A 
ATOM     75  C   UNL A   1      44.470  29.774  36.534  1.00  0.00     0.041 A 
ATOM     76  F   UNL A   1      43.571  30.341  34.511  1.00  0.00    -0.206 F 
ATOM     77  C   UNL A   1      44.803  28.845  37.490  1.00  0.00     0.022 A 
BRANCH  74  78
ATOM     78  S   UNL A   1      44.905  26.334  38.569  1.00  0.00     0.124 S 
ATOM     79  O   UNL A   1      44.472  25.066  37.989  1.00  0.00    -0.237 OA
ATOM     80  O   UNL A   1      46.339  26.473  38.803  1.00  0.00    -0.237 OA
ATOM     81  O   UNL A   1      44.052  26.850  39.639  1.00  0.00    -0.744 OA
ENDBRANCH  74  78
ENDBRANCH  47  71
BRANCH  59  82
ATOM     82  C   UNL A   1      45.900  26.560  29.206  1.00  0.00     0.023 A 
ATOM     83  C   UNL A   1      44.892  27.335  28.604  1.00  0.00     0.031 A 
ATOM     84  C   UNL A   1      47.221  26.921  28.889  1.00  0.00     0.131 A 
ATOM     85  C   UNL A   1      45.215  28.393  27.730  1.00  0.00     0.055 A 
ATOM     86  C   UNL A   1      47.548  27.973  28.023  1.00  0.00     0.041 A 
ATOM     87  F   UNL A   1      48.252  26.254  29.401  1.00  0.00    -0.206 F 
ATOM     88  C   UNL A   1      46.539  28.717  27.435  1.00  0.00     0.022 A 
BRANCH  85  89
ATOM     89  S   UNL A   1      43.879  29.387  27.011  1.00  0.00     0.124 S 
ATOM     90  O   UNL A   1      44.602  30.497  26.400  1.00  0.00    -0.237 OA
ATOM     91  O   UNL A   1      43.250  28.447  26.089  1.00  0.00    -0.237 OA
ATOM     92  O   UNL A   1      43.061  29.746  28.170  1.00  0.00    -0.744 OA
ENDBRANCH  85  89
ENDBRANCH  59  82
ENDBRANCH  33  34
ENDBRANCH  25  28
ENDBRANCH  23  24
ENDBRANCH  22  23
ENDBRANCH   1  22
TORSDOF 18
ENDMDL
MODEL 2
REMARK VINA RESULT:     -11.2      5.079     11.380
REMARK SMILES O=C(Cc1cccn1-c1ccccc1F)NCCCCCCNC(=O)c1ccc(-c2c3nc(c(-c4cc(S(=O)(=O)[O-])ccc4F)c4ccc([nH]4)c(-c4cc(S(=O)(=O)[O-])ccc4F)c4nc(c(-c5cc(S(=O)(=O)[O-])ccc5F)c5ccc2[nH]5)C=C4)C=C3)cc1
REMARK SMILES IDX 20 1 19 2 18 3 17 4 16 5 1 6 2 7 3 9 4 10 5 11 8 12 6 13
REMARK SMILES IDX 7 14 9 15 10 16 14 17 11 18 13 19 15 20 12 21 21 22 22 23
REMARK SMILES IDX 23 24 24 25 25 27 26 28 27 29 88 30 28 31 87 32 29 33 30 34
REMARK SMILES IDX 31 35 81 36 32 37 86 38 80 39 82 40 33 41 85 42 79 43 78 44
REMARK SMILES IDX 34 46 66 47 46 48 65 49 47 50 50 51 64 52 83 53 48 54 49 55
REMARK SMILES IDX 63 57 84 58 51 59 35 60 36 61 44 62 37 63 43 64 45 65 42 66
REMARK SMILES IDX 38 67 39 68 40 69 41 70 67 71 68 72 76 73 69 74 75 75 77 76
REMARK SMILES IDX 74 77 70 78 71 79 72 80 73 81 52 82 53 83 61 84 54 85 60 86
REMARK SMILES IDX 62 87 59 88 55 89 56 90 57 91 58 92
REMARK H PARENT 16 8 23 26 82 45 50 56
REMARK Flexibility Score: inf
ROOT
ATOM      1  C   UNL A   1      43.682  26.305  27.221  1.00  0.00     0.002 C 
ENDROOT
BRANCH   1   2
ATOM      2  C   UNL A   1      45.205  26.241  27.365  1.00  0.00     0.002 C 
BRANCH   2   3
ATOM      3  C   UNL A   1      46.004  26.828  26.194  1.00  0.00     0.021 C 
BRANCH   3   4
ATOM      4  C   UNL A   1      46.790  25.811  25.365  1.00  0.00     0.116 C 
BRANCH   4   5
ATOM      5  N   UNL A   1      45.931  24.786  24.809  1.00  0.00    -0.356 N 
ATOM      6  O   UNL A   1      46.525  23.119  26.273  1.00  0.00    -0.275 OA
ATOM      7  C   UNL A   1      45.868  23.503  25.309  1.00  0.00     0.225 C 
ATOM      8  H   UNL A   1      45.366  25.017  24.035  1.00  0.00     0.163 HD
BRANCH   7   9
ATOM      9  C   UNL A   1      44.905  22.594  24.553  1.00  0.00     0.154 C 
BRANCH   9  10
ATOM     10  C   UNL A   1      45.288  21.153  24.733  1.00  0.00     0.032 A 
ATOM     11  C   UNL A   1      46.451  20.550  24.274  1.00  0.00     0.024 A 
ATOM     12  N   UNL A   1      44.596  20.209  25.488  1.00  0.00    -0.318 N 
ATOM     13  C   UNL A   1      46.529  19.260  24.832  1.00  0.00     0.020 A 
ATOM     14  C   UNL A   1      45.412  19.097  25.616  1.00  0.00     0.091 A 
BRANCH  12  15
ATOM     15  C   UNL A   1      43.306  20.290  26.070  1.00  0.00     0.081 A 
ATOM     16  C   UNL A   1      42.271  19.492  25.560  1.00  0.00     0.030 A 
ATOM     17  C   UNL A   1      43.026  21.194  27.096  1.00  0.00     0.147 A 
ATOM     18  C   UNL A   1      40.987  19.581  26.101  1.00  0.00     0.002 A 
ATOM     19  C   UNL A   1      41.747  21.276  27.642  1.00  0.00     0.041 A 
ATOM     20  F   UNL A   1      43.949  22.060  27.535  1.00  0.00    -0.205 F 
ATOM     21  C   UNL A   1      40.726  20.466  27.148  1.00  0.00     0.003 A 
ENDBRANCH  12  15
ENDBRANCH   9  10
ENDBRANCH   7   9
ENDBRANCH   4   5
ENDBRANCH   3   4
ENDBRANCH   2   3
ENDBRANCH   1   2
BRANCH   1  22
ATOM     22  C   UNL A   1      42.965  24.952  27.184  1.00  0.00     0.021 C 
BRANCH  22  23
ATOM     23  C   UNL A   1      42.242  24.688  25.865  1.00  0.00     0.116 C 
BRANCH  23  24
ATOM     24  N   UNL A   1      40.954  24.042  26.084  1.00  0.00    -0.352 N 
ATOM     25  C   UNL A   1      39.935  24.416  26.930  1.00  0.00     0.251 C 
ATOM     26  H   UNL A   1      40.790  23.229  25.555  1.00  0.00     0.163 HD
ATOM     27  O   UNL A   1      39.072  23.611  27.244  1.00  0.00    -0.269 OA
BRANCH  25  28
ATOM     28  C   UNL A   1      39.910  25.787  27.475  1.00  0.00     0.039 A 
ATOM     29  C   UNL A   1      39.800  25.959  28.858  1.00  0.00     0.014 A 
ATOM     30  C   UNL A   1      39.970  26.890  26.615  1.00  0.00     0.014 A 
ATOM     31  C   UNL A   1      39.833  27.244  29.388  1.00  0.00     0.010 A 
ATOM     32  C   UNL A   1      40.043  28.170  27.144  1.00  0.00     0.010 A 
ATOM     33  C   UNL A   1      39.986  28.342  28.531  1.00  0.00    -0.014 A 
BRANCH  33  34
ATOM     34  C   UNL A   1      40.213  29.681  29.114  1.00  0.00     0.031 A 
ATOM     35  C   UNL A   1      38.879  30.360  29.518  1.00  0.00     0.074 A 
ATOM     36  C   UNL A   1      41.518  30.087  29.185  1.00  0.00     0.049 A 
ATOM     37  N   UNL A   1      38.547  31.613  29.544  1.00  0.00    -0.248 NA
ATOM     38  C   UNL A   1      37.704  29.502  29.856  1.00  0.00     0.031 C 
ATOM     39  C   UNL A   1      42.686  29.275  28.752  1.00  0.00     0.029 A 
ATOM     40  N   UNL A   1      42.148  31.233  29.622  1.00  0.00    -0.354 N 
ATOM     41  C   UNL A   1      37.245  31.711  30.102  1.00  0.00     0.074 A 
ATOM     42  C   UNL A   1      36.731  30.375  30.134  1.00  0.00     0.031 C 
ATOM     43  C   UNL A   1      43.838  29.971  28.866  1.00  0.00     0.029 A 
ATOM     44  C   UNL A   1      43.553  31.289  29.392  1.00  0.00     0.049 A 
ATOM     45  H   UNL A   1      41.659  31.964  30.065  1.00  0.00     0.167 HD
ATOM     46  C   UNL A   1      36.735  32.866  30.633  1.00  0.00     0.034 A 
ATOM     47  C   UNL A   1      44.414  32.340  29.566  1.00  0.00     0.034 A 
ATOM     48  C   UNL A   1      37.715  33.895  30.553  1.00  0.00     0.049 A 
ATOM     49  C   UNL A   1      43.606  33.382  30.220  1.00  0.00     0.074 A 
ATOM     50  C   UNL A   1      38.225  34.609  29.503  1.00  0.00     0.029 A 
ATOM     51  N   UNL A   1      38.545  34.036  31.643  1.00  0.00    -0.354 N 
ATOM     52  N   UNL A   1      43.179  33.338  31.445  1.00  0.00    -0.248 NA
ATOM     53  C   UNL A   1      43.150  34.520  29.411  1.00  0.00     0.031 C 
ATOM     54  C   UNL A   1      39.592  34.707  29.830  1.00  0.00     0.029 A 
ATOM     55  C   UNL A   1      39.800  34.284  31.150  1.00  0.00     0.049 A 
ATOM     56  H   UNL A   1      38.287  33.971  32.590  1.00  0.00     0.167 HD
ATOM     57  C   UNL A   1      42.155  34.252  31.438  1.00  0.00     0.074 A 
ATOM     58  C   UNL A   1      42.393  35.135  30.315  1.00  0.00     0.031 C 
ATOM     59  C   UNL A   1      40.946  33.906  31.950  1.00  0.00     0.034 A 
BRANCH  46  60
ATOM     60  C   UNL A   1      35.512  33.195  31.456  1.00  0.00     0.023 A 
ATOM     61  C   UNL A   1      34.757  34.331  31.052  1.00  0.00     0.031 A 
ATOM     62  C   UNL A   1      35.238  32.692  32.733  1.00  0.00     0.131 A 
ATOM     63  C   UNL A   1      33.878  34.985  31.927  1.00  0.00     0.055 A 
ATOM     64  C   UNL A   1      34.316  33.317  33.590  1.00  0.00     0.041 A 
ATOM     65  F   UNL A   1      35.906  31.642  33.227  1.00  0.00    -0.206 F 
ATOM     66  C   UNL A   1      33.657  34.484  33.205  1.00  0.00     0.022 A 
BRANCH  63  67
ATOM     67  S   UNL A   1      33.155  36.573  31.413  1.00  0.00     0.124 S 
ATOM     68  O   UNL A   1      31.821  36.513  31.999  1.00  0.00    -0.237 OA
ATOM     69  O   UNL A   1      34.074  37.535  32.014  1.00  0.00    -0.237 OA
ATOM     70  O   UNL A   1      33.197  36.509  29.953  1.00  0.00    -0.744 OA
ENDBRANCH  63  67
ENDBRANCH  46  60
BRANCH  47  71
ATOM     71  C   UNL A   1      45.831  32.732  29.176  1.00  0.00     0.023 A 
ATOM     72  C   UNL A   1      46.228  33.370  27.989  1.00  0.00     0.031 A 
ATOM     73  C   UNL A   1      46.880  32.554  30.133  1.00  0.00     0.131 A 
ATOM     74  C   UNL A   1      47.554  33.872  27.853  1.00  0.00     0.055 A 
ATOM     75  C   UNL A   1      48.147  33.129  30.035  1.00  0.00     0.041 A 
ATOM     76  F   UNL A   1      46.717  31.815  31.239  1.00  0.00    -0.206 F 
ATOM     77  C   UNL A   1      48.486  33.814  28.893  1.00  0.00     0.022 A 
BRANCH  74  78
ATOM     78  S   UNL A   1      48.128  34.655  26.315  1.00  0.00     0.124 S 
ATOM     79  O   UNL A   1      46.884  35.191  25.771  1.00  0.00    -0.237 OA
ATOM     80  O   UNL A   1      49.097  35.640  26.783  1.00  0.00    -0.237 OA
ATOM     81  O   UNL A   1      48.698  33.533  25.570  1.00  0.00    -0.744 OA
ENDBRANCH  74  78
ENDBRANCH  47  71
BRANCH  59  82
ATOM     82  C   UNL A   1      40.987  32.837  33.036  1.00  0.00     0.023 A 
ATOM     83  C   UNL A   1      40.764  31.488  32.706  1.00  0.00     0.031 A 
ATOM     84  C   UNL A   1      41.144  33.114  34.405  1.00  0.00     0.131 A 
ATOM     85  C   UNL A   1      40.693  30.498  33.708  1.00  0.00     0.055 A 
ATOM     86  C   UNL A   1      41.078  32.134  35.405  1.00  0.00     0.041 A 
ATOM     87  F   UNL A   1      41.358  34.357  34.830  1.00  0.00    -0.206 F 
ATOM     88  C   UNL A   1      40.849  30.813  35.057  1.00  0.00     0.022 A 
BRANCH  85  89
ATOM     89  S   UNL A   1      40.444  28.768  33.226  1.00  0.00     0.124 S 
ATOM     90  O   UNL A   1      39.044  28.750  32.814  1.00  0.00    -0.237 OA
ATOM     91  O   UNL A   1      41.427  28.594  32.160  1.00  0.00    -0.237 OA
ATOM     92  O   UNL A   1      40.737  28.027  34.453  1.00  0.00    -0.744 OA
ENDBRANCH  85  89
ENDBRANCH  59  82
ENDBRANCH  33  34
ENDBRANCH  25  28
ENDBRANCH  23  24
ENDBRANCH  22  23
ENDBRANCH   1  22
TORSDOF 18
ENDMDL
MODEL 3
REMARK VINA RESULT:     -11.2      3.263      8.141
REMARK SMILES O=C(Cc1cccn1-c1ccccc1F)NCCCCCCNC(=O)c1ccc(-c2c3nc(c(-c4cc(S(=O)(=O)[O-])ccc4F)c4ccc([nH]4)c(-c4cc(S(=O)(=O)[O-])ccc4F)c4nc(c(-c5cc(S(=O)(=O)[O-])ccc5F)c5ccc2[nH]5)C=C4)C=C3)cc1
REMARK SMILES IDX 20 1 19 2 18 3 17 4 16 5 1 6 2 7 3 9 4 10 5 11 8 12 6 13
REMARK SMILES IDX 7 14 9 15 10 16 14 17 11 18 13 19 15 20 12 21 21 22 22 23
REMARK SMILES IDX 23 24 24 25 25 27 26 28 27 29 88 30 28 31 87 32 29 33 30 34
REMARK SMILES IDX 31 35 81 36 32 37 86 38 80 39 82 40 33 41 85 42 79 43 78 44
REMARK SMILES IDX 34 46 66 47 46 48 65 49 47 50 50 51 64 52 83 53 48 54 49 55
REMARK SMILES IDX 63 57 84 58 51 59 35 60 36 61 44 62 37 63 43 64 45 65 42 66
REMARK SMILES IDX 38 67 39 68 40 69 41 70 67 71 68 72 76 73 69 74 75 75 77 76
REMARK SMILES IDX 74 77 70 78 71 79 72 80 73 81 52 82 53 83 61 84 54 85 60 86
REMARK SMILES IDX 62 87 59 88 55 89 56 90 57 91 58 92
REMARK H PARENT 16 8 23 26 82 45 50 56
REMARK Flexibility Score: inf
ROOT
ATOM      1  C   UNL A   1      33.421  26.939  26.119  1.00  0.00     0.002 C 
ENDROOT
BRANCH   1   2
ATOM      2  C   UNL A   1      32.218  26.499  25.281  1.00  0.00     0.002 C 
BRANCH   2   3
ATOM      3  C   UNL A   1      30.949  26.161  26.074  1.00  0.00     0.021 C 
BRANCH   3   4
ATOM      4  C   UNL A   1      30.536  24.688  26.048  1.00  0.00     0.116 C 
BRANCH   4   5
ATOM      5  N   UNL A   1      31.213  23.954  25.000  1.00  0.00    -0.356 N 
ATOM      6  O   UNL A   1      30.759  21.854  25.811  1.00  0.00    -0.275 OA
ATOM      7  C   UNL A   1      31.276  22.577  24.964  1.00  0.00     0.225 C 
ATOM      8  H   UNL A   1      31.651  24.463  24.278  1.00  0.00     0.163 HD
BRANCH   7   9
ATOM      9  C   UNL A   1      32.056  22.027  23.774  1.00  0.00     0.154 C 
BRANCH   9  10
ATOM     10  C   UNL A   1      32.851  20.818  24.177  1.00  0.00     0.032 A 
ATOM     11  C   UNL A   1      32.469  19.494  24.015  1.00  0.00     0.024 A 
ATOM     12  N   UNL A   1      34.151  20.821  24.675  1.00  0.00    -0.318 N 
ATOM     13  C   UNL A   1      33.572  18.675  24.317  1.00  0.00     0.020 A 
ATOM     14  C   UNL A   1      34.606  19.512  24.662  1.00  0.00     0.091 A 
BRANCH  12  15
ATOM     15  C   UNL A   1      34.945  21.909  25.118  1.00  0.00     0.081 A 
ATOM     16  C   UNL A   1      34.748  22.420  26.410  1.00  0.00     0.030 A 
ATOM     17  C   UNL A   1      35.871  22.526  24.276  1.00  0.00     0.147 A 
ATOM     18  C   UNL A   1      35.500  23.510  26.852  1.00  0.00     0.002 A 
ATOM     19  C   UNL A   1      36.627  23.608  24.721  1.00  0.00     0.041 A 
ATOM     20  F   UNL A   1      36.009  22.150  22.997  1.00  0.00    -0.205 F 
ATOM     21  C   UNL A   1      36.445  24.099  26.012  1.00  0.00     0.003 A 
ENDBRANCH  12  15
ENDBRANCH   9  10
ENDBRANCH   7   9
ENDBRANCH   4   5
ENDBRANCH   3   4
ENDBRANCH   2   3
ENDBRANCH   1   2
BRANCH   1  22
ATOM     22  C   UNL A   1      33.287  28.306  26.798  1.00  0.00     0.021 C 
BRANCH  22  23
ATOM     23  C   UNL A   1      34.401  29.279  26.421  1.00  0.00     0.116 C 
BRANCH  23  24
ATOM     24  N   UNL A   1      34.401  30.451  27.288  1.00  0.00    -0.352 N 
ATOM     25  C   UNL A   1      35.262  30.763  28.314  1.00  0.00     0.251 C 
ATOM     26  H   UNL A   1      33.689  31.108  27.115  1.00  0.00     0.163 HD
ATOM     27  O   UNL A   1      34.946  31.598  29.148  1.00  0.00    -0.269 OA
BRANCH  25  28
ATOM     28  C   UNL A   1      36.557  30.062  28.415  1.00  0.00     0.039 A 
ATOM     29  C   UNL A   1      37.425  30.094  27.320  1.00  0.00     0.014 A 
ATOM     30  C   UNL A   1      36.890  29.359  29.578  1.00  0.00     0.014 A 
ATOM     31  C   UNL A   1      38.672  29.486  27.423  1.00  0.00     0.010 A 
ATOM     32  C   UNL A   1      38.147  28.786  29.698  1.00  0.00     0.010 A 
ATOM     33  C   UNL A   1      39.039  28.861  28.622  1.00  0.00    -0.014 A 
BRANCH  33  34
ATOM     34  C   UNL A   1      40.430  28.389  28.789  1.00  0.00     0.031 A 
ATOM     35  C   UNL A   1      41.377  29.545  29.200  1.00  0.00     0.074 A 
ATOM     36  C   UNL A   1      40.641  27.058  28.546  1.00  0.00     0.049 A 
ATOM     37  N   UNL A   1      42.635  29.733  28.946  1.00  0.00    -0.248 NA
ATOM     38  C   UNL A   1      40.812  30.718  29.931  1.00  0.00     0.031 C 
ATOM     39  C   UNL A   1      39.584  26.085  28.168  1.00  0.00     0.029 A 
ATOM     40  N   UNL A   1      41.752  26.241  28.562  1.00  0.00    -0.354 N 
ATOM     41  C   UNL A   1      43.058  30.889  29.653  1.00  0.00     0.074 A 
ATOM     42  C   UNL A   1      41.862  31.525  30.117  1.00  0.00     0.031 C 
ATOM     43  C   UNL A   1      40.107  24.865  27.913  1.00  0.00     0.029 A 
ATOM     44  C   UNL A   1      41.540  24.907  28.110  1.00  0.00     0.049 A 
ATOM     45  H   UNL A   1      42.633  26.559  28.866  1.00  0.00     0.167 HD
ATOM     46  C   UNL A   1      44.370  31.167  29.932  1.00  0.00     0.034 A 
ATOM     47  C   UNL A   1      42.461  23.923  27.864  1.00  0.00     0.034 A 
ATOM     48  C   UNL A   1      45.191  30.117  29.432  1.00  0.00     0.049 A 
ATOM     49  C   UNL A   1      43.739  24.480  28.336  1.00  0.00     0.074 A 
ATOM     50  C   UNL A   1      45.546  29.742  28.165  1.00  0.00     0.029 A 
ATOM     51  N   UNL A   1      45.466  29.087  30.303  1.00  0.00    -0.354 N 
ATOM     52  N   UNL A   1      44.057  24.671  29.581  1.00  0.00    -0.248 NA
ATOM     53  C   UNL A   1      44.703  24.959  27.337  1.00  0.00     0.031 C 
ATOM     54  C   UNL A   1      45.515  28.335  28.238  1.00  0.00     0.029 A 
ATOM     55  C   UNL A   1      45.397  27.928  29.574  1.00  0.00     0.049 A 
ATOM     56  H   UNL A   1      45.671  29.167  31.262  1.00  0.00     0.167 HD
ATOM     57  C   UNL A   1      45.084  25.577  29.491  1.00  0.00     0.074 A 
ATOM     58  C   UNL A   1      45.624  25.463  28.152  1.00  0.00     0.031 C 
ATOM     59  C   UNL A   1      45.057  26.698  30.257  1.00  0.00     0.034 A 
BRANCH  46  60
ATOM     60  C   UNL A   1      45.067  32.171  30.818  1.00  0.00     0.023 A 
ATOM     61  C   UNL A   1      44.562  32.317  32.140  1.00  0.00     0.031 A 
ATOM     62  C   UNL A   1      45.937  33.175  30.374  1.00  0.00     0.131 A 
ATOM     63  C   UNL A   1      44.821  33.460  32.909  1.00  0.00     0.055 A 
ATOM     64  C   UNL A   1      46.238  34.294  31.168  1.00  0.00     0.041 A 
ATOM     65  F   UNL A   1      46.452  33.154  29.138  1.00  0.00    -0.206 F 
ATOM     66  C   UNL A   1      45.656  34.459  32.425  1.00  0.00     0.022 A 
BRANCH  63  67
ATOM     67  S   UNL A   1      43.927  33.676  34.479  1.00  0.00     0.124 S 
ATOM     68  O   UNL A   1      43.553  35.085  34.435  1.00  0.00    -0.237 OA
ATOM     69  O   UNL A   1      42.831  32.720  34.340  1.00  0.00    -0.237 OA
ATOM     70  O   UNL A   1      44.924  33.328  35.490  1.00  0.00    -0.744 OA
ENDBRANCH  63  67
ENDBRANCH  46  60
BRANCH  47  71
ATOM     71  C   UNL A   1      42.531  22.572  27.169  1.00  0.00     0.023 A 
ATOM     72  C   UNL A   1      43.541  22.128  26.299  1.00  0.00     0.031 A 
ATOM     73  C   UNL A   1      41.551  21.582  27.495  1.00  0.00     0.131 A 
ATOM     74  C   UNL A   1      43.590  20.763  25.895  1.00  0.00     0.055 A 
ATOM     75  C   UNL A   1      41.656  20.228  27.174  1.00  0.00     0.041 A 
ATOM     76  F   UNL A   1      40.432  21.882  28.168  1.00  0.00    -0.206 F 
ATOM     77  C   UNL A   1      42.696  19.806  26.382  1.00  0.00     0.022 A 
BRANCH  74  78
ATOM     78  S   UNL A   1      44.845  20.156  24.726  1.00  0.00     0.124 S 
ATOM     79  O   UNL A   1      44.578  20.977  23.549  1.00  0.00    -0.237 OA
ATOM     80  O   UNL A   1      46.102  20.420  25.418  1.00  0.00    -0.237 OA
ATOM     81  O   UNL A   1      44.503  18.741  24.586  1.00  0.00    -0.744 OA
ENDBRANCH  74  78
ENDBRANCH  47  71
BRANCH  59  82
ATOM     82  C   UNL A   1      44.289  26.565  31.568  1.00  0.00     0.023 A 
ATOM     83  C   UNL A   1      43.234  27.449  31.858  1.00  0.00     0.031 A 
ATOM     84  C   UNL A   1      44.623  25.655  32.586  1.00  0.00     0.131 A 
ATOM     85  C   UNL A   1      42.579  27.412  33.107  1.00  0.00     0.055 A 
ATOM     86  C   UNL A   1      43.975  25.612  33.828  1.00  0.00     0.041 A 
ATOM     87  F   UNL A   1      45.607  24.776  32.418  1.00  0.00    -0.206 F 
ATOM     88  C   UNL A   1      42.944  26.498  34.095  1.00  0.00     0.022 A 
BRANCH  85  89
ATOM     89  S   UNL A   1      41.198  28.546  33.416  1.00  0.00     0.124 S 
ATOM     90  O   UNL A   1      41.784  29.849  33.118  1.00  0.00    -0.237 OA
ATOM     91  O   UNL A   1      40.186  28.070  32.479  1.00  0.00    -0.237 OA
ATOM     92  O   UNL A   1      40.881  28.319  34.826  1.00  0.00    -0.744 OA
ENDBRANCH  85  89
ENDBRANCH  59  82
ENDBRANCH  33  34
ENDBRANCH  25  28
ENDBRANCH  23  24
ENDBRANCH  22  23
ENDBRANCH   1  22
TORSDOF 18
ENDMDL
