MODEL 1
REMARK VINA RESULT:     -11.4      0.000      0.000
REMARK SMILES CC(C)C[C@@H](NC(=O)Cn1nc(O)ccc1=O)C(=O)NCCCCCCNC(=O)c1ccc(-c2c3nc(c(-c4cc(S(=O)(=O)[O-])ccc4F)c4ccc([nH]4)c(-c4cc(S(=O)(=O)[O-])ccc4F)c4nc(c(-c5cc(S(=O)(=O)[O-])ccc5F)c5ccc2[nH]5)C=C4)C=C3)cc1
REMARK SMILES IDX 23 1 22 2 21 3 20 4 18 5 19 6 5 8 4 9 2 10 1 11 3 12 6 13
REMARK SMILES IDX 7 14 8 16 9 17 10 18 11 19 16 20 12 21 15 22 17 23 14 24
REMARK SMILES IDX 13 25 24 27 25 28 26 29 27 30 28 31 29 33 30 34 31 35 92 36
REMARK SMILES IDX 32 37 91 38 33 39 34 40 35 41 85 42 36 43 90 44 84 45 86 46
REMARK SMILES IDX 37 47 89 48 83 49 82 50 38 52 70 53 50 54 69 55 51 56 54 57
REMARK SMILES IDX 68 58 87 59 52 60 53 61 67 63 88 64 55 65 39 66 40 67 48 68
REMARK SMILES IDX 41 69 47 70 49 71 46 72 42 73 43 74 44 75 45 76 71 77 72 78
REMARK SMILES IDX 80 79 73 80 79 81 81 82 78 83 74 84 75 85 76 86 77 87 56 88
REMARK SMILES IDX 57 89 65 90 58 91 64 92 66 93 63 94 59 95 60 96 61 97 62 98
REMARK H PARENT 20 7 6 15 13 26 27 32 86 51 54 62
REMARK Flexibility Score: inf
ROOT
ATOM      1  C   UNL A   1      36.038  22.967  24.532  1.00  0.00     0.002 C 
ENDROOT
BRANCH   1   2
ATOM      2  C   UNL A   1      35.650  24.044  25.549  1.00  0.00     0.021 C 
BRANCH   2   3
ATOM      3  C   UNL A   1      34.355  24.771  25.203  1.00  0.00     0.116 C 
BRANCH   3   4
ATOM      4  N   UNL A   1      33.353  24.589  26.246  1.00  0.00    -0.354 N 
ATOM      5  C   UNL A   1      32.020  24.302  26.137  1.00  0.00     0.242 C 
ATOM      6  O   UNL A   1      31.334  24.339  27.165  1.00  0.00    -0.273 OA
ATOM      7  H   UNL A   1      33.684  24.690  27.167  1.00  0.00     0.163 HD
BRANCH   5   8
ATOM      8  C   UNL A   1      31.353  24.213  24.752  1.00  0.00     0.171 C 
BRANCH   8   9
ATOM      9  C   UNL A   1      31.241  22.674  24.585  1.00  0.00     0.038 C 
BRANCH   9  10
ATOM     10  C   UNL A   1      32.418  21.853  24.053  1.00  0.00    -0.015 C 
ATOM     11  C   UNL A   1      32.227  20.360  24.293  1.00  0.00     0.007 C 
ATOM     12  C   UNL A   1      32.516  22.122  22.540  1.00  0.00     0.007 C 
ENDBRANCH   9  10
ENDBRANCH   8   9
BRANCH   8  13
ATOM     13  N   UNL A   1      30.067  24.909  24.650  1.00  0.00    -0.343 N 
ATOM     14  C   UNL A   1      29.751  26.173  24.235  1.00  0.00     0.242 C 
ATOM     15  H   UNL A   1      29.292  24.370  24.929  1.00  0.00     0.164 HD
ATOM     16  O   UNL A   1      28.557  26.363  23.974  1.00  0.00    -0.273 OA
BRANCH  14  17
ATOM     17  C   UNL A   1      30.780  27.280  23.947  1.00  0.00     0.248 C 
BRANCH  17  18
ATOM     18  N   UNL A   1      31.678  27.669  25.029  1.00  0.00    -0.217 N 
ATOM     19  N   UNL A   1      31.184  27.559  26.314  1.00  0.00    -0.131 NA
ATOM     20  C   UNL A   1      32.996  28.026  24.750  1.00  0.00     0.267 A 
ATOM     21  C   UNL A   1      31.972  27.937  27.255  1.00  0.00     0.229 A 
ATOM     22  C   UNL A   1      33.835  28.412  25.916  1.00  0.00     0.079 A 
ATOM     23  O   UNL A   1      33.489  28.071  23.627  1.00  0.00    -0.268 OA
ATOM     24  C   UNL A   1      33.344  28.397  27.156  1.00  0.00     0.075 A 
BRANCH  21  25
ATOM     25  O   UNL A   1      31.515  28.007  28.509  1.00  0.00    -0.492 OA
ATOM     26  H   UNL A   1      30.602  28.144  28.667  1.00  0.00     0.295 HD
ENDBRANCH  21  25
ENDBRANCH  17  18
ENDBRANCH  14  17
ENDBRANCH   8  13
ENDBRANCH   5   8
ENDBRANCH   3   4
ENDBRANCH   2   3
ENDBRANCH   1   2
BRANCH   1  27
ATOM     27  C   UNL A   1      35.539  21.562  24.876  1.00  0.00     0.002 C 
BRANCH  27  28
ATOM     28  C   UNL A   1      36.624  20.514  25.099  1.00  0.00     0.021 C 
BRANCH  28  29
ATOM     29  C   UNL A   1      38.019  21.088  25.262  1.00  0.00     0.116 C 
BRANCH  29  30
ATOM     30  N   UNL A   1      39.044  20.088  25.546  1.00  0.00    -0.352 N 
ATOM     31  C   UNL A   1      40.173  20.275  26.318  1.00  0.00     0.251 C 
ATOM     32  H   UNL A   1      38.918  19.196  25.149  1.00  0.00     0.163 HD
ATOM     33  O   UNL A   1      41.017  19.397  26.449  1.00  0.00    -0.269 OA
BRANCH  31  34
ATOM     34  C   UNL A   1      40.334  21.604  26.933  1.00  0.00     0.039 A 
ATOM     35  C   UNL A   1      39.771  22.704  26.285  1.00  0.00     0.014 A 
ATOM     36  C   UNL A   1      41.251  21.769  27.973  1.00  0.00     0.014 A 
ATOM     37  C   UNL A   1      40.287  23.964  26.536  1.00  0.00     0.010 A 
ATOM     38  C   UNL A   1      41.681  23.057  28.302  1.00  0.00     0.010 A 
ATOM     39  C   UNL A   1      41.252  24.158  27.544  1.00  0.00    -0.014 A 
BRANCH  39  40
ATOM     40  C   UNL A   1      41.783  25.527  27.783  1.00  0.00     0.031 A 
ATOM     41  C   UNL A   1      43.099  25.969  27.198  1.00  0.00     0.074 A 
ATOM     42  C   UNL A   1      41.027  26.392  28.486  1.00  0.00     0.049 A 
ATOM     43  N   UNL A   1      43.706  27.121  27.325  1.00  0.00    -0.248 NA
ATOM     44  C   UNL A   1      43.835  24.999  26.370  1.00  0.00     0.031 C 
ATOM     45  C   UNL A   1      39.727  26.068  29.075  1.00  0.00     0.029 A 
ATOM     46  N   UNL A   1      41.211  27.715  28.797  1.00  0.00    -0.354 N 
ATOM     47  C   UNL A   1      44.907  27.005  26.632  1.00  0.00     0.074 A 
ATOM     48  C   UNL A   1      44.950  25.663  26.094  1.00  0.00     0.031 C 
ATOM     49  C   UNL A   1      39.194  27.176  29.600  1.00  0.00     0.029 A 
ATOM     50  C   UNL A   1      40.157  28.266  29.489  1.00  0.00     0.049 A 
ATOM     51  H   UNL A   1      42.018  28.221  28.549  1.00  0.00     0.167 HD
ATOM     52  C   UNL A   1      45.875  27.937  26.461  1.00  0.00     0.034 A 
ATOM     53  C   UNL A   1      39.987  29.500  30.002  1.00  0.00     0.034 A 
ATOM     54  C   UNL A   1      45.788  29.282  26.978  1.00  0.00     0.049 A 
ATOM     55  C   UNL A   1      41.083  30.511  29.809  1.00  0.00     0.074 A 
ATOM     56  C   UNL A   1      46.706  30.309  26.846  1.00  0.00     0.029 A 
ATOM     57  N   UNL A   1      44.724  29.792  27.709  1.00  0.00    -0.354 N 
ATOM     58  N   UNL A   1      42.213  30.381  29.153  1.00  0.00    -0.248 NA
ATOM     59  C   UNL A   1      40.895  31.828  30.429  1.00  0.00     0.031 C 
ATOM     60  C   UNL A   1      46.226  31.417  27.544  1.00  0.00     0.029 A 
ATOM     61  C   UNL A   1      44.973  31.111  28.052  1.00  0.00     0.049 A 
ATOM     62  H   UNL A   1      43.911  29.290  27.948  1.00  0.00     0.167 HD
ATOM     63  C   UNL A   1      42.866  31.602  29.273  1.00  0.00     0.074 A 
ATOM     64  C   UNL A   1      41.990  32.468  30.036  1.00  0.00     0.031 C 
ATOM     65  C   UNL A   1      44.085  31.968  28.802  1.00  0.00     0.034 A 
BRANCH  52  66
ATOM     66  C   UNL A   1      47.123  27.570  25.691  1.00  0.00     0.023 A 
ATOM     67  C   UNL A   1      47.218  27.885  24.321  1.00  0.00     0.031 A 
ATOM     68  C   UNL A   1      48.145  26.792  26.263  1.00  0.00     0.131 A 
ATOM     69  C   UNL A   1      48.288  27.392  23.562  1.00  0.00     0.055 A 
ATOM     70  C   UNL A   1      49.231  26.338  25.512  1.00  0.00     0.041 A 
ATOM     71  F   UNL A   1      48.101  26.462  27.564  1.00  0.00    -0.206 F 
ATOM     72  C   UNL A   1      49.298  26.626  24.151  1.00  0.00     0.022 A 
BRANCH  69  73
ATOM     73  S   UNL A   1      48.376  27.666  21.770  1.00  0.00     0.124 S 
ATOM     74  O   UNL A   1      47.079  28.282  21.497  1.00  0.00    -0.237 OA
ATOM     75  O   UNL A   1      49.526  28.557  21.652  1.00  0.00    -0.237 OA
ATOM     76  O   UNL A   1      48.556  26.327  21.218  1.00  0.00    -0.744 OA
ENDBRANCH  69  73
ENDBRANCH  52  66
BRANCH  53  77
ATOM     77  C   UNL A   1      38.713  29.820  30.710  1.00  0.00     0.023 A 
ATOM     78  C   UNL A   1      37.782  30.715  30.148  1.00  0.00     0.031 A 
ATOM     79  C   UNL A   1      38.478  29.359  32.015  1.00  0.00     0.131 A 
ATOM     80  C   UNL A   1      36.722  31.198  30.925  1.00  0.00     0.055 A 
ATOM     81  C   UNL A   1      37.371  29.776  32.755  1.00  0.00     0.041 A 
ATOM     82  F   UNL A   1      39.343  28.514  32.599  1.00  0.00    -0.206 F 
ATOM     83  C   UNL A   1      36.500  30.720  32.219  1.00  0.00     0.022 A 
BRANCH  80  84
ATOM     84  S   UNL A   1      35.711  32.590  30.346  1.00  0.00     0.124 S 
ATOM     85  O   UNL A   1      36.494  33.739  30.790  1.00  0.00    -0.237 OA
ATOM     86  O   UNL A   1      35.684  32.362  28.903  1.00  0.00    -0.237 OA
ATOM     87  O   UNL A   1      34.434  32.394  31.025  1.00  0.00    -0.744 OA
ENDBRANCH  80  84
ENDBRANCH  53  77
BRANCH  65  88
ATOM     88  C   UNL A   1      44.569  33.368  29.082  1.00  0.00     0.023 A 
ATOM     89  C   UNL A   1      45.257  33.647  30.278  1.00  0.00     0.031 A 
ATOM     90  C   UNL A   1      44.220  34.444  28.247  1.00  0.00     0.131 A 
ATOM     91  C   UNL A   1      45.538  34.972  30.627  1.00  0.00     0.055 A 
ATOM     92  C   UNL A   1      44.545  35.759  28.576  1.00  0.00     0.041 A 
ATOM     93  F   UNL A   1      43.556  34.228  27.100  1.00  0.00    -0.206 F 
ATOM     94  C   UNL A   1      45.193  36.030  29.777  1.00  0.00     0.022 A 
BRANCH  91  95
ATOM     95  S   UNL A   1      46.278  35.380  32.231  1.00  0.00     0.124 S 
ATOM     96  O   UNL A   1      46.280  36.841  32.200  1.00  0.00    -0.237 OA
ATOM     97  O   UNL A   1      45.333  34.778  33.168  1.00  0.00    -0.237 OA
ATOM     98  O   UNL A   1      47.596  34.755  32.182  1.00  0.00    -0.744 OA
ENDBRANCH  91  95
ENDBRANCH  65  88
ENDBRANCH  39  40
ENDBRANCH  31  34
ENDBRANCH  29  30
ENDBRANCH  28  29
ENDBRANCH  27  28
ENDBRANCH   1  27
TORSDOF 22
ENDMDL
MODEL 2
REMARK VINA RESULT:     -11.0      0.971      7.786
REMARK SMILES CC(C)C[C@@H](NC(=O)Cn1nc(O)ccc1=O)C(=O)NCCCCCCNC(=O)c1ccc(-c2c3nc(c(-c4cc(S(=O)(=O)[O-])ccc4F)c4ccc([nH]4)c(-c4cc(S(=O)(=O)[O-])ccc4F)c4nc(c(-c5cc(S(=O)(=O)[O-])ccc5F)c5ccc2[nH]5)C=C4)C=C3)cc1
REMARK SMILES IDX 23 1 22 2 21 3 20 4 18 5 19 6 5 8 4 9 2 10 1 11 3 12 6 13
REMARK SMILES IDX 7 14 8 16 9 17 10 18 11 19 16 20 12 21 15 22 17 23 14 24
REMARK SMILES IDX 13 25 24 27 25 28 26 29 27 30 28 31 29 33 30 34 31 35 92 36
REMARK SMILES IDX 32 37 91 38 33 39 34 40 35 41 85 42 36 43 90 44 84 45 86 46
REMARK SMILES IDX 37 47 89 48 83 49 82 50 38 52 70 53 50 54 69 55 51 56 54 57
REMARK SMILES IDX 68 58 87 59 52 60 53 61 67 63 88 64 55 65 39 66 40 67 48 68
REMARK SMILES IDX 41 69 47 70 49 71 46 72 42 73 43 74 44 75 45 76 71 77 72 78
REMARK SMILES IDX 80 79 73 80 79 81 81 82 78 83 74 84 75 85 76 86 77 87 56 88
REMARK SMILES IDX 57 89 65 90 58 91 64 92 66 93 63 94 59 95 60 96 61 97 62 98
REMARK H PARENT 20 7 6 15 13 26 27 32 86 51 54 62
REMARK Flexibility Score: inf
ROOT
ATOM      1  C   UNL A   1      35.773  23.082  24.144  1.00  0.00     0.002 C 
ENDROOT
BRANCH   1   2
ATOM      2  C   UNL A   1      35.550  24.167  25.200  1.00  0.00     0.021 C 
BRANCH   2   3
ATOM      3  C   UNL A   1      34.246  24.937  25.018  1.00  0.00     0.116 C 
BRANCH   3   4
ATOM      4  N   UNL A   1      34.222  25.644  23.744  1.00  0.00    -0.354 N 
ATOM      5  C   UNL A   1      33.458  26.706  23.348  1.00  0.00     0.242 C 
ATOM      6  O   UNL A   1      33.511  27.046  22.160  1.00  0.00    -0.273 OA
ATOM      7  H   UNL A   1      34.850  25.305  23.066  1.00  0.00     0.163 HD
BRANCH   5   8
ATOM      8  C   UNL A   1      32.369  27.272  24.277  1.00  0.00     0.171 C 
BRANCH   8   9
ATOM      9  C   UNL A   1      32.803  28.760  24.356  1.00  0.00     0.038 C 
BRANCH   9  10
ATOM     10  C   UNL A   1      33.159  29.407  25.697  1.00  0.00    -0.015 C 
ATOM     11  C   UNL A   1      32.040  30.301  26.216  1.00  0.00     0.007 C 
ATOM     12  C   UNL A   1      33.413  28.266  26.700  1.00  0.00     0.007 C 
ENDBRANCH   9  10
ENDBRANCH   8   9
BRANCH   8  13
ATOM     13  N   UNL A   1      30.998  27.086  23.794  1.00  0.00    -0.343 N 
ATOM     14  C   UNL A   1      29.898  26.527  24.383  1.00  0.00     0.242 C 
ATOM     15  H   UNL A   1      30.841  27.424  22.883  1.00  0.00     0.164 HD
ATOM     16  O   UNL A   1      28.816  26.791  23.844  1.00  0.00    -0.273 OA
BRANCH  14  17
ATOM     17  C   UNL A   1      29.919  25.744  25.707  1.00  0.00     0.248 C 
BRANCH  17  18
ATOM     18  N   UNL A   1      30.639  24.475  25.733  1.00  0.00    -0.217 N 
ATOM     19  N   UNL A   1      31.044  24.019  26.972  1.00  0.00    -0.131 NA
ATOM     20  C   UNL A   1      30.797  23.737  24.562  1.00  0.00     0.267 A 
ATOM     21  C   UNL A   1      31.707  22.919  26.977  1.00  0.00     0.229 A 
ATOM     22  C   UNL A   1      31.548  22.458  24.686  1.00  0.00     0.079 A 
ATOM     23  O   UNL A   1      30.392  24.078  23.456  1.00  0.00    -0.268 OA
ATOM     24  C   UNL A   1      32.025  22.048  25.862  1.00  0.00     0.075 A 
BRANCH  21  25
ATOM     25  O   UNL A   1      32.266  22.492  28.114  1.00  0.00    -0.492 OA
ATOM     26  H   UNL A   1      32.665  21.645  28.150  1.00  0.00     0.295 HD
ENDBRANCH  21  25
ENDBRANCH  17  18
ENDBRANCH  14  17
ENDBRANCH   8  13
ENDBRANCH   5   8
ENDBRANCH   3   4
ENDBRANCH   2   3
ENDBRANCH   1   2
BRANCH   1  27
ATOM     27  C   UNL A   1      35.246  21.699  24.536  1.00  0.00     0.002 C 
BRANCH  27  28
ATOM     28  C   UNL A   1      36.277  20.745  25.130  1.00  0.00     0.021 C 
BRANCH  28  29
ATOM     29  C   UNL A   1      37.667  21.338  25.264  1.00  0.00     0.116 C 
BRANCH  29  30
ATOM     30  N   UNL A   1      38.716  20.348  25.489  1.00  0.00    -0.352 N 
ATOM     31  C   UNL A   1      39.874  20.538  26.216  1.00  0.00     0.251 C 
ATOM     32  H   UNL A   1      38.585  19.460  25.083  1.00  0.00     0.163 HD
ATOM     33  O   UNL A   1      40.734  19.670  26.298  1.00  0.00    -0.269 OA
BRANCH  31  34
ATOM     34  C   UNL A   1      40.043  21.860  26.845  1.00  0.00     0.039 A 
ATOM     35  C   UNL A   1      39.470  22.967  26.218  1.00  0.00     0.014 A 
ATOM     36  C   UNL A   1      40.976  22.013  27.872  1.00  0.00     0.014 A 
ATOM     37  C   UNL A   1      39.989  24.225  26.477  1.00  0.00     0.010 A 
ATOM     38  C   UNL A   1      41.410  23.297  28.211  1.00  0.00     0.010 A 
ATOM     39  C   UNL A   1      40.969  24.407  27.473  1.00  0.00    -0.014 A 
BRANCH  39  40
ATOM     40  C   UNL A   1      41.502  25.773  27.720  1.00  0.00     0.031 A 
ATOM     41  C   UNL A   1      40.732  26.780  28.535  1.00  0.00     0.074 A 
ATOM     42  C   UNL A   1      42.727  26.075  27.250  1.00  0.00     0.049 A 
ATOM     43  N   UNL A   1      41.052  28.014  28.828  1.00  0.00    -0.248 NA
ATOM     44  C   UNL A   1      39.436  26.355  29.090  1.00  0.00     0.031 C 
ATOM     45  C   UNL A   1      43.563  25.163  26.468  1.00  0.00     0.029 A 
ATOM     46  N   UNL A   1      43.500  27.201  27.381  1.00  0.00    -0.354 N 
ATOM     47  C   UNL A   1      39.988  28.526  29.563  1.00  0.00     0.074 A 
ATOM     48  C   UNL A   1      39.003  27.472  29.662  1.00  0.00     0.031 C 
ATOM     49  C   UNL A   1      44.758  25.727  26.262  1.00  0.00     0.029 A 
ATOM     50  C   UNL A   1      44.739  27.085  26.796  1.00  0.00     0.049 A 
ATOM     51  H   UNL A   1      43.196  28.012  27.849  1.00  0.00     0.167 HD
ATOM     52  C   UNL A   1      39.854  29.761  30.104  1.00  0.00     0.034 A 
ATOM     53  C   UNL A   1      45.744  27.975  26.674  1.00  0.00     0.034 A 
ATOM     54  C   UNL A   1      40.871  30.782  30.022  1.00  0.00     0.049 A 
ATOM     55  C   UNL A   1      45.565  29.342  27.273  1.00  0.00     0.074 A 
ATOM     56  C   UNL A   1      40.842  32.061  30.551  1.00  0.00     0.029 A 
ATOM     57  N   UNL A   1      42.097  30.643  29.386  1.00  0.00    -0.354 N 
ATOM     58  N   UNL A   1      44.549  29.809  27.961  1.00  0.00    -0.248 NA
ATOM     59  C   UNL A   1      46.652  30.307  27.075  1.00  0.00     0.031 C 
ATOM     60  C   UNL A   1      42.021  32.711  30.186  1.00  0.00     0.029 A 
ATOM     61  C   UNL A   1      42.822  31.819  29.492  1.00  0.00     0.049 A 
ATOM     62  H   UNL A   1      42.406  29.828  28.927  1.00  0.00     0.167 HD
ATOM     63  C   UNL A   1      44.879  31.119  28.288  1.00  0.00     0.074 A 
ATOM     64  C   UNL A   1      46.202  31.359  27.749  1.00  0.00     0.031 C 
ATOM     65  C   UNL A   1      44.147  32.041  28.962  1.00  0.00     0.034 A 
BRANCH  52  66
ATOM     66  C   UNL A   1      38.580  30.109  30.839  1.00  0.00     0.023 A 
ATOM     67  C   UNL A   1      37.586  30.873  30.195  1.00  0.00     0.031 A 
ATOM     68  C   UNL A   1      38.407  29.814  32.203  1.00  0.00     0.131 A 
ATOM     69  C   UNL A   1      36.487  31.348  30.923  1.00  0.00     0.055 A 
ATOM     70  C   UNL A   1      37.289  30.254  32.914  1.00  0.00     0.041 A 
ATOM     71  F   UNL A   1      39.325  29.090  32.864  1.00  0.00    -0.206 F 
ATOM     72  C   UNL A   1      36.330  31.037  32.277  1.00  0.00     0.022 A 
BRANCH  69  73
ATOM     73  S   UNL A   1      35.257  32.444  30.162  1.00  0.00     0.124 S 
ATOM     74  O   UNL A   1      36.076  33.591  29.775  1.00  0.00    -0.237 OA
ATOM     75  O   UNL A   1      34.764  31.629  29.055  1.00  0.00    -0.237 OA
ATOM     76  O   UNL A   1      34.300  32.696  31.234  1.00  0.00    -0.744 OA
ENDBRANCH  69  73
ENDBRANCH  52  66
BRANCH  53  77
ATOM     77  C   UNL A   1      46.999  27.558  25.982  1.00  0.00     0.023 A 
ATOM     78  C   UNL A   1      47.250  27.943  24.651  1.00  0.00     0.031 A 
ATOM     79  C   UNL A   1      47.885  26.651  26.583  1.00  0.00     0.131 A 
ATOM     80  C   UNL A   1      48.295  27.344  23.936  1.00  0.00     0.055 A 
ATOM     81  C   UNL A   1      48.978  26.122  25.894  1.00  0.00     0.041 A 
ATOM     82  F   UNL A   1      47.683  26.243  27.847  1.00  0.00    -0.206 F 
ATOM     83  C   UNL A   1      49.172  26.450  24.555  1.00  0.00     0.022 A 
BRANCH  80  84
ATOM     84  S   UNL A   1      48.435  27.569  22.140  1.00  0.00     0.124 S 
ATOM     85  O   UNL A   1      48.623  26.198  21.677  1.00  0.00    -0.237 OA
ATOM     86  O   UNL A   1      47.146  28.176  21.813  1.00  0.00    -0.237 OA
ATOM     87  O   UNL A   1      49.587  28.452  21.992  1.00  0.00    -0.744 OA
ENDBRANCH  80  84
ENDBRANCH  53  77
BRANCH  65  88
ATOM     88  C   UNL A   1      44.742  33.410  29.175  1.00  0.00     0.023 A 
ATOM     89  C   UNL A   1      45.449  33.692  30.359  1.00  0.00     0.031 A 
ATOM     90  C   UNL A   1      44.482  34.467  28.286  1.00  0.00     0.131 A 
ATOM     91  C   UNL A   1      45.836  35.006  30.643  1.00  0.00     0.055 A 
ATOM     92  C   UNL A   1      44.911  35.768  28.551  1.00  0.00     0.041 A 
ATOM     93  F   UNL A   1      43.804  34.249  27.148  1.00  0.00    -0.206 F 
ATOM     94  C   UNL A   1      45.578  36.044  29.741  1.00  0.00     0.022 A 
BRANCH  91  95
ATOM     95  S   UNL A   1      46.604  35.432  32.230  1.00  0.00     0.124 S 
ATOM     96  O   UNL A   1      45.452  35.873  33.014  1.00  0.00    -0.237 OA
ATOM     97  O   UNL A   1      47.188  34.158  32.641  1.00  0.00    -0.237 OA
ATOM     98  O   UNL A   1      47.561  36.479  31.888  1.00  0.00    -0.744 OA
ENDBRANCH  91  95
ENDBRANCH  65  88
ENDBRANCH  39  40
ENDBRANCH  31  34
ENDBRANCH  29  30
ENDBRANCH  28  29
ENDBRANCH  27  28
ENDBRANCH   1  27
TORSDOF 22
ENDMDL
MODEL 3
REMARK VINA RESULT:     -11.0      4.767     10.147
REMARK SMILES CC(C)C[C@@H](NC(=O)Cn1nc(O)ccc1=O)C(=O)NCCCCCCNC(=O)c1ccc(-c2c3nc(c(-c4cc(S(=O)(=O)[O-])ccc4F)c4ccc([nH]4)c(-c4cc(S(=O)(=O)[O-])ccc4F)c4nc(c(-c5cc(S(=O)(=O)[O-])ccc5F)c5ccc2[nH]5)C=C4)C=C3)cc1
REMARK SMILES IDX 23 1 22 2 21 3 20 4 18 5 19 6 5 8 4 9 2 10 1 11 3 12 6 13
REMARK SMILES IDX 7 14 8 16 9 17 10 18 11 19 16 20 12 21 15 22 17 23 14 24
REMARK SMILES IDX 13 25 24 27 25 28 26 29 27 30 28 31 29 33 30 34 31 35 92 36
REMARK SMILES IDX 32 37 91 38 33 39 34 40 35 41 85 42 36 43 90 44 84 45 86 46
REMARK SMILES IDX 37 47 89 48 83 49 82 50 38 52 70 53 50 54 69 55 51 56 54 57
REMARK SMILES IDX 68 58 87 59 52 60 53 61 67 63 88 64 55 65 39 66 40 67 48 68
REMARK SMILES IDX 41 69 47 70 49 71 46 72 42 73 43 74 44 75 45 76 71 77 72 78
REMARK SMILES IDX 80 79 73 80 79 81 81 82 78 83 74 84 75 85 76 86 77 87 56 88
REMARK SMILES IDX 57 89 65 90 58 91 64 92 66 93 63 94 59 95 60 96 61 97 62 98
REMARK H PARENT 20 7 6 15 13 26 27 32 86 51 54 62
REMARK Flexibility Score: inf
ROOT
ATOM      1  C   UNL A   1      33.594  28.071  26.420  1.00  0.00     0.002 C 
ENDROOT
BRANCH   1   2
ATOM      2  C   UNL A   1      33.718  26.777  25.610  1.00  0.00     0.021 C 
BRANCH   2   3
ATOM      3  C   UNL A   1      33.413  26.954  24.126  1.00  0.00     0.116 C 
BRANCH   3   4
ATOM      4  N   UNL A   1      34.072  25.930  23.326  1.00  0.00    -0.354 N 
ATOM      5  C   UNL A   1      33.711  24.631  23.101  1.00  0.00     0.242 C 
ATOM      6  O   UNL A   1      34.511  23.903  22.499  1.00  0.00    -0.273 OA
ATOM      7  H   UNL A   1      34.903  26.216  22.881  1.00  0.00     0.163 HD
BRANCH   5   8
ATOM      8  C   UNL A   1      32.487  24.027  23.813  1.00  0.00     0.171 C 
BRANCH   8   9
ATOM      9  C   UNL A   1      31.343  24.856  23.170  1.00  0.00     0.038 C 
BRANCH   9  10
ATOM     10  C   UNL A   1      30.121  25.279  23.989  1.00  0.00    -0.015 C 
ATOM     11  C   UNL A   1      30.383  25.198  25.489  1.00  0.00     0.007 C 
ATOM     12  C   UNL A   1      29.794  26.734  23.602  1.00  0.00     0.007 C 
ENDBRANCH   9  10
ENDBRANCH   8   9
BRANCH   8  13
ATOM     13  N   UNL A   1      32.332  22.580  23.638  1.00  0.00    -0.343 N 
ATOM     14  C   UNL A   1      32.738  21.526  24.408  1.00  0.00     0.242 C 
ATOM     15  H   UNL A   1      31.849  22.321  22.821  1.00  0.00     0.164 HD
ATOM     16  O   UNL A   1      32.195  20.443  24.155  1.00  0.00    -0.273 OA
BRANCH  14  17
ATOM     17  C   UNL A   1      33.683  21.641  25.617  1.00  0.00     0.248 C 
BRANCH  17  18
ATOM     18  N   UNL A   1      35.117  21.543  25.368  1.00  0.00    -0.217 N 
ATOM     19  N   UNL A   1      35.864  22.682  25.598  1.00  0.00    -0.131 NA
ATOM     20  C   UNL A   1      35.685  20.319  25.021  1.00  0.00     0.267 A 
ATOM     21  C   UNL A   1      37.119  22.593  25.341  1.00  0.00     0.229 A 
ATOM     22  C   UNL A   1      37.153  20.318  24.783  1.00  0.00     0.079 A 
ATOM     23  O   UNL A   1      35.063  19.272  24.874  1.00  0.00    -0.268 OA
ATOM     24  C   UNL A   1      37.875  21.432  24.912  1.00  0.00     0.075 A 
BRANCH  21  25
ATOM     25  O   UNL A   1      37.881  23.690  25.389  1.00  0.00    -0.492 OA
ATOM     26  H   UNL A   1      38.801  23.614  25.547  1.00  0.00     0.295 HD
ENDBRANCH  21  25
ENDBRANCH  17  18
ENDBRANCH  14  17
ENDBRANCH   8  13
ENDBRANCH   5   8
ENDBRANCH   3   4
ENDBRANCH   2   3
ENDBRANCH   1   2
BRANCH   1  27
ATOM     27  C   UNL A   1      32.255  28.243  27.139  1.00  0.00     0.002 C 
BRANCH  27  28
ATOM     28  C   UNL A   1      31.586  29.603  26.971  1.00  0.00     0.021 C 
BRANCH  28  29
ATOM     29  C   UNL A   1      32.496  30.676  26.401  1.00  0.00     0.116 C 
BRANCH  29  30
ATOM     30  N   UNL A   1      32.246  32.012  26.936  1.00  0.00    -0.352 N 
ATOM     31  C   UNL A   1      33.140  32.783  27.652  1.00  0.00     0.251 C 
ATOM     32  H   UNL A   1      31.356  32.398  26.771  1.00  0.00     0.163 HD
ATOM     33  O   UNL A   1      32.823  33.869  28.121  1.00  0.00    -0.269 OA
BRANCH  31  34
ATOM     34  C   UNL A   1      34.479  32.206  27.865  1.00  0.00     0.039 A 
ATOM     35  C   UNL A   1      34.568  30.870  28.259  1.00  0.00     0.014 A 
ATOM     36  C   UNL A   1      35.586  33.055  27.932  1.00  0.00     0.014 A 
ATOM     37  C   UNL A   1      35.707  30.444  28.921  1.00  0.00     0.010 A 
ATOM     38  C   UNL A   1      36.773  32.581  28.495  1.00  0.00     0.010 A 
ATOM     39  C   UNL A   1      36.823  31.293  29.052  1.00  0.00    -0.014 A 
BRANCH  39  40
ATOM     40  C   UNL A   1      38.028  30.798  29.770  1.00  0.00     0.031 A 
ATOM     41  C   UNL A   1      38.291  31.170  31.206  1.00  0.00     0.074 A 
ATOM     42  C   UNL A   1      38.854  29.952  29.125  1.00  0.00     0.049 A 
ATOM     43  N   UNL A   1      39.301  30.833  31.968  1.00  0.00    -0.248 NA
ATOM     44  C   UNL A   1      37.303  32.031  31.877  1.00  0.00     0.031 C 
ATOM     45  C   UNL A   1      38.675  29.513  27.741  1.00  0.00     0.029 A 
ATOM     46  N   UNL A   1      39.977  29.284  29.542  1.00  0.00    -0.354 N 
ATOM     47  C   UNL A   1      39.095  31.469  33.188  1.00  0.00     0.074 A 
ATOM     48  C   UNL A   1      37.867  32.224  33.063  1.00  0.00     0.031 C 
ATOM     49  C   UNL A   1      39.596  28.589  27.449  1.00  0.00     0.029 A 
ATOM     50  C   UNL A   1      40.504  28.450  28.583  1.00  0.00     0.049 A 
ATOM     51  H   UNL A   1      40.367  29.390  30.439  1.00  0.00     0.167 HD
ATOM     52  C   UNL A   1      39.861  31.420  34.305  1.00  0.00     0.034 A 
ATOM     53  C   UNL A   1      41.608  27.677  28.596  1.00  0.00     0.034 A 
ATOM     54  C   UNL A   1      41.062  30.627  34.413  1.00  0.00     0.049 A 
ATOM     55  C   UNL A   1      42.446  27.650  29.843  1.00  0.00     0.074 A 
ATOM     56  C   UNL A   1      41.901  30.494  35.505  1.00  0.00     0.029 A 
ATOM     57  N   UNL A   1      41.588  29.828  33.408  1.00  0.00    -0.354 N 
ATOM     58  N   UNL A   1      42.237  28.261  30.986  1.00  0.00    -0.248 NA
ATOM     59  C   UNL A   1      43.672  26.845  29.808  1.00  0.00     0.031 C 
ATOM     60  C   UNL A   1      42.962  29.663  35.142  1.00  0.00     0.029 A 
ATOM     61  C   UNL A   1      42.750  29.215  33.848  1.00  0.00     0.049 A 
ATOM     62  H   UNL A   1      41.193  29.712  32.513  1.00  0.00     0.167 HD
ATOM     63  C   UNL A   1      43.299  27.906  31.809  1.00  0.00     0.074 A 
ATOM     64  C   UNL A   1      44.132  27.001  31.044  1.00  0.00     0.031 C 
ATOM     65  C   UNL A   1      43.565  28.304  33.079  1.00  0.00     0.034 A 
BRANCH  52  66
ATOM     66  C   UNL A   1      39.453  32.231  35.513  1.00  0.00     0.023 A 
ATOM     67  C   UNL A   1      38.714  31.623  36.547  1.00  0.00     0.031 A 
ATOM     68  C   UNL A   1      39.666  33.619  35.580  1.00  0.00     0.131 A 
ATOM     69  C   UNL A   1      38.181  32.407  37.580  1.00  0.00     0.055 A 
ATOM     70  C   UNL A   1      39.168  34.389  36.633  1.00  0.00     0.041 A 
ATOM     71  F   UNL A   1      40.362  34.248  34.619  1.00  0.00    -0.206 F 
ATOM     72  C   UNL A   1      38.410  33.785  37.632  1.00  0.00     0.022 A 
BRANCH  69  73
ATOM     73  S   UNL A   1      37.114  31.681  38.856  1.00  0.00     0.124 S 
ATOM     74  O   UNL A   1      37.943  31.816  40.052  1.00  0.00    -0.237 OA
ATOM     75  O   UNL A   1      35.943  32.552  38.808  1.00  0.00    -0.237 OA
ATOM     76  O   UNL A   1      36.901  30.311  38.399  1.00  0.00    -0.744 OA
ENDBRANCH  69  73
ENDBRANCH  52  66
BRANCH  53  77
ATOM     77  C   UNL A   1      41.932  26.859  27.391  1.00  0.00     0.023 A 
ATOM     78  C   UNL A   1      41.618  25.487  27.344  1.00  0.00     0.031 A 
ATOM     79  C   UNL A   1      42.691  27.396  26.339  1.00  0.00     0.131 A 
ATOM     80  C   UNL A   1      42.147  24.683  26.327  1.00  0.00     0.055 A 
ATOM     81  C   UNL A   1      43.144  26.608  25.280  1.00  0.00     0.041 A 
ATOM     82  F   UNL A   1      43.028  28.696  26.343  1.00  0.00    -0.206 F 
ATOM     83  C   UNL A   1      42.893  25.239  25.284  1.00  0.00     0.022 A 
BRANCH  80  84
ATOM     84  S   UNL A   1      42.036  22.874  26.426  1.00  0.00     0.124 S 
ATOM     85  O   UNL A   1      42.960  22.573  27.515  1.00  0.00    -0.237 OA
ATOM     86  O   UNL A   1      40.620  22.676  26.725  1.00  0.00    -0.237 OA
ATOM     87  O   UNL A   1      42.455  22.431  25.100  1.00  0.00    -0.744 OA
ENDBRANCH  80  84
ENDBRANCH  53  77
BRANCH  65  88
ATOM     88  C   UNL A   1      44.805  27.771  33.751  1.00  0.00     0.023 A 
ATOM     89  C   UNL A   1      44.727  26.617  34.554  1.00  0.00     0.031 A 
ATOM     90  C   UNL A   1      46.017  28.482  33.720  1.00  0.00     0.131 A 
ATOM     91  C   UNL A   1      45.828  26.231  35.327  1.00  0.00     0.055 A 
ATOM     92  C   UNL A   1      47.126  28.067  34.456  1.00  0.00     0.041 A 
ATOM     93  F   UNL A   1      46.136  29.593  32.976  1.00  0.00    -0.206 F 
ATOM     94  C   UNL A   1      47.031  26.946  35.275  1.00  0.00     0.022 A 
BRANCH  91  95
ATOM     95  S   UNL A   1      45.713  24.847  36.493  1.00  0.00     0.124 S 
ATOM     96  O   UNL A   1      46.462  25.357  37.640  1.00  0.00    -0.237 OA
ATOM     97  O   UNL A   1      44.271  24.732  36.692  1.00  0.00    -0.237 OA
ATOM     98  O   UNL A   1      46.340  23.736  35.785  1.00  0.00    -0.744 OA
ENDBRANCH  91  95
ENDBRANCH  65  88
ENDBRANCH  39  40
ENDBRANCH  31  34
ENDBRANCH  29  30
ENDBRANCH  28  29
ENDBRANCH  27  28
ENDBRANCH   1  27
TORSDOF 22
ENDMDL
