MODEL 1
REMARK VINA RESULT:     -12.1      0.000      0.000
REMARK SMILES COc1ccc2c(c1)c(CC(=O)NCCCCCCNC(=O)c1ccc(-c3c4nc(c(-c5cc(S(=O)(=O)[O-])ccc5F)c5ccc([nH]5)c(-c5cc(S(=O)(=O)[O-])ccc5F)c5nc(c(-c6cc(S(=O)(=O)[O-])ccc6F)c6ccc3[nH]6)C=C5)C=C4)cc1)c(C)n2C(=O)c1ccc(Cl)cc1
REMARK SMILES IDX 16 1 15 2 14 3 13 4 11 5 12 6 10 8 9 9 3 10 4 11 8 12 5 13
REMARK SMILES IDX 7 14 6 15 88 16 86 17 87 18 2 19 1 20 89 21 90 22 91 23
REMARK SMILES IDX 92 24 97 25 93 26 96 27 94 28 95 29 17 30 18 31 19 32 20 33
REMARK SMILES IDX 21 34 22 36 23 37 24 38 85 39 25 40 84 41 26 42 27 43 28 44
REMARK SMILES IDX 78 45 29 46 83 47 77 48 79 49 30 50 82 51 76 52 75 53 31 55
REMARK SMILES IDX 63 56 43 57 62 58 44 59 47 60 61 61 80 62 45 63 46 64 60 66
REMARK SMILES IDX 81 67 48 68 32 69 33 70 41 71 34 72 40 73 42 74 39 75 35 76
REMARK SMILES IDX 36 77 37 78 38 79 64 80 65 81 73 82 66 83 72 84 74 85 71 86
REMARK SMILES IDX 67 87 68 88 69 89 70 90 49 91 50 92 58 93 51 94 57 95 59 96
REMARK SMILES IDX 56 97 52 98 53 99 54 100 55 101
REMARK H PARENT 13 7 20 35 79 54 47 65
REMARK Flexibility Score: inf
ROOT
ATOM      1  C   UNL A   1      32.483  29.468  25.165  1.00  0.00     0.002 C 
ENDROOT
BRANCH   1   2
ATOM      2  C   UNL A   1      31.966  28.722  23.929  1.00  0.00     0.021 C 
BRANCH   2   3
ATOM      3  C   UNL A   1      32.989  28.631  22.797  1.00  0.00     0.116 C 
BRANCH   3   4
ATOM      4  N   UNL A   1      32.802  27.428  22.010  1.00  0.00    -0.356 N 
ATOM      5  C   UNL A   1      33.421  26.218  22.147  1.00  0.00     0.224 C 
ATOM      6  O   UNL A   1      33.154  25.325  21.339  1.00  0.00    -0.275 OA
ATOM      7  H   UNL A   1      32.143  27.491  21.281  1.00  0.00     0.163 HD
BRANCH   5   8
ATOM      8  C   UNL A   1      34.367  25.972  23.311  1.00  0.00     0.138 C 
BRANCH   8   9
ATOM      9  C   UNL A   1      33.912  24.892  24.254  1.00  0.00    -0.009 A 
ATOM     10  C   UNL A   1      30.301  25.220  25.455  1.00  0.00     0.119 A 
ATOM     11  C   UNL A   1      30.342  24.157  26.343  1.00  0.00     0.048 A 
ATOM     12  C   UNL A   1      31.428  25.526  24.691  1.00  0.00     0.057 A 
ATOM     13  C   UNL A   1      31.503  23.390  26.487  1.00  0.00     0.031 A 
ATOM     14  C   UNL A   1      32.613  24.766  24.820  1.00  0.00     0.008 A 
ATOM     15  C   UNL A   1      32.632  23.670  25.689  1.00  0.00     0.057 A 
ATOM     16  N   UNL A   1      33.871  23.021  25.536  1.00  0.00    -0.280 N 
ATOM     17  C   UNL A   1      34.697  23.881  24.799  1.00  0.00     0.028 A 
ATOM     18  C   UNL A   1      36.172  23.689  24.614  1.00  0.00     0.065 C 
BRANCH  10  19
ATOM     19  O   UNL A   1      29.206  26.011  25.239  1.00  0.00    -0.497 OA
ATOM     20  C   UNL A   1      29.038  26.451  23.897  1.00  0.00     0.278 C 
ENDBRANCH  10  19
BRANCH  16  21
ATOM     21  C   UNL A   1      34.220  21.732  26.031  1.00  0.00     0.262 C 
ATOM     22  O   UNL A   1      34.684  21.628  27.167  1.00  0.00    -0.268 OA
BRANCH  21  23
ATOM     23  C   UNL A   1      34.078  20.468  25.289  1.00  0.00     0.040 A 
ATOM     24  C   UNL A   1      32.820  20.015  24.879  1.00  0.00     0.015 A 
ATOM     25  C   UNL A   1      35.231  19.717  25.033  1.00  0.00     0.015 A 
ATOM     26  C   UNL A   1      32.709  18.754  24.284  1.00  0.00     0.021 A 
ATOM     27  C   UNL A   1      35.114  18.463  24.432  1.00  0.00     0.021 A 
ATOM     28  C   UNL A   1      33.853  17.980  24.077  1.00  0.00     0.041 A 
ATOM     29  Cl  UNL A   1      33.706  16.403  23.405  1.00  0.00    -0.084 Cl
ENDBRANCH  21  23
ENDBRANCH  16  21
ENDBRANCH   8   9
ENDBRANCH   5   8
ENDBRANCH   3   4
ENDBRANCH   2   3
ENDBRANCH   1   2
BRANCH   1  30
ATOM     30  C   UNL A   1      32.765  28.582  26.385  1.00  0.00     0.002 C 
BRANCH  30  31
ATOM     31  C   UNL A   1      33.784  29.144  27.385  1.00  0.00     0.021 C 
BRANCH  31  32
ATOM     32  C   UNL A   1      34.102  30.628  27.197  1.00  0.00     0.116 C 
BRANCH  32  33
ATOM     33  N   UNL A   1      34.088  31.380  28.434  1.00  0.00    -0.352 N 
ATOM     34  C   UNL A   1      34.997  31.631  29.425  1.00  0.00     0.251 C 
ATOM     35  H   UNL A   1      33.219  31.811  28.603  1.00  0.00     0.163 HD
ATOM     36  O   UNL A   1      34.614  32.394  30.316  1.00  0.00    -0.269 OA
BRANCH  34  37
ATOM     37  C   UNL A   1      36.358  31.029  29.525  1.00  0.00     0.039 A 
ATOM     38  C   UNL A   1      37.562  31.688  29.279  1.00  0.00     0.014 A 
ATOM     39  C   UNL A   1      36.405  29.660  29.856  1.00  0.00     0.014 A 
ATOM     40  C   UNL A   1      38.765  30.987  29.280  1.00  0.00     0.010 A 
ATOM     41  C   UNL A   1      37.609  28.958  29.880  1.00  0.00     0.010 A 
ATOM     42  C   UNL A   1      38.787  29.615  29.548  1.00  0.00    -0.014 A 
BRANCH  42  43
ATOM     43  C   UNL A   1      40.084  28.942  29.513  1.00  0.00     0.031 A 
ATOM     44  C   UNL A   1      40.768  28.796  30.827  1.00  0.00     0.074 A 
ATOM     45  C   UNL A   1      40.634  28.417  28.400  1.00  0.00     0.049 A 
ATOM     46  N   UNL A   1      41.833  29.398  31.246  1.00  0.00    -0.248 NA
ATOM     47  C   UNL A   1      40.116  27.959  31.843  1.00  0.00     0.031 C 
ATOM     48  C   UNL A   1      39.985  28.177  27.108  1.00  0.00     0.029 A 
ATOM     49  N   UNL A   1      41.883  27.893  28.226  1.00  0.00    -0.354 N 
ATOM     50  C   UNL A   1      42.102  28.877  32.514  1.00  0.00     0.074 A 
ATOM     51  C   UNL A   1      40.937  28.113  32.883  1.00  0.00     0.031 C 
ATOM     52  C   UNL A   1      40.761  27.353  26.369  1.00  0.00     0.029 A 
ATOM     53  C   UNL A   1      42.023  27.155  27.062  1.00  0.00     0.049 A 
ATOM     54  H   UNL A   1      42.616  28.027  28.868  1.00  0.00     0.167 HD
ATOM     55  C   UNL A   1      43.347  28.950  33.069  1.00  0.00     0.034 A 
ATOM     56  C   UNL A   1      43.079  26.385  26.710  1.00  0.00     0.034 A 
ATOM     57  C   UNL A   1      44.202  29.817  32.306  1.00  0.00     0.049 A 
ATOM     58  C   UNL A   1      44.270  26.829  27.467  1.00  0.00     0.074 A 
ATOM     59  C   UNL A   1      44.370  31.171  32.136  1.00  0.00     0.029 A 
ATOM     60  N   UNL A   1      44.902  29.186  31.312  1.00  0.00    -0.354 N 
ATOM     61  N   UNL A   1      44.875  27.968  27.276  1.00  0.00    -0.248 NA
ATOM     62  C   UNL A   1      44.644  26.120  28.684  1.00  0.00     0.031 C 
ATOM     63  C   UNL A   1      44.979  31.325  30.858  1.00  0.00     0.029 A 
ATOM     64  C   UNL A   1      45.175  30.061  30.298  1.00  0.00     0.049 A 
ATOM     65  H   UNL A   1      45.169  28.238  31.325  1.00  0.00     0.167 HD
ATOM     66  C   UNL A   1      45.337  28.319  28.530  1.00  0.00     0.074 A 
ATOM     67  C   UNL A   1      45.346  27.078  29.293  1.00  0.00     0.031 C 
ATOM     68  C   UNL A   1      45.366  29.623  28.926  1.00  0.00     0.034 A 
BRANCH  55  69
ATOM     69  C   UNL A   1      43.949  27.940  34.030  1.00  0.00     0.023 A 
ATOM     70  C   UNL A   1      44.232  28.226  35.376  1.00  0.00     0.031 A 
ATOM     71  C   UNL A   1      43.999  26.570  33.673  1.00  0.00     0.131 A 
ATOM     72  C   UNL A   1      44.507  27.207  36.301  1.00  0.00     0.055 A 
ATOM     73  C   UNL A   1      44.215  25.550  34.608  1.00  0.00     0.041 A 
ATOM     74  F   UNL A   1      43.774  26.171  32.411  1.00  0.00    -0.206 F 
ATOM     75  C   UNL A   1      44.462  25.866  35.936  1.00  0.00     0.022 A 
BRANCH  72  76
ATOM     76  S   UNL A   1      44.900  27.618  38.023  1.00  0.00     0.124 S 
ATOM     77  O   UNL A   1      44.119  26.626  38.754  1.00  0.00    -0.237 OA
ATOM     78  O   UNL A   1      46.349  27.428  38.049  1.00  0.00    -0.237 OA
ATOM     79  O   UNL A   1      44.456  29.003  38.151  1.00  0.00    -0.744 OA
ENDBRANCH  72  76
ENDBRANCH  55  69
BRANCH  56  80
ATOM     80  C   UNL A   1      43.023  25.057  26.066  1.00  0.00     0.023 A 
ATOM     81  C   UNL A   1      42.148  24.081  26.579  1.00  0.00     0.031 A 
ATOM     82  C   UNL A   1      44.030  24.631  25.183  1.00  0.00     0.131 A 
ATOM     83  C   UNL A   1      42.333  22.730  26.264  1.00  0.00     0.055 A 
ATOM     84  C   UNL A   1      44.200  23.282  24.855  1.00  0.00     0.041 A 
ATOM     85  F   UNL A   1      44.910  25.511  24.682  1.00  0.00    -0.206 F 
ATOM     86  C   UNL A   1      43.361  22.322  25.411  1.00  0.00     0.022 A 
BRANCH  83  87
ATOM     87  S   UNL A   1      41.295  21.460  27.037  1.00  0.00     0.124 S 
ATOM     88  O   UNL A   1      40.814  22.142  28.237  1.00  0.00    -0.237 OA
ATOM     89  O   UNL A   1      40.293  21.227  26.002  1.00  0.00    -0.237 OA
ATOM     90  O   UNL A   1      42.224  20.362  27.283  1.00  0.00    -0.744 OA
ENDBRANCH  83  87
ENDBRANCH  56  80
BRANCH  68  91
ATOM     91  C   UNL A   1      45.372  30.697  27.873  1.00  0.00     0.023 A 
ATOM     92  C   UNL A   1      46.616  31.280  27.571  1.00  0.00     0.031 A 
ATOM     93  C   UNL A   1      44.221  31.279  27.312  1.00  0.00     0.131 A 
ATOM     94  C   UNL A   1      46.685  32.429  26.780  1.00  0.00     0.055 A 
ATOM     95  C   UNL A   1      44.302  32.383  26.455  1.00  0.00     0.041 A 
ATOM     96  F   UNL A   1      42.991  30.855  27.633  1.00  0.00    -0.206 F 
ATOM     97  C   UNL A   1      45.536  32.975  26.201  1.00  0.00     0.022 A 
BRANCH  94  98
ATOM     98  S   UNL A   1      48.245  33.336  26.626  1.00  0.00     0.124 S 
ATOM     99  O   UNL A   1      48.324  34.035  27.904  1.00  0.00    -0.237 OA
ATOM    100  O   UNL A   1      49.213  32.256  26.441  1.00  0.00    -0.237 OA
ATOM    101  O   UNL A   1      48.046  34.188  25.457  1.00  0.00    -0.744 OA
ENDBRANCH  94  98
ENDBRANCH  68  91
ENDBRANCH  42  43
ENDBRANCH  34  37
ENDBRANCH  32  33
ENDBRANCH  31  32
ENDBRANCH  30  31
ENDBRANCH   1  30
TORSDOF 20
ENDMDL
MODEL 2
REMARK VINA RESULT:     -11.9      3.758      5.438
REMARK SMILES COc1ccc2c(c1)c(CC(=O)NCCCCCCNC(=O)c1ccc(-c3c4nc(c(-c5cc(S(=O)(=O)[O-])ccc5F)c5ccc([nH]5)c(-c5cc(S(=O)(=O)[O-])ccc5F)c5nc(c(-c6cc(S(=O)(=O)[O-])ccc6F)c6ccc3[nH]6)C=C5)C=C4)cc1)c(C)n2C(=O)c1ccc(Cl)cc1
REMARK SMILES IDX 16 1 15 2 14 3 13 4 11 5 12 6 10 8 9 9 3 10 4 11 8 12 5 13
REMARK SMILES IDX 7 14 6 15 88 16 86 17 87 18 2 19 1 20 89 21 90 22 91 23
REMARK SMILES IDX 92 24 97 25 93 26 96 27 94 28 95 29 17 30 18 31 19 32 20 33
REMARK SMILES IDX 21 34 22 36 23 37 24 38 85 39 25 40 84 41 26 42 27 43 28 44
REMARK SMILES IDX 78 45 29 46 83 47 77 48 79 49 30 50 82 51 76 52 75 53 31 55
REMARK SMILES IDX 63 56 43 57 62 58 44 59 47 60 61 61 80 62 45 63 46 64 60 66
REMARK SMILES IDX 81 67 48 68 32 69 33 70 41 71 34 72 40 73 42 74 39 75 35 76
REMARK SMILES IDX 36 77 37 78 38 79 64 80 65 81 73 82 66 83 72 84 74 85 71 86
REMARK SMILES IDX 67 87 68 88 69 89 70 90 49 91 50 92 58 93 51 94 57 95 59 96
REMARK SMILES IDX 56 97 52 98 53 99 54 100 55 101
REMARK H PARENT 13 7 20 35 79 54 47 65
REMARK Flexibility Score: inf
ROOT
ATOM      1  C   UNL A   1      33.827  33.288  28.184  1.00  0.00     0.002 C 
ENDROOT
BRANCH   1   2
ATOM      2  C   UNL A   1      34.893  32.232  28.502  1.00  0.00     0.021 C 
BRANCH   2   3
ATOM      3  C   UNL A   1      34.810  30.992  27.613  1.00  0.00     0.116 C 
BRANCH   3   4
ATOM      4  N   UNL A   1      33.605  30.230  27.879  1.00  0.00    -0.356 N 
ATOM      5  C   UNL A   1      32.648  29.818  26.996  1.00  0.00     0.224 C 
ATOM      6  O   UNL A   1      31.665  29.215  27.433  1.00  0.00    -0.275 OA
ATOM      7  H   UNL A   1      33.457  29.978  28.819  1.00  0.00     0.163 HD
BRANCH   5   8
ATOM      8  C   UNL A   1      32.835  30.050  25.505  1.00  0.00     0.138 C 
BRANCH   8   9
ATOM      9  C   UNL A   1      32.079  29.083  24.635  1.00  0.00    -0.009 A 
ATOM     10  C   UNL A   1      28.708  30.354  23.367  1.00  0.00     0.119 A 
ATOM     11  C   UNL A   1      28.326  29.173  22.750  1.00  0.00     0.048 A 
ATOM     12  C   UNL A   1      29.951  30.434  23.995  1.00  0.00     0.057 A 
ATOM     13  C   UNL A   1      29.170  28.057  22.756  1.00  0.00     0.031 A 
ATOM     14  C   UNL A   1      30.822  29.320  24.014  1.00  0.00     0.008 A 
ATOM     15  C   UNL A   1      30.444  28.146  23.354  1.00  0.00     0.057 A 
ATOM     16  N   UNL A   1      31.527  27.250  23.418  1.00  0.00    -0.280 N 
ATOM     17  C   UNL A   1      32.435  27.768  24.352  1.00  0.00     0.028 A 
ATOM     18  C   UNL A   1      33.609  27.016  24.903  1.00  0.00     0.065 C 
BRANCH  10  19
ATOM     19  O   UNL A   1      27.954  31.495  23.397  1.00  0.00    -0.497 OA
ATOM     20  C   UNL A   1      28.292  32.464  22.412  1.00  0.00     0.278 C 
ENDBRANCH  10  19
BRANCH  16  21
ATOM     21  C   UNL A   1      31.677  26.045  22.672  1.00  0.00     0.262 C 
ATOM     22  O   UNL A   1      31.812  26.106  21.450  1.00  0.00    -0.268 OA
BRANCH  21  23
ATOM     23  C   UNL A   1      31.686  24.687  23.242  1.00  0.00     0.040 A 
ATOM     24  C   UNL A   1      30.928  24.381  24.377  1.00  0.00     0.015 A 
ATOM     25  C   UNL A   1      32.497  23.721  22.636  1.00  0.00     0.015 A 
ATOM     26  C   UNL A   1      31.054  23.117  24.961  1.00  0.00     0.021 A 
ATOM     27  C   UNL A   1      32.612  22.457  23.220  1.00  0.00     0.021 A 
ATOM     28  C   UNL A   1      31.905  22.168  24.389  1.00  0.00     0.041 A 
ATOM     29  Cl  UNL A   1      32.108  20.636  25.145  1.00  0.00    -0.084 Cl
ENDBRANCH  21  23
ENDBRANCH  16  21
ENDBRANCH   8   9
ENDBRANCH   5   8
ENDBRANCH   3   4
ENDBRANCH   2   3
ENDBRANCH   1   2
BRANCH   1  30
ATOM     30  C   UNL A   1      34.199  34.723  28.579  1.00  0.00     0.002 C 
BRANCH  30  31
ATOM     31  C   UNL A   1      33.015  35.675  28.787  1.00  0.00     0.021 C 
BRANCH  31  32
ATOM     32  C   UNL A   1      33.065  36.470  30.093  1.00  0.00     0.116 C 
BRANCH  32  33
ATOM     33  N   UNL A   1      32.458  35.777  31.210  1.00  0.00    -0.352 N 
ATOM     34  C   UNL A   1      32.911  34.941  32.194  1.00  0.00     0.251 C 
ATOM     35  H   UNL A   1      31.490  35.947  31.278  1.00  0.00     0.163 HD
ATOM     36  O   UNL A   1      32.069  34.596  33.027  1.00  0.00    -0.269 OA
BRANCH  34  37
ATOM     37  C   UNL A   1      34.296  34.398  32.298  1.00  0.00     0.039 A 
ATOM     38  C   UNL A   1      35.444  35.140  32.573  1.00  0.00     0.014 A 
ATOM     39  C   UNL A   1      34.438  33.018  32.052  1.00  0.00     0.014 A 
ATOM     40  C   UNL A   1      36.701  34.542  32.520  1.00  0.00     0.010 A 
ATOM     41  C   UNL A   1      35.692  32.411  32.019  1.00  0.00     0.010 A 
ATOM     42  C   UNL A   1      36.829  33.185  32.211  1.00  0.00    -0.014 A 
BRANCH  42  43
ATOM     43  C   UNL A   1      38.181  32.632  32.154  1.00  0.00     0.031 A 
ATOM     44  C   UNL A   1      38.951  32.687  33.427  1.00  0.00     0.074 A 
ATOM     45  C   UNL A   1      38.713  32.045  31.065  1.00  0.00     0.049 A 
ATOM     46  N   UNL A   1      39.976  33.422  33.711  1.00  0.00    -0.248 NA
ATOM     47  C   UNL A   1      38.443  31.905  34.562  1.00  0.00     0.031 C 
ATOM     48  C   UNL A   1      38.017  31.614  29.849  1.00  0.00     0.029 A 
ATOM     49  N   UNL A   1      39.995  31.620  30.859  1.00  0.00    -0.354 N 
ATOM     50  C   UNL A   1      40.367  33.063  35.003  1.00  0.00     0.074 A 
ATOM     51  C   UNL A   1      39.305  32.240  35.524  1.00  0.00     0.031 C 
ATOM     52  C   UNL A   1      38.825  30.790  29.144  1.00  0.00     0.029 A 
ATOM     53  C   UNL A   1      40.138  30.780  29.767  1.00  0.00     0.049 A 
ATOM     54  H   UNL A   1      40.748  31.886  31.433  1.00  0.00     0.167 HD
ATOM     55  C   UNL A   1      41.630  33.306  35.463  1.00  0.00     0.034 A 
ATOM     56  C   UNL A   1      41.241  30.076  29.422  1.00  0.00     0.034 A 
ATOM     57  C   UNL A   1      42.351  34.161  34.563  1.00  0.00     0.049 A 
ATOM     58  C   UNL A   1      42.425  30.701  30.048  1.00  0.00     0.074 A 
ATOM     59  C   UNL A   1      42.378  35.499  34.248  1.00  0.00     0.029 A 
ATOM     60  N   UNL A   1      43.050  33.495  33.590  1.00  0.00    -0.354 N 
ATOM     61  N   UNL A   1      42.905  31.864  29.706  1.00  0.00    -0.248 NA
ATOM     62  C   UNL A   1      42.936  30.160  31.302  1.00  0.00     0.031 C 
ATOM     63  C   UNL A   1      42.893  35.573  32.923  1.00  0.00     0.029 A 
ATOM     64  C   UNL A   1      43.178  34.280  32.479  1.00  0.00     0.049 A 
ATOM     65  H   UNL A   1      43.407  32.582  33.679  1.00  0.00     0.167 HD
ATOM     66  C   UNL A   1      43.404  32.385  30.885  1.00  0.00     0.074 A 
ATOM     67  C   UNL A   1      43.577  31.237  31.764  1.00  0.00     0.031 C 
ATOM     68  C   UNL A   1      43.330  33.721  31.148  1.00  0.00     0.034 A 
BRANCH  55  69
ATOM     69  C   UNL A   1      42.381  32.460  36.477  1.00  0.00     0.023 A 
ATOM     70  C   UNL A   1      42.731  31.118  36.257  1.00  0.00     0.031 A 
ATOM     71  C   UNL A   1      43.003  33.079  37.589  1.00  0.00     0.131 A 
ATOM     72  C   UNL A   1      43.665  30.459  37.071  1.00  0.00     0.055 A 
ATOM     73  C   UNL A   1      43.979  32.440  38.365  1.00  0.00     0.041 A 
ATOM     74  F   UNL A   1      42.730  34.351  37.920  1.00  0.00    -0.206 F 
ATOM     75  C   UNL A   1      44.323  31.123  38.101  1.00  0.00     0.022 A 
BRANCH  72  76
ATOM     76  S   UNL A   1      44.067  28.715  36.775  1.00  0.00     0.124 S 
ATOM     77  O   UNL A   1      42.772  28.073  36.971  1.00  0.00    -0.237 OA
ATOM     78  O   UNL A   1      44.554  28.753  35.398  1.00  0.00    -0.237 OA
ATOM     79  O   UNL A   1      45.083  28.425  37.783  1.00  0.00    -0.744 OA
ENDBRANCH  72  76
ENDBRANCH  55  69
BRANCH  56  80
ATOM     80  C   UNL A   1      41.275  28.687  28.917  1.00  0.00     0.023 A 
ATOM     81  C   UNL A   1      41.994  28.401  27.742  1.00  0.00     0.031 A 
ATOM     82  C   UNL A   1      40.363  27.722  29.375  1.00  0.00     0.131 A 
ATOM     83  C   UNL A   1      41.744  27.222  27.030  1.00  0.00     0.055 A 
ATOM     84  C   UNL A   1      40.130  26.536  28.671  1.00  0.00     0.041 A 
ATOM     85  F   UNL A   1      39.628  27.949  30.475  1.00  0.00    -0.206 F 
ATOM     86  C   UNL A   1      40.809  26.290  27.482  1.00  0.00     0.022 A 
BRANCH  83  87
ATOM     87  S   UNL A   1      42.567  26.921  25.442  1.00  0.00     0.124 S 
ATOM     88  O   UNL A   1      41.841  25.760  24.933  1.00  0.00    -0.237 OA
ATOM     89  O   UNL A   1      42.320  28.175  24.738  1.00  0.00    -0.237 OA
ATOM     90  O   UNL A   1      43.954  26.665  25.819  1.00  0.00    -0.744 OA
ENDBRANCH  83  87
ENDBRANCH  56  80
BRANCH  68  91
ATOM     91  C   UNL A   1      43.171  34.675  29.995  1.00  0.00     0.023 A 
ATOM     92  C   UNL A   1      44.331  35.341  29.562  1.00  0.00     0.031 A 
ATOM     93  C   UNL A   1      41.939  35.080  29.451  1.00  0.00     0.131 A 
ATOM     94  C   UNL A   1      44.240  36.403  28.659  1.00  0.00     0.055 A 
ATOM     95  C   UNL A   1      41.862  36.091  28.487  1.00  0.00     0.041 A 
ATOM     96  F   UNL A   1      40.778  34.573  29.888  1.00  0.00    -0.206 F 
ATOM     97  C   UNL A   1      43.013  36.771  28.101  1.00  0.00     0.022 A 
BRANCH  94  98
ATOM     98  S   UNL A   1      45.688  37.437  28.321  1.00  0.00     0.124 S 
ATOM     99  O   UNL A   1      45.286  38.147  27.112  1.00  0.00    -0.237 OA
ATOM    100  O   UNL A   1      45.773  38.255  29.530  1.00  0.00    -0.237 OA
ATOM    101  O   UNL A   1      46.776  36.478  28.151  1.00  0.00    -0.744 OA
ENDBRANCH  94  98
ENDBRANCH  68  91
ENDBRANCH  42  43
ENDBRANCH  34  37
ENDBRANCH  32  33
ENDBRANCH  31  32
ENDBRANCH  30  31
ENDBRANCH   1  30
TORSDOF 20
ENDMDL
MODEL 3
REMARK VINA RESULT:     -11.6      2.477      7.908
REMARK SMILES COc1ccc2c(c1)c(CC(=O)NCCCCCCNC(=O)c1ccc(-c3c4nc(c(-c5cc(S(=O)(=O)[O-])ccc5F)c5ccc([nH]5)c(-c5cc(S(=O)(=O)[O-])ccc5F)c5nc(c(-c6cc(S(=O)(=O)[O-])ccc6F)c6ccc3[nH]6)C=C5)C=C4)cc1)c(C)n2C(=O)c1ccc(Cl)cc1
REMARK SMILES IDX 16 1 15 2 14 3 13 4 11 5 12 6 10 8 9 9 3 10 4 11 8 12 5 13
REMARK SMILES IDX 7 14 6 15 88 16 86 17 87 18 2 19 1 20 89 21 90 22 91 23
REMARK SMILES IDX 92 24 97 25 93 26 96 27 94 28 95 29 17 30 18 31 19 32 20 33
REMARK SMILES IDX 21 34 22 36 23 37 24 38 85 39 25 40 84 41 26 42 27 43 28 44
REMARK SMILES IDX 78 45 29 46 83 47 77 48 79 49 30 50 82 51 76 52 75 53 31 55
REMARK SMILES IDX 63 56 43 57 62 58 44 59 47 60 61 61 80 62 45 63 46 64 60 66
REMARK SMILES IDX 81 67 48 68 32 69 33 70 41 71 34 72 40 73 42 74 39 75 35 76
REMARK SMILES IDX 36 77 37 78 38 79 64 80 65 81 73 82 66 83 72 84 74 85 71 86
REMARK SMILES IDX 67 87 68 88 69 89 70 90 49 91 50 92 58 93 51 94 57 95 59 96
REMARK SMILES IDX 56 97 52 98 53 99 54 100 55 101
REMARK H PARENT 13 7 20 35 79 54 47 65
REMARK Flexibility Score: inf
ROOT
ATOM      1  C   UNL A   1      32.354  28.888  25.138  1.00  0.00     0.002 C 
ENDROOT
BRANCH   1   2
ATOM      2  C   UNL A   1      31.546  27.623  24.823  1.00  0.00     0.021 C 
BRANCH   2   3
ATOM      3  C   UNL A   1      32.290  26.629  23.931  1.00  0.00     0.116 C 
BRANCH   3   4
ATOM      4  N   UNL A   1      31.397  25.610  23.416  1.00  0.00    -0.356 N 
ATOM      5  C   UNL A   1      31.174  24.352  23.900  1.00  0.00     0.224 C 
ATOM      6  O   UNL A   1      30.402  23.613  23.284  1.00  0.00    -0.275 OA
ATOM      7  H   UNL A   1      30.886  25.856  22.611  1.00  0.00     0.163 HD
BRANCH   5   8
ATOM      8  C   UNL A   1      31.819  23.910  25.203  1.00  0.00     0.138 C 
BRANCH   8   9
ATOM      9  C   UNL A   1      33.116  23.168  25.024  1.00  0.00    -0.009 A 
ATOM     10  C   UNL A   1      32.791  19.364  24.899  1.00  0.00     0.119 A 
ATOM     11  C   UNL A   1      34.151  19.100  24.853  1.00  0.00     0.048 A 
ATOM     12  C   UNL A   1      32.345  20.686  24.927  1.00  0.00     0.057 A 
ATOM     13  C   UNL A   1      35.082  20.144  24.842  1.00  0.00     0.031 A 
ATOM     14  C   UNL A   1      33.267  21.758  24.917  1.00  0.00     0.008 A 
ATOM     15  C   UNL A   1      34.636  21.482  24.830  1.00  0.00     0.057 A 
ATOM     16  N   UNL A   1      35.315  22.708  24.711  1.00  0.00    -0.280 N 
ATOM     17  C   UNL A   1      34.393  23.719  25.013  1.00  0.00     0.028 A 
ATOM     18  C   UNL A   1      34.754  25.156  25.240  1.00  0.00     0.065 C 
BRANCH  10  19
ATOM     19  O   UNL A   1      31.812  18.408  24.898  1.00  0.00    -0.497 OA
ATOM     20  C   UNL A   1      32.280  17.071  24.770  1.00  0.00     0.278 C 
ENDBRANCH  10  19
BRANCH  16  21
ATOM     21  C   UNL A   1      36.681  22.890  24.347  1.00  0.00     0.262 C 
ATOM     22  O   UNL A   1      36.953  23.305  23.221  1.00  0.00    -0.268 OA
BRANCH  21  23
ATOM     23  C   UNL A   1      37.836  22.618  25.217  1.00  0.00     0.040 A 
ATOM     24  C   UNL A   1      38.470  21.371  25.201  1.00  0.00     0.015 A 
ATOM     25  C   UNL A   1      38.263  23.629  26.085  1.00  0.00     0.015 A 
ATOM     26  C   UNL A   1      39.485  21.109  26.126  1.00  0.00     0.021 A 
ATOM     27  C   UNL A   1      39.283  23.363  27.001  1.00  0.00     0.021 A 
ATOM     28  C   UNL A   1      39.876  22.099  27.029  1.00  0.00     0.041 A 
ATOM     29  Cl  UNL A   1      41.079  21.753  28.208  1.00  0.00    -0.084 Cl
ENDBRANCH  21  23
ENDBRANCH  16  21
ENDBRANCH   8   9
ENDBRANCH   5   8
ENDBRANCH   3   4
ENDBRANCH   2   3
ENDBRANCH   1   2
BRANCH   1  30
ATOM     30  C   UNL A   1      32.835  29.004  26.591  1.00  0.00     0.002 C 
BRANCH  30  31
ATOM     31  C   UNL A   1      34.246  28.469  26.861  1.00  0.00     0.021 C 
BRANCH  31  32
ATOM     32  C   UNL A   1      35.250  29.532  27.312  1.00  0.00     0.116 C 
BRANCH  32  33
ATOM     33  N   UNL A   1      35.302  29.701  28.749  1.00  0.00    -0.352 N 
ATOM     34  C   UNL A   1      36.277  29.588  29.702  1.00  0.00     0.251 C 
ATOM     35  H   UNL A   1      34.431  29.955  29.131  1.00  0.00     0.163 HD
ATOM     36  O   UNL A   1      35.933  29.882  30.851  1.00  0.00    -0.269 OA
BRANCH  34  37
ATOM     37  C   UNL A   1      37.668  29.106  29.466  1.00  0.00     0.039 A 
ATOM     38  C   UNL A   1      38.334  28.137  30.215  1.00  0.00     0.014 A 
ATOM     39  C   UNL A   1      38.367  29.730  28.413  1.00  0.00     0.014 A 
ATOM     40  C   UNL A   1      39.678  27.861  29.977  1.00  0.00     0.010 A 
ATOM     41  C   UNL A   1      39.706  29.441  28.157  1.00  0.00     0.010 A 
ATOM     42  C   UNL A   1      40.375  28.535  28.970  1.00  0.00    -0.014 A 
BRANCH  42  43
ATOM     43  C   UNL A   1      41.788  28.206  28.792  1.00  0.00     0.031 A 
ATOM     44  C   UNL A   1      42.065  26.895  28.141  1.00  0.00     0.074 A 
ATOM     45  C   UNL A   1      42.803  29.028  29.120  1.00  0.00     0.049 A 
ATOM     46  N   UNL A   1      42.564  25.828  28.674  1.00  0.00    -0.248 NA
ATOM     47  C   UNL A   1      41.623  26.720  26.752  1.00  0.00     0.031 C 
ATOM     48  C   UNL A   1      42.729  30.452  29.459  1.00  0.00     0.029 A 
ATOM     49  N   UNL A   1      44.146  28.775  29.123  1.00  0.00    -0.354 N 
ATOM     50  C   UNL A   1      42.679  24.895  27.641  1.00  0.00     0.074 A 
ATOM     51  C   UNL A   1      41.952  25.447  26.525  1.00  0.00     0.031 C 
ATOM     52  C   UNL A   1      43.970  30.985  29.405  1.00  0.00     0.029 A 
ATOM     53  C   UNL A   1      44.930  29.914  29.202  1.00  0.00     0.049 A 
ATOM     54  H   UNL A   1      44.521  27.867  29.073  1.00  0.00     0.167 HD
ATOM     55  C   UNL A   1      43.538  23.837  27.724  1.00  0.00     0.034 A 
ATOM     56  C   UNL A   1      46.273  29.987  29.054  1.00  0.00     0.034 A 
ATOM     57  C   UNL A   1      44.066  23.703  29.053  1.00  0.00     0.049 A 
ATOM     58  C   UNL A   1      46.858  28.653  29.310  1.00  0.00     0.074 A 
ATOM     59  C   UNL A   1      43.626  23.240  30.270  1.00  0.00     0.029 A 
ATOM     60  N   UNL A   1      45.224  24.402  29.271  1.00  0.00    -0.354 N 
ATOM     61  N   UNL A   1      46.890  28.081  30.481  1.00  0.00    -0.248 NA
ATOM     62  C   UNL A   1      47.163  27.782  28.181  1.00  0.00     0.031 C 
ATOM     63  C   UNL A   1      44.421  23.906  31.246  1.00  0.00     0.029 A 
ATOM     64  C   UNL A   1      45.329  24.741  30.591  1.00  0.00     0.049 A 
ATOM     65  H   UNL A   1      45.885  24.627  28.577  1.00  0.00     0.167 HD
ATOM     66  C   UNL A   1      46.767  26.732  30.202  1.00  0.00     0.074 A 
ATOM     67  C   UNL A   1      47.139  26.599  28.800  1.00  0.00     0.031 C 
ATOM     68  C   UNL A   1      46.075  25.905  31.036  1.00  0.00     0.034 A 
BRANCH  55  69
ATOM     69  C   UNL A   1      44.246  23.176  26.553  1.00  0.00     0.023 A 
ATOM     70  C   UNL A   1      44.064  21.830  26.199  1.00  0.00     0.031 A 
ATOM     71  C   UNL A   1      44.921  23.974  25.596  1.00  0.00     0.131 A 
ATOM     72  C   UNL A   1      44.493  21.331  24.959  1.00  0.00     0.055 A 
ATOM     73  C   UNL A   1      45.296  23.491  24.336  1.00  0.00     0.041 A 
ATOM     74  F   UNL A   1      45.179  25.270  25.829  1.00  0.00    -0.206 F 
ATOM     75  C   UNL A   1      45.075  22.163  24.007  1.00  0.00     0.022 A 
BRANCH  72  76
ATOM     76  S   UNL A   1      44.270  19.579  24.551  1.00  0.00     0.124 S 
ATOM     77  O   UNL A   1      42.893  19.346  24.975  1.00  0.00    -0.237 OA
ATOM     78  O   UNL A   1      44.496  19.579  23.108  1.00  0.00    -0.237 OA
ATOM     79  O   UNL A   1      45.303  18.912  25.339  1.00  0.00    -0.744 OA
ENDBRANCH  72  76
ENDBRANCH  55  69
BRANCH  56  80
ATOM     80  C   UNL A   1      47.022  31.034  28.328  1.00  0.00     0.023 A 
ATOM     81  C   UNL A   1      47.913  31.858  29.039  1.00  0.00     0.031 A 
ATOM     82  C   UNL A   1      46.639  31.444  27.040  1.00  0.00     0.131 A 
ATOM     83  C   UNL A   1      48.338  33.076  28.493  1.00  0.00     0.055 A 
ATOM     84  C   UNL A   1      47.080  32.652  26.490  1.00  0.00     0.041 A 
ATOM     85  F   UNL A   1      45.771  30.713  26.324  1.00  0.00    -0.206 F 
ATOM     86  C   UNL A   1      47.919  33.484  27.225  1.00  0.00     0.022 A 
BRANCH  83  87
ATOM     87  S   UNL A   1      49.372  34.204  29.467  1.00  0.00     0.124 S 
ATOM     88  O   UNL A   1      48.499  34.528  30.593  1.00  0.00    -0.237 OA
ATOM     89  O   UNL A   1      50.517  33.356  29.783  1.00  0.00    -0.237 OA
ATOM     90  O   UNL A   1      49.630  35.308  28.549  1.00  0.00    -0.744 OA
ENDBRANCH  83  87
ENDBRANCH  56  80
BRANCH  68  91
ATOM     91  C   UNL A   1      45.874  26.326  32.466  1.00  0.00     0.023 A 
ATOM     92  C   UNL A   1      46.780  25.811  33.410  1.00  0.00     0.031 A 
ATOM     93  C   UNL A   1      44.759  27.035  32.947  1.00  0.00     0.131 A 
ATOM     94  C   UNL A   1      46.538  25.961  34.778  1.00  0.00     0.055 A 
ATOM     95  C   UNL A   1      44.562  27.252  34.315  1.00  0.00     0.041 A 
ATOM     96  F   UNL A   1      43.792  27.465  32.124  1.00  0.00    -0.206 F 
ATOM     97  C   UNL A   1      45.444  26.698  35.238  1.00  0.00     0.022 A 
BRANCH  94  98
ATOM     98  S   UNL A   1      47.545  25.061  35.985  1.00  0.00     0.124 S 
ATOM     99  O   UNL A   1      48.745  24.751  35.216  1.00  0.00    -0.237 OA
ATOM    100  O   UNL A   1      47.718  26.053  37.044  1.00  0.00    -0.237 OA
ATOM    101  O   UNL A   1      46.720  23.913  36.348  1.00  0.00    -0.744 OA
ENDBRANCH  94  98
ENDBRANCH  68  91
ENDBRANCH  42  43
ENDBRANCH  34  37
ENDBRANCH  32  33
ENDBRANCH  31  32
ENDBRANCH  30  31
ENDBRANCH   1  30
TORSDOF 20
ENDMDL
