MODEL 1
REMARK VINA RESULT:     -11.7      0.000      0.000
REMARK SMILES Cc1cc(C)c2c(OCCCC(=O)NCCCCCCNC(=O)c3ccc(-c4c5nc(c(-c6cc(S(=O)(=O)[O-])ccc6F)c6ccc([nH]6)c(-c6cc(S(=O)(=O)[O-])ccc6F)c6nc(c(-c7cc(S(=O)(=O)[O-])ccc7F)c7ccc4[nH]7)C=C6)C=C5)cc3)nsc2n1
REMARK SMILES IDX 17 1 16 2 15 3 14 4 12 5 13 6 11 8 10 9 9 10 8 11 7 12 1 13
REMARK SMILES IDX 2 14 3 15 90 16 4 17 89 18 5 19 6 20 88 21 87 22 18 23 19 24
REMARK SMILES IDX 20 25 21 26 22 27 23 29 24 30 25 31 86 32 26 33 85 34 27 35
REMARK SMILES IDX 28 36 29 37 79 38 30 39 84 40 78 41 80 42 31 43 83 44 77 45
REMARK SMILES IDX 76 46 32 48 64 49 44 50 63 51 45 52 48 53 62 54 81 55 46 56
REMARK SMILES IDX 47 57 61 59 82 60 49 61 33 62 34 63 42 64 35 65 41 66 43 67
REMARK SMILES IDX 40 68 36 69 37 70 38 71 39 72 65 73 66 74 74 75 67 76 73 77
REMARK SMILES IDX 75 78 72 79 68 80 69 81 70 82 71 83 50 84 51 85 59 86 52 87
REMARK SMILES IDX 58 88 60 89 57 90 53 91 54 92 55 93 56 94
REMARK H PARENT 14 7 21 28 80 47 48 58
REMARK Flexibility Score: inf
ROOT
ATOM      1  C   UNL A   1      33.985  28.463  24.506  1.00  0.00     0.002 C 
ENDROOT
BRANCH   1   2
ATOM      2  C   UNL A   1      33.327  28.449  23.104  1.00  0.00     0.021 C 
BRANCH   2   3
ATOM      3  C   UNL A   1      32.988  27.041  22.521  1.00  0.00     0.116 C 
BRANCH   3   4
ATOM      4  N   UNL A   1      31.678  26.432  23.010  1.00  0.00    -0.356 N 
ATOM      5  C   UNL A   1      30.947  25.413  23.551  1.00  0.00     0.220 C 
ATOM      6  O   UNL A   1      29.776  25.811  23.742  1.00  0.00    -0.275 OA
ATOM      7  H   UNL A   1      31.014  27.142  22.854  1.00  0.00     0.163 HD
BRANCH   5   8
ATOM      8  C   UNL A   1      31.250  23.945  24.137  1.00  0.00     0.103 C 
BRANCH   8   9
ATOM      9  C   UNL A   1      30.735  23.182  25.439  1.00  0.00     0.051 C 
BRANCH   9  10
ATOM     10  C   UNL A   1      31.406  22.946  26.852  1.00  0.00     0.232 C 
BRANCH  10  11
ATOM     11  O   UNL A   1      32.814  22.725  27.025  1.00  0.00    -0.477 OA
BRANCH  11  12
ATOM     12  C   UNL A   1      33.585  22.147  26.066  1.00  0.00     0.235 A 
ATOM     13  C   UNL A   1      39.017  22.249  26.106  1.00  0.00     0.067 C 
ATOM     14  C   UNL A   1      37.580  22.353  25.671  1.00  0.00     0.039 A 
ATOM     15  C   UNL A   1      36.949  23.591  25.739  1.00  0.00     0.027 A 
ATOM     16  N   UNL A   1      36.937  21.222  25.306  1.00  0.00    -0.240 NA
ATOM     17  C   UNL A   1      35.563  23.710  25.541  1.00  0.00    -0.034 A 
ATOM     18  C   UNL A   1      35.594  21.358  25.330  1.00  0.00     0.147 A 
ATOM     19  C   UNL A   1      34.781  24.948  25.296  1.00  0.00     0.045 C 
ATOM     20  C   UNL A   1      34.878  22.510  25.614  1.00  0.00     0.078 A 
ATOM     21  S   UNL A   1      34.458  20.137  24.992  1.00  0.00    -0.012 S 
ATOM     22  N   UNL A   1      33.156  20.947  25.669  1.00  0.00    -0.153 NA
ENDBRANCH  11  12
ENDBRANCH  10  11
ENDBRANCH   9  10
ENDBRANCH   8   9
ENDBRANCH   5   8
ENDBRANCH   3   4
ENDBRANCH   2   3
ENDBRANCH   1   2
BRANCH   1  23
ATOM     23  C   UNL A   1      33.270  29.172  25.675  1.00  0.00     0.002 C 
BRANCH  23  24
ATOM     24  C   UNL A   1      33.734  28.888  27.116  1.00  0.00     0.021 C 
BRANCH  24  25
ATOM     25  C   UNL A   1      35.174  29.271  27.452  1.00  0.00     0.116 C 
BRANCH  25  26
ATOM     26  N   UNL A   1      35.320  29.950  28.734  1.00  0.00    -0.352 N 
ATOM     27  C   UNL A   1      36.346  29.847  29.665  1.00  0.00     0.251 C 
ATOM     28  H   UNL A   1      34.590  30.566  28.973  1.00  0.00     0.163 HD
ATOM     29  O   UNL A   1      36.179  30.238  30.797  1.00  0.00    -0.269 OA
BRANCH  27  30
ATOM     30  C   UNL A   1      37.631  29.232  29.253  1.00  0.00     0.039 A 
ATOM     31  C   UNL A   1      38.304  29.702  28.121  1.00  0.00     0.014 A 
ATOM     32  C   UNL A   1      38.160  28.181  29.998  1.00  0.00     0.014 A 
ATOM     33  C   UNL A   1      39.551  29.167  27.803  1.00  0.00     0.010 A 
ATOM     34  C   UNL A   1      39.439  27.729  29.750  1.00  0.00     0.010 A 
ATOM     35  C   UNL A   1      40.132  28.199  28.639  1.00  0.00    -0.014 A 
BRANCH  35  36
ATOM     36  C   UNL A   1      41.519  27.782  28.425  1.00  0.00     0.031 A 
ATOM     37  C   UNL A   1      41.683  26.502  27.678  1.00  0.00     0.074 A 
ATOM     38  C   UNL A   1      42.596  28.554  28.689  1.00  0.00     0.049 A 
ATOM     39  N   UNL A   1      42.166  25.389  28.120  1.00  0.00    -0.248 NA
ATOM     40  C   UNL A   1      41.136  26.408  26.315  1.00  0.00     0.031 C 
ATOM     41  C   UNL A   1      42.632  29.938  29.171  1.00  0.00     0.029 A 
ATOM     42  N   UNL A   1      43.913  28.277  28.476  1.00  0.00    -0.354 N 
ATOM     43  C   UNL A   1      42.182  24.511  27.041  1.00  0.00     0.074 A 
ATOM     44  C   UNL A   1      41.395  25.134  26.009  1.00  0.00     0.031 C 
ATOM     45  C   UNL A   1      43.874  30.446  28.998  1.00  0.00     0.029 A 
ATOM     46  C   UNL A   1      44.756  29.381  28.556  1.00  0.00     0.049 A 
ATOM     47  H   UNL A   1      44.240  27.369  28.282  1.00  0.00     0.167 HD
ATOM     48  C   UNL A   1      43.009  23.427  27.018  1.00  0.00     0.034 A 
ATOM     49  C   UNL A   1      46.085  29.419  28.273  1.00  0.00     0.034 A 
ATOM     50  C   UNL A   1      43.519  23.129  28.335  1.00  0.00     0.049 A 
ATOM     51  C   UNL A   1      46.587  28.035  28.451  1.00  0.00     0.074 A 
ATOM     52  C   UNL A   1      42.938  22.807  29.548  1.00  0.00     0.029 A 
ATOM     53  N   UNL A   1      44.798  23.534  28.641  1.00  0.00    -0.354 N 
ATOM     54  N   UNL A   1      46.578  27.414  29.600  1.00  0.00    -0.248 NA
ATOM     55  C   UNL A   1      46.656  27.175  27.281  1.00  0.00     0.031 C 
ATOM     56  C   UNL A   1      43.694  23.532  30.517  1.00  0.00     0.029 A 
ATOM     57  C   UNL A   1      44.733  24.185  29.850  1.00  0.00     0.049 A 
ATOM     58  H   UNL A   1      45.605  23.387  28.099  1.00  0.00     0.167 HD
ATOM     59  C   UNL A   1      46.202  26.115  29.298  1.00  0.00     0.074 A 
ATOM     60  C   UNL A   1      46.360  26.003  27.850  1.00  0.00     0.031 C 
ATOM     61  C   UNL A   1      45.539  25.337  30.205  1.00  0.00     0.034 A 
BRANCH  48  62
ATOM     62  C   UNL A   1      43.617  22.827  25.774  1.00  0.00     0.023 A 
ATOM     63  C   UNL A   1      43.618  21.424  25.645  1.00  0.00     0.031 A 
ATOM     64  C   UNL A   1      44.436  23.531  24.861  1.00  0.00     0.131 A 
ATOM     65  C   UNL A   1      44.449  20.784  24.707  1.00  0.00     0.055 A 
ATOM     66  C   UNL A   1      45.212  22.893  23.889  1.00  0.00     0.041 A 
ATOM     67  F   UNL A   1      44.607  24.857  24.925  1.00  0.00    -0.206 F 
ATOM     68  C   UNL A   1      45.244  21.511  23.825  1.00  0.00     0.022 A 
BRANCH  65  69
ATOM     69  S   UNL A   1      44.591  18.979  24.762  1.00  0.00     0.124 S 
ATOM     70  O   UNL A   1      44.871  18.660  23.366  1.00  0.00    -0.237 OA
ATOM     71  O   UNL A   1      45.692  18.789  25.700  1.00  0.00    -0.237 OA
ATOM     72  O   UNL A   1      43.280  18.550  25.248  1.00  0.00    -0.744 OA
ENDBRANCH  65  69
ENDBRANCH  48  62
BRANCH  49  73
ATOM     73  C   UNL A   1      46.848  30.491  27.572  1.00  0.00     0.023 A 
ATOM     74  C   UNL A   1      46.205  31.580  26.942  1.00  0.00     0.031 A 
ATOM     75  C   UNL A   1      48.246  30.599  27.743  1.00  0.00     0.131 A 
ATOM     76  C   UNL A   1      46.948  32.711  26.532  1.00  0.00     0.055 A 
ATOM     77  C   UNL A   1      48.976  31.718  27.334  1.00  0.00     0.041 A 
ATOM     78  F   UNL A   1      48.943  29.659  28.401  1.00  0.00    -0.206 F 
ATOM     79  C   UNL A   1      48.328  32.787  26.737  1.00  0.00     0.022 A 
BRANCH  76  80
ATOM     80  S   UNL A   1      46.108  34.172  25.837  1.00  0.00     0.124 S 
ATOM     81  O   UNL A   1      47.197  34.850  25.145  1.00  0.00    -0.237 OA
ATOM     82  O   UNL A   1      45.078  33.575  24.995  1.00  0.00    -0.237 OA
ATOM     83  O   UNL A   1      45.602  34.865  27.022  1.00  0.00    -0.744 OA
ENDBRANCH  76  80
ENDBRANCH  49  73
BRANCH  61  84
ATOM     84  C   UNL A   1      45.457  25.807  31.644  1.00  0.00     0.023 A 
ATOM     85  C   UNL A   1      44.289  26.305  32.269  1.00  0.00     0.031 A 
ATOM     86  C   UNL A   1      46.586  25.587  32.451  1.00  0.00     0.131 A 
ATOM     87  C   UNL A   1      44.290  26.566  33.655  1.00  0.00     0.055 A 
ATOM     88  C   UNL A   1      46.576  25.826  33.824  1.00  0.00     0.041 A 
ATOM     89  F   UNL A   1      47.714  25.086  31.919  1.00  0.00    -0.206 F 
ATOM     90  C   UNL A   1      45.427  26.318  34.432  1.00  0.00     0.022 A 
BRANCH  87  91
ATOM     91  S   UNL A   1      42.797  27.206  34.484  1.00  0.00     0.124 S 
ATOM     92  O   UNL A   1      43.332  28.152  35.457  1.00  0.00    -0.237 OA
ATOM     93  O   UNL A   1      42.035  27.785  33.379  1.00  0.00    -0.237 OA
ATOM     94  O   UNL A   1      42.191  26.009  35.073  1.00  0.00    -0.744 OA
ENDBRANCH  87  91
ENDBRANCH  61  84
ENDBRANCH  35  36
ENDBRANCH  27  30
ENDBRANCH  25  26
ENDBRANCH  24  25
ENDBRANCH  23  24
ENDBRANCH   1  23
TORSDOF 20
ENDMDL
MODEL 2
REMARK VINA RESULT:     -11.1      2.729      7.246
REMARK SMILES Cc1cc(C)c2c(OCCCC(=O)NCCCCCCNC(=O)c3ccc(-c4c5nc(c(-c6cc(S(=O)(=O)[O-])ccc6F)c6ccc([nH]6)c(-c6cc(S(=O)(=O)[O-])ccc6F)c6nc(c(-c7cc(S(=O)(=O)[O-])ccc7F)c7ccc4[nH]7)C=C6)C=C5)cc3)nsc2n1
REMARK SMILES IDX 17 1 16 2 15 3 14 4 12 5 13 6 11 8 10 9 9 10 8 11 7 12 1 13
REMARK SMILES IDX 2 14 3 15 90 16 4 17 89 18 5 19 6 20 88 21 87 22 18 23 19 24
REMARK SMILES IDX 20 25 21 26 22 27 23 29 24 30 25 31 86 32 26 33 85 34 27 35
REMARK SMILES IDX 28 36 29 37 79 38 30 39 84 40 78 41 80 42 31 43 83 44 77 45
REMARK SMILES IDX 76 46 32 48 64 49 44 50 63 51 45 52 48 53 62 54 81 55 46 56
REMARK SMILES IDX 47 57 61 59 82 60 49 61 33 62 34 63 42 64 35 65 41 66 43 67
REMARK SMILES IDX 40 68 36 69 37 70 38 71 39 72 65 73 66 74 74 75 67 76 73 77
REMARK SMILES IDX 75 78 72 79 68 80 69 81 70 82 71 83 50 84 51 85 59 86 52 87
REMARK SMILES IDX 58 88 60 89 57 90 53 91 54 92 55 93 56 94
REMARK H PARENT 14 7 21 28 80 47 48 58
REMARK Flexibility Score: inf
ROOT
ATOM      1  C   UNL A   1      33.677  27.535  24.848  1.00  0.00     0.002 C 
ENDROOT
BRANCH   1   2
ATOM      2  C   UNL A   1      33.022  28.205  23.616  1.00  0.00     0.021 C 
BRANCH   2   3
ATOM      3  C   UNL A   1      31.485  27.986  23.453  1.00  0.00     0.116 C 
BRANCH   3   4
ATOM      4  N   UNL A   1      30.923  26.760  24.165  1.00  0.00    -0.356 N 
ATOM      5  C   UNL A   1      30.681  25.418  24.251  1.00  0.00     0.220 C 
ATOM      6  O   UNL A   1      30.177  25.168  25.369  1.00  0.00    -0.275 OA
ATOM      7  H   UNL A   1      30.534  27.124  24.992  1.00  0.00     0.163 HD
BRANCH   5   8
ATOM      8  C   UNL A   1      31.023  24.113  23.374  1.00  0.00     0.103 C 
BRANCH   8   9
ATOM      9  C   UNL A   1      32.380  23.582  22.726  1.00  0.00     0.051 C 
BRANCH   9  10
ATOM     10  C   UNL A   1      33.892  23.959  23.000  1.00  0.00     0.232 C 
BRANCH  10  11
ATOM     11  O   UNL A   1      34.487  23.920  24.306  1.00  0.00    -0.477 OA
BRANCH  11  12
ATOM     12  C   UNL A   1      34.940  22.767  24.868  1.00  0.00     0.235 A 
ATOM     13  C   UNL A   1      32.711  17.897  23.952  1.00  0.00     0.067 C 
ATOM     14  C   UNL A   1      33.293  19.108  24.631  1.00  0.00     0.039 A 
ATOM     15  C   UNL A   1      32.428  20.093  25.096  1.00  0.00     0.027 A 
ATOM     16  N   UNL A   1      34.637  19.225  24.692  1.00  0.00    -0.240 NA
ATOM     17  C   UNL A   1      32.916  21.330  25.552  1.00  0.00    -0.034 A 
ATOM     18  C   UNL A   1      35.037  20.490  24.943  1.00  0.00     0.147 A 
ATOM     19  C   UNL A   1      32.189  22.364  26.332  1.00  0.00     0.045 C 
ATOM     20  C   UNL A   1      34.227  21.587  25.192  1.00  0.00     0.078 A 
ATOM     21  S   UNL A   1      36.648  21.032  25.031  1.00  0.00    -0.012 S 
ATOM     22  N   UNL A   1      36.269  22.660  24.899  1.00  0.00    -0.153 NA
ENDBRANCH  11  12
ENDBRANCH  10  11
ENDBRANCH   9  10
ENDBRANCH   8   9
ENDBRANCH   5   8
ENDBRANCH   3   4
ENDBRANCH   2   3
ENDBRANCH   1   2
BRANCH   1  23
ATOM     23  C   UNL A   1      34.070  28.397  26.065  1.00  0.00     0.002 C 
BRANCH  23  24
ATOM     24  C   UNL A   1      33.305  29.708  26.329  1.00  0.00     0.021 C 
BRANCH  24  25
ATOM     25  C   UNL A   1      33.670  30.460  27.607  1.00  0.00     0.116 C 
BRANCH  25  26
ATOM     26  N   UNL A   1      34.134  31.823  27.378  1.00  0.00    -0.352 N 
ATOM     27  C   UNL A   1      35.302  32.432  27.819  1.00  0.00     0.251 C 
ATOM     28  H   UNL A   1      33.538  32.389  26.837  1.00  0.00     0.163 HD
ATOM     29  O   UNL A   1      35.401  33.638  27.800  1.00  0.00    -0.269 OA
BRANCH  27  30
ATOM     30  C   UNL A   1      36.407  31.585  28.330  1.00  0.00     0.039 A 
ATOM     31  C   UNL A   1      36.439  30.219  28.035  1.00  0.00     0.014 A 
ATOM     32  C   UNL A   1      37.409  32.159  29.110  1.00  0.00     0.014 A 
ATOM     33  C   UNL A   1      37.532  29.460  28.453  1.00  0.00     0.010 A 
ATOM     34  C   UNL A   1      38.539  31.436  29.428  1.00  0.00     0.010 A 
ATOM     35  C   UNL A   1      38.597  30.079  29.126  1.00  0.00    -0.014 A 
BRANCH  35  36
ATOM     36  C   UNL A   1      39.830  29.335  29.387  1.00  0.00     0.031 A 
ATOM     37  C   UNL A   1      40.144  29.126  30.830  1.00  0.00     0.074 A 
ATOM     38  C   UNL A   1      40.554  28.700  28.439  1.00  0.00     0.049 A 
ATOM     39  N   UNL A   1      41.137  29.610  31.498  1.00  0.00    -0.248 NA
ATOM     40  C   UNL A   1      39.176  28.392  31.662  1.00  0.00     0.031 C 
ATOM     41  C   UNL A   1      40.264  28.561  27.009  1.00  0.00     0.029 A 
ATOM     42  N   UNL A   1      41.676  27.942  28.592  1.00  0.00    -0.354 N 
ATOM     43  C   UNL A   1      41.046  29.080  32.781  1.00  0.00     0.074 A 
ATOM     44  C   UNL A   1      39.743  28.472  32.868  1.00  0.00     0.031 C 
ATOM     45  C   UNL A   1      41.049  27.596  26.479  1.00  0.00     0.029 A 
ATOM     46  C   UNL A   1      42.007  27.169  27.483  1.00  0.00     0.049 A 
ATOM     47  H   UNL A   1      42.209  27.943  29.419  1.00  0.00     0.167 HD
ATOM     48  C   UNL A   1      42.132  29.013  33.603  1.00  0.00     0.034 A 
ATOM     49  C   UNL A   1      42.995  26.240  27.397  1.00  0.00     0.034 A 
ATOM     50  C   UNL A   1      43.195  29.871  33.136  1.00  0.00     0.049 A 
ATOM     51  C   UNL A   1      44.000  26.607  28.425  1.00  0.00     0.074 A 
ATOM     52  C   UNL A   1      43.310  31.228  32.899  1.00  0.00     0.029 A 
ATOM     53  N   UNL A   1      44.241  29.292  32.452  1.00  0.00    -0.354 N 
ATOM     54  N   UNL A   1      44.680  27.721  28.393  1.00  0.00    -0.248 NA
ATOM     55  C   UNL A   1      43.910  25.971  29.729  1.00  0.00     0.031 C 
ATOM     56  C   UNL A   1      44.062  31.324  31.690  1.00  0.00     0.029 A 
ATOM     57  C   UNL A   1      44.427  30.030  31.308  1.00  0.00     0.049 A 
ATOM     58  H   UNL A   1      44.756  28.502  32.730  1.00  0.00     0.167 HD
ATOM     59  C   UNL A   1      44.726  28.147  29.711  1.00  0.00     0.074 A 
ATOM     60  C   UNL A   1      44.322  26.983  30.498  1.00  0.00     0.031 C 
ATOM     61  C   UNL A   1      44.819  29.472  30.028  1.00  0.00     0.034 A 
BRANCH  48  62
ATOM     62  C   UNL A   1      42.368  27.945  34.642  1.00  0.00     0.023 A 
ATOM     63  C   UNL A   1      43.096  26.798  34.263  1.00  0.00     0.031 A 
ATOM     64  C   UNL A   1      41.688  27.861  35.878  1.00  0.00     0.131 A 
ATOM     65  C   UNL A   1      43.066  25.631  35.047  1.00  0.00     0.055 A 
ATOM     66  C   UNL A   1      41.714  26.720  36.685  1.00  0.00     0.041 A 
ATOM     67  F   UNL A   1      40.883  28.835  36.321  1.00  0.00    -0.206 F 
ATOM     68  C   UNL A   1      42.382  25.586  36.259  1.00  0.00     0.022 A 
BRANCH  65  69
ATOM     69  S   UNL A   1      43.813  24.119  34.382  1.00  0.00     0.124 S 
ATOM     70  O   UNL A   1      44.194  24.542  33.039  1.00  0.00    -0.237 OA
ATOM     71  O   UNL A   1      44.907  23.885  35.319  1.00  0.00    -0.237 OA
ATOM     72  O   UNL A   1      42.723  23.147  34.444  1.00  0.00    -0.744 OA
ENDBRANCH  65  69
ENDBRANCH  48  62
BRANCH  49  73
ATOM     73  C   UNL A   1      42.959  24.917  26.712  1.00  0.00     0.023 A 
ATOM     74  C   UNL A   1      43.996  24.488  25.854  1.00  0.00     0.031 A 
ATOM     75  C   UNL A   1      42.022  23.936  27.105  1.00  0.00     0.131 A 
ATOM     76  C   UNL A   1      44.074  23.137  25.443  1.00  0.00     0.055 A 
ATOM     77  C   UNL A   1      42.102  22.603  26.693  1.00  0.00     0.041 A 
ATOM     78  F   UNL A   1      41.044  24.216  27.981  1.00  0.00    -0.206 F 
ATOM     79  C   UNL A   1      43.138  22.193  25.870  1.00  0.00     0.022 A 
BRANCH  76  80
ATOM     80  S   UNL A   1      45.481  22.552  24.443  1.00  0.00     0.124 S 
ATOM     81  O   UNL A   1      46.269  21.817  25.426  1.00  0.00    -0.237 OA
ATOM     82  O   UNL A   1      44.828  21.756  23.410  1.00  0.00    -0.237 OA
ATOM     83  O   UNL A   1      46.093  23.791  23.963  1.00  0.00    -0.744 OA
ENDBRANCH  76  80
ENDBRANCH  49  73
BRANCH  61  84
ATOM     84  C   UNL A   1      45.149  30.462  28.928  1.00  0.00     0.023 A 
ATOM     85  C   UNL A   1      46.454  30.883  28.582  1.00  0.00     0.031 A 
ATOM     86  C   UNL A   1      44.090  30.871  28.101  1.00  0.00     0.131 A 
ATOM     87  C   UNL A   1      46.653  31.688  27.440  1.00  0.00     0.055 A 
ATOM     88  C   UNL A   1      44.293  31.649  26.962  1.00  0.00     0.041 A 
ATOM     89  F   UNL A   1      42.831  30.476  28.363  1.00  0.00    -0.206 F 
ATOM     90  C   UNL A   1      45.578  32.062  26.628  1.00  0.00     0.022 A 
BRANCH  87  91
ATOM     91  S   UNL A   1      48.327  32.242  26.972  1.00  0.00     0.124 S 
ATOM     92  O   UNL A   1      48.828  32.866  28.191  1.00  0.00    -0.237 OA
ATOM     93  O   UNL A   1      48.981  30.999  26.572  1.00  0.00    -0.237 OA
ATOM     94  O   UNL A   1      48.084  33.177  25.870  1.00  0.00    -0.744 OA
ENDBRANCH  87  91
ENDBRANCH  61  84
ENDBRANCH  35  36
ENDBRANCH  27  30
ENDBRANCH  25  26
ENDBRANCH  24  25
ENDBRANCH  23  24
ENDBRANCH   1  23
TORSDOF 20
ENDMDL
MODEL 3
REMARK VINA RESULT:     -11.1      2.456      7.137
REMARK SMILES Cc1cc(C)c2c(OCCCC(=O)NCCCCCCNC(=O)c3ccc(-c4c5nc(c(-c6cc(S(=O)(=O)[O-])ccc6F)c6ccc([nH]6)c(-c6cc(S(=O)(=O)[O-])ccc6F)c6nc(c(-c7cc(S(=O)(=O)[O-])ccc7F)c7ccc4[nH]7)C=C6)C=C5)cc3)nsc2n1
REMARK SMILES IDX 17 1 16 2 15 3 14 4 12 5 13 6 11 8 10 9 9 10 8 11 7 12 1 13
REMARK SMILES IDX 2 14 3 15 90 16 4 17 89 18 5 19 6 20 88 21 87 22 18 23 19 24
REMARK SMILES IDX 20 25 21 26 22 27 23 29 24 30 25 31 86 32 26 33 85 34 27 35
REMARK SMILES IDX 28 36 29 37 79 38 30 39 84 40 78 41 80 42 31 43 83 44 77 45
REMARK SMILES IDX 76 46 32 48 64 49 44 50 63 51 45 52 48 53 62 54 81 55 46 56
REMARK SMILES IDX 47 57 61 59 82 60 49 61 33 62 34 63 42 64 35 65 41 66 43 67
REMARK SMILES IDX 40 68 36 69 37 70 38 71 39 72 65 73 66 74 74 75 67 76 73 77
REMARK SMILES IDX 75 78 72 79 68 80 69 81 70 82 71 83 50 84 51 85 59 86 52 87
REMARK SMILES IDX 58 88 60 89 57 90 53 91 54 92 55 93 56 94
REMARK H PARENT 14 7 21 28 80 47 48 58
REMARK Flexibility Score: inf
ROOT
ATOM      1  C   UNL A   1      33.650  27.790  24.772  1.00  0.00     0.002 C 
ENDROOT
BRANCH   1   2
ATOM      2  C   UNL A   1      33.983  27.848  23.261  1.00  0.00     0.021 C 
BRANCH   2   3
ATOM      3  C   UNL A   1      33.369  29.045  22.470  1.00  0.00     0.116 C 
BRANCH   3   4
ATOM      4  N   UNL A   1      31.854  29.004  22.298  1.00  0.00    -0.356 N 
ATOM      5  C   UNL A   1      30.609  28.572  22.657  1.00  0.00     0.220 C 
ATOM      6  O   UNL A   1      29.756  29.173  21.964  1.00  0.00    -0.275 OA
ATOM      7  H   UNL A   1      31.687  29.596  21.530  1.00  0.00     0.163 HD
BRANCH   5   8
ATOM      8  C   UNL A   1      29.985  27.647  23.817  1.00  0.00     0.103 C 
BRANCH   8   9
ATOM      9  C   UNL A   1      29.924  26.066  24.011  1.00  0.00     0.051 C 
BRANCH   9  10
ATOM     10  C   UNL A   1      30.429  25.133  25.185  1.00  0.00     0.232 C 
BRANCH  10  11
ATOM     11  O   UNL A   1      30.600  23.714  25.042  1.00  0.00    -0.477 OA
BRANCH  11  12
ATOM     12  C   UNL A   1      31.569  23.026  25.702  1.00  0.00     0.235 A 
ATOM     13  C   UNL A   1      36.860  23.396  24.521  1.00  0.00     0.067 C 
ATOM     14  C   UNL A   1      35.490  22.855  24.831  1.00  0.00     0.039 A 
ATOM     15  C   UNL A   1      34.655  22.506  23.774  1.00  0.00     0.027 A 
ATOM     16  N   UNL A   1      35.097  22.804  26.121  1.00  0.00    -0.240 NA
ATOM     17  C   UNL A   1      33.303  22.190  23.992  1.00  0.00    -0.034 A 
ATOM     18  C   UNL A   1      33.758  22.696  26.253  1.00  0.00     0.147 A 
ATOM     19  C   UNL A   1      32.358  21.533  23.053  1.00  0.00     0.045 C 
ATOM     20  C   UNL A   1      32.827  22.574  25.233  1.00  0.00     0.078 A 
ATOM     21  S   UNL A   1      32.894  22.665  27.720  1.00  0.00    -0.012 S 
ATOM     22  N   UNL A   1      31.402  22.979  27.025  1.00  0.00    -0.153 NA
ENDBRANCH  11  12
ENDBRANCH  10  11
ENDBRANCH   9  10
ENDBRANCH   8   9
ENDBRANCH   5   8
ENDBRANCH   3   4
ENDBRANCH   2   3
ENDBRANCH   1   2
BRANCH   1  23
ATOM     23  C   UNL A   1      33.854  29.045  25.646  1.00  0.00     0.002 C 
BRANCH  23  24
ATOM     24  C   UNL A   1      33.331  29.040  27.094  1.00  0.00     0.021 C 
BRANCH  24  25
ATOM     25  C   UNL A   1      34.246  29.659  28.149  1.00  0.00     0.116 C 
BRANCH  25  26
ATOM     26  N   UNL A   1      34.446  31.094  27.987  1.00  0.00    -0.352 N 
ATOM     27  C   UNL A   1      35.582  31.851  28.244  1.00  0.00     0.251 C 
ATOM     28  H   UNL A   1      33.669  31.595  27.649  1.00  0.00     0.163 HD
ATOM     29  O   UNL A   1      35.499  33.054  28.345  1.00  0.00    -0.269 OA
BRANCH  27  30
ATOM     30  C   UNL A   1      36.884  31.160  28.416  1.00  0.00     0.039 A 
ATOM     31  C   UNL A   1      37.831  31.661  29.314  1.00  0.00     0.014 A 
ATOM     32  C   UNL A   1      37.156  30.014  27.673  1.00  0.00     0.014 A 
ATOM     33  C   UNL A   1      39.011  30.947  29.522  1.00  0.00     0.010 A 
ATOM     34  C   UNL A   1      38.269  29.252  27.958  1.00  0.00     0.010 A 
ATOM     35  C   UNL A   1      39.215  29.724  28.863  1.00  0.00    -0.014 A 
BRANCH  35  36
ATOM     36  C   UNL A   1      40.351  28.876  29.227  1.00  0.00     0.031 A 
ATOM     37  C   UNL A   1      40.603  28.757  30.692  1.00  0.00     0.074 A 
ATOM     38  C   UNL A   1      41.023  28.088  28.359  1.00  0.00     0.049 A 
ATOM     39  N   UNL A   1      41.627  29.186  31.352  1.00  0.00    -0.248 NA
ATOM     40  C   UNL A   1      39.540  28.205  31.546  1.00  0.00     0.031 C 
ATOM     41  C   UNL A   1      40.757  27.861  26.936  1.00  0.00     0.029 A 
ATOM     42  N   UNL A   1      42.051  27.230  28.611  1.00  0.00    -0.354 N 
ATOM     43  C   UNL A   1      41.445  28.779  32.669  1.00  0.00     0.074 A 
ATOM     44  C   UNL A   1      40.081  28.326  32.761  1.00  0.00     0.031 C 
ATOM     45  C   UNL A   1      41.443  26.775  26.513  1.00  0.00     0.029 A 
ATOM     46  C   UNL A   1      42.322  26.334  27.581  1.00  0.00     0.049 A 
ATOM     47  H   UNL A   1      42.560  27.243  29.454  1.00  0.00     0.167 HD
ATOM     48  C   UNL A   1      42.496  28.666  33.531  1.00  0.00     0.034 A 
ATOM     49  C   UNL A   1      43.203  25.300  27.605  1.00  0.00     0.034 A 
ATOM     50  C   UNL A   1      43.659  29.361  33.032  1.00  0.00     0.049 A 
ATOM     51  C   UNL A   1      44.216  25.642  28.634  1.00  0.00     0.074 A 
ATOM     52  C   UNL A   1      43.929  30.673  32.690  1.00  0.00     0.029 A 
ATOM     53  N   UNL A   1      44.651  28.617  32.435  1.00  0.00    -0.354 N 
ATOM     54  N   UNL A   1      45.016  26.669  28.534  1.00  0.00    -0.248 NA
ATOM     55  C   UNL A   1      44.024  25.132  29.981  1.00  0.00     0.031 C 
ATOM     56  C   UNL A   1      44.717  30.584  31.504  1.00  0.00     0.029 A 
ATOM     57  C   UNL A   1      44.946  29.231  31.241  1.00  0.00     0.049 A 
ATOM     58  H   UNL A   1      45.069  27.802  32.793  1.00  0.00     0.167 HD
ATOM     59  C   UNL A   1      45.075  27.198  29.814  1.00  0.00     0.074 A 
ATOM     60  C   UNL A   1      44.526  26.155  30.679  1.00  0.00     0.031 C 
ATOM     61  C   UNL A   1      45.306  28.528  30.025  1.00  0.00     0.034 A 
BRANCH  48  62
ATOM     62  C   UNL A   1      42.586  27.670  34.661  1.00  0.00     0.023 A 
ATOM     63  C   UNL A   1      43.295  26.472  34.436  1.00  0.00     0.031 A 
ATOM     64  C   UNL A   1      41.790  27.705  35.828  1.00  0.00     0.131 A 
ATOM     65  C   UNL A   1      43.141  25.369  35.295  1.00  0.00     0.055 A 
ATOM     66  C   UNL A   1      41.690  26.627  36.713  1.00  0.00     0.041 A 
ATOM     67  F   UNL A   1      40.991  28.738  36.121  1.00  0.00    -0.206 F 
ATOM     68  C   UNL A   1      42.345  25.440  36.435  1.00  0.00     0.022 A 
BRANCH  65  69
ATOM     69  S   UNL A   1      43.879  23.785  34.814  1.00  0.00     0.124 S 
ATOM     70  O   UNL A   1      44.759  24.187  33.722  1.00  0.00    -0.237 OA
ATOM     71  O   UNL A   1      44.533  23.369  36.050  1.00  0.00    -0.237 OA
ATOM     72  O   UNL A   1      42.725  22.978  34.421  1.00  0.00    -0.744 OA
ENDBRANCH  65  69
ENDBRANCH  48  62
BRANCH  49  73
ATOM     73  C   UNL A   1      43.039  23.935  27.029  1.00  0.00     0.023 A 
ATOM     74  C   UNL A   1      43.842  23.468  25.965  1.00  0.00     0.031 A 
ATOM     75  C   UNL A   1      42.260  22.967  27.701  1.00  0.00     0.131 A 
ATOM     76  C   UNL A   1      43.857  22.095  25.627  1.00  0.00     0.055 A 
ATOM     77  C   UNL A   1      42.276  21.611  27.361  1.00  0.00     0.041 A 
ATOM     78  F   UNL A   1      41.523  23.288  28.777  1.00  0.00    -0.206 F 
ATOM     79  C   UNL A   1      43.086  21.166  26.330  1.00  0.00     0.022 A 
BRANCH  76  80
ATOM     80  S   UNL A   1      44.987  21.468  24.342  1.00  0.00     0.124 S 
ATOM     81  O   UNL A   1      46.295  21.794  24.900  1.00  0.00    -0.237 OA
ATOM     82  O   UNL A   1      44.644  20.052  24.280  1.00  0.00    -0.237 OA
ATOM     83  O   UNL A   1      44.612  22.240  23.157  1.00  0.00    -0.744 OA
ENDBRANCH  76  80
ENDBRANCH  49  73
BRANCH  61  84
ATOM     84  C   UNL A   1      45.772  29.380  28.860  1.00  0.00     0.023 A 
ATOM     85  C   UNL A   1      44.976  30.334  28.185  1.00  0.00     0.031 A 
ATOM     86  C   UNL A   1      47.136  29.318  28.533  1.00  0.00     0.131 A 
ATOM     87  C   UNL A   1      45.560  31.179  27.218  1.00  0.00     0.055 A 
ATOM     88  C   UNL A   1      47.714  30.169  27.592  1.00  0.00     0.041 A 
ATOM     89  F   UNL A   1      47.948  28.452  29.164  1.00  0.00    -0.206 F 
ATOM     90  C   UNL A   1      46.927  31.103  26.929  1.00  0.00     0.022 A 
BRANCH  87  91
ATOM     91  S   UNL A   1      44.555  32.419  26.335  1.00  0.00     0.124 S 
ATOM     92  O   UNL A   1      45.496  32.998  25.383  1.00  0.00    -0.237 OA
ATOM     93  O   UNL A   1      43.477  31.616  25.763  1.00  0.00    -0.237 OA
ATOM     94  O   UNL A   1      44.128  33.334  27.396  1.00  0.00    -0.744 OA
ENDBRANCH  87  91
ENDBRANCH  61  84
ENDBRANCH  35  36
ENDBRANCH  27  30
ENDBRANCH  25  26
ENDBRANCH  24  25
ENDBRANCH  23  24
ENDBRANCH   1  23
TORSDOF 20
ENDMDL
