MODEL 1
REMARK VINA RESULT:     -11.1      0.000      0.000
REMARK SMILES C[C@H](Nc1cccc(F)c1C(=O)NCCCCCCNC(=O)c1ccc(-c2c3nc(c(-c4cc(S(=O)(=O)[O-])ccc4F)c4ccc([nH]4)c(-c4cc(S(=O)(=O)[O-])ccc4F)c4nc(c(-c5cc(S(=O)(=O)[O-])ccc5F)c5ccc2[nH]5)C=C4)C=C3)cc1)c1nccs1
REMARK SMILES IDX 16 1 15 2 14 3 13 4 11 5 12 6 10 8 4 9 5 10 6 11 8 12 7 13
REMARK SMILES IDX 9 14 3 15 2 17 1 18 86 19 87 20 90 21 88 22 89 23 17 24
REMARK SMILES IDX 18 25 19 26 20 27 21 28 22 30 23 31 24 32 85 33 25 34 84 35
REMARK SMILES IDX 26 36 27 37 28 38 78 39 29 40 83 41 77 42 79 43 30 44 82 45
REMARK SMILES IDX 76 46 75 47 31 49 63 50 43 51 62 52 44 53 47 54 61 55 80 56
REMARK SMILES IDX 45 57 46 58 60 60 81 61 48 62 32 63 33 64 41 65 34 66 40 67
REMARK SMILES IDX 42 68 39 69 35 70 36 71 37 72 38 73 64 74 65 75 73 76 66 77
REMARK SMILES IDX 72 78 74 79 71 80 67 81 68 82 69 83 70 84 49 85 50 86 58 87
REMARK SMILES IDX 51 88 57 89 59 90 56 91 52 92 53 93 54 94 55 95
REMARK H PARENT 13 7 3 16 20 29 79 48 47 59
REMARK Flexibility Score: inf
ROOT
ATOM      1  C   UNL A   1      32.281  29.337  26.741  1.00  0.00     0.002 C 
ENDROOT
BRANCH   1   2
ATOM      2  C   UNL A   1      31.515  28.021  26.575  1.00  0.00     0.021 C 
BRANCH   2   3
ATOM      3  C   UNL A   1      32.317  26.734  26.743  1.00  0.00     0.116 C 
BRANCH   3   4
ATOM      4  N   UNL A   1      31.507  25.539  26.629  1.00  0.00    -0.352 N 
ATOM      5  C   UNL A   1      31.803  24.256  26.241  1.00  0.00     0.256 C 
ATOM      6  O   UNL A   1      30.848  23.474  26.214  1.00  0.00    -0.269 OA
ATOM      7  H   UNL A   1      30.563  25.672  26.877  1.00  0.00     0.163 HD
BRANCH   5   8
ATOM      8  C   UNL A   1      33.150  23.793  25.783  1.00  0.00     0.098 A 
ATOM      9  C   UNL A   1      33.502  23.909  24.409  1.00  0.00     0.050 A 
ATOM     10  C   UNL A   1      34.812  23.586  24.010  1.00  0.00     0.027 A 
ATOM     11  C   UNL A   1      35.742  23.083  24.918  1.00  0.00     0.005 A 
ATOM     12  C   UNL A   1      34.062  23.175  26.643  1.00  0.00     0.138 A 
ATOM     13  C   UNL A   1      35.353  22.846  26.229  1.00  0.00     0.040 A 
ATOM     14  F   UNL A   1      33.713  22.800  27.882  1.00  0.00    -0.206 F 
BRANCH   9  15
ATOM     15  N   UNL A   1      32.547  24.224  23.435  1.00  0.00    -0.375 N 
ATOM     16  H   UNL A   1      31.903  23.531  23.162  1.00  0.00     0.161 HD
BRANCH  15  17
ATOM     17  C   UNL A   1      32.470  25.558  22.799  1.00  0.00     0.135 C 
ATOM     18  C   UNL A   1      32.668  25.504  21.272  1.00  0.00     0.039 C 
BRANCH  17  19
ATOM     19  C   UNL A   1      31.165  26.299  23.103  1.00  0.00     0.115 A 
ATOM     20  N   UNL A   1      30.105  25.757  23.677  1.00  0.00    -0.247 NA
ATOM     21  S   UNL A   1      30.998  27.974  22.706  1.00  0.00    -0.125 S 
ATOM     22  C   UNL A   1      29.101  26.700  23.788  1.00  0.00     0.123 A 
ATOM     23  C   UNL A   1      29.403  27.958  23.318  1.00  0.00     0.087 A 
ENDBRANCH  17  19
ENDBRANCH  15  17
ENDBRANCH   9  15
ENDBRANCH   5   8
ENDBRANCH   3   4
ENDBRANCH   2   3
ENDBRANCH   1   2
BRANCH   1  24
ATOM     24  C   UNL A   1      31.750  30.543  25.962  1.00  0.00     0.002 C 
BRANCH  24  25
ATOM     25  C   UNL A   1      31.525  31.825  26.766  1.00  0.00     0.021 C 
BRANCH  25  26
ATOM     26  C   UNL A   1      32.785  32.546  27.234  1.00  0.00     0.116 C 
BRANCH  26  27
ATOM     27  N   UNL A   1      32.545  33.939  27.564  1.00  0.00    -0.352 N 
ATOM     28  C   UNL A   1      33.119  34.716  28.542  1.00  0.00     0.251 C 
ATOM     29  H   UNL A   1      31.873  34.392  27.006  1.00  0.00     0.163 HD
ATOM     30  O   UNL A   1      32.660  35.830  28.773  1.00  0.00    -0.269 OA
BRANCH  28  31
ATOM     31  C   UNL A   1      34.265  34.204  29.329  1.00  0.00     0.039 A 
ATOM     32  C   UNL A   1      34.011  33.341  30.398  1.00  0.00     0.014 A 
ATOM     33  C   UNL A   1      35.579  34.579  29.033  1.00  0.00     0.014 A 
ATOM     34  C   UNL A   1      35.076  32.811  31.131  1.00  0.00     0.010 A 
ATOM     35  C   UNL A   1      36.643  33.993  29.717  1.00  0.00     0.010 A 
ATOM     36  C   UNL A   1      36.404  33.103  30.775  1.00  0.00    -0.014 A 
BRANCH  36  37
ATOM     37  C   UNL A   1      37.544  32.484  31.501  1.00  0.00     0.031 A 
ATOM     38  C   UNL A   1      38.321  31.356  30.875  1.00  0.00     0.074 A 
ATOM     39  C   UNL A   1      37.862  32.917  32.738  1.00  0.00     0.049 A 
ATOM     40  N   UNL A   1      39.312  30.662  31.374  1.00  0.00    -0.248 NA
ATOM     41  C   UNL A   1      37.920  30.939  29.521  1.00  0.00     0.031 C 
ATOM     42  C   UNL A   1      37.168  33.987  33.459  1.00  0.00     0.029 A 
ATOM     43  N   UNL A   1      38.849  32.522  33.607  1.00  0.00    -0.354 N 
ATOM     44  C   UNL A   1      39.650  29.728  30.402  1.00  0.00     0.074 A 
ATOM     45  C   UNL A   1      38.726  29.907  29.304  1.00  0.00     0.031 C 
ATOM     46  C   UNL A   1      37.775  34.188  34.640  1.00  0.00     0.029 A 
ATOM     47  C   UNL A   1      38.867  33.231  34.786  1.00  0.00     0.049 A 
ATOM     48  H   UNL A   1      39.485  31.798  33.405  1.00  0.00     0.167 HD
ATOM     49  C   UNL A   1      40.657  28.822  30.413  1.00  0.00     0.034 A 
ATOM     50  C   UNL A   1      39.665  33.121  35.868  1.00  0.00     0.034 A 
ATOM     51  C   UNL A   1      41.589  28.668  31.501  1.00  0.00     0.049 A 
ATOM     52  C   UNL A   1      40.752  32.079  35.872  1.00  0.00     0.074 A 
ATOM     53  C   UNL A   1      42.672  27.811  31.586  1.00  0.00     0.029 A 
ATOM     54  N   UNL A   1      41.552  29.382  32.690  1.00  0.00    -0.354 N 
ATOM     55  N   UNL A   1      41.064  31.213  34.936  1.00  0.00    -0.248 NA
ATOM     56  C   UNL A   1      41.594  31.996  37.074  1.00  0.00     0.031 C 
ATOM     57  C   UNL A   1      43.248  27.958  32.850  1.00  0.00     0.029 A 
ATOM     58  C   UNL A   1      42.573  28.961  33.526  1.00  0.00     0.049 A 
ATOM     59  H   UNL A   1      40.896  30.084  32.908  1.00  0.00     0.167 HD
ATOM     60  C   UNL A   1      42.152  30.499  35.426  1.00  0.00     0.074 A 
ATOM     61  C   UNL A   1      42.447  31.035  36.739  1.00  0.00     0.031 C 
ATOM     62  C   UNL A   1      42.850  29.498  34.836  1.00  0.00     0.034 A 
BRANCH  49  63
ATOM     63  C   UNL A   1      40.806  27.914  29.221  1.00  0.00     0.023 A 
ATOM     64  C   UNL A   1      41.785  28.147  28.240  1.00  0.00     0.031 A 
ATOM     65  C   UNL A   1      39.997  26.772  29.093  1.00  0.00     0.131 A 
ATOM     66  C   UNL A   1      41.909  27.264  27.156  1.00  0.00     0.055 A 
ATOM     67  C   UNL A   1      40.166  25.866  28.045  1.00  0.00     0.041 A 
ATOM     68  F   UNL A   1      39.036  26.512  29.994  1.00  0.00    -0.206 F 
ATOM     69  C   UNL A   1      41.123  26.113  27.066  1.00  0.00     0.022 A 
BRANCH  66  70
ATOM     70  S   UNL A   1      43.072  27.675  25.828  1.00  0.00     0.124 S 
ATOM     71  O   UNL A   1      44.120  26.679  26.036  1.00  0.00    -0.237 OA
ATOM     72  O   UNL A   1      42.259  27.506  24.628  1.00  0.00    -0.237 OA
ATOM     73  O   UNL A   1      43.461  29.052  26.127  1.00  0.00    -0.744 OA
ENDBRANCH  66  70
ENDBRANCH  49  63
BRANCH  50  74
ATOM     74  C   UNL A   1      39.457  34.016  37.041  1.00  0.00     0.023 A 
ATOM     75  C   UNL A   1      38.899  33.531  38.234  1.00  0.00     0.031 A 
ATOM     76  C   UNL A   1      39.823  35.373  36.986  1.00  0.00     0.131 A 
ATOM     77  C   UNL A   1      38.700  34.402  39.317  1.00  0.00     0.055 A 
ATOM     78  C   UNL A   1      39.662  36.226  38.079  1.00  0.00     0.041 A 
ATOM     79  F   UNL A   1      40.368  35.884  35.871  1.00  0.00    -0.206 F 
ATOM     80  C   UNL A   1      39.091  35.742  39.253  1.00  0.00     0.022 A 
BRANCH  77  81
ATOM     81  S   UNL A   1      37.885  33.768  40.808  1.00  0.00     0.124 S 
ATOM     82  O   UNL A   1      36.737  33.068  40.244  1.00  0.00    -0.237 OA
ATOM     83  O   UNL A   1      38.927  32.929  41.392  1.00  0.00    -0.237 OA
ATOM     84  O   UNL A   1      37.570  34.978  41.564  1.00  0.00    -0.744 OA
ENDBRANCH  77  81
ENDBRANCH  50  74
BRANCH  62  85
ATOM     85  C   UNL A   1      44.026  28.926  35.583  1.00  0.00     0.023 A 
ATOM     86  C   UNL A   1      43.880  27.845  36.467  1.00  0.00     0.031 A 
ATOM     87  C   UNL A   1      45.319  29.424  35.343  1.00  0.00     0.131 A 
ATOM     88  C   UNL A   1      45.012  27.306  37.095  1.00  0.00     0.055 A 
ATOM     89  C   UNL A   1      46.445  28.853  35.935  1.00  0.00     0.041 A 
ATOM     90  F   UNL A   1      45.509  30.453  34.501  1.00  0.00    -0.206 F 
ATOM     91  C   UNL A   1      46.295  27.789  36.819  1.00  0.00     0.022 A 
BRANCH  88  92
ATOM     92  S   UNL A   1      44.788  25.966  38.297  1.00  0.00     0.124 S 
ATOM     93  O   UNL A   1      44.147  26.661  39.408  1.00  0.00    -0.237 OA
ATOM     94  O   UNL A   1      43.948  25.022  37.567  1.00  0.00    -0.237 OA
ATOM     95  O   UNL A   1      46.151  25.505  38.556  1.00  0.00    -0.744 OA
ENDBRANCH  88  92
ENDBRANCH  62  85
ENDBRANCH  36  37
ENDBRANCH  28  31
ENDBRANCH  26  27
ENDBRANCH  25  26
ENDBRANCH  24  25
ENDBRANCH   1  24
TORSDOF 19
ENDMDL
MODEL 2
REMARK VINA RESULT:     -10.9      1.492      7.977
REMARK SMILES C[C@H](Nc1cccc(F)c1C(=O)NCCCCCCNC(=O)c1ccc(-c2c3nc(c(-c4cc(S(=O)(=O)[O-])ccc4F)c4ccc([nH]4)c(-c4cc(S(=O)(=O)[O-])ccc4F)c4nc(c(-c5cc(S(=O)(=O)[O-])ccc5F)c5ccc2[nH]5)C=C4)C=C3)cc1)c1nccs1
REMARK SMILES IDX 16 1 15 2 14 3 13 4 11 5 12 6 10 8 4 9 5 10 6 11 8 12 7 13
REMARK SMILES IDX 9 14 3 15 2 17 1 18 86 19 87 20 90 21 88 22 89 23 17 24
REMARK SMILES IDX 18 25 19 26 20 27 21 28 22 30 23 31 24 32 85 33 25 34 84 35
REMARK SMILES IDX 26 36 27 37 28 38 78 39 29 40 83 41 77 42 79 43 30 44 82 45
REMARK SMILES IDX 76 46 75 47 31 49 63 50 43 51 62 52 44 53 47 54 61 55 80 56
REMARK SMILES IDX 45 57 46 58 60 60 81 61 48 62 32 63 33 64 41 65 34 66 40 67
REMARK SMILES IDX 42 68 39 69 35 70 36 71 37 72 38 73 64 74 65 75 73 76 66 77
REMARK SMILES IDX 72 78 74 79 71 80 67 81 68 82 69 83 70 84 49 85 50 86 58 87
REMARK SMILES IDX 51 88 57 89 59 90 56 91 52 92 53 93 54 94 55 95
REMARK H PARENT 13 7 3 16 20 29 79 48 47 59
REMARK Flexibility Score: inf
ROOT
ATOM      1  C   UNL A   1      32.916  30.025  26.364  1.00  0.00     0.002 C 
ENDROOT
BRANCH   1   2
ATOM      2  C   UNL A   1      33.053  28.511  26.543  1.00  0.00     0.021 C 
BRANCH   2   3
ATOM      3  C   UNL A   1      32.198  27.868  27.631  1.00  0.00     0.116 C 
BRANCH   3   4
ATOM      4  N   UNL A   1      31.112  27.067  27.103  1.00  0.00    -0.352 N 
ATOM      5  C   UNL A   1      30.867  26.552  25.854  1.00  0.00     0.256 C 
ATOM      6  O   UNL A   1      29.803  25.939  25.730  1.00  0.00    -0.269 OA
ATOM      7  H   UNL A   1      30.417  26.851  27.766  1.00  0.00     0.163 HD
BRANCH   5   8
ATOM      8  C   UNL A   1      31.744  26.758  24.659  1.00  0.00     0.098 A 
ATOM      9  C   UNL A   1      31.491  27.852  23.784  1.00  0.00     0.050 A 
ATOM     10  C   UNL A   1      32.392  28.110  22.734  1.00  0.00     0.027 A 
ATOM     11  C   UNL A   1      33.479  27.272  22.492  1.00  0.00     0.005 A 
ATOM     12  C   UNL A   1      32.768  25.871  24.318  1.00  0.00     0.138 A 
ATOM     13  C   UNL A   1      33.645  26.131  23.266  1.00  0.00     0.040 A 
ATOM     14  F   UNL A   1      32.906  24.690  24.939  1.00  0.00    -0.206 F 
BRANCH   9  15
ATOM     15  N   UNL A   1      30.311  28.601  23.873  1.00  0.00    -0.375 N 
ATOM     16  H   UNL A   1      30.179  29.185  24.655  1.00  0.00     0.161 HD
BRANCH  15  17
ATOM     17  C   UNL A   1      29.255  28.548  22.838  1.00  0.00     0.135 C 
ATOM     18  C   UNL A   1      28.002  27.782  23.302  1.00  0.00     0.039 C 
BRANCH  17  19
ATOM     19  C   UNL A   1      28.831  29.930  22.334  1.00  0.00     0.115 A 
ATOM     20  N   UNL A   1      28.284  30.169  21.155  1.00  0.00    -0.247 NA
ATOM     21  S   UNL A   1      29.038  31.326  23.333  1.00  0.00    -0.125 S 
ATOM     22  C   UNL A   1      28.040  31.522  21.019  1.00  0.00     0.123 A 
ATOM     23  C   UNL A   1      28.381  32.306  22.099  1.00  0.00     0.087 A 
ENDBRANCH  17  19
ENDBRANCH  15  17
ENDBRANCH   9  15
ENDBRANCH   5   8
ENDBRANCH   3   4
ENDBRANCH   2   3
ENDBRANCH   1   2
BRANCH   1  24
ATOM     24  C   UNL A   1      31.544  30.632  26.671  1.00  0.00     0.002 C 
BRANCH  24  25
ATOM     25  C   UNL A   1      31.470  32.160  26.701  1.00  0.00     0.021 C 
BRANCH  25  26
ATOM     26  C   UNL A   1      32.733  32.878  27.166  1.00  0.00     0.116 C 
BRANCH  26  27
ATOM     27  N   UNL A   1      32.465  34.209  27.679  1.00  0.00    -0.352 N 
ATOM     28  C   UNL A   1      33.052  34.875  28.729  1.00  0.00     0.251 C 
ATOM     29  H   UNL A   1      31.760  34.707  27.206  1.00  0.00     0.163 HD
ATOM     30  O   UNL A   1      32.570  35.934  29.116  1.00  0.00    -0.269 OA
BRANCH  28  31
ATOM     31  C   UNL A   1      34.240  34.305  29.405  1.00  0.00     0.039 A 
ATOM     32  C   UNL A   1      34.049  33.508  30.538  1.00  0.00     0.014 A 
ATOM     33  C   UNL A   1      35.535  34.563  28.946  1.00  0.00     0.014 A 
ATOM     34  C   UNL A   1      35.150  32.924  31.170  1.00  0.00     0.010 A 
ATOM     35  C   UNL A   1      36.625  33.922  29.533  1.00  0.00     0.010 A 
ATOM     36  C   UNL A   1      36.445  33.097  30.653  1.00  0.00    -0.014 A 
BRANCH  36  37
ATOM     37  C   UNL A   1      37.613  32.419  31.275  1.00  0.00     0.031 A 
ATOM     38  C   UNL A   1      38.155  32.896  32.597  1.00  0.00     0.074 A 
ATOM     39  C   UNL A   1      38.206  31.390  30.636  1.00  0.00     0.049 A 
ATOM     40  N   UNL A   1      39.191  32.463  33.268  1.00  0.00    -0.248 NA
ATOM     41  C   UNL A   1      37.454  34.021  33.239  1.00  0.00     0.031 C 
ATOM     42  C   UNL A   1      37.788  30.851  29.339  1.00  0.00     0.029 A 
ATOM     43  N   UNL A   1      39.279  30.607  30.986  1.00  0.00    -0.354 N 
ATOM     44  C   UNL A   1      39.269  33.259  34.404  1.00  0.00     0.074 A 
ATOM     45  C   UNL A   1      38.208  34.238  34.308  1.00  0.00     0.031 C 
ATOM     46  C   UNL A   1      38.569  29.805  29.024  1.00  0.00     0.029 A 
ATOM     47  C   UNL A   1      39.575  29.627  30.066  1.00  0.00     0.049 A 
ATOM     48  H   UNL A   1      39.790  30.736  31.817  1.00  0.00     0.167 HD
ATOM     49  C   UNL A   1      40.131  33.165  35.445  1.00  0.00     0.034 A 
ATOM     50  C   UNL A   1      40.549  28.695  30.054  1.00  0.00     0.034 A 
ATOM     51  C   UNL A   1      41.169  32.170  35.544  1.00  0.00     0.049 A 
ATOM     52  C   UNL A   1      41.519  28.636  31.205  1.00  0.00     0.074 A 
ATOM     53  C   UNL A   1      42.061  31.965  36.581  1.00  0.00     0.029 A 
ATOM     54  N   UNL A   1      41.455  31.218  34.576  1.00  0.00    -0.354 N 
ATOM     55  N   UNL A   1      41.568  29.392  32.278  1.00  0.00    -0.248 NA
ATOM     56  C   UNL A   1      42.564  27.605  31.147  1.00  0.00     0.031 C 
ATOM     57  C   UNL A   1      42.929  30.934  36.212  1.00  0.00     0.029 A 
ATOM     58  C   UNL A   1      42.531  30.445  34.979  1.00  0.00     0.049 A 
ATOM     59  H   UNL A   1      40.967  31.110  33.728  1.00  0.00     0.167 HD
ATOM     60  C   UNL A   1      42.633  28.911  33.032  1.00  0.00     0.074 A 
ATOM     61  C   UNL A   1      43.199  27.800  32.297  1.00  0.00     0.031 C 
ATOM     62  C   UNL A   1      43.092  29.346  34.231  1.00  0.00     0.034 A 
BRANCH  49  63
ATOM     63  C   UNL A   1      40.002  34.166  36.563  1.00  0.00     0.023 A 
ATOM     64  C   UNL A   1      39.487  33.802  37.818  1.00  0.00     0.031 A 
ATOM     65  C   UNL A   1      40.452  35.487  36.388  1.00  0.00     0.131 A 
ATOM     66  C   UNL A   1      39.406  34.758  38.843  1.00  0.00     0.055 A 
ATOM     67  C   UNL A   1      40.425  36.416  37.429  1.00  0.00     0.041 A 
ATOM     68  F   UNL A   1      40.938  35.891  35.203  1.00  0.00    -0.206 F 
ATOM     69  C   UNL A   1      39.895  36.054  38.664  1.00  0.00     0.022 A 
BRANCH  66  70
ATOM     70  S   UNL A   1      38.595  34.300  40.398  1.00  0.00     0.124 S 
ATOM     71  O   UNL A   1      38.331  35.609  40.989  1.00  0.00    -0.237 OA
ATOM     72  O   UNL A   1      37.424  33.559  39.940  1.00  0.00    -0.237 OA
ATOM     73  O   UNL A   1      39.605  33.502  41.089  1.00  0.00    -0.744 OA
ENDBRANCH  66  70
ENDBRANCH  49  63
BRANCH  50  74
ATOM     74  C   UNL A   1      40.661  27.748  28.910  1.00  0.00     0.023 A 
ATOM     75  C   UNL A   1      41.592  27.960  27.881  1.00  0.00     0.031 A 
ATOM     76  C   UNL A   1      39.838  26.610  28.832  1.00  0.00     0.131 A 
ATOM     77  C   UNL A   1      41.664  27.060  26.806  1.00  0.00     0.055 A 
ATOM     78  C   UNL A   1      39.941  25.695  27.783  1.00  0.00     0.041 A 
ATOM     79  F   UNL A   1      38.937  26.357  29.794  1.00  0.00    -0.206 F 
ATOM     80  C   UNL A   1      40.855  25.921  26.758  1.00  0.00     0.022 A 
BRANCH  77  81
ATOM     81  S   UNL A   1      42.807  27.415  25.444  1.00  0.00     0.124 S 
ATOM     82  O   UNL A   1      42.111  28.488  24.744  1.00  0.00    -0.237 OA
ATOM     83  O   UNL A   1      44.023  27.795  26.158  1.00  0.00    -0.237 OA
ATOM     84  O   UNL A   1      42.884  26.146  24.725  1.00  0.00    -0.744 OA
ENDBRANCH  77  81
ENDBRANCH  50  74
BRANCH  62  85
ATOM     85  C   UNL A   1      44.247  28.606  34.851  1.00  0.00     0.023 A 
ATOM     86  C   UNL A   1      44.056  27.421  35.579  1.00  0.00     0.031 A 
ATOM     87  C   UNL A   1      45.563  29.057  34.642  1.00  0.00     0.131 A 
ATOM     88  C   UNL A   1      45.167  26.733  36.088  1.00  0.00     0.055 A 
ATOM     89  C   UNL A   1      46.666  28.344  35.110  1.00  0.00     0.041 A 
ATOM     90  F   UNL A   1      45.796  30.183  33.947  1.00  0.00    -0.206 F 
ATOM     91  C   UNL A   1      46.471  27.175  35.841  1.00  0.00     0.022 A 
BRANCH  88  92
ATOM     92  S   UNL A   1      44.889  25.250  37.095  1.00  0.00     0.124 S 
ATOM     93  O   UNL A   1      45.247  24.183  36.166  1.00  0.00    -0.237 OA
ATOM     94  O   UNL A   1      45.802  25.452  38.215  1.00  0.00    -0.237 OA
ATOM     95  O   UNL A   1      43.469  25.327  37.436  1.00  0.00    -0.744 OA
ENDBRANCH  88  92
ENDBRANCH  62  85
ENDBRANCH  36  37
ENDBRANCH  28  31
ENDBRANCH  26  27
ENDBRANCH  25  26
ENDBRANCH  24  25
ENDBRANCH   1  24
TORSDOF 19
ENDMDL
MODEL 3
REMARK VINA RESULT:     -10.9      1.466      2.445
REMARK SMILES C[C@H](Nc1cccc(F)c1C(=O)NCCCCCCNC(=O)c1ccc(-c2c3nc(c(-c4cc(S(=O)(=O)[O-])ccc4F)c4ccc([nH]4)c(-c4cc(S(=O)(=O)[O-])ccc4F)c4nc(c(-c5cc(S(=O)(=O)[O-])ccc5F)c5ccc2[nH]5)C=C4)C=C3)cc1)c1nccs1
REMARK SMILES IDX 16 1 15 2 14 3 13 4 11 5 12 6 10 8 4 9 5 10 6 11 8 12 7 13
REMARK SMILES IDX 9 14 3 15 2 17 1 18 86 19 87 20 90 21 88 22 89 23 17 24
REMARK SMILES IDX 18 25 19 26 20 27 21 28 22 30 23 31 24 32 85 33 25 34 84 35
REMARK SMILES IDX 26 36 27 37 28 38 78 39 29 40 83 41 77 42 79 43 30 44 82 45
REMARK SMILES IDX 76 46 75 47 31 49 63 50 43 51 62 52 44 53 47 54 61 55 80 56
REMARK SMILES IDX 45 57 46 58 60 60 81 61 48 62 32 63 33 64 41 65 34 66 40 67
REMARK SMILES IDX 42 68 39 69 35 70 36 71 37 72 38 73 64 74 65 75 73 76 66 77
REMARK SMILES IDX 72 78 74 79 71 80 67 81 68 82 69 83 70 84 49 85 50 86 58 87
REMARK SMILES IDX 51 88 57 89 59 90 56 91 52 92 53 93 54 94 55 95
REMARK H PARENT 13 7 3 16 20 29 79 48 47 59
REMARK Flexibility Score: inf
ROOT
ATOM      1  C   UNL A   1      32.254  29.873  27.195  1.00  0.00     0.002 C 
ENDROOT
BRANCH   1   2
ATOM      2  C   UNL A   1      31.589  28.603  27.732  1.00  0.00     0.021 C 
BRANCH   2   3
ATOM      3  C   UNL A   1      32.193  27.273  27.292  1.00  0.00     0.116 C 
BRANCH   3   4
ATOM      4  N   UNL A   1      31.281  26.465  26.508  1.00  0.00    -0.352 N 
ATOM      5  C   UNL A   1      31.097  26.331  25.155  1.00  0.00     0.256 C 
ATOM      6  O   UNL A   1      30.184  25.574  24.814  1.00  0.00    -0.269 OA
ATOM      7  H   UNL A   1      30.678  25.906  27.050  1.00  0.00     0.163 HD
BRANCH   5   8
ATOM      8  C   UNL A   1      31.856  27.088  24.111  1.00  0.00     0.098 A 
ATOM      9  C   UNL A   1      33.167  26.665  23.752  1.00  0.00     0.050 A 
ATOM     10  C   UNL A   1      33.824  27.306  22.685  1.00  0.00     0.027 A 
ATOM     11  C   UNL A   1      33.247  28.392  22.029  1.00  0.00     0.005 A 
ATOM     12  C   UNL A   1      31.358  28.251  23.518  1.00  0.00     0.138 A 
ATOM     13  C   UNL A   1      32.027  28.885  22.471  1.00  0.00     0.040 A 
ATOM     14  F   UNL A   1      30.253  28.854  23.979  1.00  0.00    -0.206 F 
BRANCH   9  15
ATOM     15  N   UNL A   1      33.858  25.710  24.507  1.00  0.00    -0.375 N 
ATOM     16  H   UNL A   1      34.503  26.018  25.184  1.00  0.00     0.161 HD
BRANCH  15  17
ATOM     17  C   UNL A   1      33.657  24.255  24.325  1.00  0.00     0.135 C 
ATOM     18  C   UNL A   1      34.753  23.604  23.459  1.00  0.00     0.039 C 
BRANCH  17  19
ATOM     19  C   UNL A   1      33.552  23.488  25.646  1.00  0.00     0.115 A 
ATOM     20  N   UNL A   1      32.447  23.363  26.361  1.00  0.00    -0.247 NA
ATOM     21  S   UNL A   1      34.936  22.688  26.306  1.00  0.00    -0.125 S 
ATOM     22  C   UNL A   1      32.707  22.623  27.499  1.00  0.00     0.123 A 
ATOM     23  C   UNL A   1      34.000  22.171  27.638  1.00  0.00     0.087 A 
ENDBRANCH  17  19
ENDBRANCH  15  17
ENDBRANCH   9  15
ENDBRANCH   5   8
ENDBRANCH   3   4
ENDBRANCH   2   3
ENDBRANCH   1   2
BRANCH   1  24
ATOM     24  C   UNL A   1      31.435  30.713  26.210  1.00  0.00     0.002 C 
BRANCH  24  25
ATOM     25  C   UNL A   1      31.398  32.220  26.470  1.00  0.00     0.021 C 
BRANCH  25  26
ATOM     26  C   UNL A   1      32.509  32.768  27.360  1.00  0.00     0.116 C 
BRANCH  26  27
ATOM     27  N   UNL A   1      32.330  34.172  27.681  1.00  0.00    -0.352 N 
ATOM     28  C   UNL A   1      32.977  34.944  28.616  1.00  0.00     0.251 C 
ATOM     29  H   UNL A   1      31.645  34.639  27.150  1.00  0.00     0.163 HD
ATOM     30  O   UNL A   1      32.566  36.075  28.853  1.00  0.00    -0.269 OA
BRANCH  28  31
ATOM     31  C   UNL A   1      34.144  34.406  29.352  1.00  0.00     0.039 A 
ATOM     32  C   UNL A   1      33.932  33.793  30.590  1.00  0.00     0.014 A 
ATOM     33  C   UNL A   1      35.442  34.516  28.843  1.00  0.00     0.014 A 
ATOM     34  C   UNL A   1      35.010  33.240  31.286  1.00  0.00     0.010 A 
ATOM     35  C   UNL A   1      36.505  33.901  29.502  1.00  0.00     0.010 A 
ATOM     36  C   UNL A   1      36.302  33.257  30.732  1.00  0.00    -0.014 A 
BRANCH  36  37
ATOM     37  C   UNL A   1      37.441  32.605  31.430  1.00  0.00     0.031 A 
ATOM     38  C   UNL A   1      38.168  31.453  30.788  1.00  0.00     0.074 A 
ATOM     39  C   UNL A   1      37.804  33.031  32.657  1.00  0.00     0.049 A 
ATOM     40  N   UNL A   1      39.150  30.731  31.263  1.00  0.00    -0.248 NA
ATOM     41  C   UNL A   1      37.720  31.046  29.445  1.00  0.00     0.031 C 
ATOM     42  C   UNL A   1      37.161  34.123  33.394  1.00  0.00     0.029 A 
ATOM     43  N   UNL A   1      38.801  32.608  33.502  1.00  0.00    -0.354 N 
ATOM     44  C   UNL A   1      39.435  29.786  30.284  1.00  0.00     0.074 A 
ATOM     45  C   UNL A   1      38.488  29.991  29.210  1.00  0.00     0.031 C 
ATOM     46  C   UNL A   1      37.804  34.307  34.558  1.00  0.00     0.029 A 
ATOM     47  C   UNL A   1      38.871  33.319  34.679  1.00  0.00     0.049 A 
ATOM     48  H   UNL A   1      39.409  31.865  33.285  1.00  0.00     0.167 HD
ATOM     49  C   UNL A   1      40.415  28.850  30.273  1.00  0.00     0.034 A 
ATOM     50  C   UNL A   1      39.692  33.186  35.740  1.00  0.00     0.034 A 
ATOM     51  C   UNL A   1      41.370  28.670  31.337  1.00  0.00     0.049 A 
ATOM     52  C   UNL A   1      40.747  32.113  35.719  1.00  0.00     0.074 A 
ATOM     53  C   UNL A   1      42.428  27.781  31.396  1.00  0.00     0.029 A 
ATOM     54  N   UNL A   1      41.384  29.387  32.524  1.00  0.00    -0.354 N 
ATOM     55  N   UNL A   1      41.009  31.235  34.777  1.00  0.00    -0.248 NA
ATOM     56  C   UNL A   1      41.617  32.006  36.898  1.00  0.00     0.031 C 
ATOM     57  C   UNL A   1      43.040  27.913  32.644  1.00  0.00     0.029 A 
ATOM     58  C   UNL A   1      42.413  28.937  33.334  1.00  0.00     0.049 A 
ATOM     59  H   UNL A   1      40.755  30.109  32.757  1.00  0.00     0.167 HD
ATOM     60  C   UNL A   1      42.088  30.491  35.241  1.00  0.00     0.074 A 
ATOM     61  C   UNL A   1      42.432  31.019  36.544  1.00  0.00     0.031 C 
ATOM     62  C   UNL A   1      42.739  29.468  34.636  1.00  0.00     0.034 A 
BRANCH  49  63
ATOM     63  C   UNL A   1      40.506  27.936  29.079  1.00  0.00     0.023 A 
ATOM     64  C   UNL A   1      41.418  28.178  28.037  1.00  0.00     0.031 A 
ATOM     65  C   UNL A   1      39.711  26.779  29.009  1.00  0.00     0.131 A 
ATOM     66  C   UNL A   1      41.489  27.290  26.954  1.00  0.00     0.055 A 
ATOM     67  C   UNL A   1      39.830  25.868  27.958  1.00  0.00     0.041 A 
ATOM     68  F   UNL A   1      38.812  26.509  29.970  1.00  0.00    -0.206 F 
ATOM     69  C   UNL A   1      40.721  26.124  26.920  1.00  0.00     0.022 A 
BRANCH  66  70
ATOM     70  S   UNL A   1      42.561  27.711  25.553  1.00  0.00     0.124 S 
ATOM     71  O   UNL A   1      42.530  26.475  24.777  1.00  0.00    -0.237 OA
ATOM     72  O   UNL A   1      41.876  28.855  24.960  1.00  0.00    -0.237 OA
ATOM     73  O   UNL A   1      43.845  28.013  26.183  1.00  0.00    -0.744 OA
ENDBRANCH  66  70
ENDBRANCH  49  63
BRANCH  50  74
ATOM     74  C   UNL A   1      39.542  34.089  36.915  1.00  0.00     0.023 A 
ATOM     75  C   UNL A   1      38.982  33.629  38.117  1.00  0.00     0.031 A 
ATOM     76  C   UNL A   1      39.964  35.430  36.854  1.00  0.00     0.131 A 
ATOM     77  C   UNL A   1      38.837  34.507  39.203  1.00  0.00     0.055 A 
ATOM     78  C   UNL A   1      39.857  36.288  37.949  1.00  0.00     0.041 A 
ATOM     79  F   UNL A   1      40.513  35.917  35.730  1.00  0.00    -0.206 F 
ATOM     80  C   UNL A   1      39.284  35.829  39.131  1.00  0.00     0.022 A 
BRANCH  77  81
ATOM     81  S   UNL A   1      38.019  33.909  40.707  1.00  0.00     0.124 S 
ATOM     82  O   UNL A   1      36.936  33.104  40.156  1.00  0.00    -0.237 OA
ATOM     83  O   UNL A   1      39.094  33.174  41.367  1.00  0.00    -0.237 OA
ATOM     84  O   UNL A   1      37.605  35.137  41.380  1.00  0.00    -0.744 OA
ENDBRANCH  77  81
ENDBRANCH  50  74
BRANCH  62  85
ATOM     85  C   UNL A   1      43.917  28.862  35.354  1.00  0.00     0.023 A 
ATOM     86  C   UNL A   1      43.753  27.842  36.304  1.00  0.00     0.031 A 
ATOM     87  C   UNL A   1      45.223  29.263  35.021  1.00  0.00     0.131 A 
ATOM     88  C   UNL A   1      44.882  27.265  36.904  1.00  0.00     0.055 A 
ATOM     89  C   UNL A   1      46.343  28.653  35.587  1.00  0.00     0.041 A 
ATOM     90  F   UNL A   1      45.431  30.231  34.114  1.00  0.00    -0.206 F 
ATOM     91  C   UNL A   1      46.175  27.650  36.536  1.00  0.00     0.022 A 
BRANCH  88  92
ATOM     92  S   UNL A   1      44.641  26.008  38.189  1.00  0.00     0.124 S 
ATOM     93  O   UNL A   1      44.469  24.795  37.396  1.00  0.00    -0.237 OA
ATOM     94  O   UNL A   1      45.879  26.097  38.956  1.00  0.00    -0.237 OA
ATOM     95  O   UNL A   1      43.444  26.463  38.895  1.00  0.00    -0.744 OA
ENDBRANCH  88  92
ENDBRANCH  62  85
ENDBRANCH  36  37
ENDBRANCH  28  31
ENDBRANCH  26  27
ENDBRANCH  25  26
ENDBRANCH  24  25
ENDBRANCH   1  24
TORSDOF 19
ENDMDL
