MODEL 1
REMARK VINA RESULT:      -9.8      0.000      0.000
REMARK SMILES O=C(CCCC(=O)Nc1ccccc1F)NCCCCCCNC(=O)c1ccc(-c2c3nc(c(-c4cc(S(=O)(=O)[O-])ccc4F)c4ccc([nH]4)c(-c4cc(S(=O)(=O)[O-])ccc4F)c4nc(c(-c5cc(S(=O)(=O)[O-])ccc5F)c5ccc2[nH]5)C=C4)C=C3)cc1
REMARK SMILES IDX 19 1 18 2 17 3 16 4 1 5 2 6 3 8 4 9 5 10 6 11 7 12 8 13 9 15
REMARK SMILES IDX 10 16 14 17 11 18 13 19 15 20 12 21 20 22 21 23 22 24 23 25
REMARK SMILES IDX 24 26 25 28 26 29 27 30 88 31 28 32 87 33 29 34 30 35 31 36
REMARK SMILES IDX 81 37 32 38 86 39 80 40 82 41 33 42 85 43 79 44 78 45 34 47
REMARK SMILES IDX 66 48 46 49 65 50 47 51 50 52 64 53 83 54 48 55 49 56 63 58
REMARK SMILES IDX 84 59 51 60 35 61 36 62 44 63 37 64 43 65 45 66 42 67 38 68
REMARK SMILES IDX 39 69 40 70 41 71 67 72 68 73 76 74 69 75 75 76 77 77 74 78
REMARK SMILES IDX 70 79 71 80 72 81 73 82 52 83 53 84 61 85 54 86 60 87 62 88
REMARK SMILES IDX 59 89 55 90 56 91 57 92 58 93
REMARK H PARENT 16 7 8 14 23 27 82 46 50 57
REMARK Flexibility Score: inf
ROOT
ATOM      1  C   UNL A   1      40.704  22.320  26.775  1.00  0.00     0.002 C 
ENDROOT
BRANCH   1   2
ATOM      2  C   UNL A   1      39.294  22.866  26.515  1.00  0.00     0.021 C 
BRANCH   2   3
ATOM      3  C   UNL A   1      38.359  21.928  25.750  1.00  0.00     0.116 C 
BRANCH   3   4
ATOM      4  N   UNL A   1      36.961  22.247  25.946  1.00  0.00    -0.356 N 
ATOM      5  O   UNL A   1      36.164  20.322  25.002  1.00  0.00    -0.275 OA
ATOM      6  C   UNL A   1      35.955  21.394  25.561  1.00  0.00     0.220 C 
ATOM      7  H   UNL A   1      36.724  23.103  26.369  1.00  0.00     0.163 HD
BRANCH   6   8
ATOM      8  C   UNL A   1      34.545  21.912  25.794  1.00  0.00     0.100 C 
BRANCH   8   9
ATOM      9  C   UNL A   1      33.434  21.449  24.846  1.00  0.00     0.020 C 
BRANCH   9  10
ATOM     10  C   UNL A   1      33.164  22.218  23.557  1.00  0.00     0.101 C 
BRANCH  10  11
ATOM     11  C   UNL A   1      34.005  23.447  23.198  1.00  0.00     0.224 C 
ATOM     12  O   UNL A   1      35.131  23.324  22.714  1.00  0.00    -0.275 OA
ATOM     13  N   UNL A   1      33.371  24.664  23.130  1.00  0.00    -0.324 N 
ATOM     14  H   UNL A   1      33.449  25.144  22.275  1.00  0.00     0.170 HD
BRANCH  13  15
ATOM     15  C   UNL A   1      32.628  25.305  24.131  1.00  0.00     0.077 A 
ATOM     16  C   UNL A   1      31.324  25.709  23.837  1.00  0.00     0.029 A 
ATOM     17  C   UNL A   1      33.156  25.600  25.389  1.00  0.00     0.146 A 
ATOM     18  C   UNL A   1      30.521  26.265  24.839  1.00  0.00     0.002 A 
ATOM     19  C   UNL A   1      32.369  26.179  26.384  1.00  0.00     0.041 A 
ATOM     20  F   UNL A   1      34.440  25.328  25.665  1.00  0.00    -0.205 F 
ATOM     21  C   UNL A   1      31.037  26.481  26.118  1.00  0.00     0.003 A 
ENDBRANCH  13  15
ENDBRANCH  10  11
ENDBRANCH   9  10
ENDBRANCH   8   9
ENDBRANCH   6   8
ENDBRANCH   3   4
ENDBRANCH   2   3
ENDBRANCH   1   2
BRANCH   1  22
ATOM     22  C   UNL A   1      40.768  20.866  27.250  1.00  0.00     0.002 C 
BRANCH  22  23
ATOM     23  C   UNL A   1      41.263  19.857  26.210  1.00  0.00     0.021 C 
BRANCH  23  24
ATOM     24  C   UNL A   1      42.588  19.175  26.541  1.00  0.00     0.116 C 
BRANCH  24  25
ATOM     25  N   UNL A   1      43.459  19.060  25.384  1.00  0.00    -0.352 N 
ATOM     26  C   UNL A   1      44.136  20.044  24.701  1.00  0.00     0.251 C 
ATOM     27  H   UNL A   1      43.584  18.147  25.039  1.00  0.00     0.163 HD
ATOM     28  O   UNL A   1      44.690  19.771  23.641  1.00  0.00    -0.269 OA
BRANCH  26  29
ATOM     29  C   UNL A   1      44.172  21.429  25.226  1.00  0.00     0.039 A 
ATOM     30  C   UNL A   1      44.734  21.654  26.485  1.00  0.00     0.014 A 
ATOM     31  C   UNL A   1      43.648  22.500  24.495  1.00  0.00     0.014 A 
ATOM     32  C   UNL A   1      44.831  22.958  26.980  1.00  0.00     0.010 A 
ATOM     33  C   UNL A   1      43.801  23.807  24.963  1.00  0.00     0.010 A 
ATOM     34  C   UNL A   1      44.399  24.050  26.208  1.00  0.00    -0.014 A 
BRANCH  34  35
ATOM     35  C   UNL A   1      44.593  25.445  26.691  1.00  0.00     0.031 A 
ATOM     36  C   UNL A   1      45.945  26.101  26.616  1.00  0.00     0.074 A 
ATOM     37  C   UNL A   1      43.547  26.114  27.219  1.00  0.00     0.049 A 
ATOM     38  N   UNL A   1      46.300  27.298  27.006  1.00  0.00    -0.248 NA
ATOM     39  C   UNL A   1      47.046  25.308  26.046  1.00  0.00     0.031 C 
ATOM     40  C   UNL A   1      42.195  25.574  27.375  1.00  0.00     0.029 A 
ATOM     41  N   UNL A   1      43.450  27.391  27.715  1.00  0.00    -0.354 N 
ATOM     42  C   UNL A   1      47.659  27.402  26.731  1.00  0.00     0.074 A 
ATOM     43  C   UNL A   1      48.077  26.130  26.184  1.00  0.00     0.031 C 
ATOM     44  C   UNL A   1      41.398  26.524  27.889  1.00  0.00     0.029 A 
ATOM     45  C   UNL A   1      42.186  27.727  28.141  1.00  0.00     0.049 A 
ATOM     46  H   UNL A   1      44.215  28.009  27.761  1.00  0.00     0.167 HD
ATOM     47  C   UNL A   1      48.477  28.470  26.899  1.00  0.00     0.034 A 
ATOM     48  C   UNL A   1      41.710  28.870  28.677  1.00  0.00     0.034 A 
ATOM     49  C   UNL A   1      48.048  29.743  27.420  1.00  0.00     0.049 A 
ATOM     50  C   UNL A   1      42.644  30.035  28.868  1.00  0.00     0.074 A 
ATOM     51  C   UNL A   1      48.795  30.897  27.582  1.00  0.00     0.029 A 
ATOM     52  N   UNL A   1      46.764  30.033  27.857  1.00  0.00    -0.354 N 
ATOM     53  N   UNL A   1      43.925  30.114  28.589  1.00  0.00    -0.248 NA
ATOM     54  C   UNL A   1      42.077  31.264  29.440  1.00  0.00     0.031 C 
ATOM     55  C   UNL A   1      47.979  31.867  28.170  1.00  0.00     0.029 A 
ATOM     56  C   UNL A   1      46.706  31.340  28.310  1.00  0.00     0.049 A 
ATOM     57  H   UNL A   1      46.007  29.404  27.847  1.00  0.00     0.167 HD
ATOM     58  C   UNL A   1      44.305  31.409  28.925  1.00  0.00     0.074 A 
ATOM     59  C   UNL A   1      43.125  32.077  29.431  1.00  0.00     0.031 C 
ATOM     60  C   UNL A   1      45.523  31.993  28.812  1.00  0.00     0.034 A 
BRANCH  47  61
ATOM     61  C   UNL A   1      49.926  28.318  26.520  1.00  0.00     0.023 A 
ATOM     62  C   UNL A   1      50.371  28.577  25.214  1.00  0.00     0.031 A 
ATOM     63  C   UNL A   1      50.881  27.981  27.496  1.00  0.00     0.131 A 
ATOM     64  C   UNL A   1      51.736  28.470  24.911  1.00  0.00     0.055 A 
ATOM     65  C   UNL A   1      52.244  27.932  27.200  1.00  0.00     0.041 A 
ATOM     66  F   UNL A   1      50.504  27.712  28.755  1.00  0.00    -0.206 F 
ATOM     67  C   UNL A   1      52.678  28.175  25.900  1.00  0.00     0.022 A 
BRANCH  64  68
ATOM     68  S   UNL A   1      52.266  28.679  23.189  1.00  0.00     0.124 S 
ATOM     69  O   UNL A   1      53.195  29.801  23.304  1.00  0.00    -0.237 OA
ATOM     70  O   UNL A   1      52.862  27.386  22.880  1.00  0.00    -0.237 OA
ATOM     71  O   UNL A   1      51.022  28.977  22.481  1.00  0.00    -0.744 OA
ENDBRANCH  64  68
ENDBRANCH  47  61
BRANCH  48  72
ATOM     72  C   UNL A   1      40.277  28.967  29.074  1.00  0.00     0.023 A 
ATOM     73  C   UNL A   1      39.892  28.903  30.422  1.00  0.00     0.031 A 
ATOM     74  C   UNL A   1      39.269  29.121  28.105  1.00  0.00     0.131 A 
ATOM     75  C   UNL A   1      38.532  28.967  30.764  1.00  0.00     0.055 A 
ATOM     76  C   UNL A   1      37.923  29.227  28.454  1.00  0.00     0.041 A 
ATOM     77  F   UNL A   1      39.587  29.195  26.802  1.00  0.00    -0.206 F 
ATOM     78  C   UNL A   1      37.547  29.142  29.790  1.00  0.00     0.022 A 
BRANCH  75  79
ATOM     79  S   UNL A   1      38.061  28.775  32.505  1.00  0.00     0.124 S 
ATOM     80  O   UNL A   1      38.153  27.329  32.678  1.00  0.00    -0.237 OA
ATOM     81  O   UNL A   1      39.078  29.569  33.186  1.00  0.00    -0.237 OA
ATOM     82  O   UNL A   1      36.709  29.326  32.554  1.00  0.00    -0.744 OA
ENDBRANCH  75  79
ENDBRANCH  48  72
BRANCH  60  83
ATOM     83  C   UNL A   1      45.646  33.442  29.197  1.00  0.00     0.023 A 
ATOM     84  C   UNL A   1      45.233  34.470  28.335  1.00  0.00     0.031 A 
ATOM     85  C   UNL A   1      46.106  33.788  30.479  1.00  0.00     0.131 A 
ATOM     86  C   UNL A   1      45.299  35.804  28.765  1.00  0.00     0.055 A 
ATOM     87  C   UNL A   1      46.132  35.112  30.915  1.00  0.00     0.041 A 
ATOM     88  F   UNL A   1      46.505  32.837  31.340  1.00  0.00    -0.206 F 
ATOM     89  C   UNL A   1      45.729  36.129  30.055  1.00  0.00     0.022 A 
BRANCH  86  90
ATOM     90  S   UNL A   1      44.813  37.119  27.615  1.00  0.00     0.124 S 
ATOM     91  O   UNL A   1      46.103  37.551  27.087  1.00  0.00    -0.237 OA
ATOM     92  O   UNL A   1      43.944  36.417  26.676  1.00  0.00    -0.237 OA
ATOM     93  O   UNL A   1      44.137  38.092  28.472  1.00  0.00    -0.744 OA
ENDBRANCH  86  90
ENDBRANCH  60  83
ENDBRANCH  34  35
ENDBRANCH  26  29
ENDBRANCH  24  25
ENDBRANCH  23  24
ENDBRANCH  22  23
ENDBRANCH   1  22
TORSDOF 20
ENDMDL
MODEL 2
REMARK VINA RESULT:      -9.7      6.309     11.654
REMARK SMILES O=C(CCCC(=O)Nc1ccccc1F)NCCCCCCNC(=O)c1ccc(-c2c3nc(c(-c4cc(S(=O)(=O)[O-])ccc4F)c4ccc([nH]4)c(-c4cc(S(=O)(=O)[O-])ccc4F)c4nc(c(-c5cc(S(=O)(=O)[O-])ccc5F)c5ccc2[nH]5)C=C4)C=C3)cc1
REMARK SMILES IDX 19 1 18 2 17 3 16 4 1 5 2 6 3 8 4 9 5 10 6 11 7 12 8 13 9 15
REMARK SMILES IDX 10 16 14 17 11 18 13 19 15 20 12 21 20 22 21 23 22 24 23 25
REMARK SMILES IDX 24 26 25 28 26 29 27 30 88 31 28 32 87 33 29 34 30 35 31 36
REMARK SMILES IDX 81 37 32 38 86 39 80 40 82 41 33 42 85 43 79 44 78 45 34 47
REMARK SMILES IDX 66 48 46 49 65 50 47 51 50 52 64 53 83 54 48 55 49 56 63 58
REMARK SMILES IDX 84 59 51 60 35 61 36 62 44 63 37 64 43 65 45 66 42 67 38 68
REMARK SMILES IDX 39 69 40 70 41 71 67 72 68 73 76 74 69 75 75 76 77 77 74 78
REMARK SMILES IDX 70 79 71 80 72 81 73 82 52 83 53 84 61 85 54 86 60 87 62 88
REMARK SMILES IDX 59 89 55 90 56 91 57 92 58 93
REMARK H PARENT 16 7 8 14 23 27 82 46 50 57
REMARK Flexibility Score: inf
ROOT
ATOM      1  C   UNL A   1      35.288  32.465  28.609  1.00  0.00     0.002 C 
ENDROOT
BRANCH   1   2
ATOM      2  C   UNL A   1      35.650  31.283  27.700  1.00  0.00     0.021 C 
BRANCH   2   3
ATOM      3  C   UNL A   1      35.273  29.902  28.240  1.00  0.00     0.116 C 
BRANCH   3   4
ATOM      4  N   UNL A   1      34.627  29.069  27.248  1.00  0.00    -0.356 N 
ATOM      5  O   UNL A   1      32.570  30.049  27.446  1.00  0.00    -0.275 OA
ATOM      6  C   UNL A   1      33.304  29.221  26.914  1.00  0.00     0.220 C 
ATOM      7  H   UNL A   1      35.154  28.370  26.799  1.00  0.00     0.163 HD
BRANCH   6   8
ATOM      8  C   UNL A   1      32.776  28.226  25.892  1.00  0.00     0.100 C 
BRANCH   8   9
ATOM      9  C   UNL A   1      33.212  26.762  26.011  1.00  0.00     0.020 C 
BRANCH   9  10
ATOM     10  C   UNL A   1      32.237  25.646  25.646  1.00  0.00     0.101 C 
BRANCH  10  11
ATOM     11  C   UNL A   1      32.342  24.275  26.320  1.00  0.00     0.224 C 
ATOM     12  O   UNL A   1      31.645  23.994  27.296  1.00  0.00    -0.275 OA
ATOM     13  N   UNL A   1      32.985  23.270  25.638  1.00  0.00    -0.324 N 
ATOM     14  H   UNL A   1      32.461  22.451  25.482  1.00  0.00     0.170 HD
BRANCH  13  15
ATOM     15  C   UNL A   1      34.294  23.268  25.139  1.00  0.00     0.077 A 
ATOM     16  C   UNL A   1      35.334  23.637  25.994  1.00  0.00     0.029 A 
ATOM     17  C   UNL A   1      34.593  22.963  23.810  1.00  0.00     0.146 A 
ATOM     18  C   UNL A   1      36.661  23.556  25.559  1.00  0.00     0.002 A 
ATOM     19  C   UNL A   1      35.912  22.907  23.362  1.00  0.00     0.041 A 
ATOM     20  F   UNL A   1      33.608  22.716  22.935  1.00  0.00    -0.205 F 
ATOM     21  C   UNL A   1      36.951  23.171  24.249  1.00  0.00     0.003 A 
ENDBRANCH  13  15
ENDBRANCH  10  11
ENDBRANCH   9  10
ENDBRANCH   8   9
ENDBRANCH   6   8
ENDBRANCH   3   4
ENDBRANCH   2   3
ENDBRANCH   1   2
BRANCH   1  22
ATOM     22  C   UNL A   1      35.481  33.852  27.992  1.00  0.00     0.002 C 
BRANCH  22  23
ATOM     23  C   UNL A   1      34.343  34.845  28.242  1.00  0.00     0.021 C 
BRANCH  23  24
ATOM     24  C   UNL A   1      33.182  34.312  29.078  1.00  0.00     0.116 C 
BRANCH  24  25
ATOM     25  N   UNL A   1      32.926  35.122  30.256  1.00  0.00    -0.352 N 
ATOM     26  C   UNL A   1      33.542  35.091  31.485  1.00  0.00     0.251 C 
ATOM     27  H   UNL A   1      32.209  35.788  30.161  1.00  0.00     0.163 HD
ATOM     28  O   UNL A   1      33.071  35.741  32.414  1.00  0.00    -0.269 OA
BRANCH  26  29
ATOM     29  C   UNL A   1      34.750  34.259  31.697  1.00  0.00     0.039 A 
ATOM     30  C   UNL A   1      36.001  34.803  31.393  1.00  0.00     0.014 A 
ATOM     31  C   UNL A   1      34.658  32.949  32.178  1.00  0.00     0.014 A 
ATOM     32  C   UNL A   1      37.160  34.059  31.634  1.00  0.00     0.010 A 
ATOM     33  C   UNL A   1      35.818  32.231  32.476  1.00  0.00     0.010 A 
ATOM     34  C   UNL A   1      37.081  32.781  32.213  1.00  0.00    -0.014 A 
BRANCH  34  35
ATOM     35  C   UNL A   1      38.318  32.029  32.563  1.00  0.00     0.031 A 
ATOM     36  C   UNL A   1      39.056  32.321  33.841  1.00  0.00     0.074 A 
ATOM     37  C   UNL A   1      38.787  31.094  31.711  1.00  0.00     0.049 A 
ATOM     38  N   UNL A   1      40.157  31.779  34.296  1.00  0.00    -0.248 NA
ATOM     39  C   UNL A   1      38.499  33.366  34.715  1.00  0.00     0.031 C 
ATOM     40  C   UNL A   1      38.178  30.743  30.426  1.00  0.00     0.029 A 
ATOM     41  N   UNL A   1      39.876  30.261  31.796  1.00  0.00    -0.354 N 
ATOM     42  C   UNL A   1      40.425  32.415  35.503  1.00  0.00     0.074 A 
ATOM     43  C   UNL A   1      39.398  33.416  35.689  1.00  0.00     0.031 C 
ATOM     44  C   UNL A   1      38.876  29.743  29.865  1.00  0.00     0.029 A 
ATOM     45  C   UNL A   1      40.007  29.407  30.725  1.00  0.00     0.049 A 
ATOM     46  H   UNL A   1      40.504  30.273  32.554  1.00  0.00     0.167 HD
ATOM     47  C   UNL A   1      41.423  32.168  36.386  1.00  0.00     0.034 A 
ATOM     48  C   UNL A   1      40.933  28.463  30.457  1.00  0.00     0.034 A 
ATOM     49  C   UNL A   1      42.427  31.150  36.207  1.00  0.00     0.049 A 
ATOM     50  C   UNL A   1      42.041  28.221  31.448  1.00  0.00     0.074 A 
ATOM     51  C   UNL A   1      43.450  30.796  37.070  1.00  0.00     0.029 A 
ATOM     52  N   UNL A   1      42.534  30.323  35.100  1.00  0.00    -0.354 N 
ATOM     53  N   UNL A   1      42.267  28.827  32.590  1.00  0.00    -0.248 NA
ATOM     54  C   UNL A   1      43.016  27.171  31.121  1.00  0.00     0.031 C 
ATOM     55  C   UNL A   1      44.210  29.795  36.460  1.00  0.00     0.029 A 
ATOM     56  C   UNL A   1      43.621  29.477  35.248  1.00  0.00     0.049 A 
ATOM     57  H   UNL A   1      41.929  30.335  34.323  1.00  0.00     0.167 HD
ATOM     58  C   UNL A   1      43.392  28.211  33.128  1.00  0.00     0.074 A 
ATOM     59  C   UNL A   1      43.803  27.189  32.189  1.00  0.00     0.031 C 
ATOM     60  C   UNL A   1      44.019  28.463  34.304  1.00  0.00     0.034 A 
BRANCH  47  61
ATOM     61  C   UNL A   1      41.491  33.010  37.631  1.00  0.00     0.023 A 
ATOM     62  C   UNL A   1      40.801  32.647  38.799  1.00  0.00     0.031 A 
ATOM     63  C   UNL A   1      42.313  34.151  37.670  1.00  0.00     0.131 A 
ATOM     64  C   UNL A   1      40.927  33.432  39.954  1.00  0.00     0.055 A 
ATOM     65  C   UNL A   1      42.477  34.895  38.840  1.00  0.00     0.041 A 
ATOM     66  F   UNL A   1      42.982  34.547  36.577  1.00  0.00    -0.206 F 
ATOM     67  C   UNL A   1      41.780  34.539  39.989  1.00  0.00     0.022 A 
BRANCH  64  68
ATOM     68  S   UNL A   1      39.923  33.015  41.405  1.00  0.00     0.124 S 
ATOM     69  O   UNL A   1      40.927  33.023  42.467  1.00  0.00    -0.237 OA
ATOM     70  O   UNL A   1      38.948  34.098  41.441  1.00  0.00    -0.237 OA
ATOM     71  O   UNL A   1      39.379  31.698  41.079  1.00  0.00    -0.744 OA
ENDBRANCH  64  68
ENDBRANCH  47  61
BRANCH  48  72
ATOM     72  C   UNL A   1      40.852  27.676  29.195  1.00  0.00     0.023 A 
ATOM     73  C   UNL A   1      41.742  27.911  28.136  1.00  0.00     0.031 A 
ATOM     74  C   UNL A   1      39.876  26.676  29.029  1.00  0.00     0.131 A 
ATOM     75  C   UNL A   1      41.622  27.174  26.946  1.00  0.00     0.055 A 
ATOM     76  C   UNL A   1      39.788  25.919  27.862  1.00  0.00     0.041 A 
ATOM     77  F   UNL A   1      39.006  26.408  30.017  1.00  0.00    -0.206 F 
ATOM     78  C   UNL A   1      40.660  26.172  26.808  1.00  0.00     0.022 A 
BRANCH  75  79
ATOM     79  S   UNL A   1      42.719  27.577  25.559  1.00  0.00     0.124 S 
ATOM     80  O   UNL A   1      43.983  27.823  26.243  1.00  0.00    -0.237 OA
ATOM     81  O   UNL A   1      42.650  26.362  24.753  1.00  0.00    -0.237 OA
ATOM     82  O   UNL A   1      42.092  28.753  24.961  1.00  0.00    -0.744 OA
ENDBRANCH  75  79
ENDBRANCH  48  72
BRANCH  60  83
ATOM     83  C   UNL A   1      45.191  27.597  34.675  1.00  0.00     0.023 A 
ATOM     84  C   UNL A   1      46.505  27.951  34.331  1.00  0.00     0.031 A 
ATOM     85  C   UNL A   1      44.990  26.447  35.458  1.00  0.00     0.131 A 
ATOM     86  C   UNL A   1      47.574  27.150  34.762  1.00  0.00     0.055 A 
ATOM     87  C   UNL A   1      46.059  25.678  35.917  1.00  0.00     0.041 A 
ATOM     88  F   UNL A   1      43.751  26.075  35.818  1.00  0.00    -0.206 F 
ATOM     89  C   UNL A   1      47.360  26.028  35.566  1.00  0.00     0.022 A 
BRANCH  86  90
ATOM     90  S   UNL A   1      49.259  27.595  34.257  1.00  0.00     0.124 S 
ATOM     91  O   UNL A   1      49.099  28.992  33.868  1.00  0.00    -0.237 OA
ATOM     92  O   UNL A   1      50.029  27.356  35.474  1.00  0.00    -0.237 OA
ATOM     93  O   UNL A   1      49.542  26.673  33.158  1.00  0.00    -0.744 OA
ENDBRANCH  86  90
ENDBRANCH  60  83
ENDBRANCH  34  35
ENDBRANCH  26  29
ENDBRANCH  24  25
ENDBRANCH  23  24
ENDBRANCH  22  23
ENDBRANCH   1  22
TORSDOF 20
ENDMDL
MODEL 3
REMARK VINA RESULT:      -9.4      1.832      3.006
REMARK SMILES O=C(CCCC(=O)Nc1ccccc1F)NCCCCCCNC(=O)c1ccc(-c2c3nc(c(-c4cc(S(=O)(=O)[O-])ccc4F)c4ccc([nH]4)c(-c4cc(S(=O)(=O)[O-])ccc4F)c4nc(c(-c5cc(S(=O)(=O)[O-])ccc5F)c5ccc2[nH]5)C=C4)C=C3)cc1
REMARK SMILES IDX 19 1 18 2 17 3 16 4 1 5 2 6 3 8 4 9 5 10 6 11 7 12 8 13 9 15
REMARK SMILES IDX 10 16 14 17 11 18 13 19 15 20 12 21 20 22 21 23 22 24 23 25
REMARK SMILES IDX 24 26 25 28 26 29 27 30 88 31 28 32 87 33 29 34 30 35 31 36
REMARK SMILES IDX 81 37 32 38 86 39 80 40 82 41 33 42 85 43 79 44 78 45 34 47
REMARK SMILES IDX 66 48 46 49 65 50 47 51 50 52 64 53 83 54 48 55 49 56 63 58
REMARK SMILES IDX 84 59 51 60 35 61 36 62 44 63 37 64 43 65 45 66 42 67 38 68
REMARK SMILES IDX 39 69 40 70 41 71 67 72 68 73 76 74 69 75 75 76 77 77 74 78
REMARK SMILES IDX 70 79 71 80 72 81 73 82 52 83 53 84 61 85 54 86 60 87 62 88
REMARK SMILES IDX 59 89 55 90 56 91 57 92 58 93
REMARK H PARENT 16 7 8 14 23 27 82 46 50 57
REMARK Flexibility Score: inf
ROOT
ATOM      1  C   UNL A   1      40.166  22.491  26.993  1.00  0.00     0.002 C 
ENDROOT
BRANCH   1   2
ATOM      2  C   UNL A   1      38.861  22.221  26.233  1.00  0.00     0.021 C 
BRANCH   2   3
ATOM      3  C   UNL A   1      38.111  23.466  25.758  1.00  0.00     0.116 C 
BRANCH   3   4
ATOM      4  N   UNL A   1      36.751  23.525  26.252  1.00  0.00    -0.356 N 
ATOM      5  O   UNL A   1      35.798  22.624  24.378  1.00  0.00    -0.275 OA
ATOM      6  C   UNL A   1      35.684  23.078  25.513  1.00  0.00     0.220 C 
ATOM      7  H   UNL A   1      36.587  23.900  27.147  1.00  0.00     0.163 HD
BRANCH   6   8
ATOM      8  C   UNL A   1      34.323  23.265  26.164  1.00  0.00     0.100 C 
BRANCH   8   9
ATOM      9  C   UNL A   1      33.780  22.140  27.051  1.00  0.00     0.020 C 
BRANCH   9  10
ATOM     10  C   UNL A   1      33.679  20.720  26.503  1.00  0.00     0.101 C 
BRANCH  10  11
ATOM     11  C   UNL A   1      32.878  20.437  25.228  1.00  0.00     0.224 C 
ATOM     12  O   UNL A   1      31.987  21.203  24.858  1.00  0.00    -0.275 OA
ATOM     13  N   UNL A   1      33.372  19.503  24.351  1.00  0.00    -0.324 N 
ATOM     14  H   UNL A   1      33.526  19.815  23.430  1.00  0.00     0.170 HD
BRANCH  13  15
ATOM     15  C   UNL A   1      33.684  18.160  24.607  1.00  0.00     0.077 A 
ATOM     16  C   UNL A   1      35.027  17.784  24.644  1.00  0.00     0.029 A 
ATOM     17  C   UNL A   1      32.705  17.179  24.776  1.00  0.00     0.146 A 
ATOM     18  C   UNL A   1      35.378  16.474  24.990  1.00  0.00     0.002 A 
ATOM     19  C   UNL A   1      33.048  15.866  25.095  1.00  0.00     0.041 A 
ATOM     20  F   UNL A   1      31.408  17.486  24.634  1.00  0.00    -0.205 F 
ATOM     21  C   UNL A   1      34.389  15.520  25.236  1.00  0.00     0.003 A 
ENDBRANCH  13  15
ENDBRANCH  10  11
ENDBRANCH   9  10
ENDBRANCH   8   9
ENDBRANCH   6   8
ENDBRANCH   3   4
ENDBRANCH   2   3
ENDBRANCH   1   2
BRANCH   1  22
ATOM     22  C   UNL A   1      40.905  21.247  27.491  1.00  0.00     0.002 C 
BRANCH  22  23
ATOM     23  C   UNL A   1      41.087  20.133  26.456  1.00  0.00     0.021 C 
BRANCH  23  24
ATOM     24  C   UNL A   1      42.243  19.172  26.726  1.00  0.00     0.116 C 
BRANCH  24  25
ATOM     25  N   UNL A   1      43.086  18.973  25.560  1.00  0.00    -0.352 N 
ATOM     26  C   UNL A   1      43.808  19.895  24.839  1.00  0.00     0.251 C 
ATOM     27  H   UNL A   1      43.150  18.045  25.240  1.00  0.00     0.163 HD
ATOM     28  O   UNL A   1      44.327  19.561  23.779  1.00  0.00    -0.269 OA
BRANCH  26  29
ATOM     29  C   UNL A   1      43.936  21.290  25.323  1.00  0.00     0.039 A 
ATOM     30  C   UNL A   1      44.576  21.520  26.543  1.00  0.00     0.014 A 
ATOM     31  C   UNL A   1      43.420  22.366  24.593  1.00  0.00     0.014 A 
ATOM     32  C   UNL A   1      44.758  22.830  26.997  1.00  0.00     0.010 A 
ATOM     33  C   UNL A   1      43.658  23.676  25.016  1.00  0.00     0.010 A 
ATOM     34  C   UNL A   1      44.334  23.921  26.220  1.00  0.00    -0.014 A 
BRANCH  34  35
ATOM     35  C   UNL A   1      44.617  25.317  26.654  1.00  0.00     0.031 A 
ATOM     36  C   UNL A   1      45.982  25.918  26.459  1.00  0.00     0.074 A 
ATOM     37  C   UNL A   1      43.641  26.037  27.246  1.00  0.00     0.049 A 
ATOM     38  N   UNL A   1      46.411  27.109  26.793  1.00  0.00    -0.248 NA
ATOM     39  C   UNL A   1      47.005  25.071  25.824  1.00  0.00     0.031 C 
ATOM     40  C   UNL A   1      42.286  25.553  27.519  1.00  0.00     0.029 A 
ATOM     41  N   UNL A   1      43.631  27.326  27.718  1.00  0.00    -0.354 N 
ATOM     42  C   UNL A   1      47.747  27.155  26.411  1.00  0.00     0.074 A 
ATOM     43  C   UNL A   1      48.073  25.856  25.863  1.00  0.00     0.031 C 
ATOM     44  C   UNL A   1      41.567  26.543  28.071  1.00  0.00     0.029 A 
ATOM     45  C   UNL A   1      42.416  27.720  28.233  1.00  0.00     0.049 A 
ATOM     46  H   UNL A   1      44.419  27.915  27.690  1.00  0.00     0.167 HD
ATOM     47  C   UNL A   1      48.614  28.192  26.490  1.00  0.00     0.034 A 
ATOM     48  C   UNL A   1      42.027  28.891  28.777  1.00  0.00     0.034 A 
ATOM     49  C   UNL A   1      48.275  29.491  27.012  1.00  0.00     0.049 A 
ATOM     50  C   UNL A   1      43.016  30.023  28.868  1.00  0.00     0.074 A 
ATOM     51  C   UNL A   1      49.075  30.619  27.089  1.00  0.00     0.029 A 
ATOM     52  N   UNL A   1      47.041  29.841  27.540  1.00  0.00    -0.354 N 
ATOM     53  N   UNL A   1      44.272  30.046  28.488  1.00  0.00    -0.248 NA
ATOM     54  C   UNL A   1      42.541  31.284  29.453  1.00  0.00     0.031 C 
ATOM     55  C   UNL A   1      48.344  31.632  27.716  1.00  0.00     0.029 A 
ATOM     56  C   UNL A   1      47.067  31.158  27.967  1.00  0.00     0.049 A 
ATOM     57  H   UNL A   1      46.263  29.241  27.604  1.00  0.00     0.167 HD
ATOM     58  C   UNL A   1      44.726  31.332  28.764  1.00  0.00     0.074 A 
ATOM     59  C   UNL A   1      43.615  32.056  29.343  1.00  0.00     0.031 C 
ATOM     60  C   UNL A   1      45.952  31.866  28.543  1.00  0.00     0.034 A 
BRANCH  47  61
ATOM     61  C   UNL A   1      50.022  27.977  26.004  1.00  0.00     0.023 A 
ATOM     62  C   UNL A   1      50.401  28.304  24.692  1.00  0.00     0.031 A 
ATOM     63  C   UNL A   1      51.012  27.508  26.886  1.00  0.00     0.131 A 
ATOM     64  C   UNL A   1      51.733  28.133  24.289  1.00  0.00     0.055 A 
ATOM     65  C   UNL A   1      52.347  27.394  26.495  1.00  0.00     0.041 A 
ATOM     66  F   UNL A   1      50.698  27.170  28.146  1.00  0.00    -0.206 F 
ATOM     67  C   UNL A   1      52.713  27.704  25.189  1.00  0.00     0.022 A 
BRANCH  64  68
ATOM     68  S   UNL A   1      52.166  28.436  22.555  1.00  0.00     0.124 S 
ATOM     69  O   UNL A   1      52.523  27.093  22.104  1.00  0.00    -0.237 OA
ATOM     70  O   UNL A   1      50.932  28.986  22.009  1.00  0.00    -0.237 OA
ATOM     71  O   UNL A   1      53.283  29.376  22.639  1.00  0.00    -0.744 OA
ENDBRANCH  64  68
ENDBRANCH  47  61
BRANCH  48  72
ATOM     72  C   UNL A   1      40.634  29.052  29.281  1.00  0.00     0.023 A 
ATOM     73  C   UNL A   1      40.349  28.990  30.654  1.00  0.00     0.031 A 
ATOM     74  C   UNL A   1      39.565  29.266  28.392  1.00  0.00     0.131 A 
ATOM     75  C   UNL A   1      39.022  29.115  31.097  1.00  0.00     0.055 A 
ATOM     76  C   UNL A   1      38.255  29.432  28.842  1.00  0.00     0.041 A 
ATOM     77  F   UNL A   1      39.788  29.341  27.070  1.00  0.00    -0.206 F 
ATOM     78  C   UNL A   1      37.977  29.348  30.202  1.00  0.00     0.022 A 
BRANCH  75  79
ATOM     79  S   UNL A   1      38.674  28.923  32.868  1.00  0.00     0.124 S 
ATOM     80  O   UNL A   1      39.833  28.158  33.316  1.00  0.00    -0.237 OA
ATOM     81  O   UNL A   1      38.606  30.309  33.317  1.00  0.00    -0.237 OA
ATOM     82  O   UNL A   1      37.403  28.202  32.887  1.00  0.00    -0.744 OA
ENDBRANCH  75  79
ENDBRANCH  48  72
BRANCH  60  83
ATOM     83  C   UNL A   1      46.158  33.317  28.883  1.00  0.00     0.023 A 
ATOM     84  C   UNL A   1      45.732  34.342  28.024  1.00  0.00     0.031 A 
ATOM     85  C   UNL A   1      46.714  33.671  30.125  1.00  0.00     0.131 A 
ATOM     86  C   UNL A   1      45.880  35.681  28.416  1.00  0.00     0.055 A 
ATOM     87  C   UNL A   1      46.822  35.003  30.525  1.00  0.00     0.041 A 
ATOM     88  F   UNL A   1      47.129  32.723  30.981  1.00  0.00    -0.206 F 
ATOM     89  C   UNL A   1      46.405  36.016  29.667  1.00  0.00     0.022 A 
BRANCH  86  90
ATOM     90  S   UNL A   1      45.374  36.990  27.267  1.00  0.00     0.124 S 
ATOM     91  O   UNL A   1      44.064  36.519  26.830  1.00  0.00    -0.237 OA
ATOM     92  O   UNL A   1      45.374  38.177  28.116  1.00  0.00    -0.237 OA
ATOM     93  O   UNL A   1      46.416  36.967  26.241  1.00  0.00    -0.744 OA
ENDBRANCH  86  90
ENDBRANCH  60  83
ENDBRANCH  34  35
ENDBRANCH  26  29
ENDBRANCH  24  25
ENDBRANCH  23  24
ENDBRANCH  22  23
ENDBRANCH   1  22
TORSDOF 20
ENDMDL
