MODEL 1
REMARK VINA RESULT:     -11.5      0.000      0.000
REMARK SMILES C[C@@H](C(=O)NCCCCCCNC(=O)c1ccc(-c2c3nc(c(-c4cc(S(=O)(=O)[O-])ccc4F)c4ccc([nH]4)c(-c4cc(S(=O)(=O)[O-])ccc4F)c4nc(c(-c5cc(S(=O)(=O)[O-])ccc5F)c5ccc2[nH]5)C=C4)C=C3)cc1)c1ccc(Cc2ccsc2)cc1F
REMARK SMILES IDX 8 1 7 2 6 3 5 4 3 5 4 6 2 8 1 9 78 10 79 11 89 12 80 13
REMARK SMILES IDX 88 14 90 15 81 16 82 17 83 18 84 19 87 20 85 21 86 22 9 23
REMARK SMILES IDX 10 24 11 25 12 26 13 27 14 29 15 30 16 31 77 32 17 33 76 34
REMARK SMILES IDX 18 35 19 36 20 37 70 38 21 39 75 40 69 41 71 42 22 43 74 44
REMARK SMILES IDX 68 45 67 46 23 48 55 49 35 50 54 51 36 52 39 53 53 54 72 55
REMARK SMILES IDX 37 56 38 57 52 59 73 60 40 61 24 62 25 63 33 64 26 65 32 66
REMARK SMILES IDX 34 67 31 68 27 69 28 70 29 71 30 72 56 73 57 74 65 75 58 76
REMARK SMILES IDX 64 77 66 78 63 79 59 80 60 81 61 82 62 83 41 84 42 85 50 86
REMARK SMILES IDX 43 87 49 88 51 89 48 90 44 91 45 92 46 93 47 94
REMARK H PARENT 5 7 12 28 71 47 39 58
REMARK Flexibility Score: inf
ROOT
ATOM      1  C   UNL A   1      31.893  29.294  26.520  1.00  0.00     0.002 C 
ENDROOT
BRANCH   1   2
ATOM      2  C   UNL A   1      33.324  28.748  26.426  1.00  0.00     0.021 C 
BRANCH   2   3
ATOM      3  C   UNL A   1      33.591  27.923  25.164  1.00  0.00     0.116 C 
BRANCH   3   4
ATOM      4  N   UNL A   1      33.565  26.508  25.476  1.00  0.00    -0.356 N 
ATOM      5  C   UNL A   1      32.994  25.471  24.798  1.00  0.00     0.227 C 
ATOM      6  O   UNL A   1      32.958  24.383  25.379  1.00  0.00    -0.274 OA
ATOM      7  H   UNL A   1      34.032  26.257  26.306  1.00  0.00     0.163 HD
BRANCH   5   8
ATOM      8  C   UNL A   1      32.496  25.669  23.352  1.00  0.00     0.108 C 
ATOM      9  C   UNL A   1      33.608  26.191  22.438  1.00  0.00     0.023 C 
BRANCH   8  10
ATOM     10  C   UNL A   1      31.221  26.512  23.331  1.00  0.00    -0.000 A 
ATOM     11  C   UNL A   1      31.216  27.706  22.591  1.00  0.00     0.008 A 
ATOM     12  C   UNL A   1      30.027  26.140  23.959  1.00  0.00     0.127 A 
ATOM     13  C   UNL A   1      30.058  28.485  22.484  1.00  0.00     0.004 A 
ATOM     14  C   UNL A   1      28.880  26.933  23.886  1.00  0.00     0.043 A 
ATOM     15  F   UNL A   1      29.935  24.993  24.645  1.00  0.00    -0.207 F 
ATOM     16  C   UNL A   1      28.876  28.117  23.141  1.00  0.00    -0.041 A 
BRANCH  16  17
ATOM     17  C   UNL A   1      27.607  28.920  22.988  1.00  0.00     0.072 C 
BRANCH  17  18
ATOM     18  C   UNL A   1      27.989  30.329  22.632  1.00  0.00    -0.033 A 
ATOM     19  C   UNL A   1      27.968  30.885  21.306  1.00  0.00     0.015 A 
ATOM     20  C   UNL A   1      28.342  31.303  23.551  1.00  0.00     0.068 A 
ATOM     21  C   UNL A   1      28.323  32.214  21.274  1.00  0.00     0.065 A 
ATOM     22  S   UNL A   1      28.656  32.824  22.832  1.00  0.00    -0.152 S 
ENDBRANCH  17  18
ENDBRANCH  16  17
ENDBRANCH   8  10
ENDBRANCH   5   8
ENDBRANCH   3   4
ENDBRANCH   2   3
ENDBRANCH   1   2
BRANCH   1  23
ATOM     23  C   UNL A   1      31.661  30.627  25.801  1.00  0.00     0.002 C 
BRANCH  23  24
ATOM     24  C   UNL A   1      31.445  31.828  26.725  1.00  0.00     0.021 C 
BRANCH  24  25
ATOM     25  C   UNL A   1      32.728  32.419  27.303  1.00  0.00     0.116 C 
BRANCH  25  26
ATOM     26  N   UNL A   1      32.592  33.840  27.579  1.00  0.00    -0.352 N 
ATOM     27  C   UNL A   1      33.210  34.600  28.539  1.00  0.00     0.251 C 
ATOM     28  H   UNL A   1      31.967  34.326  26.994  1.00  0.00     0.163 HD
ATOM     29  O   UNL A   1      32.799  35.737  28.772  1.00  0.00    -0.269 OA
BRANCH  27  30
ATOM     30  C   UNL A   1      34.347  34.046  29.306  1.00  0.00     0.039 A 
ATOM     31  C   UNL A   1      34.089  33.185  30.374  1.00  0.00     0.014 A 
ATOM     32  C   UNL A   1      35.665  34.383  28.978  1.00  0.00     0.014 A 
ATOM     33  C   UNL A   1      35.154  32.618  31.079  1.00  0.00     0.010 A 
ATOM     34  C   UNL A   1      36.724  33.758  29.632  1.00  0.00     0.010 A 
ATOM     35  C   UNL A   1      36.481  32.873  30.694  1.00  0.00    -0.014 A 
BRANCH  35  36
ATOM     36  C   UNL A   1      37.622  32.229  31.397  1.00  0.00     0.031 A 
ATOM     37  C   UNL A   1      38.351  31.078  30.758  1.00  0.00     0.074 A 
ATOM     38  C   UNL A   1      37.973  32.653  32.627  1.00  0.00     0.049 A 
ATOM     39  N   UNL A   1      39.326  30.347  31.235  1.00  0.00    -0.248 NA
ATOM     40  C   UNL A   1      37.904  30.679  29.414  1.00  0.00     0.031 C 
ATOM     41  C   UNL A   1      37.320  33.737  33.365  1.00  0.00     0.029 A 
ATOM     42  N   UNL A   1      38.961  32.223  33.479  1.00  0.00    -0.354 N 
ATOM     43  C   UNL A   1      39.612  29.405  30.251  1.00  0.00     0.074 A 
ATOM     44  C   UNL A   1      38.654  29.611  29.186  1.00  0.00     0.031 C 
ATOM     45  C   UNL A   1      37.940  33.903  34.544  1.00  0.00     0.029 A 
ATOM     46  C   UNL A   1      39.001  32.909  34.671  1.00  0.00     0.049 A 
ATOM     47  H   UNL A   1      39.581  31.492  33.258  1.00  0.00     0.167 HD
ATOM     48  C   UNL A   1      40.600  28.475  30.226  1.00  0.00     0.034 A 
ATOM     49  C   UNL A   1      39.794  32.747  35.751  1.00  0.00     0.034 A 
ATOM     50  C   UNL A   1      41.546  28.281  31.297  1.00  0.00     0.049 A 
ATOM     51  C   UNL A   1      40.856  31.674  35.717  1.00  0.00     0.074 A 
ATOM     52  C   UNL A   1      42.600  27.385  31.366  1.00  0.00     0.029 A 
ATOM     53  N   UNL A   1      41.554  28.991  32.491  1.00  0.00    -0.354 N 
ATOM     54  N   UNL A   1      41.137  30.819  34.760  1.00  0.00    -0.248 NA
ATOM     55  C   UNL A   1      41.715  31.556  36.900  1.00  0.00     0.031 C 
ATOM     56  C   UNL A   1      43.201  27.507  32.623  1.00  0.00     0.029 A 
ATOM     57  C   UNL A   1      42.576  28.536  33.311  1.00  0.00     0.049 A 
ATOM     58  H   UNL A   1      40.925  29.713  32.722  1.00  0.00     0.167 HD
ATOM     59  C   UNL A   1      42.230  30.086  35.217  1.00  0.00     0.074 A 
ATOM     60  C   UNL A   1      42.567  30.615  36.522  1.00  0.00     0.031 C 
ATOM     61  C   UNL A   1      42.898  29.070  34.613  1.00  0.00     0.034 A 
BRANCH  48  62
ATOM     62  C   UNL A   1      40.688  27.592  29.003  1.00  0.00     0.023 A 
ATOM     63  C   UNL A   1      41.645  27.824  27.998  1.00  0.00     0.031 A 
ATOM     64  C   UNL A   1      39.796  26.521  28.823  1.00  0.00     0.131 A 
ATOM     65  C   UNL A   1      41.639  27.048  26.830  1.00  0.00     0.055 A 
ATOM     66  C   UNL A   1      39.850  25.698  27.695  1.00  0.00     0.041 A 
ATOM     67  F   UNL A   1      38.845  26.262  29.736  1.00  0.00    -0.206 F 
ATOM     68  C   UNL A   1      40.766  25.969  26.683  1.00  0.00     0.022 A 
BRANCH  65  69
ATOM     69  S   UNL A   1      42.690  27.564  25.444  1.00  0.00     0.124 S 
ATOM     70  O   UNL A   1      42.601  26.403  24.560  1.00  0.00    -0.237 OA
ATOM     71  O   UNL A   1      42.026  28.775  24.978  1.00  0.00    -0.237 OA
ATOM     72  O   UNL A   1      43.998  27.767  26.064  1.00  0.00    -0.744 OA
ENDBRANCH  65  69
ENDBRANCH  48  62
BRANCH  49  73
ATOM     73  C   UNL A   1      39.617  33.601  36.961  1.00  0.00     0.023 A 
ATOM     74  C   UNL A   1      40.571  34.569  37.311  1.00  0.00     0.031 A 
ATOM     75  C   UNL A   1      38.522  33.415  37.825  1.00  0.00     0.131 A 
ATOM     76  C   UNL A   1      40.448  35.269  38.522  1.00  0.00     0.055 A 
ATOM     77  C   UNL A   1      38.372  34.159  38.997  1.00  0.00     0.041 A 
ATOM     78  F   UNL A   1      37.578  32.504  37.540  1.00  0.00    -0.206 F 
ATOM     79  C   UNL A   1      39.348  35.080  39.360  1.00  0.00     0.022 A 
BRANCH  76  80
ATOM     80  S   UNL A   1      41.813  36.345  39.043  1.00  0.00     0.124 S 
ATOM     81  O   UNL A   1      42.874  35.377  39.297  1.00  0.00    -0.237 OA
ATOM     82  O   UNL A   1      41.988  37.198  37.872  1.00  0.00    -0.237 OA
ATOM     83  O   UNL A   1      41.282  37.016  40.228  1.00  0.00    -0.744 OA
ENDBRANCH  76  80
ENDBRANCH  49  73
BRANCH  61  84
ATOM     84  C   UNL A   1      44.093  28.505  35.343  1.00  0.00     0.023 A 
ATOM     85  C   UNL A   1      43.966  27.469  36.286  1.00  0.00     0.031 A 
ATOM     86  C   UNL A   1      45.378  29.027  35.105  1.00  0.00     0.131 A 
ATOM     87  C   UNL A   1      45.091  27.033  37.002  1.00  0.00     0.055 A 
ATOM     88  C   UNL A   1      46.503  28.543  35.772  1.00  0.00     0.041 A 
ATOM     89  F   UNL A   1      45.559  30.019  34.219  1.00  0.00    -0.206 F 
ATOM     90  C   UNL A   1      46.362  27.550  36.738  1.00  0.00     0.022 A 
BRANCH  87  91
ATOM     91  S   UNL A   1      44.855  25.852  38.358  1.00  0.00     0.124 S 
ATOM     92  O   UNL A   1      44.156  24.759  37.690  1.00  0.00    -0.237 OA
ATOM     93  O   UNL A   1      46.228  25.573  38.770  1.00  0.00    -0.237 OA
ATOM     94  O   UNL A   1      44.058  26.598  39.329  1.00  0.00    -0.744 OA
ENDBRANCH  87  91
ENDBRANCH  61  84
ENDBRANCH  35  36
ENDBRANCH  27  30
ENDBRANCH  25  26
ENDBRANCH  24  25
ENDBRANCH  23  24
ENDBRANCH   1  23
TORSDOF 19
ENDMDL
MODEL 2
REMARK VINA RESULT:     -11.4      3.078      4.637
REMARK SMILES C[C@@H](C(=O)NCCCCCCNC(=O)c1ccc(-c2c3nc(c(-c4cc(S(=O)(=O)[O-])ccc4F)c4ccc([nH]4)c(-c4cc(S(=O)(=O)[O-])ccc4F)c4nc(c(-c5cc(S(=O)(=O)[O-])ccc5F)c5ccc2[nH]5)C=C4)C=C3)cc1)c1ccc(Cc2ccsc2)cc1F
REMARK SMILES IDX 8 1 7 2 6 3 5 4 3 5 4 6 2 8 1 9 78 10 79 11 89 12 80 13
REMARK SMILES IDX 88 14 90 15 81 16 82 17 83 18 84 19 87 20 85 21 86 22 9 23
REMARK SMILES IDX 10 24 11 25 12 26 13 27 14 29 15 30 16 31 77 32 17 33 76 34
REMARK SMILES IDX 18 35 19 36 20 37 70 38 21 39 75 40 69 41 71 42 22 43 74 44
REMARK SMILES IDX 68 45 67 46 23 48 55 49 35 50 54 51 36 52 39 53 53 54 72 55
REMARK SMILES IDX 37 56 38 57 52 59 73 60 40 61 24 62 25 63 33 64 26 65 32 66
REMARK SMILES IDX 34 67 31 68 27 69 28 70 29 71 30 72 56 73 57 74 65 75 58 76
REMARK SMILES IDX 64 77 66 78 63 79 59 80 60 81 61 82 62 83 41 84 42 85 50 86
REMARK SMILES IDX 43 87 49 88 51 89 48 90 44 91 45 92 46 93 47 94
REMARK H PARENT 5 7 12 28 71 47 39 58
REMARK Flexibility Score: inf
ROOT
ATOM      1  C   UNL A   1      32.133  29.277  26.841  1.00  0.00     0.002 C 
ENDROOT
BRANCH   1   2
ATOM      2  C   UNL A   1      33.084  28.268  26.181  1.00  0.00     0.021 C 
BRANCH   2   3
ATOM      3  C   UNL A   1      32.477  26.874  25.997  1.00  0.00     0.116 C 
BRANCH   3   4
ATOM      4  N   UNL A   1      33.522  25.901  25.755  1.00  0.00    -0.356 N 
ATOM      5  C   UNL A   1      33.455  24.540  25.688  1.00  0.00     0.227 C 
ATOM      6  O   UNL A   1      34.529  23.933  25.654  1.00  0.00    -0.274 OA
ATOM      7  H   UNL A   1      34.420  26.281  25.616  1.00  0.00     0.163 HD
BRANCH   5   8
ATOM      8  C   UNL A   1      32.088  23.834  25.588  1.00  0.00     0.108 C 
ATOM      9  C   UNL A   1      31.427  23.685  26.961  1.00  0.00     0.023 C 
BRANCH   8  10
ATOM     10  C   UNL A   1      32.212  22.525  24.807  1.00  0.00    -0.000 A 
ATOM     11  C   UNL A   1      32.436  21.335  25.520  1.00  0.00     0.008 A 
ATOM     12  C   UNL A   1      32.058  22.424  23.420  1.00  0.00     0.127 A 
ATOM     13  C   UNL A   1      32.495  20.100  24.864  1.00  0.00     0.004 A 
ATOM     14  C   UNL A   1      32.153  21.199  22.757  1.00  0.00     0.043 A 
ATOM     15  F   UNL A   1      31.796  23.505  22.674  1.00  0.00    -0.207 F 
ATOM     16  C   UNL A   1      32.367  20.015  23.471  1.00  0.00    -0.041 A 
BRANCH  16  17
ATOM     17  C   UNL A   1      32.375  18.684  22.759  1.00  0.00     0.072 C 
BRANCH  17  18
ATOM     18  C   UNL A   1      32.983  17.667  23.682  1.00  0.00    -0.033 A 
ATOM     19  C   UNL A   1      34.372  17.294  23.708  1.00  0.00     0.015 A 
ATOM     20  C   UNL A   1      32.295  17.006  24.685  1.00  0.00     0.068 A 
ATOM     21  C   UNL A   1      34.664  16.370  24.684  1.00  0.00     0.065 A 
ATOM     22  S   UNL A   1      33.288  15.960  25.606  1.00  0.00    -0.152 S 
ENDBRANCH  17  18
ENDBRANCH  16  17
ENDBRANCH   8  10
ENDBRANCH   5   8
ENDBRANCH   3   4
ENDBRANCH   2   3
ENDBRANCH   1   2
BRANCH   1  23
ATOM     23  C   UNL A   1      31.794  30.501  25.985  1.00  0.00     0.002 C 
BRANCH  23  24
ATOM     24  C   UNL A   1      31.571  31.795  26.771  1.00  0.00     0.021 C 
BRANCH  24  25
ATOM     25  C   UNL A   1      32.853  32.484  27.229  1.00  0.00     0.116 C 
BRANCH  25  26
ATOM     26  N   UNL A   1      32.624  33.876  27.580  1.00  0.00    -0.352 N 
ATOM     27  C   UNL A   1      33.174  34.616  28.595  1.00  0.00     0.251 C 
ATOM     28  H   UNL A   1      31.981  34.355  27.009  1.00  0.00     0.163 HD
ATOM     29  O   UNL A   1      32.688  35.711  28.882  1.00  0.00    -0.269 OA
BRANCH  27  30
ATOM     30  C   UNL A   1      34.329  34.091  29.355  1.00  0.00     0.039 A 
ATOM     31  C   UNL A   1      34.098  33.376  30.531  1.00  0.00     0.014 A 
ATOM     32  C   UNL A   1      35.638  34.311  28.913  1.00  0.00     0.014 A 
ATOM     33  C   UNL A   1      35.176  32.834  31.236  1.00  0.00     0.010 A 
ATOM     34  C   UNL A   1      36.705  33.707  29.575  1.00  0.00     0.010 A 
ATOM     35  C   UNL A   1      36.487  32.966  30.747  1.00  0.00    -0.014 A 
BRANCH  35  36
ATOM     36  C   UNL A   1      37.636  32.344  31.455  1.00  0.00     0.031 A 
ATOM     37  C   UNL A   1      38.373  31.189  30.830  1.00  0.00     0.074 A 
ATOM     38  C   UNL A   1      37.990  32.791  32.676  1.00  0.00     0.049 A 
ATOM     39  N   UNL A   1      39.357  30.475  31.314  1.00  0.00    -0.248 NA
ATOM     40  C   UNL A   1      37.923  30.764  29.496  1.00  0.00     0.031 C 
ATOM     41  C   UNL A   1      37.330  33.880  33.399  1.00  0.00     0.029 A 
ATOM     42  N   UNL A   1      38.985  32.383  33.530  1.00  0.00    -0.354 N 
ATOM     43  C   UNL A   1      39.646  29.520  30.344  1.00  0.00     0.074 A 
ATOM     44  C   UNL A   1      38.681  29.700  29.281  1.00  0.00     0.031 C 
ATOM     45  C   UNL A   1      37.954  34.070  34.573  1.00  0.00     0.029 A 
ATOM     46  C   UNL A   1      39.025  33.088  34.711  1.00  0.00     0.049 A 
ATOM     47  H   UNL A   1      39.611  31.654  33.317  1.00  0.00     0.167 HD
ATOM     48  C   UNL A   1      40.642  28.599  30.329  1.00  0.00     0.034 A 
ATOM     49  C   UNL A   1      39.824  32.950  35.789  1.00  0.00     0.034 A 
ATOM     50  C   UNL A   1      41.595  28.429  31.398  1.00  0.00     0.049 A 
ATOM     51  C   UNL A   1      40.896  31.886  35.767  1.00  0.00     0.074 A 
ATOM     52  C   UNL A   1      42.657  27.544  31.476  1.00  0.00     0.029 A 
ATOM     53  N   UNL A   1      41.602  29.159  32.581  1.00  0.00    -0.354 N 
ATOM     54  N   UNL A   1      41.180  31.019  34.823  1.00  0.00    -0.248 NA
ATOM     55  C   UNL A   1      41.762  31.795  36.948  1.00  0.00     0.031 C 
ATOM     56  C   UNL A   1      43.263  27.692  32.729  1.00  0.00     0.029 A 
ATOM     57  C   UNL A   1      42.633  28.726  33.403  1.00  0.00     0.049 A 
ATOM     58  H   UNL A   1      40.968  29.878  32.804  1.00  0.00     0.167 HD
ATOM     59  C   UNL A   1      42.281  30.304  35.286  1.00  0.00     0.074 A 
ATOM     60  C   UNL A   1      42.620  30.856  36.581  1.00  0.00     0.031 C 
ATOM     61  C   UNL A   1      42.956  29.284  34.695  1.00  0.00     0.034 A 
BRANCH  48  62
ATOM     62  C   UNL A   1      40.733  27.697  29.119  1.00  0.00     0.023 A 
ATOM     63  C   UNL A   1      41.666  27.936  28.094  1.00  0.00     0.031 A 
ATOM     64  C   UNL A   1      39.866  26.599  28.974  1.00  0.00     0.131 A 
ATOM     65  C   UNL A   1      41.660  27.140  26.940  1.00  0.00     0.055 A 
ATOM     66  C   UNL A   1      39.923  25.758  27.860  1.00  0.00     0.041 A 
ATOM     67  F   UNL A   1      38.939  26.331  29.908  1.00  0.00    -0.206 F 
ATOM     68  C   UNL A   1      40.813  26.036  26.826  1.00  0.00     0.022 A 
BRANCH  65  69
ATOM     69  S   UNL A   1      42.672  27.659  25.526  1.00  0.00     0.124 S 
ATOM     70  O   UNL A   1      43.979  27.844  26.153  1.00  0.00    -0.237 OA
ATOM     71  O   UNL A   1      42.554  26.524  24.619  1.00  0.00    -0.237 OA
ATOM     72  O   UNL A   1      42.026  28.889  25.076  1.00  0.00    -0.744 OA
ENDBRANCH  65  69
ENDBRANCH  48  62
BRANCH  49  73
ATOM     73  C   UNL A   1      39.645  33.822  36.986  1.00  0.00     0.023 A 
ATOM     74  C   UNL A   1      39.049  33.329  38.158  1.00  0.00     0.031 A 
ATOM     75  C   UNL A   1      40.006  35.181  36.954  1.00  0.00     0.131 A 
ATOM     76  C   UNL A   1      38.773  34.201  39.223  1.00  0.00     0.055 A 
ATOM     77  C   UNL A   1      39.787  36.030  38.041  1.00  0.00     0.041 A 
ATOM     78  F   UNL A   1      40.582  35.706  35.861  1.00  0.00    -0.206 F 
ATOM     79  C   UNL A   1      39.150  35.544  39.178  1.00  0.00     0.022 A 
BRANCH  76  80
ATOM     80  S   UNL A   1      37.802  33.577  40.625  1.00  0.00     0.124 S 
ATOM     81  O   UNL A   1      37.548  34.800  41.377  1.00  0.00    -0.237 OA
ATOM     82  O   UNL A   1      36.651  32.984  39.952  1.00  0.00    -0.237 OA
ATOM     83  O   UNL A   1      38.707  32.625  41.266  1.00  0.00    -0.744 OA
ENDBRANCH  76  80
ENDBRANCH  49  73
BRANCH  61  84
ATOM     84  C   UNL A   1      44.160  28.742  35.428  1.00  0.00     0.023 A 
ATOM     85  C   UNL A   1      44.056  27.674  36.338  1.00  0.00     0.031 A 
ATOM     86  C   UNL A   1      45.427  29.316  35.227  1.00  0.00     0.131 A 
ATOM     87  C   UNL A   1      45.185  27.257  37.059  1.00  0.00     0.055 A 
ATOM     88  C   UNL A   1      46.560  28.854  35.898  1.00  0.00     0.041 A 
ATOM     89  F   UNL A   1      45.585  30.341  34.373  1.00  0.00    -0.206 F 
ATOM     90  C   UNL A   1      46.440  27.829  36.832  1.00  0.00     0.022 A 
BRANCH  87  91
ATOM     91  S   UNL A   1      44.972  26.028  38.376  1.00  0.00     0.124 S 
ATOM     92  O   UNL A   1      44.106  25.044  37.735  1.00  0.00    -0.237 OA
ATOM     93  O   UNL A   1      46.345  25.601  38.627  1.00  0.00    -0.237 OA
ATOM     94  O   UNL A   1      44.353  26.790  39.459  1.00  0.00    -0.744 OA
ENDBRANCH  87  91
ENDBRANCH  61  84
ENDBRANCH  35  36
ENDBRANCH  27  30
ENDBRANCH  25  26
ENDBRANCH  24  25
ENDBRANCH  23  24
ENDBRANCH   1  23
TORSDOF 19
ENDMDL
MODEL 3
REMARK VINA RESULT:     -11.2      6.133      9.407
REMARK SMILES C[C@@H](C(=O)NCCCCCCNC(=O)c1ccc(-c2c3nc(c(-c4cc(S(=O)(=O)[O-])ccc4F)c4ccc([nH]4)c(-c4cc(S(=O)(=O)[O-])ccc4F)c4nc(c(-c5cc(S(=O)(=O)[O-])ccc5F)c5ccc2[nH]5)C=C4)C=C3)cc1)c1ccc(Cc2ccsc2)cc1F
REMARK SMILES IDX 8 1 7 2 6 3 5 4 3 5 4 6 2 8 1 9 78 10 79 11 89 12 80 13
REMARK SMILES IDX 88 14 90 15 81 16 82 17 83 18 84 19 87 20 85 21 86 22 9 23
REMARK SMILES IDX 10 24 11 25 12 26 13 27 14 29 15 30 16 31 77 32 17 33 76 34
REMARK SMILES IDX 18 35 19 36 20 37 70 38 21 39 75 40 69 41 71 42 22 43 74 44
REMARK SMILES IDX 68 45 67 46 23 48 55 49 35 50 54 51 36 52 39 53 53 54 72 55
REMARK SMILES IDX 37 56 38 57 52 59 73 60 40 61 24 62 25 63 33 64 26 65 32 66
REMARK SMILES IDX 34 67 31 68 27 69 28 70 29 71 30 72 56 73 57 74 65 75 58 76
REMARK SMILES IDX 64 77 66 78 63 79 59 80 60 81 61 82 62 83 41 84 42 85 50 86
REMARK SMILES IDX 43 87 49 88 51 89 48 90 44 91 45 92 46 93 47 94
REMARK H PARENT 5 7 12 28 71 47 39 58
REMARK Flexibility Score: inf
ROOT
ATOM      1  C   UNL A   1      34.674  23.610  23.488  1.00  0.00     0.002 C 
ENDROOT
BRANCH   1   2
ATOM      2  C   UNL A   1      34.910  24.743  24.496  1.00  0.00     0.021 C 
BRANCH   2   3
ATOM      3  C   UNL A   1      33.665  25.122  25.304  1.00  0.00     0.116 C 
BRANCH   3   4
ATOM      4  N   UNL A   1      33.569  24.296  26.491  1.00  0.00    -0.356 N 
ATOM      5  C   UNL A   1      32.574  23.455  26.896  1.00  0.00     0.227 C 
ATOM      6  O   UNL A   1      32.658  23.010  28.044  1.00  0.00    -0.274 OA
ATOM      7  H   UNL A   1      34.342  24.350  27.099  1.00  0.00     0.163 HD
BRANCH   5   8
ATOM      8  C   UNL A   1      31.457  23.045  25.916  1.00  0.00     0.108 C 
ATOM      9  C   UNL A   1      30.108  22.896  26.626  1.00  0.00     0.023 C 
BRANCH   8  10
ATOM     10  C   UNL A   1      31.874  21.819  25.103  1.00  0.00    -0.000 A 
ATOM     11  C   UNL A   1      32.370  20.695  25.785  1.00  0.00     0.008 A 
ATOM     12  C   UNL A   1      31.741  21.720  23.713  1.00  0.00     0.127 A 
ATOM     13  C   UNL A   1      32.708  19.524  25.099  1.00  0.00     0.004 A 
ATOM     14  C   UNL A   1      32.112  20.566  23.020  1.00  0.00     0.043 A 
ATOM     15  F   UNL A   1      31.233  22.730  22.994  1.00  0.00    -0.207 F 
ATOM     16  C   UNL A   1      32.596  19.446  23.704  1.00  0.00    -0.041 A 
BRANCH  16  17
ATOM     17  C   UNL A   1      32.906  18.170  22.959  1.00  0.00     0.072 C 
BRANCH  17  18
ATOM     18  C   UNL A   1      33.559  17.218  23.920  1.00  0.00    -0.033 A 
ATOM     19  C   UNL A   1      32.890  16.153  24.618  1.00  0.00     0.015 A 
ATOM     20  C   UNL A   1      34.914  17.195  24.204  1.00  0.00     0.068 A 
ATOM     21  C   UNL A   1      33.739  15.406  25.402  1.00  0.00     0.065 A 
ATOM     22  S   UNL A   1      35.353  15.947  25.289  1.00  0.00    -0.152 S 
ENDBRANCH  17  18
ENDBRANCH  16  17
ENDBRANCH   8  10
ENDBRANCH   5   8
ENDBRANCH   3   4
ENDBRANCH   2   3
ENDBRANCH   1   2
BRANCH   1  23
ATOM     23  C   UNL A   1      35.399  22.299  23.809  1.00  0.00     0.002 C 
BRANCH  23  24
ATOM     24  C   UNL A   1      36.848  22.461  24.273  1.00  0.00     0.021 C 
BRANCH  24  25
ATOM     25  C   UNL A   1      37.067  22.207  25.762  1.00  0.00     0.116 C 
BRANCH  25  26
ATOM     26  N   UNL A   1      38.099  21.211  25.995  1.00  0.00    -0.352 N 
ATOM     27  C   UNL A   1      39.411  21.390  26.353  1.00  0.00     0.251 C 
ATOM     28  H   UNL A   1      37.817  20.275  25.879  1.00  0.00     0.163 HD
ATOM     29  O   UNL A   1      40.196  20.443  26.280  1.00  0.00    -0.269 OA
BRANCH  27  30
ATOM     30  C   UNL A   1      39.884  22.717  26.801  1.00  0.00     0.039 A 
ATOM     31  C   UNL A   1      40.838  22.789  27.818  1.00  0.00     0.014 A 
ATOM     32  C   UNL A   1      39.380  23.890  26.227  1.00  0.00     0.014 A 
ATOM     33  C   UNL A   1      41.329  24.034  28.220  1.00  0.00     0.010 A 
ATOM     34  C   UNL A   1      39.925  25.123  26.577  1.00  0.00     0.010 A 
ATOM     35  C   UNL A   1      40.901  25.210  27.581  1.00  0.00    -0.014 A 
BRANCH  35  36
ATOM     36  C   UNL A   1      41.459  26.536  27.959  1.00  0.00     0.031 A 
ATOM     37  C   UNL A   1      42.892  26.870  27.642  1.00  0.00     0.074 A 
ATOM     38  C   UNL A   1      40.688  27.420  28.623  1.00  0.00     0.049 A 
ATOM     39  N   UNL A   1      43.578  27.943  27.943  1.00  0.00    -0.248 NA
ATOM     40  C   UNL A   1      43.662  25.850  26.915  1.00  0.00     0.031 C 
ATOM     41  C   UNL A   1      39.296  27.197  29.016  1.00  0.00     0.029 A 
ATOM     42  N   UNL A   1      40.965  28.681  29.091  1.00  0.00    -0.354 N 
ATOM     43  C   UNL A   1      44.858  27.729  27.440  1.00  0.00     0.074 A 
ATOM     44  C   UNL A   1      44.870  26.393  26.885  1.00  0.00     0.031 C 
ATOM     45  C   UNL A   1      38.834  28.292  29.642  1.00  0.00     0.029 A 
ATOM     46  C   UNL A   1      39.907  29.276  29.739  1.00  0.00     0.049 A 
ATOM     47  H   UNL A   1      41.839  29.118  28.974  1.00  0.00     0.167 HD
ATOM     48  C   UNL A   1      45.915  28.579  27.416  1.00  0.00     0.034 A 
ATOM     49  C   UNL A   1      39.816  30.473  30.353  1.00  0.00     0.034 A 
ATOM     50  C   UNL A   1      45.889  29.908  27.976  1.00  0.00     0.049 A 
ATOM     51  C   UNL A   1      41.021  31.383  30.354  1.00  0.00     0.074 A 
ATOM     52  C   UNL A   1      46.894  30.861  27.987  1.00  0.00     0.029 A 
ATOM     53  N   UNL A   1      44.800  30.476  28.628  1.00  0.00    -0.354 N 
ATOM     54  N   UNL A   1      42.211  31.179  29.838  1.00  0.00    -0.248 NA
ATOM     55  C   UNL A   1      40.864  32.688  31.007  1.00  0.00     0.031 C 
ATOM     56  C   UNL A   1      46.438  31.975  28.701  1.00  0.00     0.029 A 
ATOM     57  C   UNL A   1      45.119  31.753  29.067  1.00  0.00     0.049 A 
ATOM     58  H   UNL A   1      43.930  30.036  28.760  1.00  0.00     0.167 HD
ATOM     59  C   UNL A   1      42.931  32.347  30.075  1.00  0.00     0.074 A 
ATOM     60  C   UNL A   1      42.035  33.255  30.760  1.00  0.00     0.031 C 
ATOM     61  C   UNL A   1      44.217  32.646  29.754  1.00  0.00     0.034 A 
BRANCH  48  62
ATOM     62  C   UNL A   1      47.190  28.081  26.776  1.00  0.00     0.023 A 
ATOM     63  C   UNL A   1      47.352  28.064  25.379  1.00  0.00     0.031 A 
ATOM     64  C   UNL A   1      48.249  27.597  27.564  1.00  0.00     0.131 A 
ATOM     65  C   UNL A   1      48.506  27.506  24.812  1.00  0.00     0.055 A 
ATOM     66  C   UNL A   1      49.433  27.121  26.994  1.00  0.00     0.041 A 
ATOM     67  F   UNL A   1      48.148  27.567  28.902  1.00  0.00    -0.206 F 
ATOM     68  C   UNL A   1      49.560  27.059  25.610  1.00  0.00     0.022 A 
BRANCH  65  69
ATOM     69  S   UNL A   1      48.546  27.239  23.018  1.00  0.00     0.124 S 
ATOM     70  O   UNL A   1      48.181  25.827  22.923  1.00  0.00    -0.237 OA
ATOM     71  O   UNL A   1      47.552  28.189  22.535  1.00  0.00    -0.237 OA
ATOM     72  O   UNL A   1      49.929  27.543  22.657  1.00  0.00    -0.744 OA
ENDBRANCH  65  69
ENDBRANCH  48  62
BRANCH  49  73
ATOM     73  C   UNL A   1      38.553  30.886  31.032  1.00  0.00     0.023 A 
ATOM     74  C   UNL A   1      37.594  31.667  30.367  1.00  0.00     0.031 A 
ATOM     75  C   UNL A   1      38.316  30.563  32.381  1.00  0.00     0.131 A 
ATOM     76  C   UNL A   1      36.478  32.152  31.066  1.00  0.00     0.055 A 
ATOM     77  C   UNL A   1      37.171  30.995  33.054  1.00  0.00     0.041 A 
ATOM     78  F   UNL A   1      39.197  29.817  33.066  1.00  0.00    -0.206 F 
ATOM     79  C   UNL A   1      36.253  31.809  32.401  1.00  0.00     0.022 A 
BRANCH  76  80
ATOM     80  S   UNL A   1      35.383  33.337  30.236  1.00  0.00     0.124 S 
ATOM     81  O   UNL A   1      36.119  33.611  29.008  1.00  0.00    -0.237 OA
ATOM     82  O   UNL A   1      34.155  32.562  30.091  1.00  0.00    -0.237 OA
ATOM     83  O   UNL A   1      35.309  34.449  31.182  1.00  0.00    -0.744 OA
ENDBRANCH  76  80
ENDBRANCH  49  73
BRANCH  61  84
ATOM     84  C   UNL A   1      44.704  34.034  30.096  1.00  0.00     0.023 A 
ATOM     85  C   UNL A   1      44.596  35.103  29.189  1.00  0.00     0.031 A 
ATOM     86  C   UNL A   1      45.303  34.284  31.343  1.00  0.00     0.131 A 
ATOM     87  C   UNL A   1      45.138  36.355  29.516  1.00  0.00     0.055 A 
ATOM     88  C   UNL A   1      45.781  35.548  31.690  1.00  0.00     0.041 A 
ATOM     89  F   UNL A   1      45.436  33.300  32.248  1.00  0.00    -0.206 F 
ATOM     90  C   UNL A   1      45.713  36.589  30.768  1.00  0.00     0.022 A 
BRANCH  87  91
ATOM     91  S   UNL A   1      45.175  37.647  28.244  1.00  0.00     0.124 S 
ATOM     92  O   UNL A   1      46.514  38.202  28.414  1.00  0.00    -0.237 OA
ATOM     93  O   UNL A   1      44.951  36.885  27.020  1.00  0.00    -0.237 OA
ATOM     94  O   UNL A   1      44.080  38.537  28.628  1.00  0.00    -0.744 OA
ENDBRANCH  87  91
ENDBRANCH  61  84
ENDBRANCH  35  36
ENDBRANCH  27  30
ENDBRANCH  25  26
ENDBRANCH  24  25
ENDBRANCH  23  24
ENDBRANCH   1  23
TORSDOF 19
ENDMDL
