MODEL 1
REMARK VINA RESULT:     -10.8      0.000      0.000
REMARK SMILES O=C(COc1cccc(/C=C2/SC(=S)N(NC(=O)c3ccccc3F)C2=O)c1)NCCCCCCNC(=O)c1ccc(-c2c3nc(c(-c4cc(S(=O)(=O)[O-])ccc4F)c4ccc([nH]4)c(-c4cc(S(=O)(=O)[O-])ccc4F)c4nc(c(-c5cc(S(=O)(=O)[O-])ccc5F)c5ccc2[nH]5)C=C4)C=C3)cc1
REMARK SMILES IDX 31 1 30 2 29 3 1 4 2 5 3 7 4 8 5 9 6 10 28 11 7 12 9 13 8 14
REMARK SMILES IDX 10 15 11 16 12 17 26 18 13 19 15 20 27 21 14 22 16 23 17 24
REMARK SMILES IDX 18 26 19 27 20 28 24 29 21 30 23 31 25 32 22 33 32 34 33 35
REMARK SMILES IDX 34 36 35 37 36 38 37 39 38 41 39 42 40 43 101 44 41 45
REMARK SMILES IDX 100 46 42 47 43 48 44 49 94 50 45 51 99 52 93 53 95 54 46 55
REMARK SMILES IDX 98 56 92 57 91 58 47 60 79 61 59 62 78 63 60 64 63 65 77 66
REMARK SMILES IDX 96 67 61 68 62 69 76 71 97 72 64 73 48 74 49 75 57 76 50 77
REMARK SMILES IDX 56 78 58 79 55 80 51 81 52 82 53 83 54 84 80 85 81 86 89 87
REMARK SMILES IDX 82 88 88 89 90 90 87 91 83 92 84 93 85 94 86 95 65 96 66 97
REMARK SMILES IDX 74 98 67 99 73 100 75 101 72 102 68 103 69 104 70 105 71 106
REMARK H PARENT 29 6 16 25 36 40 95 59 63 70
REMARK Flexibility Score: inf
ROOT
ATOM      1  C   UNL A   1      35.759  31.894  28.427  1.00  0.00     0.021 C 
ENDROOT
BRANCH   1   2
ATOM      2  C   UNL A   1      34.447  31.242  27.999  1.00  0.00     0.116 C 
BRANCH   2   3
ATOM      3  N   UNL A   1      34.543  30.467  26.774  1.00  0.00    -0.353 N 
ATOM      4  O   UNL A   1      33.470  28.618  27.605  1.00  0.00    -0.271 OA
ATOM      5  C   UNL A   1      33.974  29.218  26.656  1.00  0.00     0.257 C 
ATOM      6  H   UNL A   1      35.031  30.845  26.006  1.00  0.00     0.163 HD
BRANCH   5   7
ATOM      7  C   UNL A   1      34.022  28.579  25.256  1.00  0.00     0.329 C 
BRANCH   7   8
ATOM      8  O   UNL A   1      33.237  29.075  24.185  1.00  0.00    -0.484 OA
BRANCH   8   9
ATOM      9  C   UNL A   1      32.237  28.257  23.733  1.00  0.00     0.120 A 
ATOM     10  C   UNL A   1      30.980  28.422  24.317  1.00  0.00     0.046 A 
ATOM     11  C   UNL A   1      32.467  27.164  22.902  1.00  0.00     0.054 A 
ATOM     12  C   UNL A   1      29.968  27.488  24.088  1.00  0.00     0.004 A 
ATOM     13  C   UNL A   1      31.508  26.153  22.780  1.00  0.00    -0.021 A 
ATOM     14  C   UNL A   1      30.239  26.342  23.340  1.00  0.00     0.008 A 
BRANCH  13  15
ATOM     15  C   UNL A   1      31.839  24.850  22.187  1.00  0.00     0.029 C 
ATOM     16  C   UNL A   1      32.280  23.783  22.878  1.00  0.00     0.082 C 
ATOM     17  S   UNL A   1      32.351  22.195  22.190  1.00  0.00    -0.052 SA
ATOM     18  C   UNL A   1      32.642  23.695  24.326  1.00  0.00     0.285 C 
ATOM     19  C   UNL A   1      32.496  21.416  23.764  1.00  0.00     0.168 C 
ATOM     20  N   UNL A   1      32.561  22.384  24.748  1.00  0.00    -0.198 N 
ATOM     21  O   UNL A   1      33.032  24.638  25.009  1.00  0.00    -0.266 OA
ATOM     22  S   UNL A   1      32.584  19.765  23.965  1.00  0.00    -0.050 S 
BRANCH  20  23
ATOM     23  N   UNL A   1      32.786  22.024  26.092  1.00  0.00    -0.254 N 
ATOM     24  C   UNL A   1      33.995  21.905  26.748  1.00  0.00     0.273 C 
ATOM     25  H   UNL A   1      31.982  21.835  26.628  1.00  0.00     0.192 HD
ATOM     26  O   UNL A   1      34.011  21.546  27.926  1.00  0.00    -0.267 OA
BRANCH  24  27
ATOM     27  C   UNL A   1      35.293  22.106  26.081  1.00  0.00     0.077 A 
ATOM     28  C   UNL A   1      35.902  23.367  26.192  1.00  0.00     0.017 A 
ATOM     29  C   UNL A   1      35.931  21.096  25.369  1.00  0.00     0.136 A 
ATOM     30  C   UNL A   1      37.165  23.585  25.641  1.00  0.00     0.001 A 
ATOM     31  C   UNL A   1      37.188  21.316  24.807  1.00  0.00     0.040 A 
ATOM     32  F   UNL A   1      35.370  19.886  25.236  1.00  0.00    -0.206 F 
ATOM     33  C   UNL A   1      37.808  22.559  24.950  1.00  0.00     0.003 A 
ENDBRANCH  24  27
ENDBRANCH  20  23
ENDBRANCH  13  15
ENDBRANCH   8   9
ENDBRANCH   7   8
ENDBRANCH   5   7
ENDBRANCH   2   3
ENDBRANCH   1   2
BRANCH   1  34
ATOM     34  C   UNL A   1      35.631  33.023  29.455  1.00  0.00     0.002 C 
BRANCH  34  35
ATOM     35  C   UNL A   1      35.683  34.450  28.904  1.00  0.00     0.002 C 
BRANCH  35  36
ATOM     36  C   UNL A   1      34.352  35.198  28.792  1.00  0.00     0.021 C 
BRANCH  36  37
ATOM     37  C   UNL A   1      33.158  34.558  29.498  1.00  0.00     0.116 C 
BRANCH  37  38
ATOM     38  N   UNL A   1      32.562  35.416  30.507  1.00  0.00    -0.352 N 
ATOM     39  C   UNL A   1      32.925  35.635  31.815  1.00  0.00     0.251 C 
ATOM     40  H   UNL A   1      31.773  35.922  30.207  1.00  0.00     0.163 HD
ATOM     41  O   UNL A   1      32.208  36.338  32.524  1.00  0.00    -0.269 OA
BRANCH  39  42
ATOM     42  C   UNL A   1      34.141  35.007  32.391  1.00  0.00     0.039 A 
ATOM     43  C   UNL A   1      34.016  33.753  33.002  1.00  0.00     0.014 A 
ATOM     44  C   UNL A   1      35.387  35.638  32.364  1.00  0.00     0.014 A 
ATOM     45  C   UNL A   1      35.143  33.108  33.519  1.00  0.00     0.010 A 
ATOM     46  C   UNL A   1      36.523  34.966  32.824  1.00  0.00     0.010 A 
ATOM     47  C   UNL A   1      36.414  33.692  33.401  1.00  0.00    -0.014 A 
BRANCH  47  48
ATOM     48  C   UNL A   1      37.632  32.964  33.853  1.00  0.00     0.031 A 
ATOM     49  C   UNL A   1      38.194  31.826  33.046  1.00  0.00     0.074 A 
ATOM     50  C   UNL A   1      38.203  33.299  35.027  1.00  0.00     0.049 A 
ATOM     51  N   UNL A   1      39.233  31.068  33.293  1.00  0.00    -0.248 NA
ATOM     52  C   UNL A   1      37.475  31.476  31.813  1.00  0.00     0.031 C 
ATOM     53  C   UNL A   1      37.724  34.348  35.929  1.00  0.00     0.029 A 
ATOM     54  N   UNL A   1      39.307  32.792  35.667  1.00  0.00    -0.354 N 
ATOM     55  C   UNL A   1      39.287  30.144  32.254  1.00  0.00     0.074 A 
ATOM     56  C   UNL A   1      38.141  30.405  31.408  1.00  0.00     0.031 C 
ATOM     57  C   UNL A   1      38.546  34.428  36.987  1.00  0.00     0.029 A 
ATOM     58  C   UNL A   1      39.589  33.415  36.860  1.00  0.00     0.049 A 
ATOM     59  H   UNL A   1      39.847  32.053  35.304  1.00  0.00     0.167 HD
ATOM     60  C   UNL A   1      40.217  29.182  32.018  1.00  0.00     0.034 A 
ATOM     61  C   UNL A   1      40.573  33.197  37.752  1.00  0.00     0.034 A 
ATOM     62  C   UNL A   1      41.362  28.941  32.866  1.00  0.00     0.049 A 
ATOM     63  C   UNL A   1      41.589  32.120  37.474  1.00  0.00     0.074 A 
ATOM     64  C   UNL A   1      42.405  28.050  32.676  1.00  0.00     0.029 A 
ATOM     65  N   UNL A   1      41.608  29.582  34.074  1.00  0.00    -0.354 N 
ATOM     66  N   UNL A   1      41.667  31.301  36.451  1.00  0.00    -0.248 NA
ATOM     67  C   UNL A   1      42.655  31.949  38.468  1.00  0.00     0.031 C 
ATOM     68  C   UNL A   1      43.243  28.105  33.797  1.00  0.00     0.029 A 
ATOM     69  C   UNL A   1      42.764  29.080  34.657  1.00  0.00     0.049 A 
ATOM     70  H   UNL A   1      41.044  30.291  34.459  1.00  0.00     0.167 HD
ATOM     71  C   UNL A   1      42.804  30.530  36.671  1.00  0.00     0.074 A 
ATOM     72  C   UNL A   1      43.389  30.997  37.911  1.00  0.00     0.031 C 
ATOM     73  C   UNL A   1      43.321  29.528  35.912  1.00  0.00     0.034 A 
BRANCH  60  74
ATOM     74  C   UNL A   1      40.008  28.302  30.805  1.00  0.00     0.023 A 
ATOM     75  C   UNL A   1      40.683  28.537  29.595  1.00  0.00     0.031 A 
ATOM     76  C   UNL A   1      39.091  27.237  30.849  1.00  0.00     0.131 A 
ATOM     77  C   UNL A   1      40.368  27.779  28.457  1.00  0.00     0.055 A 
ATOM     78  C   UNL A   1      38.843  26.432  29.734  1.00  0.00     0.041 A 
ATOM     79  F   UNL A   1      38.403  26.972  31.970  1.00  0.00    -0.206 F 
ATOM     80  C   UNL A   1      39.470  26.713  28.524  1.00  0.00     0.022 A 
BRANCH  77  81
ATOM     81  S   UNL A   1      41.029  28.311  26.853  1.00  0.00     0.124 S 
ATOM     82  O   UNL A   1      39.988  29.227  26.393  1.00  0.00    -0.237 OA
ATOM     83  O   UNL A   1      42.300  28.920  27.222  1.00  0.00    -0.237 OA
ATOM     84  O   UNL A   1      41.129  27.065  26.094  1.00  0.00    -0.744 OA
ENDBRANCH  77  81
ENDBRANCH  60  74
BRANCH  61  85
ATOM     85  C   UNL A   1      40.657  34.015  38.993  1.00  0.00     0.023 A 
ATOM     86  C   UNL A   1      41.366  35.227  39.010  1.00  0.00     0.031 A 
ATOM     87  C   UNL A   1      40.050  33.586  40.186  1.00  0.00     0.131 A 
ATOM     88  C   UNL A   1      41.483  35.951  40.206  1.00  0.00     0.055 A 
ATOM     89  C   UNL A   1      40.133  34.331  41.363  1.00  0.00     0.041 A 
ATOM     90  F   UNL A   1      39.355  32.438  40.218  1.00  0.00    -0.206 F 
ATOM     91  C   UNL A   1      40.862  35.517  41.380  1.00  0.00     0.022 A 
BRANCH  88  92
ATOM     92  S   UNL A   1      42.511  37.444  40.220  1.00  0.00     0.124 S 
ATOM     93  O   UNL A   1      42.850  37.587  38.808  1.00  0.00    -0.237 OA
ATOM     94  O   UNL A   1      41.593  38.440  40.764  1.00  0.00    -0.237 OA
ATOM     95  O   UNL A   1      43.625  37.083  41.096  1.00  0.00    -0.744 OA
ENDBRANCH  88  92
ENDBRANCH  61  85
BRANCH  73  96
ATOM     96  C   UNL A   1      44.597  28.894  36.410  1.00  0.00     0.023 A 
ATOM     97  C   UNL A   1      44.585  27.891  37.396  1.00  0.00     0.031 A 
ATOM     98  C   UNL A   1      45.843  29.328  35.925  1.00  0.00     0.131 A 
ATOM     99  C   UNL A   1      45.794  27.403  37.913  1.00  0.00     0.055 A 
ATOM    100  C   UNL A   1      47.042  28.796  36.400  1.00  0.00     0.041 A 
ATOM    101  F   UNL A   1      45.915  30.284  34.985  1.00  0.00    -0.206 F 
ATOM    102  C   UNL A   1      47.023  27.838  37.411  1.00  0.00     0.022 A 
BRANCH  99 103
ATOM    103  S   UNL A   1      45.742  26.270  39.329  1.00  0.00     0.124 S 
ATOM    104  O   UNL A   1      46.757  26.837  40.211  1.00  0.00    -0.237 OA
ATOM    105  O   UNL A   1      44.361  26.399  39.781  1.00  0.00    -0.237 OA
ATOM    106  O   UNL A   1      46.084  24.974  38.744  1.00  0.00    -0.744 OA
ENDBRANCH  99 103
ENDBRANCH  73  96
ENDBRANCH  47  48
ENDBRANCH  39  42
ENDBRANCH  37  38
ENDBRANCH  36  37
ENDBRANCH  35  36
ENDBRANCH  34  35
ENDBRANCH   1  34
TORSDOF 21
ENDMDL
MODEL 2
REMARK VINA RESULT:     -10.5      1.726      2.077
REMARK SMILES O=C(COc1cccc(/C=C2/SC(=S)N(NC(=O)c3ccccc3F)C2=O)c1)NCCCCCCNC(=O)c1ccc(-c2c3nc(c(-c4cc(S(=O)(=O)[O-])ccc4F)c4ccc([nH]4)c(-c4cc(S(=O)(=O)[O-])ccc4F)c4nc(c(-c5cc(S(=O)(=O)[O-])ccc5F)c5ccc2[nH]5)C=C4)C=C3)cc1
REMARK SMILES IDX 31 1 30 2 29 3 1 4 2 5 3 7 4 8 5 9 6 10 28 11 7 12 9 13 8 14
REMARK SMILES IDX 10 15 11 16 12 17 26 18 13 19 15 20 27 21 14 22 16 23 17 24
REMARK SMILES IDX 18 26 19 27 20 28 24 29 21 30 23 31 25 32 22 33 32 34 33 35
REMARK SMILES IDX 34 36 35 37 36 38 37 39 38 41 39 42 40 43 101 44 41 45
REMARK SMILES IDX 100 46 42 47 43 48 44 49 94 50 45 51 99 52 93 53 95 54 46 55
REMARK SMILES IDX 98 56 92 57 91 58 47 60 79 61 59 62 78 63 60 64 63 65 77 66
REMARK SMILES IDX 96 67 61 68 62 69 76 71 97 72 64 73 48 74 49 75 57 76 50 77
REMARK SMILES IDX 56 78 58 79 55 80 51 81 52 82 53 83 54 84 80 85 81 86 89 87
REMARK SMILES IDX 82 88 88 89 90 90 87 91 83 92 84 93 85 94 86 95 65 96 66 97
REMARK SMILES IDX 74 98 67 99 73 100 75 101 72 102 68 103 69 104 70 105 71 106
REMARK H PARENT 29 6 16 25 36 40 95 59 63 70
REMARK Flexibility Score: inf
ROOT
ATOM      1  C   UNL A   1      35.913  30.885  27.977  1.00  0.00     0.021 C 
ENDROOT
BRANCH   1   2
ATOM      2  C   UNL A   1      34.545  30.323  27.601  1.00  0.00     0.116 C 
BRANCH   2   3
ATOM      3  N   UNL A   1      34.451  29.864  26.225  1.00  0.00    -0.353 N 
ATOM      4  O   UNL A   1      33.473  27.853  26.736  1.00  0.00    -0.271 OA
ATOM      5  C   UNL A   1      33.848  28.670  25.896  1.00  0.00     0.257 C 
ATOM      6  H   UNL A   1      34.831  30.422  25.509  1.00  0.00     0.163 HD
BRANCH   5   7
ATOM      7  C   UNL A   1      33.685  28.385  24.391  1.00  0.00     0.329 C 
BRANCH   7   8
ATOM      8  O   UNL A   1      32.507  28.748  23.690  1.00  0.00    -0.484 OA
BRANCH   8   9
ATOM      9  C   UNL A   1      31.575  27.762  23.512  1.00  0.00     0.120 A 
ATOM     10  C   UNL A   1      30.447  27.812  24.332  1.00  0.00     0.046 A 
ATOM     11  C   UNL A   1      31.801  26.634  22.727  1.00  0.00     0.054 A 
ATOM     12  C   UNL A   1      29.564  26.732  24.384  1.00  0.00     0.004 A 
ATOM     13  C   UNL A   1      31.002  25.496  22.877  1.00  0.00    -0.021 A 
ATOM     14  C   UNL A   1      29.855  25.566  23.674  1.00  0.00     0.008 A 
BRANCH  13  15
ATOM     15  C   UNL A   1      31.405  24.199  22.318  1.00  0.00     0.029 C 
ATOM     16  C   UNL A   1      31.965  23.200  23.024  1.00  0.00     0.082 C 
ATOM     17  S   UNL A   1      32.127  21.594  22.395  1.00  0.00    -0.052 SA
ATOM     18  C   UNL A   1      32.408  23.202  24.452  1.00  0.00     0.285 C 
ATOM     19  C   UNL A   1      32.415  20.897  23.988  1.00  0.00     0.168 C 
ATOM     20  N   UNL A   1      32.454  21.908  24.928  1.00  0.00    -0.198 N 
ATOM     21  O   UNL A   1      32.756  24.201  25.076  1.00  0.00    -0.266 OA
ATOM     22  S   UNL A   1      32.645  19.267  24.247  1.00  0.00    -0.050 S 
BRANCH  20  23
ATOM     23  N   UNL A   1      32.776  21.625  26.271  1.00  0.00    -0.254 N 
ATOM     24  C   UNL A   1      34.022  21.638  26.866  1.00  0.00     0.273 C 
ATOM     25  H   UNL A   1      32.020  21.390  26.856  1.00  0.00     0.192 HD
ATOM     26  O   UNL A   1      34.129  21.331  28.054  1.00  0.00    -0.267 OA
BRANCH  24  27
ATOM     27  C   UNL A   1      35.262  21.922  26.123  1.00  0.00     0.077 A 
ATOM     28  C   UNL A   1      35.862  20.869  25.415  1.00  0.00     0.017 A 
ATOM     29  C   UNL A   1      35.840  23.187  26.091  1.00  0.00     0.136 A 
ATOM     30  C   UNL A   1      36.996  21.103  24.637  1.00  0.00     0.001 A 
ATOM     31  C   UNL A   1      36.980  23.422  25.323  1.00  0.00     0.040 A 
ATOM     32  F   UNL A   1      35.298  24.211  26.766  1.00  0.00    -0.206 F 
ATOM     33  C   UNL A   1      37.553  22.381  24.590  1.00  0.00     0.003 A 
ENDBRANCH  24  27
ENDBRANCH  20  23
ENDBRANCH  13  15
ENDBRANCH   8   9
ENDBRANCH   7   8
ENDBRANCH   5   7
ENDBRANCH   2   3
ENDBRANCH   1   2
BRANCH   1  34
ATOM     34  C   UNL A   1      35.894  32.101  28.909  1.00  0.00     0.002 C 
BRANCH  34  35
ATOM     35  C   UNL A   1      36.041  33.470  28.241  1.00  0.00     0.002 C 
BRANCH  35  36
ATOM     36  C   UNL A   1      34.769  34.309  28.094  1.00  0.00     0.021 C 
BRANCH  36  37
ATOM     37  C   UNL A   1      33.536  33.801  28.839  1.00  0.00     0.116 C 
BRANCH  37  38
ATOM     38  N   UNL A   1      33.034  34.743  29.823  1.00  0.00    -0.352 N 
ATOM     39  C   UNL A   1      33.483  35.027  31.091  1.00  0.00     0.251 C 
ATOM     40  H   UNL A   1      32.247  35.262  29.538  1.00  0.00     0.163 HD
ATOM     41  O   UNL A   1      32.836  35.802  31.794  1.00  0.00    -0.269 OA
BRANCH  39  42
ATOM     42  C   UNL A   1      34.706  34.387  31.636  1.00  0.00     0.039 A 
ATOM     43  C   UNL A   1      34.582  33.144  32.267  1.00  0.00     0.014 A 
ATOM     44  C   UNL A   1      35.961  34.997  31.560  1.00  0.00     0.014 A 
ATOM     45  C   UNL A   1      35.715  32.487  32.756  1.00  0.00     0.010 A 
ATOM     46  C   UNL A   1      37.101  34.313  31.991  1.00  0.00     0.010 A 
ATOM     47  C   UNL A   1      36.991  33.049  32.588  1.00  0.00    -0.014 A 
BRANCH  47  48
ATOM     48  C   UNL A   1      38.211  32.307  33.010  1.00  0.00     0.031 A 
ATOM     49  C   UNL A   1      38.788  31.218  32.147  1.00  0.00     0.074 A 
ATOM     50  C   UNL A   1      38.772  32.584  34.204  1.00  0.00     0.049 A 
ATOM     51  N   UNL A   1      39.831  30.455  32.361  1.00  0.00    -0.248 NA
ATOM     52  C   UNL A   1      38.080  30.928  30.893  1.00  0.00     0.031 C 
ATOM     53  C   UNL A   1      38.279  33.581  35.157  1.00  0.00     0.029 A 
ATOM     54  N   UNL A   1      39.876  32.052  34.823  1.00  0.00    -0.354 N 
ATOM     55  C   UNL A   1      39.900  29.588  31.276  1.00  0.00     0.074 A 
ATOM     56  C   UNL A   1      38.757  29.885  30.436  1.00  0.00     0.031 C 
ATOM     57  C   UNL A   1      39.093  33.611  36.223  1.00  0.00     0.029 A 
ATOM     58  C   UNL A   1      40.145  32.614  36.050  1.00  0.00     0.049 A 
ATOM     59  H   UNL A   1      40.424  31.337  34.426  1.00  0.00     0.167 HD
ATOM     60  C   UNL A   1      40.838  28.647  30.995  1.00  0.00     0.034 A 
ATOM     61  C   UNL A   1      41.125  32.356  36.936  1.00  0.00     0.034 A 
ATOM     62  C   UNL A   1      41.979  28.371  31.838  1.00  0.00     0.049 A 
ATOM     63  C   UNL A   1      42.151  31.303  36.609  1.00  0.00     0.074 A 
ATOM     64  C   UNL A   1      43.031  27.498  31.608  1.00  0.00     0.029 A 
ATOM     65  N   UNL A   1      42.212  28.948  33.079  1.00  0.00    -0.354 N 
ATOM     66  N   UNL A   1      42.242  30.540  35.545  1.00  0.00    -0.248 NA
ATOM     67  C   UNL A   1      43.212  31.088  37.600  1.00  0.00     0.031 C 
ATOM     68  C   UNL A   1      43.861  27.500  32.737  1.00  0.00     0.029 A 
ATOM     69  C   UNL A   1      43.368  28.425  33.644  1.00  0.00     0.049 A 
ATOM     70  H   UNL A   1      41.641  29.631  33.498  1.00  0.00     0.167 HD
ATOM     71  C   UNL A   1      43.384  29.767  35.731  1.00  0.00     0.074 A 
ATOM     72  C   UNL A   1      43.957  30.172  36.999  1.00  0.00     0.031 C 
ATOM     73  C   UNL A   1      43.913  28.810  34.925  1.00  0.00     0.034 A 
BRANCH  60  74
ATOM     74  C   UNL A   1      40.644  27.831  29.737  1.00  0.00     0.023 A 
ATOM     75  C   UNL A   1      41.482  27.985  28.619  1.00  0.00     0.031 A 
ATOM     76  C   UNL A   1      39.582  26.914  29.640  1.00  0.00     0.131 A 
ATOM     77  C   UNL A   1      41.193  27.303  27.426  1.00  0.00     0.055 A 
ATOM     78  C   UNL A   1      39.350  26.176  28.477  1.00  0.00     0.041 A 
ATOM     79  F   UNL A   1      38.738  26.734  30.668  1.00  0.00    -0.206 F 
ATOM     80  C   UNL A   1      40.147  26.383  27.355  1.00  0.00     0.022 A 
BRANCH  77  81
ATOM     81  S   UNL A   1      42.106  27.760  25.926  1.00  0.00     0.124 S 
ATOM     82  O   UNL A   1      43.487  27.733  26.400  1.00  0.00    -0.237 OA
ATOM     83  O   UNL A   1      41.729  26.703  24.995  1.00  0.00    -0.237 OA
ATOM     84  O   UNL A   1      41.593  29.090  25.604  1.00  0.00    -0.744 OA
ENDBRANCH  77  81
ENDBRANCH  60  74
BRANCH  61  85
ATOM     85  C   UNL A   1      41.194  33.108  38.219  1.00  0.00     0.023 A 
ATOM     86  C   UNL A   1      40.602  32.597  39.385  1.00  0.00     0.031 A 
ATOM     87  C   UNL A   1      41.831  34.359  38.293  1.00  0.00     0.131 A 
ATOM     88  C   UNL A   1      40.626  33.351  40.568  1.00  0.00     0.055 A 
ATOM     89  C   UNL A   1      41.890  35.086  39.482  1.00  0.00     0.041 A 
ATOM     90  F   UNL A   1      42.418  34.886  37.206  1.00  0.00    -0.206 F 
ATOM     91  C   UNL A   1      41.276  34.587  40.628  1.00  0.00     0.022 A 
BRANCH  88  92
ATOM     92  S   UNL A   1      39.743  32.718  42.020  1.00  0.00     0.124 S 
ATOM     93  O   UNL A   1      38.872  33.841  42.352  1.00  0.00    -0.237 OA
ATOM     94  O   UNL A   1      39.084  31.532  41.482  1.00  0.00    -0.237 OA
ATOM     95  O   UNL A   1      40.813  32.452  42.980  1.00  0.00    -0.744 OA
ENDBRANCH  88  92
ENDBRANCH  61  85
BRANCH  73  96
ATOM     96  C   UNL A   1      45.191  28.160  35.397  1.00  0.00     0.023 A 
ATOM     97  C   UNL A   1      45.177  26.985  36.170  1.00  0.00     0.031 A 
ATOM     98  C   UNL A   1      46.436  28.746  35.109  1.00  0.00     0.131 A 
ATOM     99  C   UNL A   1      46.378  26.471  36.684  1.00  0.00     0.055 A 
ATOM    100  C   UNL A   1      47.631  28.196  35.572  1.00  0.00     0.041 A 
ATOM    101  F   UNL A   1      46.509  29.870  34.377  1.00  0.00    -0.206 F 
ATOM    102  C   UNL A   1      47.606  27.061  36.377  1.00  0.00     0.022 A 
BRANCH  99 103
ATOM    103  S   UNL A   1      46.302  25.082  37.849  1.00  0.00     0.124 S 
ATOM    104  O   UNL A   1      45.538  24.093  37.096  1.00  0.00    -0.237 OA
ATOM    105  O   UNL A   1      47.712  24.774  38.058  1.00  0.00    -0.237 OA
ATOM    106  O   UNL A   1      45.612  25.645  39.009  1.00  0.00    -0.744 OA
ENDBRANCH  99 103
ENDBRANCH  73  96
ENDBRANCH  47  48
ENDBRANCH  39  42
ENDBRANCH  37  38
ENDBRANCH  36  37
ENDBRANCH  35  36
ENDBRANCH  34  35
ENDBRANCH   1  34
TORSDOF 21
ENDMDL
MODEL 3
REMARK VINA RESULT:     -10.0      2.358      2.635
REMARK SMILES O=C(COc1cccc(/C=C2/SC(=S)N(NC(=O)c3ccccc3F)C2=O)c1)NCCCCCCNC(=O)c1ccc(-c2c3nc(c(-c4cc(S(=O)(=O)[O-])ccc4F)c4ccc([nH]4)c(-c4cc(S(=O)(=O)[O-])ccc4F)c4nc(c(-c5cc(S(=O)(=O)[O-])ccc5F)c5ccc2[nH]5)C=C4)C=C3)cc1
REMARK SMILES IDX 31 1 30 2 29 3 1 4 2 5 3 7 4 8 5 9 6 10 28 11 7 12 9 13 8 14
REMARK SMILES IDX 10 15 11 16 12 17 26 18 13 19 15 20 27 21 14 22 16 23 17 24
REMARK SMILES IDX 18 26 19 27 20 28 24 29 21 30 23 31 25 32 22 33 32 34 33 35
REMARK SMILES IDX 34 36 35 37 36 38 37 39 38 41 39 42 40 43 101 44 41 45
REMARK SMILES IDX 100 46 42 47 43 48 44 49 94 50 45 51 99 52 93 53 95 54 46 55
REMARK SMILES IDX 98 56 92 57 91 58 47 60 79 61 59 62 78 63 60 64 63 65 77 66
REMARK SMILES IDX 96 67 61 68 62 69 76 71 97 72 64 73 48 74 49 75 57 76 50 77
REMARK SMILES IDX 56 78 58 79 55 80 51 81 52 82 53 83 54 84 80 85 81 86 89 87
REMARK SMILES IDX 82 88 88 89 90 90 87 91 83 92 84 93 85 94 86 95 65 96 66 97
REMARK SMILES IDX 74 98 67 99 73 100 75 101 72 102 68 103 69 104 70 105 71 106
REMARK H PARENT 29 6 16 25 36 40 95 59 63 70
REMARK Flexibility Score: inf
ROOT
ATOM      1  C   UNL A   1      35.620  31.052  28.346  1.00  0.00     0.021 C 
ENDROOT
BRANCH   1   2
ATOM      2  C   UNL A   1      34.274  30.658  27.743  1.00  0.00     0.116 C 
BRANCH   2   3
ATOM      3  N   UNL A   1      34.365  30.103  26.404  1.00  0.00    -0.353 N 
ATOM      4  O   UNL A   1      33.314  28.130  26.918  1.00  0.00    -0.271 OA
ATOM      5  C   UNL A   1      33.805  28.886  26.081  1.00  0.00     0.257 C 
ATOM      6  H   UNL A   1      34.842  30.610  25.707  1.00  0.00     0.163 HD
BRANCH   5   7
ATOM      7  C   UNL A   1      33.845  28.494  24.592  1.00  0.00     0.329 C 
BRANCH   7   8
ATOM      8  O   UNL A   1      32.813  28.872  23.696  1.00  0.00    -0.484 OA
BRANCH   8   9
ATOM      9  C   UNL A   1      31.837  27.940  23.463  1.00  0.00     0.120 A 
ATOM     10  C   UNL A   1      30.676  28.045  24.228  1.00  0.00     0.046 A 
ATOM     11  C   UNL A   1      32.040  26.808  22.678  1.00  0.00     0.054 A 
ATOM     12  C   UNL A   1      29.733  27.015  24.225  1.00  0.00     0.004 A 
ATOM     13  C   UNL A   1      31.174  25.714  22.777  1.00  0.00    -0.021 A 
ATOM     14  C   UNL A   1      29.994  25.840  23.518  1.00  0.00     0.008 A 
BRANCH  13  15
ATOM     15  C   UNL A   1      31.532  24.401  22.224  1.00  0.00     0.029 C 
ATOM     16  C   UNL A   1      32.043  23.381  22.938  1.00  0.00     0.082 C 
ATOM     17  S   UNL A   1      32.149  21.770  22.312  1.00  0.00    -0.052 SA
ATOM     18  C   UNL A   1      32.468  23.368  24.371  1.00  0.00     0.285 C 
ATOM     19  C   UNL A   1      32.390  21.064  23.910  1.00  0.00     0.168 C 
ATOM     20  N   UNL A   1      32.457  22.075  24.849  1.00  0.00    -0.198 N 
ATOM     21  O   UNL A   1      32.848  24.354  24.999  1.00  0.00    -0.266 OA
ATOM     22  S   UNL A   1      32.551  19.427  24.173  1.00  0.00    -0.050 S 
BRANCH  20  23
ATOM     23  N   UNL A   1      32.751  21.781  26.196  1.00  0.00    -0.254 N 
ATOM     24  C   UNL A   1      33.986  21.772  26.813  1.00  0.00     0.273 C 
ATOM     25  H   UNL A   1      31.981  21.555  26.767  1.00  0.00     0.192 HD
ATOM     26  O   UNL A   1      34.067  21.458  28.002  1.00  0.00    -0.267 OA
BRANCH  24  27
ATOM     27  C   UNL A   1      35.243  22.041  26.094  1.00  0.00     0.077 A 
ATOM     28  C   UNL A   1      35.798  23.327  26.195  1.00  0.00     0.017 A 
ATOM     29  C   UNL A   1      35.896  21.069  25.343  1.00  0.00     0.136 A 
ATOM     30  C   UNL A   1      37.024  23.610  25.594  1.00  0.00     0.001 A 
ATOM     31  C   UNL A   1      37.116  21.353  24.731  1.00  0.00     0.040 A 
ATOM     32  F   UNL A   1      35.386  19.836  25.219  1.00  0.00    -0.206 F 
ATOM     33  C   UNL A   1      37.684  22.622  24.863  1.00  0.00     0.003 A 
ENDBRANCH  24  27
ENDBRANCH  20  23
ENDBRANCH  13  15
ENDBRANCH   8   9
ENDBRANCH   7   8
ENDBRANCH   5   7
ENDBRANCH   2   3
ENDBRANCH   1   2
BRANCH   1  34
ATOM     34  C   UNL A   1      35.592  32.254  29.297  1.00  0.00     0.002 C 
BRANCH  34  35
ATOM     35  C   UNL A   1      35.869  33.622  28.669  1.00  0.00     0.002 C 
BRANCH  35  36
ATOM     36  C   UNL A   1      34.736  34.650  28.719  1.00  0.00     0.021 C 
BRANCH  36  37
ATOM     37  C   UNL A   1      33.377  34.133  29.187  1.00  0.00     0.116 C 
BRANCH  37  38
ATOM     38  N   UNL A   1      32.763  34.973  30.200  1.00  0.00    -0.352 N 
ATOM     39  C   UNL A   1      33.146  35.228  31.495  1.00  0.00     0.251 C 
ATOM     40  H   UNL A   1      31.941  35.433  29.914  1.00  0.00     0.163 HD
ATOM     41  O   UNL A   1      32.412  35.904  32.213  1.00  0.00    -0.269 OA
BRANCH  39  42
ATOM     42  C   UNL A   1      34.406  34.672  32.048  1.00  0.00     0.039 A 
ATOM     43  C   UNL A   1      34.401  33.354  32.521  1.00  0.00     0.014 A 
ATOM     44  C   UNL A   1      35.578  35.428  32.134  1.00  0.00     0.014 A 
ATOM     45  C   UNL A   1      35.576  32.778  33.010  1.00  0.00     0.010 A 
ATOM     46  C   UNL A   1      36.767  34.832  32.564  1.00  0.00     0.010 A 
ATOM     47  C   UNL A   1      36.780  33.499  33.002  1.00  0.00    -0.014 A 
BRANCH  47  48
ATOM     48  C   UNL A   1      38.057  32.858  33.422  1.00  0.00     0.031 A 
ATOM     49  C   UNL A   1      38.822  31.972  32.476  1.00  0.00     0.074 A 
ATOM     50  C   UNL A   1      38.500  33.034  34.681  1.00  0.00     0.049 A 
ATOM     51  N   UNL A   1      39.938  31.317  32.673  1.00  0.00    -0.248 NA
ATOM     52  C   UNL A   1      38.237  31.774  31.142  1.00  0.00     0.031 C 
ATOM     53  C   UNL A   1      37.824  33.826  35.711  1.00  0.00     0.029 A 
ATOM     54  N   UNL A   1      39.622  32.558  35.314  1.00  0.00    -0.354 N 
ATOM     55  C   UNL A   1      40.186  30.620  31.495  1.00  0.00     0.074 A 
ATOM     56  C   UNL A   1      39.070  30.891  30.612  1.00  0.00     0.031 C 
ATOM     57  C   UNL A   1      38.559  33.807  36.834  1.00  0.00     0.029 A 
ATOM     58  C   UNL A   1      39.739  32.975  36.620  1.00  0.00     0.049 A 
ATOM     59  H   UNL A   1      40.281  31.974  34.875  1.00  0.00     0.167 HD
ATOM     60  C   UNL A   1      41.254  29.844  31.173  1.00  0.00     0.034 A 
ATOM     61  C   UNL A   1      40.686  32.718  37.541  1.00  0.00     0.034 A 
ATOM     62  C   UNL A   1      42.365  29.593  32.062  1.00  0.00     0.049 A 
ATOM     63  C   UNL A   1      41.857  31.849  37.165  1.00  0.00     0.074 A 
ATOM     64  C   UNL A   1      43.532  28.892  31.807  1.00  0.00     0.029 A 
ATOM     65  N   UNL A   1      42.443  30.020  33.381  1.00  0.00    -0.354 N 
ATOM     66  N   UNL A   1      42.112  31.254  36.023  1.00  0.00    -0.248 NA
ATOM     67  C   UNL A   1      42.872  31.628  38.202  1.00  0.00     0.031 C 
ATOM     68  C   UNL A   1      44.282  28.838  32.990  1.00  0.00     0.029 A 
ATOM     69  C   UNL A   1      43.619  29.566  33.964  1.00  0.00     0.049 A 
ATOM     70  H   UNL A   1      41.763  30.567  33.837  1.00  0.00     0.167 HD
ATOM     71  C   UNL A   1      43.330  30.603  36.200  1.00  0.00     0.074 A 
ATOM     72  C   UNL A   1      43.765  30.898  37.551  1.00  0.00     0.031 C 
ATOM     73  C   UNL A   1      44.028  29.836  35.323  1.00  0.00     0.034 A 
BRANCH  60  74
ATOM     74  C   UNL A   1      41.246  29.190  29.810  1.00  0.00     0.023 A 
ATOM     75  C   UNL A   1      40.612  27.955  29.585  1.00  0.00     0.031 A 
ATOM     76  C   UNL A   1      41.916  29.790  28.729  1.00  0.00     0.131 A 
ATOM     77  C   UNL A   1      40.735  27.319  28.340  1.00  0.00     0.055 A 
ATOM     78  C   UNL A   1      41.963  29.191  27.467  1.00  0.00     0.041 A 
ATOM     79  F   UNL A   1      42.553  30.960  28.883  1.00  0.00    -0.206 F 
ATOM     80  C   UNL A   1      41.386  27.939  27.273  1.00  0.00     0.022 A 
BRANCH  77  81
ATOM     81  S   UNL A   1      40.171  25.602  28.186  1.00  0.00     0.124 S 
ATOM     82  O   UNL A   1      39.011  25.590  29.073  1.00  0.00    -0.237 OA
ATOM     83  O   UNL A   1      39.887  25.490  26.760  1.00  0.00    -0.237 OA
ATOM     84  O   UNL A   1      41.313  24.822  28.659  1.00  0.00    -0.744 OA
ENDBRANCH  77  81
ENDBRANCH  60  74
BRANCH  61  85
ATOM     85  C   UNL A   1      40.577  33.291  38.911  1.00  0.00     0.023 A 
ATOM     86  C   UNL A   1      39.862  32.620  39.917  1.00  0.00     0.031 A 
ATOM     87  C   UNL A   1      41.163  34.529  39.228  1.00  0.00     0.131 A 
ATOM     88  C   UNL A   1      39.721  33.209  41.182  1.00  0.00     0.055 A 
ATOM     89  C   UNL A   1      41.056  35.089  40.501  1.00  0.00     0.041 A 
ATOM     90  F   UNL A   1      41.863  35.204  38.302  1.00  0.00    -0.206 F 
ATOM     91  C   UNL A   1      40.322  34.433  41.485  1.00  0.00     0.022 A 
BRANCH  88  92
ATOM     92  S   UNL A   1      38.687  32.375  42.417  1.00  0.00     0.124 S 
ATOM     93  O   UNL A   1      39.688  31.834  43.330  1.00  0.00    -0.237 OA
ATOM     94  O   UNL A   1      37.879  33.477  42.930  1.00  0.00    -0.237 OA
ATOM     95  O   UNL A   1      37.954  31.382  41.633  1.00  0.00    -0.744 OA
ENDBRANCH  88  92
ENDBRANCH  61  85
BRANCH  73  96
ATOM     96  C   UNL A   1      45.346  29.284  35.809  1.00  0.00     0.023 A 
ATOM     97  C   UNL A   1      46.550  29.989  35.630  1.00  0.00     0.031 A 
ATOM     98  C   UNL A   1      45.407  28.018  36.417  1.00  0.00     0.131 A 
ATOM     99  C   UNL A   1      47.769  29.398  35.995  1.00  0.00     0.055 A 
ATOM    100  C   UNL A   1      46.616  27.460  36.833  1.00  0.00     0.041 A 
ATOM    101  F   UNL A   1      44.290  27.299  36.611  1.00  0.00    -0.206 F 
ATOM    102  C   UNL A   1      47.808  28.144  36.608  1.00  0.00     0.022 A 
BRANCH  99 103
ATOM    103  S   UNL A   1      49.313  30.243  35.556  1.00  0.00     0.124 S 
ATOM    104  O   UNL A   1      48.942  30.938  34.327  1.00  0.00    -0.237 OA
ATOM    105  O   UNL A   1      49.548  31.089  36.720  1.00  0.00    -0.237 OA
ATOM    106  O   UNL A   1      50.267  29.148  35.383  1.00  0.00    -0.744 OA
ENDBRANCH  99 103
ENDBRANCH  73  96
ENDBRANCH  47  48
ENDBRANCH  39  42
ENDBRANCH  37  38
ENDBRANCH  36  37
ENDBRANCH  35  36
ENDBRANCH  34  35
ENDBRANCH   1  34
TORSDOF 21
ENDMDL
