MODEL 1
REMARK VINA RESULT:     -11.9      0.000      0.000
REMARK SMILES Nc1nc(N2CCOC[C@H]2C(=O)NCCCCCCNC(=O)c2ccc(-c3c4nc(c(-c5cc(S(=O)(=O)[O-])ccc5F)c5ccc([nH]5)c(-c5cc(S(=O)(=O)[O-])ccc5F)c5nc(c(-c6cc(S(=O)(=O)[O-])ccc6F)c6ccc3[nH]6)C=C5)C=C4)cc2)ccc1[N+](=O)[O-]
REMARK SMILES IDX 17 1 16 2 15 3 14 4 13 5 11 6 12 7 10 9 5 10 6 11 7 12 9 13
REMARK SMILES IDX 8 14 4 15 2 16 3 17 88 18 87 19 86 20 1 21 89 24 90 25 91 26
REMARK SMILES IDX 18 27 19 28 20 29 21 30 22 32 23 33 24 34 85 35 25 36 84 37
REMARK SMILES IDX 26 38 27 39 28 40 78 41 29 42 83 43 77 44 79 45 30 46 82 47
REMARK SMILES IDX 76 48 75 49 31 51 63 52 43 53 62 54 44 55 47 56 61 57 80 58
REMARK SMILES IDX 45 59 46 60 60 62 81 63 48 64 32 65 33 66 41 67 34 68 40 69
REMARK SMILES IDX 42 70 39 71 35 72 36 73 37 74 38 75 64 76 65 77 73 78 66 79
REMARK SMILES IDX 72 80 74 81 71 82 67 83 68 84 69 85 70 86 49 87 50 88 58 89
REMARK SMILES IDX 51 90 57 91 59 92 56 93 52 94 53 95 54 96 55 97
REMARK H PARENT 13 8 1 22 1 23 20 31 79 50 47 61
REMARK Flexibility Score: inf
ROOT
ATOM      1  C   UNL A   1      31.431  30.575  25.831  1.00  0.00     0.002 C 
ENDROOT
BRANCH   1   2
ATOM      2  C   UNL A   1      31.821  29.392  26.727  1.00  0.00     0.002 C 
BRANCH   2   3
ATOM      3  C   UNL A   1      33.129  28.694  26.342  1.00  0.00     0.021 C 
BRANCH   3   4
ATOM      4  C   UNL A   1      33.477  28.817  24.858  1.00  0.00     0.116 C 
BRANCH   4   5
ATOM      5  N   UNL A   1      34.030  27.583  24.342  1.00  0.00    -0.354 N 
ATOM      6  C   UNL A   1      33.583  26.299  24.339  1.00  0.00     0.245 C 
ATOM      7  O   UNL A   1      34.326  25.494  23.753  1.00  0.00    -0.273 OA
ATOM      8  H   UNL A   1      34.904  27.698  23.904  1.00  0.00     0.163 HD
BRANCH   6   9
ATOM      9  C   UNL A   1      32.222  25.817  24.896  1.00  0.00     0.199 C 
ATOM     10  N   UNL A   1      31.114  25.650  23.929  1.00  0.00    -0.340 N 
ATOM     11  C   UNL A   1      30.885  24.328  23.356  1.00  0.00     0.147 C 
ATOM     12  C   UNL A   1      30.941  23.259  24.448  1.00  0.00     0.181 C 
ATOM     13  C   UNL A   1      32.340  24.591  25.829  1.00  0.00     0.195 C 
ATOM     14  O   UNL A   1      32.165  23.316  25.191  1.00  0.00    -0.377 OA
BRANCH  10  15
ATOM     15  C   UNL A   1      30.348  26.732  23.556  1.00  0.00     0.132 A 
ATOM     16  C   UNL A   1      30.185  28.812  22.479  1.00  0.00     0.204 A 
ATOM     17  N   UNL A   1      30.935  27.774  22.930  1.00  0.00    -0.207 NA
ATOM     18  C   UNL A   1      28.807  28.850  22.674  1.00  0.00     0.311 A 
ATOM     19  C   UNL A   1      28.197  27.821  23.386  1.00  0.00     0.093 A 
ATOM     20  C   UNL A   1      28.980  26.760  23.826  1.00  0.00     0.054 A 
BRANCH  16  21
ATOM     21  N   UNL A   1      30.896  29.736  21.742  1.00  0.00    -0.378 N 
ATOM     22  H   UNL A   1      31.881  29.722  21.754  1.00  0.00     0.158 HD
ATOM     23  H   UNL A   1      30.421  30.409  21.204  1.00  0.00     0.158 HD
ENDBRANCH  16  21
BRANCH  18  24
ATOM     24  N   UNL A   1      27.980  29.941  22.174  1.00  0.00     0.066 N 
ATOM     25  O   UNL A   1      28.133  30.277  20.989  1.00  0.00    -0.258 OA
ATOM     26  O   UNL A   1      27.142  30.453  22.934  1.00  0.00    -0.258 OA
ENDBRANCH  18  24
ENDBRANCH  10  15
ENDBRANCH   6   9
ENDBRANCH   4   5
ENDBRANCH   3   4
ENDBRANCH   2   3
ENDBRANCH   1   2
BRANCH   1  27
ATOM     27  C   UNL A   1      31.428  31.948  26.510  1.00  0.00     0.021 C 
BRANCH  27  28
ATOM     28  C   UNL A   1      32.725  32.317  27.226  1.00  0.00     0.116 C 
BRANCH  28  29
ATOM     29  N   UNL A   1      32.770  33.729  27.572  1.00  0.00    -0.352 N 
ATOM     30  C   UNL A   1      33.539  34.377  28.508  1.00  0.00     0.251 C 
ATOM     31  H   UNL A   1      32.160  34.305  27.058  1.00  0.00     0.163 HD
ATOM     32  O   UNL A   1      33.264  35.531  28.822  1.00  0.00    -0.269 OA
BRANCH  30  33
ATOM     33  C   UNL A   1      34.681  33.681  29.140  1.00  0.00     0.039 A 
ATOM     34  C   UNL A   1      34.432  32.747  30.148  1.00  0.00     0.014 A 
ATOM     35  C   UNL A   1      35.994  33.970  28.760  1.00  0.00     0.014 A 
ATOM     36  C   UNL A   1      35.498  32.062  30.736  1.00  0.00     0.010 A 
ATOM     37  C   UNL A   1      37.049  33.238  29.296  1.00  0.00     0.010 A 
ATOM     38  C   UNL A   1      36.813  32.281  30.296  1.00  0.00    -0.014 A 
BRANCH  38  39
ATOM     39  C   UNL A   1      37.957  31.536  30.880  1.00  0.00     0.031 A 
ATOM     40  C   UNL A   1      38.412  31.831  32.282  1.00  0.00     0.074 A 
ATOM     41  C   UNL A   1      38.621  30.636  30.129  1.00  0.00     0.049 A 
ATOM     42  N   UNL A   1      39.426  31.340  32.948  1.00  0.00    -0.248 NA
ATOM     43  C   UNL A   1      37.640  32.840  33.020  1.00  0.00     0.031 C 
ATOM     44  C   UNL A   1      38.292  30.283  28.747  1.00  0.00     0.029 A 
ATOM     45  N   UNL A   1      39.710  29.854  30.422  1.00  0.00    -0.354 N 
ATOM     46  C   UNL A   1      39.418  31.986  34.181  1.00  0.00     0.074 A 
ATOM     47  C   UNL A   1      38.348  32.959  34.131  1.00  0.00     0.031 C 
ATOM     48  C   UNL A   1      39.138  29.330  28.324  1.00  0.00     0.029 A 
ATOM     49  C   UNL A   1      40.097  29.037  29.386  1.00  0.00     0.049 A 
ATOM     50  H   UNL A   1      40.171  29.877  31.291  1.00  0.00     0.167 HD
ATOM     51  C   UNL A   1      40.210  31.767  35.262  1.00  0.00     0.034 A 
ATOM     52  C   UNL A   1      41.110  28.153  29.301  1.00  0.00     0.034 A 
ATOM     53  C   UNL A   1      41.276  30.794  35.289  1.00  0.00     0.049 A 
ATOM     54  C   UNL A   1      42.015  27.967  30.491  1.00  0.00     0.074 A 
ATOM     55  C   UNL A   1      42.116  30.459  36.336  1.00  0.00     0.029 A 
ATOM     56  N   UNL A   1      41.659  30.005  34.209  1.00  0.00    -0.354 N 
ATOM     57  N   UNL A   1      41.974  28.555  31.664  1.00  0.00    -0.248 NA
ATOM     58  C   UNL A   1      43.102  26.990  30.343  1.00  0.00     0.031 C 
ATOM     59  C   UNL A   1      43.048  29.522  35.871  1.00  0.00     0.029 A 
ATOM     60  C   UNL A   1      42.743  29.212  34.556  1.00  0.00     0.049 A 
ATOM     61  H   UNL A   1      41.223  30.010  33.326  1.00  0.00     0.167 HD
ATOM     62  C   UNL A   1      43.007  27.993  32.407  1.00  0.00     0.074 A 
ATOM     63  C   UNL A   1      43.649  27.016  31.550  1.00  0.00     0.031 C 
ATOM     64  C   UNL A   1      43.387  28.255  33.685  1.00  0.00     0.034 A 
BRANCH  51  65
ATOM     65  C   UNL A   1      39.957  32.628  36.481  1.00  0.00     0.023 A 
ATOM     66  C   UNL A   1      39.080  32.215  37.502  1.00  0.00     0.031 A 
ATOM     67  C   UNL A   1      40.535  33.905  36.593  1.00  0.00     0.131 A 
ATOM     68  C   UNL A   1      38.718  33.109  38.520  1.00  0.00     0.055 A 
ATOM     69  C   UNL A   1      40.248  34.752  37.667  1.00  0.00     0.041 A 
ATOM     70  F   UNL A   1      41.366  34.366  35.645  1.00  0.00    -0.206 F 
ATOM     71  C   UNL A   1      39.316  34.366  38.625  1.00  0.00     0.022 A 
BRANCH  68  72
ATOM     72  S   UNL A   1      37.308  32.682  39.579  1.00  0.00     0.124 S 
ATOM     73  O   UNL A   1      37.680  31.345  40.037  1.00  0.00    -0.237 OA
ATOM     74  O   UNL A   1      37.340  33.735  40.587  1.00  0.00    -0.237 OA
ATOM     75  O   UNL A   1      36.168  32.723  38.666  1.00  0.00    -0.744 OA
ENDBRANCH  68  72
ENDBRANCH  51  65
BRANCH  52  76
ATOM     76  C   UNL A   1      41.317  27.368  28.053  1.00  0.00     0.023 A 
ATOM     77  C   UNL A   1      40.987  26.004  28.005  1.00  0.00     0.031 A 
ATOM     78  C   UNL A   1      41.859  27.959  26.899  1.00  0.00     0.131 A 
ATOM     79  C   UNL A   1      41.233  25.267  26.836  1.00  0.00     0.055 A 
ATOM     80  C   UNL A   1      42.059  27.233  25.724  1.00  0.00     0.041 A 
ATOM     81  F   UNL A   1      42.184  29.262  26.892  1.00  0.00    -0.206 F 
ATOM     82  C   UNL A   1      41.754  25.875  25.692  1.00  0.00     0.022 A 
BRANCH  79  83
ATOM     83  S   UNL A   1      40.912  23.482  26.853  1.00  0.00     0.124 S 
ATOM     84  O   UNL A   1      41.305  23.123  28.210  1.00  0.00    -0.237 OA
ATOM     85  O   UNL A   1      39.483  23.429  26.561  1.00  0.00    -0.237 OA
ATOM     86  O   UNL A   1      41.780  22.972  25.794  1.00  0.00    -0.744 OA
ENDBRANCH  79  83
ENDBRANCH  52  76
BRANCH  64  87
ATOM     87  C   UNL A   1      44.526  27.435  34.239  1.00  0.00     0.023 A 
ATOM     88  C   UNL A   1      44.314  26.182  34.842  1.00  0.00     0.031 A 
ATOM     89  C   UNL A   1      45.844  27.924  34.178  1.00  0.00     0.131 A 
ATOM     90  C   UNL A   1      45.393  25.488  35.410  1.00  0.00     0.055 A 
ATOM     91  C   UNL A   1      46.922  27.200  34.690  1.00  0.00     0.041 A 
ATOM     92  F   UNL A   1      46.105  29.115  33.617  1.00  0.00    -0.206 F 
ATOM     93  C   UNL A   1      46.698  25.981  35.323  1.00  0.00     0.022 A 
BRANCH  90  94
ATOM     94  S   UNL A   1      45.057  23.973  36.351  1.00  0.00     0.124 S 
ATOM     95  O   UNL A   1      43.926  23.408  35.622  1.00  0.00    -0.237 OA
ATOM     96  O   UNL A   1      46.317  23.246  36.234  1.00  0.00    -0.237 OA
ATOM     97  O   UNL A   1      44.747  24.464  37.693  1.00  0.00    -0.744 OA
ENDBRANCH  90  94
ENDBRANCH  64  87
ENDBRANCH  38  39
ENDBRANCH  30  33
ENDBRANCH  28  29
ENDBRANCH  27  28
ENDBRANCH   1  27
TORSDOF 19
ENDMDL
MODEL 2
REMARK VINA RESULT:     -11.8      5.279      8.158
REMARK SMILES Nc1nc(N2CCOC[C@H]2C(=O)NCCCCCCNC(=O)c2ccc(-c3c4nc(c(-c5cc(S(=O)(=O)[O-])ccc5F)c5ccc([nH]5)c(-c5cc(S(=O)(=O)[O-])ccc5F)c5nc(c(-c6cc(S(=O)(=O)[O-])ccc6F)c6ccc3[nH]6)C=C5)C=C4)cc2)ccc1[N+](=O)[O-]
REMARK SMILES IDX 17 1 16 2 15 3 14 4 13 5 11 6 12 7 10 9 5 10 6 11 7 12 9 13
REMARK SMILES IDX 8 14 4 15 2 16 3 17 88 18 87 19 86 20 1 21 89 24 90 25 91 26
REMARK SMILES IDX 18 27 19 28 20 29 21 30 22 32 23 33 24 34 85 35 25 36 84 37
REMARK SMILES IDX 26 38 27 39 28 40 78 41 29 42 83 43 77 44 79 45 30 46 82 47
REMARK SMILES IDX 76 48 75 49 31 51 63 52 43 53 62 54 44 55 47 56 61 57 80 58
REMARK SMILES IDX 45 59 46 60 60 62 81 63 48 64 32 65 33 66 41 67 34 68 40 69
REMARK SMILES IDX 42 70 39 71 35 72 36 73 37 74 38 75 64 76 65 77 73 78 66 79
REMARK SMILES IDX 72 80 74 81 71 82 67 83 68 84 69 85 70 86 49 87 50 88 58 89
REMARK SMILES IDX 51 90 57 91 59 92 56 93 52 94 53 95 54 96 55 97
REMARK H PARENT 13 8 1 22 1 23 20 31 79 50 47 61
REMARK Flexibility Score: inf
ROOT
ATOM      1  C   UNL A   1      35.309  23.499  24.134  1.00  0.00     0.002 C 
ENDROOT
BRANCH   1   2
ATOM      2  C   UNL A   1      35.196  24.304  25.435  1.00  0.00     0.002 C 
BRANCH   2   3
ATOM      3  C   UNL A   1      33.814  24.278  26.094  1.00  0.00     0.021 C 
BRANCH   3   4
ATOM      4  C   UNL A   1      33.029  25.579  25.925  1.00  0.00     0.116 C 
BRANCH   4   5
ATOM      5  N   UNL A   1      31.673  25.444  26.414  1.00  0.00    -0.354 N 
ATOM      6  C   UNL A   1      30.478  25.262  25.792  1.00  0.00     0.245 C 
ATOM      7  O   UNL A   1      29.508  25.147  26.558  1.00  0.00    -0.273 OA
ATOM      8  H   UNL A   1      31.603  25.494  27.394  1.00  0.00     0.163 HD
BRANCH   6   9
ATOM      9  C   UNL A   1      30.273  25.085  24.268  1.00  0.00     0.199 C 
ATOM     10  N   UNL A   1      30.794  26.152  23.384  1.00  0.00    -0.340 N 
ATOM     11  C   UNL A   1      32.126  25.991  22.811  1.00  0.00     0.147 C 
ATOM     12  C   UNL A   1      32.301  24.573  22.265  1.00  0.00     0.181 C 
ATOM     13  C   UNL A   1      30.677  23.685  23.753  1.00  0.00     0.195 C 
ATOM     14  O   UNL A   1      32.021  23.578  23.258  1.00  0.00    -0.377 OA
BRANCH  10  15
ATOM     15  C   UNL A   1      30.047  27.285  23.147  1.00  0.00     0.132 A 
ATOM     16  C   UNL A   1      29.884  29.435  22.218  1.00  0.00     0.204 A 
ATOM     17  N   UNL A   1      30.624  28.342  22.537  1.00  0.00    -0.207 NA
ATOM     18  C   UNL A   1      28.531  29.513  22.536  1.00  0.00     0.311 A 
ATOM     19  C   UNL A   1      27.940  28.464  23.235  1.00  0.00     0.093 A 
ATOM     20  C   UNL A   1      28.710  27.348  23.539  1.00  0.00     0.054 A 
BRANCH  16  21
ATOM     21  N   UNL A   1      30.570  30.376  21.480  1.00  0.00    -0.378 N 
ATOM     22  H   UNL A   1      31.173  30.090  20.756  1.00  0.00     0.158 HD
ATOM     23  H   UNL A   1      30.457  31.334  21.675  1.00  0.00     0.158 HD
ENDBRANCH  16  21
BRANCH  18  24
ATOM     24  N   UNL A   1      27.713  30.666  22.179  1.00  0.00     0.066 N 
ATOM     25  O   UNL A   1      27.213  31.320  23.107  1.00  0.00    -0.258 OA
ATOM     26  O   UNL A   1      27.586  30.961  20.979  1.00  0.00    -0.258 OA
ENDBRANCH  18  24
ENDBRANCH  10  15
ENDBRANCH   6   9
ENDBRANCH   4   5
ENDBRANCH   3   4
ENDBRANCH   2   3
ENDBRANCH   1   2
BRANCH   1  27
ATOM     27  C   UNL A   1      35.956  22.116  24.263  1.00  0.00     0.021 C 
BRANCH  27  28
ATOM     28  C   UNL A   1      36.362  21.725  25.682  1.00  0.00     0.116 C 
BRANCH  28  29
ATOM     29  N   UNL A   1      37.352  20.660  25.687  1.00  0.00    -0.352 N 
ATOM     30  C   UNL A   1      38.720  20.735  25.793  1.00  0.00     0.251 C 
ATOM     31  H   UNL A   1      36.988  19.749  25.602  1.00  0.00     0.163 HD
ATOM     32  O   UNL A   1      39.402  19.749  25.536  1.00  0.00    -0.269 OA
BRANCH  30  33
ATOM     33  C   UNL A   1      39.362  22.003  26.204  1.00  0.00     0.039 A 
ATOM     34  C   UNL A   1      40.517  21.954  26.989  1.00  0.00     0.014 A 
ATOM     35  C   UNL A   1      38.813  23.235  25.840  1.00  0.00     0.014 A 
ATOM     36  C   UNL A   1      41.151  23.141  27.363  1.00  0.00     0.010 A 
ATOM     37  C   UNL A   1      39.483  24.414  26.152  1.00  0.00     0.010 A 
ATOM     38  C   UNL A   1      40.655  24.380  26.925  1.00  0.00    -0.014 A 
BRANCH  38  39
ATOM     39  C   UNL A   1      41.336  25.652  27.277  1.00  0.00     0.031 A 
ATOM     40  C   UNL A   1      40.628  26.678  28.119  1.00  0.00     0.074 A 
ATOM     41  C   UNL A   1      42.567  25.907  26.793  1.00  0.00     0.049 A 
ATOM     42  N   UNL A   1      41.021  27.873  28.479  1.00  0.00    -0.248 NA
ATOM     43  C   UNL A   1      39.282  26.321  28.587  1.00  0.00     0.031 C 
ATOM     44  C   UNL A   1      43.343  25.003  25.943  1.00  0.00     0.029 A 
ATOM     45  N   UNL A   1      43.379  27.002  26.944  1.00  0.00    -0.354 N 
ATOM     46  C   UNL A   1      39.968  28.414  29.211  1.00  0.00     0.074 A 
ATOM     47  C   UNL A   1      38.894  27.444  29.169  1.00  0.00     0.031 C 
ATOM     48  C   UNL A   1      44.534  25.565  25.679  1.00  0.00     0.029 A 
ATOM     49  C   UNL A   1      44.588  26.886  26.299  1.00  0.00     0.049 A 
ATOM     50  H   UNL A   1      43.121  27.797  27.464  1.00  0.00     0.167 HD
ATOM     51  C   UNL A   1      39.914  29.594  29.880  1.00  0.00     0.034 A 
ATOM     52  C   UNL A   1      45.621  27.747  26.215  1.00  0.00     0.034 A 
ATOM     53  C   UNL A   1      40.996  30.549  29.905  1.00  0.00     0.049 A 
ATOM     54  C   UNL A   1      45.519  29.077  26.915  1.00  0.00     0.074 A 
ATOM     55  C   UNL A   1      41.070  31.756  30.578  1.00  0.00     0.029 A 
ATOM     56  N   UNL A   1      42.195  30.410  29.214  1.00  0.00    -0.354 N 
ATOM     57  N   UNL A   1      44.534  29.560  27.636  1.00  0.00    -0.248 NA
ATOM     58  C   UNL A   1      46.675  29.974  26.792  1.00  0.00     0.031 C 
ATOM     59  C   UNL A   1      42.278  32.377  30.239  1.00  0.00     0.029 A 
ATOM     60  C   UNL A   1      42.997  31.525  29.417  1.00  0.00     0.049 A 
ATOM     61  H   UNL A   1      42.439  29.633  28.661  1.00  0.00     0.167 HD
ATOM     62  C   UNL A   1      44.966  30.806  28.082  1.00  0.00     0.074 A 
ATOM     63  C   UNL A   1      46.302  30.994  27.553  1.00  0.00     0.031 C 
ATOM     64  C   UNL A   1      44.320  31.708  28.866  1.00  0.00     0.034 A 
BRANCH  51  65
ATOM     65  C   UNL A   1      38.624  29.911  30.604  1.00  0.00     0.023 A 
ATOM     66  C   UNL A   1      37.589  30.631  29.979  1.00  0.00     0.031 A 
ATOM     67  C   UNL A   1      38.452  29.559  31.955  1.00  0.00     0.131 A 
ATOM     68  C   UNL A   1      36.490  31.075  30.729  1.00  0.00     0.055 A 
ATOM     69  C   UNL A   1      37.305  29.917  32.669  1.00  0.00     0.041 A 
ATOM     70  F   UNL A   1      39.408  28.888  32.616  1.00  0.00    -0.206 F 
ATOM     71  C   UNL A   1      36.327  30.700  32.064  1.00  0.00     0.022 A 
BRANCH  68  72
ATOM     72  S   UNL A   1      35.388  32.314  29.992  1.00  0.00     0.124 S 
ATOM     73  O   UNL A   1      36.329  33.383  29.661  1.00  0.00    -0.237 OA
ATOM     74  O   UNL A   1      34.816  31.593  28.860  1.00  0.00    -0.237 OA
ATOM     75  O   UNL A   1      34.455  32.629  31.070  1.00  0.00    -0.744 OA
ENDBRANCH  68  72
ENDBRANCH  51  65
BRANCH  52  76
ATOM     76  C   UNL A   1      46.845  27.376  25.454  1.00  0.00     0.023 A 
ATOM     77  C   UNL A   1      47.005  27.779  24.119  1.00  0.00     0.031 A 
ATOM     78  C   UNL A   1      47.863  26.604  26.039  1.00  0.00     0.131 A 
ATOM     79  C   UNL A   1      48.143  27.379  23.400  1.00  0.00     0.055 A 
ATOM     80  C   UNL A   1      49.014  26.248  25.334  1.00  0.00     0.041 A 
ATOM     81  F   UNL A   1      47.761  26.200  27.315  1.00  0.00    -0.206 F 
ATOM     82  C   UNL A   1      49.154  26.628  24.003  1.00  0.00     0.022 A 
BRANCH  79  83
ATOM     83  S   UNL A   1      48.254  27.812  21.642  1.00  0.00     0.124 S 
ATOM     84  O   UNL A   1      49.275  28.853  21.657  1.00  0.00    -0.237 OA
ATOM     85  O   UNL A   1      48.640  26.541  21.040  1.00  0.00    -0.237 OA
ATOM     86  O   UNL A   1      46.903  28.266  21.320  1.00  0.00    -0.744 OA
ENDBRANCH  79  83
ENDBRANCH  52  76
BRANCH  64  87
ATOM     87  C   UNL A   1      45.079  32.962  29.228  1.00  0.00     0.023 A 
ATOM     88  C   UNL A   1      45.018  34.123  28.437  1.00  0.00     0.031 A 
ATOM     89  C   UNL A   1      45.891  32.988  30.377  1.00  0.00     0.131 A 
ATOM     90  C   UNL A   1      45.797  35.240  28.772  1.00  0.00     0.055 A 
ATOM     91  C   UNL A   1      46.617  34.124  30.739  1.00  0.00     0.041 A 
ATOM     92  F   UNL A   1      45.991  31.909  31.168  1.00  0.00    -0.206 F 
ATOM     93  C   UNL A   1      46.584  35.255  29.927  1.00  0.00     0.022 A 
BRANCH  90  94
ATOM     94  S   UNL A   1      45.846  36.645  27.624  1.00  0.00     0.124 S 
ATOM     95  O   UNL A   1      46.799  36.183  26.620  1.00  0.00    -0.237 OA
ATOM     96  O   UNL A   1      44.457  36.740  27.188  1.00  0.00    -0.237 OA
ATOM     97  O   UNL A   1      46.311  37.753  28.457  1.00  0.00    -0.744 OA
ENDBRANCH  90  94
ENDBRANCH  64  87
ENDBRANCH  38  39
ENDBRANCH  30  33
ENDBRANCH  28  29
ENDBRANCH  27  28
ENDBRANCH   1  27
TORSDOF 19
ENDMDL
MODEL 3
REMARK VINA RESULT:     -11.7      1.747      7.732
REMARK SMILES Nc1nc(N2CCOC[C@H]2C(=O)NCCCCCCNC(=O)c2ccc(-c3c4nc(c(-c5cc(S(=O)(=O)[O-])ccc5F)c5ccc([nH]5)c(-c5cc(S(=O)(=O)[O-])ccc5F)c5nc(c(-c6cc(S(=O)(=O)[O-])ccc6F)c6ccc3[nH]6)C=C5)C=C4)cc2)ccc1[N+](=O)[O-]
REMARK SMILES IDX 17 1 16 2 15 3 14 4 13 5 11 6 12 7 10 9 5 10 6 11 7 12 9 13
REMARK SMILES IDX 8 14 4 15 2 16 3 17 88 18 87 19 86 20 1 21 89 24 90 25 91 26
REMARK SMILES IDX 18 27 19 28 20 29 21 30 22 32 23 33 24 34 85 35 25 36 84 37
REMARK SMILES IDX 26 38 27 39 28 40 78 41 29 42 83 43 77 44 79 45 30 46 82 47
REMARK SMILES IDX 76 48 75 49 31 51 63 52 43 53 62 54 44 55 47 56 61 57 80 58
REMARK SMILES IDX 45 59 46 60 60 62 81 63 48 64 32 65 33 66 41 67 34 68 40 69
REMARK SMILES IDX 42 70 39 71 35 72 36 73 37 74 38 75 64 76 65 77 73 78 66 79
REMARK SMILES IDX 72 80 74 81 71 82 67 83 68 84 69 85 70 86 49 87 50 88 58 89
REMARK SMILES IDX 51 90 57 91 59 92 56 93 52 94 53 95 54 96 55 97
REMARK H PARENT 13 8 1 22 1 23 20 31 79 50 47 61
REMARK Flexibility Score: inf
ROOT
ATOM      1  C   UNL A   1      31.410  30.539  26.079  1.00  0.00     0.002 C 
ENDROOT
BRANCH   1   2
ATOM      2  C   UNL A   1      32.798  29.893  25.986  1.00  0.00     0.002 C 
BRANCH   2   3
ATOM      3  C   UNL A   1      32.813  28.369  26.147  1.00  0.00     0.021 C 
BRANCH   3   4
ATOM      4  C   UNL A   1      31.419  27.747  26.227  1.00  0.00     0.116 C 
BRANCH   4   5
ATOM      5  N   UNL A   1      31.460  26.441  26.850  1.00  0.00    -0.354 N 
ATOM      6  C   UNL A   1      31.320  25.179  26.365  1.00  0.00     0.245 C 
ATOM      7  O   UNL A   1      31.460  24.280  27.210  1.00  0.00    -0.273 OA
ATOM      8  H   UNL A   1      31.622  26.474  27.820  1.00  0.00     0.163 HD
BRANCH   6   9
ATOM      9  C   UNL A   1      31.117  24.803  24.877  1.00  0.00     0.199 C 
ATOM     10  N   UNL A   1      31.525  25.801  23.863  1.00  0.00    -0.340 N 
ATOM     11  C   UNL A   1      32.860  25.697  23.284  1.00  0.00     0.147 C 
ATOM     12  C   UNL A   1      33.163  24.245  22.905  1.00  0.00     0.181 C 
ATOM     13  C   UNL A   1      31.645  23.395  24.522  1.00  0.00     0.195 C 
ATOM     14  O   UNL A   1      32.989  23.355  24.014  1.00  0.00    -0.377 OA
BRANCH  10  15
ATOM     15  C   UNL A   1      30.672  26.823  23.510  1.00  0.00     0.132 A 
ATOM     16  C   UNL A   1      30.330  28.886  22.442  1.00  0.00     0.204 A 
ATOM     17  N   UNL A   1      31.166  27.907  22.874  1.00  0.00    -0.207 NA
ATOM     18  C   UNL A   1      28.958  28.821  22.669  1.00  0.00     0.311 A 
ATOM     19  C   UNL A   1      28.443  27.748  23.392  1.00  0.00     0.093 A 
ATOM     20  C   UNL A   1      29.313  26.749  23.812  1.00  0.00     0.054 A 
BRANCH  16  21
ATOM     21  N   UNL A   1      30.953  29.861  21.692  1.00  0.00    -0.378 N 
ATOM     22  H   UNL A   1      31.680  29.617  21.074  1.00  0.00     0.158 HD
ATOM     23  H   UNL A   1      30.672  30.800  21.773  1.00  0.00     0.158 HD
ENDBRANCH  16  21
BRANCH  18  24
ATOM     24  N   UNL A   1      28.040  29.848  22.191  1.00  0.00     0.066 N 
ATOM     25  O   UNL A   1      27.289  30.375  23.026  1.00  0.00    -0.258 OA
ATOM     26  O   UNL A   1      28.077  30.173  20.993  1.00  0.00    -0.258 OA
ENDBRANCH  18  24
ENDBRANCH  10  15
ENDBRANCH   6   9
ENDBRANCH   4   5
ENDBRANCH   3   4
ENDBRANCH   2   3
ENDBRANCH   1   2
BRANCH   1  27
ATOM     27  C   UNL A   1      31.392  32.013  26.496  1.00  0.00     0.021 C 
BRANCH  27  28
ATOM     28  C   UNL A   1      32.634  32.486  27.246  1.00  0.00     0.116 C 
BRANCH  28  29
ATOM     29  N   UNL A   1      32.531  33.883  27.638  1.00  0.00    -0.352 N 
ATOM     30  C   UNL A   1      33.172  34.560  28.647  1.00  0.00     0.251 C 
ATOM     31  H   UNL A   1      31.911  34.424  27.098  1.00  0.00     0.163 HD
ATOM     32  O   UNL A   1      32.777  35.674  28.975  1.00  0.00    -0.269 OA
BRANCH  30  33
ATOM     33  C   UNL A   1      34.323  33.941  29.340  1.00  0.00     0.039 A 
ATOM     34  C   UNL A   1      35.616  34.351  29.004  1.00  0.00     0.014 A 
ATOM     35  C   UNL A   1      34.130  32.941  30.296  1.00  0.00     0.014 A 
ATOM     36  C   UNL A   1      36.713  33.796  29.668  1.00  0.00     0.010 A 
ATOM     37  C   UNL A   1      35.218  32.440  31.006  1.00  0.00     0.010 A 
ATOM     38  C   UNL A   1      36.521  32.856  30.693  1.00  0.00    -0.014 A 
BRANCH  38  39
ATOM     39  C   UNL A   1      37.671  32.282  31.439  1.00  0.00     0.031 A 
ATOM     40  C   UNL A   1      38.451  31.137  30.856  1.00  0.00     0.074 A 
ATOM     41  C   UNL A   1      37.975  32.754  32.663  1.00  0.00     0.049 A 
ATOM     42  N   UNL A   1      39.441  30.455  31.374  1.00  0.00    -0.248 NA
ATOM     43  C   UNL A   1      38.037  30.676  29.523  1.00  0.00     0.031 C 
ATOM     44  C   UNL A   1      37.274  33.842  33.347  1.00  0.00     0.029 A 
ATOM     45  N   UNL A   1      38.951  32.377  33.551  1.00  0.00    -0.354 N 
ATOM     46  C   UNL A   1      39.763  29.481  30.435  1.00  0.00     0.074 A 
ATOM     47  C   UNL A   1      38.807  29.614  29.356  1.00  0.00     0.031 C 
ATOM     48  C   UNL A   1      37.866  34.069  34.530  1.00  0.00     0.029 A 
ATOM     49  C   UNL A   1      38.956  33.115  34.712  1.00  0.00     0.049 A 
ATOM     50  H   UNL A   1      39.587  31.647  33.375  1.00  0.00     0.167 HD
ATOM     51  C   UNL A   1      40.779  28.580  30.456  1.00  0.00     0.034 A 
ATOM     52  C   UNL A   1      39.747  33.030  35.798  1.00  0.00     0.034 A 
ATOM     53  C   UNL A   1      41.719  28.461  31.545  1.00  0.00     0.049 A 
ATOM     54  C   UNL A   1      40.832  31.985  35.830  1.00  0.00     0.074 A 
ATOM     55  C   UNL A   1      42.808  27.615  31.660  1.00  0.00     0.029 A 
ATOM     56  N   UNL A   1      41.674  29.205  32.719  1.00  0.00    -0.354 N 
ATOM     57  N   UNL A   1      41.151  31.095  34.918  1.00  0.00    -0.248 NA
ATOM     58  C   UNL A   1      41.666  31.939  37.037  1.00  0.00     0.031 C 
ATOM     59  C   UNL A   1      43.377  27.798  32.927  1.00  0.00     0.029 A 
ATOM     60  C   UNL A   1      42.693  28.813  33.575  1.00  0.00     0.049 A 
ATOM     61  H   UNL A   1      41.014  29.910  32.914  1.00  0.00     0.167 HD
ATOM     62  C   UNL A   1      42.247  30.406  35.429  1.00  0.00     0.074 A 
ATOM     63  C   UNL A   1      42.535  30.989  36.725  1.00  0.00     0.031 C 
ATOM     64  C   UNL A   1      42.957  29.389  34.874  1.00  0.00     0.034 A 
BRANCH  51  65
ATOM     65  C   UNL A   1      40.888  27.642  29.273  1.00  0.00     0.023 A 
ATOM     66  C   UNL A   1      41.855  27.835  28.269  1.00  0.00     0.031 A 
ATOM     67  C   UNL A   1      39.970  26.590  29.103  1.00  0.00     0.131 A 
ATOM     68  C   UNL A   1      41.810  27.069  27.095  1.00  0.00     0.055 A 
ATOM     69  C   UNL A   1      39.997  25.764  27.976  1.00  0.00     0.041 A 
ATOM     70  F   UNL A   1      39.011  26.363  30.015  1.00  0.00    -0.206 F 
ATOM     71  C   UNL A   1      40.905  26.017  26.952  1.00  0.00     0.022 A 
BRANCH  68  72
ATOM     72  S   UNL A   1      42.815  27.603  25.681  1.00  0.00     0.124 S 
ATOM     73  O   UNL A   1      44.169  27.411  26.194  1.00  0.00    -0.237 OA
ATOM     74  O   UNL A   1      42.393  26.685  24.630  1.00  0.00    -0.237 OA
ATOM     75  O   UNL A   1      42.422  28.997  25.489  1.00  0.00    -0.744 OA
ENDBRANCH  68  72
ENDBRANCH  51  65
BRANCH  52  76
ATOM     76  C   UNL A   1      39.556  33.967  36.939  1.00  0.00     0.023 A 
ATOM     77  C   UNL A   1      38.988  33.522  38.142  1.00  0.00     0.031 A 
ATOM     78  C   UNL A   1      39.923  35.321  36.842  1.00  0.00     0.131 A 
ATOM     79  C   UNL A   1      38.770  34.429  39.191  1.00  0.00     0.055 A 
ATOM     80  C   UNL A   1      39.746  36.210  37.903  1.00  0.00     0.041 A 
ATOM     81  F   UNL A   1      40.477  35.795  35.715  1.00  0.00    -0.206 F 
ATOM     82  C   UNL A   1      39.157  35.767  39.084  1.00  0.00     0.022 A 
BRANCH  79  83
ATOM     83  S   UNL A   1      37.918  33.844  40.681  1.00  0.00     0.124 S 
ATOM     84  O   UNL A   1      37.573  35.099  41.338  1.00  0.00    -0.237 OA
ATOM     85  O   UNL A   1      36.806  33.086  40.117  1.00  0.00    -0.237 OA
ATOM     86  O   UNL A   1      38.934  33.042  41.358  1.00  0.00    -0.744 OA
ENDBRANCH  79  83
ENDBRANCH  52  76
BRANCH  64  87
ATOM     87  C   UNL A   1      44.141  28.877  35.658  1.00  0.00     0.023 A 
ATOM     88  C   UNL A   1      44.034  27.787  36.539  1.00  0.00     0.031 A 
ATOM     89  C   UNL A   1      45.395  29.505  35.532  1.00  0.00     0.131 A 
ATOM     90  C   UNL A   1      45.144  27.392  37.301  1.00  0.00     0.055 A 
ATOM     91  C   UNL A   1      46.510  29.069  36.249  1.00  0.00     0.041 A 
ATOM     92  F   UNL A   1      45.555  30.552  34.709  1.00  0.00    -0.206 F 
ATOM     93  C   UNL A   1      46.385  28.015  37.150  1.00  0.00     0.022 A 
BRANCH  90  94
ATOM     94  S   UNL A   1      44.920  26.113  38.568  1.00  0.00     0.124 S 
ATOM     95  O   UNL A   1      44.159  26.827  39.589  1.00  0.00    -0.237 OA
ATOM     96  O   UNL A   1      44.194  25.077  37.842  1.00  0.00    -0.237 OA
ATOM     97  O   UNL A   1      46.287  25.761  38.947  1.00  0.00    -0.744 OA
ENDBRANCH  90  94
ENDBRANCH  64  87
ENDBRANCH  38  39
ENDBRANCH  30  33
ENDBRANCH  28  29
ENDBRANCH  27  28
ENDBRANCH   1  27
TORSDOF 19
ENDMDL
