MODEL 1
REMARK VINA RESULT:     -12.4      0.000      0.000
REMARK SMILES COc1ccc2c(c1C)OC(=O)[C@@H](CC(=O)N[C@@H](CC1=c3ccccc3=NC1)C(=O)NCCCCCCNC(=O)c1ccc(-c3c4nc(c(-c5cc(S(=O)(=O)[O-])ccc5F)c5ccc([nH]5)c(-c5cc(S(=O)(=O)[O-])ccc5F)c5nc(c(-c6cc(S(=O)(=O)[O-])ccc6F)c6ccc3[nH]6)C=C5)C=C4)cc1)[C@H]2C
REMARK SMILES IDX 34 1 33 2 32 3 31 4 29 5 30 6 18 8 17 9 15 10 16 11 14 13
REMARK SMILES IDX 13 14 3 15 4 16 8 17 5 18 7 19 9 20 6 21 10 22 104 23 11 24
REMARK SMILES IDX 105 25 12 26 2 27 1 28 19 29 20 30 21 31 28 32 22 33 26 34
REMARK SMILES IDX 27 35 23 36 25 37 24 38 35 39 36 40 37 41 38 42 39 43 40 45
REMARK SMILES IDX 41 46 42 47 103 48 43 49 102 50 44 51 45 52 46 53 96 54
REMARK SMILES IDX 47 55 101 56 95 57 97 58 48 59 100 60 94 61 93 62 49 64
REMARK SMILES IDX 81 65 61 66 80 67 62 68 65 69 79 70 98 71 63 72 64 73 78 75
REMARK SMILES IDX 99 76 66 77 50 78 51 79 59 80 52 81 58 82 60 83 57 84 53 85
REMARK SMILES IDX 54 86 55 87 56 88 82 89 83 90 91 91 84 92 90 93 92 94 89 95
REMARK SMILES IDX 85 96 86 97 87 98 88 99 67 100 68 101 76 102 69 103 75 104
REMARK SMILES IDX 77 105 74 106 70 107 71 108 72 109 73 110
REMARK H PARENT 31 7 17 12 38 44 97 63 65 74
REMARK Flexibility Score: inf
ROOT
ATOM      1  C   UNL A   1      37.440  22.263  25.184  1.00  0.00     0.002 C 
ENDROOT
BRANCH   1   2
ATOM      2  C   UNL A   1      36.579  22.250  23.923  1.00  0.00     0.021 C 
BRANCH   2   3
ATOM      3  C   UNL A   1      35.542  23.345  23.889  1.00  0.00     0.116 C 
BRANCH   3   4
ATOM      4  N   UNL A   1      35.117  23.840  25.169  1.00  0.00    -0.354 N 
ATOM      5  C   UNL A   1      33.831  24.117  25.534  1.00  0.00     0.242 C 
ATOM      6  O   UNL A   1      33.599  24.377  26.716  1.00  0.00    -0.273 OA
ATOM      7  H   UNL A   1      35.817  23.993  25.845  1.00  0.00     0.163 HD
BRANCH   5   8
ATOM      8  C   UNL A   1      32.684  24.064  24.487  1.00  0.00     0.175 C 
BRANCH   8   9
ATOM      9  N   UNL A   1      33.102  24.607  23.149  1.00  0.00    -0.344 N 
ATOM     10  C   UNL A   1      32.745  25.535  22.203  1.00  0.00     0.221 C 
ATOM     11  O   UNL A   1      33.572  25.612  21.278  1.00  0.00    -0.275 OA
ATOM     12  H   UNL A   1      33.910  24.132  22.847  1.00  0.00     0.164 HD
BRANCH  10  13
ATOM     13  C   UNL A   1      31.491  26.493  22.110  1.00  0.00     0.116 C 
BRANCH  13  14
ATOM     14  C   UNL A   1      31.154  27.378  23.338  1.00  0.00     0.116 C 
ATOM     15  C   UNL A   1      32.864  30.076  27.136  1.00  0.00     0.125 A 
ATOM     16  C   UNL A   1      33.206  28.730  27.217  1.00  0.00     0.047 A 
ATOM     17  C   UNL A   1      31.866  30.503  26.215  1.00  0.00     0.034 A 
ATOM     18  C   UNL A   1      32.885  27.924  26.162  1.00  0.00     0.012 A 
ATOM     19  C   UNL A   1      31.511  29.610  25.206  1.00  0.00     0.140 A 
ATOM     20  C   UNL A   1      31.247  31.854  26.337  1.00  0.00     0.052 C 
ATOM     21  C   UNL A   1      32.288  28.504  25.065  1.00  0.00    -0.001 A 
ATOM     22  O   UNL A   1      30.477  29.691  24.225  1.00  0.00    -0.426 OA
ATOM     23  C   UNL A   1      32.448  28.002  23.693  1.00  0.00     0.035 C 
ATOM     24  C   UNL A   1      30.184  28.599  23.283  1.00  0.00     0.315 C 
ATOM     25  C   UNL A   1      32.903  29.056  22.633  1.00  0.00     0.014 C 
ATOM     26  O   UNL A   1      29.240  28.672  22.502  1.00  0.00    -0.251 OA
BRANCH  15  27
ATOM     27  O   UNL A   1      33.509  30.984  27.944  1.00  0.00    -0.496 OA
ATOM     28  C   UNL A   1      34.873  31.203  27.528  1.00  0.00     0.278 C 
ENDBRANCH  15  27
ENDBRANCH  13  14
ENDBRANCH  10  13
ENDBRANCH   8   9
BRANCH   8  29
ATOM     29  C   UNL A   1      31.941  22.658  24.626  1.00  0.00     0.068 C 
BRANCH  29  30
ATOM     30  C   UNL A   1      32.167  21.383  23.826  1.00  0.00    -0.037 C 
ATOM     31  C   UNL A   1      32.541  20.131  24.110  1.00  0.00     0.001 A 
ATOM     32  C   UNL A   1      31.901  21.489  22.334  1.00  0.00     0.174 C 
ATOM     33  C   UNL A   1      33.007  19.422  25.258  1.00  0.00     0.010 A 
ATOM     34  C   UNL A   1      32.372  19.420  22.822  1.00  0.00     0.065 A 
ATOM     35  N   UNL A   1      32.022  20.125  21.793  1.00  0.00    -0.280 NA
ATOM     36  C   UNL A   1      33.161  18.090  25.199  1.00  0.00     0.001 A 
ATOM     37  C   UNL A   1      32.536  17.950  22.838  1.00  0.00     0.028 A 
ATOM     38  C   UNL A   1      32.873  17.348  23.989  1.00  0.00     0.002 A 
ENDBRANCH  29  30
ENDBRANCH   8  29
ENDBRANCH   5   8
ENDBRANCH   3   4
ENDBRANCH   2   3
ENDBRANCH   1   2
BRANCH   1  39
ATOM     39  C   UNL A   1      38.336  21.037  25.415  1.00  0.00     0.002 C 
BRANCH  39  40
ATOM     40  C   UNL A   1      39.784  21.323  25.818  1.00  0.00     0.021 C 
BRANCH  40  41
ATOM     41  C   UNL A   1      40.422  20.302  26.744  1.00  0.00     0.116 C 
BRANCH  41  42
ATOM     42  N   UNL A   1      41.473  19.553  26.082  1.00  0.00    -0.352 N 
ATOM     43  C   UNL A   1      42.674  20.009  25.608  1.00  0.00     0.251 C 
ATOM     44  H   UNL A   1      41.301  18.592  25.958  1.00  0.00     0.163 HD
ATOM     45  O   UNL A   1      43.386  19.297  24.919  1.00  0.00    -0.269 OA
BRANCH  43  46
ATOM     46  C   UNL A   1      43.071  21.386  25.944  1.00  0.00     0.039 A 
ATOM     47  C   UNL A   1      43.414  21.683  27.262  1.00  0.00     0.014 A 
ATOM     48  C   UNL A   1      43.131  22.361  24.941  1.00  0.00     0.014 A 
ATOM     49  C   UNL A   1      43.831  22.972  27.579  1.00  0.00     0.010 A 
ATOM     50  C   UNL A   1      43.608  23.627  25.247  1.00  0.00     0.010 A 
ATOM     51  C   UNL A   1      43.931  23.948  26.574  1.00  0.00    -0.014 A 
BRANCH  51  52
ATOM     52  C   UNL A   1      44.288  25.341  26.911  1.00  0.00     0.031 A 
ATOM     53  C   UNL A   1      43.227  26.253  27.455  1.00  0.00     0.074 A 
ATOM     54  C   UNL A   1      45.542  25.783  26.706  1.00  0.00     0.049 A 
ATOM     55  N   UNL A   1      43.323  27.509  27.798  1.00  0.00    -0.248 NA
ATOM     56  C   UNL A   1      41.876  25.687  27.617  1.00  0.00     0.031 C 
ATOM     57  C   UNL A   1      46.634  24.986  26.149  1.00  0.00     0.029 A 
ATOM     58  N   UNL A   1      46.105  27.012  26.936  1.00  0.00    -0.354 N 
ATOM     59  C   UNL A   1      42.053  27.880  28.217  1.00  0.00     0.074 A 
ATOM     60  C   UNL A   1      41.186  26.741  28.024  1.00  0.00     0.031 C 
ATOM     61  C   UNL A   1      47.741  25.744  26.090  1.00  0.00     0.029 A 
ATOM     62  C   UNL A   1      47.429  27.087  26.578  1.00  0.00     0.049 A 
ATOM     63  H   UNL A   1      45.607  27.770  27.320  1.00  0.00     0.167 HD
ATOM     64  C   UNL A   1      41.656  29.058  28.747  1.00  0.00     0.034 A 
ATOM     65  C   UNL A   1      48.293  28.121  26.637  1.00  0.00     0.034 A 
ATOM     66  C   UNL A   1      42.537  30.174  28.957  1.00  0.00     0.049 A 
ATOM     67  C   UNL A   1      47.824  29.429  27.224  1.00  0.00     0.074 A 
ATOM     68  C   UNL A   1      42.242  31.393  29.535  1.00  0.00     0.029 A 
ATOM     69  N   UNL A   1      43.878  30.206  28.605  1.00  0.00    -0.354 N 
ATOM     70  N   UNL A   1      46.640  29.739  27.696  1.00  0.00    -0.248 NA
ATOM     71  C   UNL A   1      48.805  30.520  27.303  1.00  0.00     0.031 C 
ATOM     72  C   UNL A   1      43.388  32.185  29.484  1.00  0.00     0.029 A 
ATOM     73  C   UNL A   1      44.418  31.436  28.935  1.00  0.00     0.049 A 
ATOM     74  H   UNL A   1      44.372  29.465  28.185  1.00  0.00     0.167 HD
ATOM     75  C   UNL A   1      46.742  31.049  28.155  1.00  0.00     0.074 A 
ATOM     76  C   UNL A   1      48.106  31.468  27.916  1.00  0.00     0.031 C 
ATOM     77  C   UNL A   1      45.788  31.832  28.719  1.00  0.00     0.034 A 
BRANCH  64  78
ATOM     78  C   UNL A   1      40.224  29.208  29.177  1.00  0.00     0.023 A 
ATOM     79  C   UNL A   1      39.884  29.079  30.535  1.00  0.00     0.031 A 
ATOM     80  C   UNL A   1      39.188  29.335  28.234  1.00  0.00     0.131 A 
ATOM     81  C   UNL A   1      38.536  29.030  30.908  1.00  0.00     0.055 A 
ATOM     82  C   UNL A   1      37.848  29.325  28.617  1.00  0.00     0.041 A 
ATOM     83  F   UNL A   1      39.468  29.470  26.928  1.00  0.00    -0.206 F 
ATOM     84  C   UNL A   1      37.517  29.158  29.959  1.00  0.00     0.022 A 
BRANCH  81  85
ATOM     85  S   UNL A   1      38.058  28.748  32.633  1.00  0.00     0.124 S 
ATOM     86  O   UNL A   1      36.753  29.402  32.697  1.00  0.00    -0.237 OA
ATOM     87  O   UNL A   1      38.032  27.291  32.706  1.00  0.00    -0.237 OA
ATOM     88  O   UNL A   1      39.113  29.403  33.399  1.00  0.00    -0.744 OA
ENDBRANCH  81  85
ENDBRANCH  64  78
BRANCH  65  89
ATOM     89  C   UNL A   1      49.694  27.922  26.173  1.00  0.00     0.023 A 
ATOM     90  C   UNL A   1      50.076  28.282  24.868  1.00  0.00     0.031 A 
ATOM     91  C   UNL A   1      50.642  27.285  26.989  1.00  0.00     0.131 A 
ATOM     92  C   UNL A   1      51.353  27.950  24.399  1.00  0.00     0.055 A 
ATOM     93  C   UNL A   1      51.935  27.011  26.539  1.00  0.00     0.041 A 
ATOM     94  F   UNL A   1      50.318  26.914  28.237  1.00  0.00    -0.206 F 
ATOM     95  C   UNL A   1      52.291  27.331  25.233  1.00  0.00     0.022 A 
BRANCH  92  96
ATOM     96  S   UNL A   1      51.803  28.219  22.664  1.00  0.00     0.124 S 
ATOM     97  O   UNL A   1      53.106  28.866  22.782  1.00  0.00    -0.237 OA
ATOM     98  O   UNL A   1      51.821  26.853  22.147  1.00  0.00    -0.237 OA
ATOM     99  O   UNL A   1      50.726  29.063  22.155  1.00  0.00    -0.744 OA
ENDBRANCH  92  96
ENDBRANCH  65  89
BRANCH  77 100
ATOM    100  C   UNL A   1      46.155  33.228  29.153  1.00  0.00     0.023 A 
ATOM    101  C   UNL A   1      45.941  34.309  28.275  1.00  0.00     0.031 A 
ATOM    102  C   UNL A   1      46.876  33.459  30.335  1.00  0.00     0.131 A 
ATOM    103  C   UNL A   1      46.490  35.561  28.570  1.00  0.00     0.055 A 
ATOM    104  C   UNL A   1      47.381  34.722  30.647  1.00  0.00     0.041 A 
ATOM    105  F   UNL A   1      47.114  32.456  31.195  1.00  0.00    -0.206 F 
ATOM    106  C   UNL A   1      47.202  35.775  29.755  1.00  0.00     0.022 A 
BRANCH 103 107
ATOM    107  S   UNL A   1      46.372  36.933  27.389  1.00  0.00     0.124 S 
ATOM    108  O   UNL A   1      47.115  36.413  26.244  1.00  0.00    -0.237 OA
ATOM    109  O   UNL A   1      44.929  37.048  27.197  1.00  0.00    -0.237 OA
ATOM    110  O   UNL A   1      47.005  38.050  28.083  1.00  0.00    -0.744 OA
ENDBRANCH 103 107
ENDBRANCH  77 100
ENDBRANCH  51  52
ENDBRANCH  43  46
ENDBRANCH  41  42
ENDBRANCH  40  41
ENDBRANCH  39  40
ENDBRANCH   1  39
TORSDOF 22
ENDMDL
MODEL 2
REMARK VINA RESULT:     -12.4      0.495      7.159
REMARK SMILES COc1ccc2c(c1C)OC(=O)[C@@H](CC(=O)N[C@@H](CC1=c3ccccc3=NC1)C(=O)NCCCCCCNC(=O)c1ccc(-c3c4nc(c(-c5cc(S(=O)(=O)[O-])ccc5F)c5ccc([nH]5)c(-c5cc(S(=O)(=O)[O-])ccc5F)c5nc(c(-c6cc(S(=O)(=O)[O-])ccc6F)c6ccc3[nH]6)C=C5)C=C4)cc1)[C@H]2C
REMARK SMILES IDX 34 1 33 2 32 3 31 4 29 5 30 6 18 8 17 9 15 10 16 11 14 13
REMARK SMILES IDX 13 14 3 15 4 16 8 17 5 18 7 19 9 20 6 21 10 22 104 23 11 24
REMARK SMILES IDX 105 25 12 26 2 27 1 28 19 29 20 30 21 31 28 32 22 33 26 34
REMARK SMILES IDX 27 35 23 36 25 37 24 38 35 39 36 40 37 41 38 42 39 43 40 45
REMARK SMILES IDX 41 46 42 47 103 48 43 49 102 50 44 51 45 52 46 53 96 54
REMARK SMILES IDX 47 55 101 56 95 57 97 58 48 59 100 60 94 61 93 62 49 64
REMARK SMILES IDX 81 65 61 66 80 67 62 68 65 69 79 70 98 71 63 72 64 73 78 75
REMARK SMILES IDX 99 76 66 77 50 78 51 79 59 80 52 81 58 82 60 83 57 84 53 85
REMARK SMILES IDX 54 86 55 87 56 88 82 89 83 90 91 91 84 92 90 93 92 94 89 95
REMARK SMILES IDX 85 96 86 97 87 98 88 99 67 100 68 101 76 102 69 103 75 104
REMARK SMILES IDX 77 105 74 106 70 107 71 108 72 109 73 110
REMARK H PARENT 31 7 17 12 38 44 97 63 65 74
REMARK Flexibility Score: inf
ROOT
ATOM      1  C   UNL A   1      37.577  22.380  25.153  1.00  0.00     0.002 C 
ENDROOT
BRANCH   1   2
ATOM      2  C   UNL A   1      36.811  22.317  23.833  1.00  0.00     0.021 C 
BRANCH   2   3
ATOM      3  C   UNL A   1      35.390  22.810  23.936  1.00  0.00     0.116 C 
BRANCH   3   4
ATOM      4  N   UNL A   1      35.054  23.492  25.155  1.00  0.00    -0.354 N 
ATOM      5  C   UNL A   1      33.829  24.003  25.476  1.00  0.00     0.242 C 
ATOM      6  O   UNL A   1      33.647  24.414  26.623  1.00  0.00    -0.273 OA
ATOM      7  H   UNL A   1      35.772  23.600  25.820  1.00  0.00     0.163 HD
BRANCH   5   8
ATOM      8  C   UNL A   1      32.684  24.027  24.426  1.00  0.00     0.175 C 
BRANCH   8   9
ATOM      9  N   UNL A   1      33.134  24.563  23.096  1.00  0.00    -0.344 N 
ATOM     10  C   UNL A   1      32.794  25.479  22.132  1.00  0.00     0.221 C 
ATOM     11  O   UNL A   1      33.647  25.558  21.231  1.00  0.00    -0.275 OA
ATOM     12  H   UNL A   1      33.956  24.096  22.821  1.00  0.00     0.164 HD
BRANCH  10  13
ATOM     13  C   UNL A   1      31.533  26.422  21.995  1.00  0.00     0.116 C 
BRANCH  13  14
ATOM     14  C   UNL A   1      31.154  27.318  23.202  1.00  0.00     0.116 C 
ATOM     15  C   UNL A   1      32.729  29.998  27.070  1.00  0.00     0.125 A 
ATOM     16  C   UNL A   1      33.041  28.646  27.172  1.00  0.00     0.047 A 
ATOM     17  C   UNL A   1      31.786  30.440  26.101  1.00  0.00     0.034 A 
ATOM     18  C   UNL A   1      32.755  27.842  26.104  1.00  0.00     0.012 A 
ATOM     19  C   UNL A   1      31.463  29.550  25.078  1.00  0.00     0.140 A 
ATOM     20  C   UNL A   1      31.187  31.803  26.188  1.00  0.00     0.052 C 
ATOM     21  C   UNL A   1      32.224  28.428  24.978  1.00  0.00    -0.001 A 
ATOM     22  O   UNL A   1      30.479  29.647  24.048  1.00  0.00    -0.426 OA
ATOM     23  C   UNL A   1      32.440  27.918  23.618  1.00  0.00     0.035 C 
ATOM     24  C   UNL A   1      30.211  28.556  23.096  1.00  0.00     0.315 C 
ATOM     25  C   UNL A   1      32.967  28.959  22.577  1.00  0.00     0.014 C 
ATOM     26  O   UNL A   1      29.308  28.644  22.270  1.00  0.00    -0.251 OA
BRANCH  15  27
ATOM     27  O   UNL A   1      33.352  30.896  27.905  1.00  0.00    -0.496 OA
ATOM     28  C   UNL A   1      34.736  31.095  27.549  1.00  0.00     0.278 C 
ENDBRANCH  15  27
ENDBRANCH  13  14
ENDBRANCH  10  13
ENDBRANCH   8   9
BRANCH   8  29
ATOM     29  C   UNL A   1      31.865  22.662  24.545  1.00  0.00     0.068 C 
BRANCH  29  30
ATOM     30  C   UNL A   1      32.126  21.335  23.846  1.00  0.00    -0.037 C 
ATOM     31  C   UNL A   1      32.462  20.101  24.236  1.00  0.00     0.001 A 
ATOM     32  C   UNL A   1      31.964  21.347  22.336  1.00  0.00     0.174 C 
ATOM     33  C   UNL A   1      32.838  19.463  25.457  1.00  0.00     0.010 A 
ATOM     34  C   UNL A   1      32.370  19.309  22.987  1.00  0.00     0.065 A 
ATOM     35  N   UNL A   1      32.102  19.948  21.893  1.00  0.00    -0.280 NA
ATOM     36  C   UNL A   1      32.976  18.129  25.494  1.00  0.00     0.001 A 
ATOM     37  C   UNL A   1      32.512  17.841  23.109  1.00  0.00     0.028 A 
ATOM     38  C   UNL A   1      32.760  17.312  24.317  1.00  0.00     0.002 A 
ENDBRANCH  29  30
ENDBRANCH   8  29
ENDBRANCH   5   8
ENDBRANCH   3   4
ENDBRANCH   2   3
ENDBRANCH   1   2
BRANCH   1  39
ATOM     39  C   UNL A   1      38.408  21.142  25.524  1.00  0.00     0.002 C 
BRANCH  39  40
ATOM     40  C   UNL A   1      39.812  21.408  26.071  1.00  0.00     0.021 C 
BRANCH  40  41
ATOM     41  C   UNL A   1      40.437  20.270  26.859  1.00  0.00     0.116 C 
BRANCH  41  42
ATOM     42  N   UNL A   1      41.507  19.625  26.121  1.00  0.00    -0.352 N 
ATOM     43  C   UNL A   1      42.659  20.181  25.634  1.00  0.00     0.251 C 
ATOM     44  H   UNL A   1      41.389  18.663  25.950  1.00  0.00     0.163 HD
ATOM     45  O   UNL A   1      43.388  19.553  24.883  1.00  0.00    -0.269 OA
BRANCH  43  46
ATOM     46  C   UNL A   1      42.984  21.560  26.033  1.00  0.00     0.039 A 
ATOM     47  C   UNL A   1      43.020  22.550  25.053  1.00  0.00     0.014 A 
ATOM     48  C   UNL A   1      43.217  21.862  27.380  1.00  0.00     0.014 A 
ATOM     49  C   UNL A   1      43.285  23.864  25.428  1.00  0.00     0.010 A 
ATOM     50  C   UNL A   1      43.415  23.181  27.759  1.00  0.00     0.010 A 
ATOM     51  C   UNL A   1      43.481  24.185  26.781  1.00  0.00    -0.014 A 
BRANCH  51  52
ATOM     52  C   UNL A   1      43.849  25.558  27.182  1.00  0.00     0.031 A 
ATOM     53  C   UNL A   1      45.271  26.009  27.020  1.00  0.00     0.074 A 
ATOM     54  C   UNL A   1      42.920  26.377  27.709  1.00  0.00     0.049 A 
ATOM     55  N   UNL A   1      45.806  27.160  27.322  1.00  0.00    -0.248 NA
ATOM     56  C   UNL A   1      46.223  25.032  26.462  1.00  0.00     0.031 C 
ATOM     57  C   UNL A   1      41.520  26.022  27.941  1.00  0.00     0.029 A 
ATOM     58  N   UNL A   1      43.016  27.672  28.150  1.00  0.00    -0.354 N 
ATOM     59  C   UNL A   1      47.149  27.048  26.991  1.00  0.00     0.074 A 
ATOM     60  C   UNL A   1      47.366  25.697  26.526  1.00  0.00     0.031 C 
ATOM     61  C   UNL A   1      40.885  27.078  28.472  1.00  0.00     0.029 A 
ATOM     62  C   UNL A   1      41.837  28.174  28.644  1.00  0.00     0.049 A 
ATOM     63  H   UNL A   1      43.852  28.191  28.116  1.00  0.00     0.167 HD
ATOM     64  C   UNL A   1      48.107  27.999  27.039  1.00  0.00     0.034 A 
ATOM     65  C   UNL A   1      41.557  29.382  29.176  1.00  0.00     0.034 A 
ATOM     66  C   UNL A   1      47.869  29.347  27.478  1.00  0.00     0.049 A 
ATOM     67  C   UNL A   1      42.645  30.425  29.228  1.00  0.00     0.074 A 
ATOM     68  C   UNL A   1      48.764  30.399  27.515  1.00  0.00     0.029 A 
ATOM     69  N   UNL A   1      46.657  29.828  27.950  1.00  0.00    -0.354 N 
ATOM     70  N   UNL A   1      43.892  30.331  28.830  1.00  0.00    -0.248 NA
ATOM     71  C   UNL A   1      42.291  31.739  29.782  1.00  0.00     0.031 C 
ATOM     72  C   UNL A   1      48.110  31.503  28.061  1.00  0.00     0.029 A 
ATOM     73  C   UNL A   1      46.788  31.159  28.301  1.00  0.00     0.049 A 
ATOM     74  H   UNL A   1      45.828  29.302  28.023  1.00  0.00     0.167 HD
ATOM     75  C   UNL A   1      44.462  31.580  29.058  1.00  0.00     0.074 A 
ATOM     76  C   UNL A   1      43.420  32.416  29.615  1.00  0.00     0.031 C 
ATOM     77  C   UNL A   1      45.734  31.991  28.828  1.00  0.00     0.034 A 
BRANCH  64  78
ATOM     78  C   UNL A   1      49.493  27.650  26.575  1.00  0.00     0.023 A 
ATOM     79  C   UNL A   1      49.913  28.017  25.285  1.00  0.00     0.031 A 
ATOM     80  C   UNL A   1      50.339  26.837  27.351  1.00  0.00     0.131 A 
ATOM     81  C   UNL A   1      51.126  27.529  24.788  1.00  0.00     0.055 A 
ATOM     82  C   UNL A   1      51.565  26.387  26.864  1.00  0.00     0.041 A 
ATOM     83  F   UNL A   1      49.982  26.470  28.592  1.00  0.00    -0.206 F 
ATOM     84  C   UNL A   1      51.957  26.722  25.571  1.00  0.00     0.022 A 
BRANCH  81  85
ATOM     85  S   UNL A   1      51.646  27.885  23.088  1.00  0.00     0.124 S 
ATOM     86  O   UNL A   1      50.856  26.924  22.321  1.00  0.00    -0.237 OA
ATOM     87  O   UNL A   1      51.250  29.281  22.937  1.00  0.00    -0.237 OA
ATOM     88  O   UNL A   1      53.082  27.630  23.102  1.00  0.00    -0.744 OA
ENDBRANCH  81  85
ENDBRANCH  64  78
BRANCH  65  89
ATOM     89  C   UNL A   1      40.172  29.664  29.644  1.00  0.00     0.023 A 
ATOM     90  C   UNL A   1      39.864  29.672  31.015  1.00  0.00     0.031 A 
ATOM     91  C   UNL A   1      39.121  29.833  28.728  1.00  0.00     0.131 A 
ATOM     92  C   UNL A   1      38.532  29.788  31.430  1.00  0.00     0.055 A 
ATOM     93  C   UNL A   1      37.801  30.011  29.147  1.00  0.00     0.041 A 
ATOM     94  F   UNL A   1      39.366  29.820  27.409  1.00  0.00    -0.206 F 
ATOM     95  C   UNL A   1      37.500  29.974  30.505  1.00  0.00     0.022 A 
BRANCH  92  96
ATOM     96  S   UNL A   1      38.085  29.601  33.178  1.00  0.00     0.124 S 
ATOM     97  O   UNL A   1      37.325  30.821  33.432  1.00  0.00    -0.237 OA
ATOM     98  O   UNL A   1      37.306  28.366  33.153  1.00  0.00    -0.237 OA
ATOM     99  O   UNL A   1      39.374  29.511  33.855  1.00  0.00    -0.744 OA
ENDBRANCH  92  96
ENDBRANCH  65  89
BRANCH  77 100
ATOM    100  C   UNL A   1      46.106  33.417  29.147  1.00  0.00     0.023 A 
ATOM    101  C   UNL A   1      46.000  34.404  28.148  1.00  0.00     0.031 A 
ATOM    102  C   UNL A   1      46.732  33.755  30.357  1.00  0.00     0.131 A 
ATOM    103  C   UNL A   1      46.561  35.668  28.359  1.00  0.00     0.055 A 
ATOM    104  C   UNL A   1      47.248  35.032  30.581  1.00  0.00     0.041 A 
ATOM    105  F   UNL A   1      46.866  32.842  31.333  1.00  0.00    -0.206 F 
ATOM    106  C   UNL A   1      47.178  35.989  29.573  1.00  0.00     0.022 A 
BRANCH 103 107
ATOM    107  S   UNL A   1      46.585  36.911  27.039  1.00  0.00     0.124 S 
ATOM    108  O   UNL A   1      45.163  37.068  26.743  1.00  0.00    -0.237 OA
ATOM    109  O   UNL A   1      47.213  38.050  27.702  1.00  0.00    -0.237 OA
ATOM    110  O   UNL A   1      47.372  36.286  25.981  1.00  0.00    -0.744 OA
ENDBRANCH 103 107
ENDBRANCH  77 100
ENDBRANCH  51  52
ENDBRANCH  43  46
ENDBRANCH  41  42
ENDBRANCH  40  41
ENDBRANCH  39  40
ENDBRANCH   1  39
TORSDOF 22
ENDMDL
MODEL 3
REMARK VINA RESULT:     -12.1      1.920      2.215
REMARK SMILES COc1ccc2c(c1C)OC(=O)[C@@H](CC(=O)N[C@@H](CC1=c3ccccc3=NC1)C(=O)NCCCCCCNC(=O)c1ccc(-c3c4nc(c(-c5cc(S(=O)(=O)[O-])ccc5F)c5ccc([nH]5)c(-c5cc(S(=O)(=O)[O-])ccc5F)c5nc(c(-c6cc(S(=O)(=O)[O-])ccc6F)c6ccc3[nH]6)C=C5)C=C4)cc1)[C@H]2C
REMARK SMILES IDX 34 1 33 2 32 3 31 4 29 5 30 6 18 8 17 9 15 10 16 11 14 13
REMARK SMILES IDX 13 14 3 15 4 16 8 17 5 18 7 19 9 20 6 21 10 22 104 23 11 24
REMARK SMILES IDX 105 25 12 26 2 27 1 28 19 29 20 30 21 31 28 32 22 33 26 34
REMARK SMILES IDX 27 35 23 36 25 37 24 38 35 39 36 40 37 41 38 42 39 43 40 45
REMARK SMILES IDX 41 46 42 47 103 48 43 49 102 50 44 51 45 52 46 53 96 54
REMARK SMILES IDX 47 55 101 56 95 57 97 58 48 59 100 60 94 61 93 62 49 64
REMARK SMILES IDX 81 65 61 66 80 67 62 68 65 69 79 70 98 71 63 72 64 73 78 75
REMARK SMILES IDX 99 76 66 77 50 78 51 79 59 80 52 81 58 82 60 83 57 84 53 85
REMARK SMILES IDX 54 86 55 87 56 88 82 89 83 90 91 91 84 92 90 93 92 94 89 95
REMARK SMILES IDX 85 96 86 97 87 98 88 99 67 100 68 101 76 102 69 103 75 104
REMARK SMILES IDX 77 105 74 106 70 107 71 108 72 109 73 110
REMARK H PARENT 31 7 17 12 38 44 97 63 65 74
REMARK Flexibility Score: inf
ROOT
ATOM      1  C   UNL A   1      37.769  23.338  25.011  1.00  0.00     0.002 C 
ENDROOT
BRANCH   1   2
ATOM      2  C   UNL A   1      36.772  22.625  24.100  1.00  0.00     0.021 C 
BRANCH   2   3
ATOM      3  C   UNL A   1      35.497  22.225  24.798  1.00  0.00     0.116 C 
BRANCH   3   4
ATOM      4  N   UNL A   1      34.891  23.237  25.618  1.00  0.00    -0.354 N 
ATOM      5  C   UNL A   1      33.561  23.540  25.666  1.00  0.00     0.242 C 
ATOM      6  O   UNL A   1      33.167  24.318  26.537  1.00  0.00    -0.273 OA
ATOM      7  H   UNL A   1      35.490  23.760  26.200  1.00  0.00     0.163 HD
BRANCH   5   8
ATOM      8  C   UNL A   1      32.566  22.886  24.668  1.00  0.00     0.175 C 
BRANCH   8   9
ATOM      9  N   UNL A   1      32.764  23.369  23.258  1.00  0.00    -0.344 N 
ATOM     10  C   UNL A   1      33.310  24.402  22.539  1.00  0.00     0.221 C 
ATOM     11  O   UNL A   1      33.255  24.209  21.312  1.00  0.00    -0.275 OA
ATOM     12  H   UNL A   1      32.362  22.720  22.636  1.00  0.00     0.164 HD
BRANCH  10  13
ATOM     13  C   UNL A   1      33.982  25.753  23.010  1.00  0.00     0.116 C 
BRANCH  13  14
ATOM     14  C   UNL A   1      33.224  26.626  24.043  1.00  0.00     0.116 C 
ATOM     15  C   UNL A   1      33.340  30.549  27.081  1.00  0.00     0.125 A 
ATOM     16  C   UNL A   1      34.257  29.560  27.421  1.00  0.00     0.047 A 
ATOM     17  C   UNL A   1      32.299  30.266  26.152  1.00  0.00     0.034 A 
ATOM     18  C   UNL A   1      34.387  28.492  26.580  1.00  0.00     0.012 A 
ATOM     19  C   UNL A   1      32.437  29.117  25.376  1.00  0.00     0.140 A 
ATOM     20  C   UNL A   1      31.125  31.176  26.025  1.00  0.00     0.052 C 
ATOM     21  C   UNL A   1      33.639  28.485  25.423  1.00  0.00    -0.001 A 
ATOM     22  O   UNL A   1      31.524  28.505  24.464  1.00  0.00    -0.426 OA
ATOM     23  C   UNL A   1      34.071  27.831  24.181  1.00  0.00     0.035 C 
ATOM     24  C   UNL A   1      31.806  27.226  23.792  1.00  0.00     0.315 C 
ATOM     25  C   UNL A   1      34.039  28.722  22.898  1.00  0.00     0.014 C 
ATOM     26  O   UNL A   1      30.969  26.692  23.071  1.00  0.00    -0.251 OA
BRANCH  15  27
ATOM     27  O   UNL A   1      33.462  31.801  27.639  1.00  0.00    -0.496 OA
ATOM     28  C   UNL A   1      34.545  31.865  28.591  1.00  0.00     0.278 C 
ENDBRANCH  15  27
ENDBRANCH  13  14
ENDBRANCH  10  13
ENDBRANCH   8   9
BRANCH   8  29
ATOM     29  C   UNL A   1      32.455  21.332  25.014  1.00  0.00     0.068 C 
BRANCH  29  30
ATOM     30  C   UNL A   1      32.701  20.138  24.102  1.00  0.00    -0.037 C 
ATOM     31  C   UNL A   1      33.465  19.042  24.149  1.00  0.00     0.001 A 
ATOM     32  C   UNL A   1      31.896  20.120  22.814  1.00  0.00     0.174 C 
ATOM     33  C   UNL A   1      34.483  18.521  25.005  1.00  0.00     0.010 A 
ATOM     34  C   UNL A   1      33.033  18.270  22.961  1.00  0.00     0.065 A 
ATOM     35  N   UNL A   1      32.165  18.821  22.174  1.00  0.00    -0.280 NA
ATOM     36  C   UNL A   1      34.947  17.278  24.806  1.00  0.00     0.001 A 
ATOM     37  C   UNL A   1      33.570  16.898  22.819  1.00  0.00     0.028 A 
ATOM     38  C   UNL A   1      34.445  16.446  23.731  1.00  0.00     0.002 A 
ENDBRANCH  29  30
ENDBRANCH   8  29
ENDBRANCH   5   8
ENDBRANCH   3   4
ENDBRANCH   2   3
ENDBRANCH   1   2
BRANCH   1  39
ATOM     39  C   UNL A   1      38.431  22.486  26.103  1.00  0.00     0.002 C 
BRANCH  39  40
ATOM     40  C   UNL A   1      39.109  21.195  25.639  1.00  0.00     0.021 C 
BRANCH  40  41
ATOM     41  C   UNL A   1      39.752  20.360  26.732  1.00  0.00     0.116 C 
BRANCH  41  42
ATOM     42  N   UNL A   1      40.789  19.491  26.210  1.00  0.00    -0.352 N 
ATOM     43  C   UNL A   1      42.061  19.819  25.825  1.00  0.00     0.251 C 
ATOM     44  H   UNL A   1      40.547  18.541  26.122  1.00  0.00     0.163 HD
ATOM     45  O   UNL A   1      42.767  19.013  25.243  1.00  0.00    -0.269 OA
BRANCH  43  46
ATOM     46  C   UNL A   1      42.544  21.178  26.122  1.00  0.00     0.039 A 
ATOM     47  C   UNL A   1      42.852  21.506  27.441  1.00  0.00     0.014 A 
ATOM     48  C   UNL A   1      42.715  22.102  25.085  1.00  0.00     0.014 A 
ATOM     49  C   UNL A   1      43.349  22.775  27.725  1.00  0.00     0.010 A 
ATOM     50  C   UNL A   1      43.270  23.343  25.361  1.00  0.00     0.010 A 
ATOM     51  C   UNL A   1      43.561  23.697  26.687  1.00  0.00    -0.014 A 
BRANCH  51  52
ATOM     52  C   UNL A   1      44.004  25.074  26.984  1.00  0.00     0.031 A 
ATOM     53  C   UNL A   1      43.002  26.067  27.495  1.00  0.00     0.074 A 
ATOM     54  C   UNL A   1      45.284  25.430  26.771  1.00  0.00     0.049 A 
ATOM     55  N   UNL A   1      43.176  27.324  27.801  1.00  0.00    -0.248 NA
ATOM     56  C   UNL A   1      41.618  25.592  27.668  1.00  0.00     0.031 C 
ATOM     57  C   UNL A   1      46.325  24.550  26.242  1.00  0.00     0.029 A 
ATOM     58  N   UNL A   1      45.923  26.628  26.965  1.00  0.00    -0.354 N 
ATOM     59  C   UNL A   1      41.931  27.787  28.203  1.00  0.00     0.074 A 
ATOM     60  C   UNL A   1      40.994  26.700  28.041  1.00  0.00     0.031 C 
ATOM     61  C   UNL A   1      47.477  25.234  26.165  1.00  0.00     0.029 A 
ATOM     62  C   UNL A   1      47.250  26.608  26.611  1.00  0.00     0.049 A 
ATOM     63  H   UNL A   1      45.473  27.426  27.325  1.00  0.00     0.167 HD
ATOM     64  C   UNL A   1      41.608  29.003  28.696  1.00  0.00     0.034 A 
ATOM     65  C   UNL A   1      48.178  27.587  26.642  1.00  0.00     0.034 A 
ATOM     66  C   UNL A   1      42.557  30.067  28.876  1.00  0.00     0.049 A 
ATOM     67  C   UNL A   1      47.791  28.939  27.188  1.00  0.00     0.074 A 
ATOM     68  C   UNL A   1      42.338  31.320  29.416  1.00  0.00     0.029 A 
ATOM     69  N   UNL A   1      43.898  30.004  28.529  1.00  0.00    -0.354 N 
ATOM     70  N   UNL A   1      46.628  29.337  27.646  1.00  0.00    -0.248 NA
ATOM     71  C   UNL A   1      48.838  29.968  27.238  1.00  0.00     0.031 C 
ATOM     72  C   UNL A   1      43.532  32.036  29.346  1.00  0.00     0.029 A 
ATOM     73  C   UNL A   1      44.514  31.207  28.824  1.00  0.00     0.049 A 
ATOM     74  H   UNL A   1      44.345  29.222  28.133  1.00  0.00     0.167 HD
ATOM     75  C   UNL A   1      46.810  30.652  28.066  1.00  0.00     0.074 A 
ATOM     76  C   UNL A   1      48.199  30.976  27.820  1.00  0.00     0.031 C 
ATOM     77  C   UNL A   1      45.907  31.509  28.602  1.00  0.00     0.034 A 
BRANCH  64  78
ATOM     78  C   UNL A   1      40.187  29.256  29.115  1.00  0.00     0.023 A 
ATOM     79  C   UNL A   1      39.827  29.146  30.470  1.00  0.00     0.031 A 
ATOM     80  C   UNL A   1      39.171  29.463  28.165  1.00  0.00     0.131 A 
ATOM     81  C   UNL A   1      38.477  29.194  30.832  1.00  0.00     0.055 A 
ATOM     82  C   UNL A   1      37.831  29.550  28.537  1.00  0.00     0.041 A 
ATOM     83  F   UNL A   1      39.471  29.583  26.862  1.00  0.00    -0.206 F 
ATOM     84  C   UNL A   1      37.477  29.401  29.875  1.00  0.00     0.022 A 
BRANCH  81  85
ATOM     85  S   UNL A   1      37.965  28.940  32.552  1.00  0.00     0.124 S 
ATOM     86  O   UNL A   1      38.879  29.823  33.274  1.00  0.00    -0.237 OA
ATOM     87  O   UNL A   1      36.572  29.373  32.520  1.00  0.00    -0.237 OA
ATOM     88  O   UNL A   1      38.181  27.515  32.774  1.00  0.00    -0.744 OA
ENDBRANCH  81  85
ENDBRANCH  64  78
BRANCH  65  89
ATOM     89  C   UNL A   1      49.564  27.287  26.190  1.00  0.00     0.023 A 
ATOM     90  C   UNL A   1      50.574  26.988  27.121  1.00  0.00     0.031 A 
ATOM     91  C   UNL A   1      49.920  27.389  24.836  1.00  0.00     0.131 A 
ATOM     92  C   UNL A   1      51.901  26.858  26.692  1.00  0.00     0.055 A 
ATOM     93  C   UNL A   1      51.234  27.197  24.404  1.00  0.00     0.041 A 
ATOM     94  F   UNL A   1      48.991  27.683  23.914  1.00  0.00    -0.206 F 
ATOM     95  C   UNL A   1      52.234  26.944  25.337  1.00  0.00     0.022 A 
BRANCH  92  96
ATOM     96  S   UNL A   1      53.249  26.673  27.891  1.00  0.00     0.124 S 
ATOM     97  O   UNL A   1      54.058  25.622  27.281  1.00  0.00    -0.237 OA
ATOM     98  O   UNL A   1      53.838  28.009  27.881  1.00  0.00    -0.237 OA
ATOM     99  O   UNL A   1      52.565  26.303  29.125  1.00  0.00    -0.744 OA
ENDBRANCH  92  96
ENDBRANCH  65  89
BRANCH  77 100
ATOM    100  C   UNL A   1      46.360  32.892  28.996  1.00  0.00     0.023 A 
ATOM    101  C   UNL A   1      46.827  33.125  30.304  1.00  0.00     0.031 A 
ATOM    102  C   UNL A   1      46.157  33.995  28.152  1.00  0.00     0.131 A 
ATOM    103  C   UNL A   1      47.024  34.437  30.747  1.00  0.00     0.055 A 
ATOM    104  C   UNL A   1      46.401  35.299  28.584  1.00  0.00     0.041 A 
ATOM    105  F   UNL A   1      45.702  33.821  26.900  1.00  0.00    -0.206 F 
ATOM    106  C   UNL A   1      46.820  35.525  29.892  1.00  0.00     0.022 A 
BRANCH 103 107
ATOM    107  S   UNL A   1      47.469  34.783  32.471  1.00  0.00     0.124 S 
ATOM    108  O   UNL A   1      48.294  35.982  32.337  1.00  0.00    -0.237 OA
ATOM    109  O   UNL A   1      46.163  34.991  33.089  1.00  0.00    -0.237 OA
ATOM    110  O   UNL A   1      48.184  33.585  32.898  1.00  0.00    -0.744 OA
ENDBRANCH 103 107
ENDBRANCH  77 100
ENDBRANCH  51  52
ENDBRANCH  43  46
ENDBRANCH  41  42
ENDBRANCH  40  41
ENDBRANCH  39  40
ENDBRANCH   1  39
TORSDOF 22
ENDMDL
