MODEL 1
REMARK VINA RESULT:     -12.6      0.000      0.000
REMARK SMILES Cc1ccc([C@@H](CC(=O)NCCCCCCNC(=O)c2ccc(-c3c4nc(c(-c5cc(S(=O)(=O)[O-])ccc5F)c5ccc([nH]5)c(-c5cc(S(=O)(=O)[O-])ccc5F)c5nc(c(-c6cc(S(=O)(=O)[O-])ccc6F)c6ccc3[nH]6)C=C5)C=C4)cc2)NC(=O)c2ccc(OC(F)F)cc2)cc1
REMARK SMILES IDX 12 1 11 2 10 3 8 4 9 5 7 7 6 8 5 9 1 10 2 11 3 12 97 13 4 14
REMARK SMILES IDX 96 15 83 16 84 17 85 19 86 20 87 21 95 22 88 23 94 24 89 25
REMARK SMILES IDX 90 26 91 27 92 28 93 29 13 30 14 31 15 32 16 33 17 34 18 35
REMARK SMILES IDX 19 37 20 38 21 39 82 40 22 41 81 42 23 43 24 44 25 45 75 46
REMARK SMILES IDX 26 47 80 48 74 49 76 50 27 51 79 52 73 53 72 54 28 56 60 57
REMARK SMILES IDX 40 58 59 59 41 60 44 61 58 62 77 63 42 64 43 65 57 67 78 68
REMARK SMILES IDX 45 69 29 70 30 71 38 72 31 73 37 74 39 75 36 76 32 77 33 78
REMARK SMILES IDX 34 79 35 80 61 81 62 82 70 83 63 84 69 85 71 86 68 87 64 88
REMARK SMILES IDX 65 89 66 90 67 91 46 92 47 93 55 94 48 95 54 96 56 97 53 98
REMARK SMILES IDX 49 99 50 100 51 101 52 102
REMARK H PARENT 10 6 83 18 17 36 76 55 44 66
REMARK Flexibility Score: inf
ROOT
ATOM      1  C   UNL A   1      36.229  23.203  24.224  1.00  0.00     0.021 C 
ENDROOT
BRANCH   1   2
ATOM      2  C   UNL A   1      35.110  23.425  23.203  1.00  0.00     0.116 C 
BRANCH   2   3
ATOM      3  N   UNL A   1      34.037  22.455  23.359  1.00  0.00    -0.356 N 
ATOM      4  C   UNL A   1      32.688  22.605  23.278  1.00  0.00     0.222 C 
ATOM      5  O   UNL A   1      31.979  21.599  23.355  1.00  0.00    -0.275 OA
ATOM      6  H   UNL A   1      34.337  21.539  23.554  1.00  0.00     0.163 HD
BRANCH   4   7
ATOM      7  C   UNL A   1      32.056  23.960  23.049  1.00  0.00     0.129 C 
BRANCH   7   8
ATOM      8  C   UNL A   1      30.650  24.160  23.653  1.00  0.00     0.122 C 
BRANCH   8   9
ATOM      9  C   UNL A   1      30.166  25.581  23.384  1.00  0.00    -0.025 A 
ATOM     10  C   UNL A   1      29.219  29.785  23.106  1.00  0.00     0.044 C 
ATOM     11  C   UNL A   1      29.514  28.317  23.126  1.00  0.00    -0.051 A 
ATOM     12  C   UNL A   1      28.603  27.418  23.690  1.00  0.00     0.004 A 
ATOM     13  C   UNL A   1      30.734  27.838  22.650  1.00  0.00     0.004 A 
ATOM     14  C   UNL A   1      28.923  26.062  23.811  1.00  0.00     0.006 A 
ATOM     15  C   UNL A   1      31.053  26.485  22.771  1.00  0.00     0.006 A 
ENDBRANCH   8   9
BRANCH   8  16
ATOM     16  N   UNL A   1      30.507  23.760  25.049  1.00  0.00    -0.345 N 
ATOM     17  C   UNL A   1      31.055  24.297  26.186  1.00  0.00     0.251 C 
ATOM     18  H   UNL A   1      29.924  22.980  25.198  1.00  0.00     0.164 HD
ATOM     19  O   UNL A   1      30.987  23.691  27.253  1.00  0.00    -0.269 OA
BRANCH  17  20
ATOM     20  C   UNL A   1      31.741  25.604  26.156  1.00  0.00     0.040 A 
ATOM     21  C   UNL A   1      31.005  26.762  26.422  1.00  0.00     0.017 A 
ATOM     22  C   UNL A   1      33.076  25.708  25.762  1.00  0.00     0.017 A 
ATOM     23  C   UNL A   1      31.624  28.012  26.340  1.00  0.00     0.047 A 
ATOM     24  C   UNL A   1      33.697  26.960  25.699  1.00  0.00     0.047 A 
ATOM     25  C   UNL A   1      32.975  28.119  25.991  1.00  0.00     0.126 A 
BRANCH  25  26
ATOM     26  O   UNL A   1      33.452  29.398  25.949  1.00  0.00    -0.435 OA
BRANCH  26  27
ATOM     27  C   UNL A   1      33.706  30.063  27.178  1.00  0.00     0.542 C 
ATOM     28  F   UNL A   1      34.423  29.263  28.004  1.00  0.00    -0.167 F 
ATOM     29  F   UNL A   1      34.415  31.198  26.963  1.00  0.00    -0.167 F 
ENDBRANCH  26  27
ENDBRANCH  25  26
ENDBRANCH  17  20
ENDBRANCH   8  16
ENDBRANCH   7   8
ENDBRANCH   4   7
ENDBRANCH   2   3
ENDBRANCH   1   2
BRANCH   1  30
ATOM     30  C   UNL A   1      37.061  21.926  24.054  1.00  0.00     0.002 C 
BRANCH  30  31
ATOM     31  C   UNL A   1      37.521  21.209  25.333  1.00  0.00     0.002 C 
BRANCH  31  32
ATOM     32  C   UNL A   1      38.971  21.451  25.751  1.00  0.00     0.021 C 
BRANCH  32  33
ATOM     33  C   UNL A   1      39.222  22.816  26.390  1.00  0.00     0.116 C 
BRANCH  33  34
ATOM     34  N   UNL A   1      40.649  23.064  26.605  1.00  0.00    -0.352 N 
ATOM     35  C   UNL A   1      41.312  24.246  26.866  1.00  0.00     0.251 C 
ATOM     36  H   UNL A   1      41.223  22.265  26.554  1.00  0.00     0.163 HD
ATOM     37  O   UNL A   1      42.534  24.298  26.984  1.00  0.00    -0.269 OA
BRANCH  35  38
ATOM     38  C   UNL A   1      40.508  25.452  27.134  1.00  0.00     0.039 A 
ATOM     39  C   UNL A   1      40.798  26.593  26.379  1.00  0.00     0.014 A 
ATOM     40  C   UNL A   1      39.694  25.525  28.259  1.00  0.00     0.014 A 
ATOM     41  C   UNL A   1      40.483  27.847  26.893  1.00  0.00     0.010 A 
ATOM     42  C   UNL A   1      39.448  26.771  28.804  1.00  0.00     0.010 A 
ATOM     43  C   UNL A   1      39.918  27.925  28.165  1.00  0.00    -0.014 A 
BRANCH  43  44
ATOM     44  C   UNL A   1      40.001  29.131  28.985  1.00  0.00     0.031 A 
ATOM     45  C   UNL A   1      38.941  30.155  28.978  1.00  0.00     0.074 A 
ATOM     46  C   UNL A   1      41.057  29.284  29.816  1.00  0.00     0.049 A 
ATOM     47  N   UNL A   1      39.131  31.400  29.262  1.00  0.00    -0.248 NA
ATOM     48  C   UNL A   1      37.567  29.852  28.605  1.00  0.00     0.031 C 
ATOM     49  C   UNL A   1      41.215  30.259  30.888  1.00  0.00     0.029 A 
ATOM     50  N   UNL A   1      42.318  28.716  29.681  1.00  0.00    -0.354 N 
ATOM     51  C   UNL A   1      37.895  31.987  29.414  1.00  0.00     0.074 A 
ATOM     52  C   UNL A   1      36.961  31.004  28.909  1.00  0.00     0.031 C 
ATOM     53  C   UNL A   1      42.523  30.410  31.149  1.00  0.00     0.029 A 
ATOM     54  C   UNL A   1      43.257  29.639  30.160  1.00  0.00     0.049 A 
ATOM     55  H   UNL A   1      42.518  27.824  29.313  1.00  0.00     0.167 HD
ATOM     56  C   UNL A   1      37.786  33.166  30.093  1.00  0.00     0.034 A 
ATOM     57  C   UNL A   1      44.234  30.132  29.344  1.00  0.00     0.034 A 
ATOM     58  C   UNL A   1      39.094  33.680  30.505  1.00  0.00     0.049 A 
ATOM     59  C   UNL A   1      44.163  31.631  29.154  1.00  0.00     0.074 A 
ATOM     60  C   UNL A   1      39.763  33.673  31.719  1.00  0.00     0.029 A 
ATOM     61  N   UNL A   1      40.026  34.072  29.548  1.00  0.00    -0.354 N 
ATOM     62  N   UNL A   1      43.122  32.358  29.454  1.00  0.00    -0.248 NA
ATOM     63  C   UNL A   1      45.253  32.427  28.597  1.00  0.00     0.031 C 
ATOM     64  C   UNL A   1      41.121  34.003  31.477  1.00  0.00     0.029 A 
ATOM     65  C   UNL A   1      41.272  34.240  30.122  1.00  0.00     0.049 A 
ATOM     66  H   UNL A   1      39.824  34.210  28.595  1.00  0.00     0.167 HD
ATOM     67  C   UNL A   1      43.366  33.671  29.136  1.00  0.00     0.074 A 
ATOM     68  C   UNL A   1      44.726  33.664  28.624  1.00  0.00     0.031 C 
ATOM     69  C   UNL A   1      42.421  34.644  29.317  1.00  0.00     0.034 A 
BRANCH  56  70
ATOM     70  C   UNL A   1      36.481  33.674  30.678  1.00  0.00     0.023 A 
ATOM     71  C   UNL A   1      35.523  34.270  29.827  1.00  0.00     0.031 A 
ATOM     72  C   UNL A   1      36.138  33.662  32.042  1.00  0.00     0.131 A 
ATOM     73  C   UNL A   1      34.386  34.924  30.338  1.00  0.00     0.055 A 
ATOM     74  C   UNL A   1      35.041  34.367  32.560  1.00  0.00     0.041 A 
ATOM     75  F   UNL A   1      36.814  32.920  32.930  1.00  0.00    -0.206 F 
ATOM     76  C   UNL A   1      34.167  35.021  31.708  1.00  0.00     0.022 A 
BRANCH  73  77
ATOM     77  S   UNL A   1      33.187  35.646  29.183  1.00  0.00     0.124 S 
ATOM     78  O   UNL A   1      32.243  36.301  30.082  1.00  0.00    -0.237 OA
ATOM     79  O   UNL A   1      34.029  36.523  28.375  1.00  0.00    -0.237 OA
ATOM     80  O   UNL A   1      32.655  34.482  28.475  1.00  0.00    -0.744 OA
ENDBRANCH  73  77
ENDBRANCH  56  70
BRANCH  57  81
ATOM     81  C   UNL A   1      44.706  29.146  28.328  1.00  0.00     0.023 A 
ATOM     82  C   UNL A   1      45.499  28.073  28.792  1.00  0.00     0.031 A 
ATOM     83  C   UNL A   1      44.101  29.020  27.072  1.00  0.00     0.131 A 
ATOM     84  C   UNL A   1      45.539  26.863  28.084  1.00  0.00     0.055 A 
ATOM     85  C   UNL A   1      44.197  27.830  26.336  1.00  0.00     0.041 A 
ATOM     86  F   UNL A   1      43.306  29.989  26.594  1.00  0.00    -0.206 F 
ATOM     87  C   UNL A   1      44.880  26.732  26.861  1.00  0.00     0.022 A 
BRANCH  84  88
ATOM     88  S   UNL A   1      46.234  25.384  28.884  1.00  0.00     0.124 S 
ATOM     89  O   UNL A   1      45.519  25.359  30.156  1.00  0.00    -0.237 OA
ATOM     90  O   UNL A   1      45.899  24.312  27.951  1.00  0.00    -0.237 OA
ATOM     91  O   UNL A   1      47.661  25.686  28.962  1.00  0.00    -0.744 OA
ENDBRANCH  84  88
ENDBRANCH  57  81
BRANCH  69  92
ATOM     92  C   UNL A   1      42.517  36.083  28.848  1.00  0.00     0.023 A 
ATOM     93  C   UNL A   1      43.277  37.065  29.500  1.00  0.00     0.031 A 
ATOM     94  C   UNL A   1      41.885  36.500  27.649  1.00  0.00     0.131 A 
ATOM     95  C   UNL A   1      43.324  38.390  29.025  1.00  0.00     0.055 A 
ATOM     96  C   UNL A   1      41.995  37.797  27.136  1.00  0.00     0.041 A 
ATOM     97  F   UNL A   1      41.138  35.662  26.914  1.00  0.00    -0.206 F 
ATOM     98  C   UNL A   1      42.704  38.758  27.834  1.00  0.00     0.022 A 
BRANCH  95  99
ATOM     99  S   UNL A   1      44.165  39.639  30.034  1.00  0.00     0.124 S 
ATOM    100  O   UNL A   1      44.573  40.614  29.026  1.00  0.00    -0.237 OA
ATOM    101  O   UNL A   1      43.108  40.072  30.943  1.00  0.00    -0.237 OA
ATOM    102  O   UNL A   1      45.259  38.900  30.660  1.00  0.00    -0.744 OA
ENDBRANCH  95  99
ENDBRANCH  69  92
ENDBRANCH  43  44
ENDBRANCH  35  38
ENDBRANCH  33  34
ENDBRANCH  32  33
ENDBRANCH  31  32
ENDBRANCH  30  31
ENDBRANCH   1  30
TORSDOF 22
ENDMDL
MODEL 2
REMARK VINA RESULT:     -12.4      4.155     10.288
REMARK SMILES Cc1ccc([C@@H](CC(=O)NCCCCCCNC(=O)c2ccc(-c3c4nc(c(-c5cc(S(=O)(=O)[O-])ccc5F)c5ccc([nH]5)c(-c5cc(S(=O)(=O)[O-])ccc5F)c5nc(c(-c6cc(S(=O)(=O)[O-])ccc6F)c6ccc3[nH]6)C=C5)C=C4)cc2)NC(=O)c2ccc(OC(F)F)cc2)cc1
REMARK SMILES IDX 12 1 11 2 10 3 8 4 9 5 7 7 6 8 5 9 1 10 2 11 3 12 97 13 4 14
REMARK SMILES IDX 96 15 83 16 84 17 85 19 86 20 87 21 95 22 88 23 94 24 89 25
REMARK SMILES IDX 90 26 91 27 92 28 93 29 13 30 14 31 15 32 16 33 17 34 18 35
REMARK SMILES IDX 19 37 20 38 21 39 82 40 22 41 81 42 23 43 24 44 25 45 75 46
REMARK SMILES IDX 26 47 80 48 74 49 76 50 27 51 79 52 73 53 72 54 28 56 60 57
REMARK SMILES IDX 40 58 59 59 41 60 44 61 58 62 77 63 42 64 43 65 57 67 78 68
REMARK SMILES IDX 45 69 29 70 30 71 38 72 31 73 37 74 39 75 36 76 32 77 33 78
REMARK SMILES IDX 34 79 35 80 61 81 62 82 70 83 63 84 69 85 71 86 68 87 64 88
REMARK SMILES IDX 65 89 66 90 67 91 46 92 47 93 55 94 48 95 54 96 56 97 53 98
REMARK SMILES IDX 49 99 50 100 51 101 52 102
REMARK H PARENT 10 6 83 18 17 36 76 55 44 66
REMARK Flexibility Score: inf
ROOT
ATOM      1  C   UNL A   1      32.273  27.492  26.968  1.00  0.00     0.021 C 
ENDROOT
BRANCH   1   2
ATOM      2  C   UNL A   1      30.958  26.900  26.455  1.00  0.00     0.116 C 
BRANCH   2   3
ATOM      3  N   UNL A   1      31.082  25.478  26.170  1.00  0.00    -0.356 N 
ATOM      4  C   UNL A   1      30.731  24.761  25.069  1.00  0.00     0.222 C 
ATOM      5  O   UNL A   1      31.029  23.564  25.028  1.00  0.00    -0.275 OA
ATOM      6  H   UNL A   1      31.487  24.948  26.894  1.00  0.00     0.163 HD
BRANCH   4   7
ATOM      7  C   UNL A   1      30.036  25.408  23.893  1.00  0.00     0.129 C 
BRANCH   7   8
ATOM      8  C   UNL A   1      30.799  26.562  23.208  1.00  0.00     0.122 C 
BRANCH   8   9
ATOM      9  C   UNL A   1      29.912  27.800  23.134  1.00  0.00    -0.025 A 
ATOM     10  C   UNL A   1      27.525  31.370  23.578  1.00  0.00     0.044 C 
ATOM     11  C   UNL A   1      28.353  30.146  23.342  1.00  0.00    -0.051 A 
ATOM     12  C   UNL A   1      27.745  28.901  23.162  1.00  0.00     0.004 A 
ATOM     13  C   UNL A   1      29.746  30.223  23.373  1.00  0.00     0.004 A 
ATOM     14  C   UNL A   1      28.516  27.739  23.052  1.00  0.00     0.006 A 
ATOM     15  C   UNL A   1      30.515  29.064  23.264  1.00  0.00     0.006 A 
ENDBRANCH   8   9
BRANCH   8  16
ATOM     16  N   UNL A   1      31.425  26.228  21.933  1.00  0.00    -0.345 N 
ATOM     17  C   UNL A   1      32.640  25.648  21.667  1.00  0.00     0.251 C 
ATOM     18  H   UNL A   1      30.891  26.454  21.138  1.00  0.00     0.164 HD
ATOM     19  O   UNL A   1      33.085  25.640  20.522  1.00  0.00    -0.269 OA
BRANCH  17  20
ATOM     20  C   UNL A   1      33.440  25.029  22.742  1.00  0.00     0.040 A 
ATOM     21  C   UNL A   1      33.633  23.645  22.732  1.00  0.00     0.017 A 
ATOM     22  C   UNL A   1      33.909  25.785  23.817  1.00  0.00     0.017 A 
ATOM     23  C   UNL A   1      34.337  23.034  23.774  1.00  0.00     0.047 A 
ATOM     24  C   UNL A   1      34.629  25.172  24.849  1.00  0.00     0.047 A 
ATOM     25  C   UNL A   1      34.851  23.794  24.831  1.00  0.00     0.126 A 
BRANCH  25  26
ATOM     26  O   UNL A   1      35.517  23.071  25.780  1.00  0.00    -0.435 OA
BRANCH  26  27
ATOM     27  C   UNL A   1      36.921  23.249  25.897  1.00  0.00     0.542 C 
ATOM     28  F   UNL A   1      37.487  23.343  24.670  1.00  0.00    -0.167 F 
ATOM     29  F   UNL A   1      37.196  24.386  26.583  1.00  0.00    -0.167 F 
ENDBRANCH  26  27
ENDBRANCH  25  26
ENDBRANCH  17  20
ENDBRANCH   8  16
ENDBRANCH   7   8
ENDBRANCH   4   7
ENDBRANCH   2   3
ENDBRANCH   1   2
BRANCH   1  30
ATOM     30  C   UNL A   1      32.880  28.626  26.131  1.00  0.00     0.002 C 
BRANCH  30  31
ATOM     31  C   UNL A   1      32.345  30.046  26.376  1.00  0.00     0.002 C 
BRANCH  31  32
ATOM     32  C   UNL A   1      33.257  30.975  27.176  1.00  0.00     0.021 C 
BRANCH  32  33
ATOM     33  C   UNL A   1      34.532  30.314  27.696  1.00  0.00     0.116 C 
BRANCH  33  34
ATOM     34  N   UNL A   1      35.378  31.258  28.428  1.00  0.00    -0.352 N 
ATOM     35  C   UNL A   1      36.643  31.090  28.952  1.00  0.00     0.251 C 
ATOM     36  H   UNL A   1      34.982  32.149  28.570  1.00  0.00     0.163 HD
ATOM     37  O   UNL A   1      37.213  31.976  29.583  1.00  0.00    -0.269 OA
BRANCH  35  38
ATOM     38  C   UNL A   1      37.373  29.849  28.629  1.00  0.00     0.039 A 
ATOM     39  C   UNL A   1      37.466  28.883  29.636  1.00  0.00     0.014 A 
ATOM     40  C   UNL A   1      38.151  29.765  27.480  1.00  0.00     0.014 A 
ATOM     41  C   UNL A   1      38.518  27.974  29.610  1.00  0.00     0.010 A 
ATOM     42  C   UNL A   1      39.238  28.911  27.492  1.00  0.00     0.010 A 
ATOM     43  C   UNL A   1      39.468  28.080  28.595  1.00  0.00    -0.014 A 
BRANCH  43  44
ATOM     44  C   UNL A   1      40.819  27.543  28.731  1.00  0.00     0.031 A 
ATOM     45  C   UNL A   1      41.165  26.177  28.297  1.00  0.00     0.074 A 
ATOM     46  C   UNL A   1      41.794  28.343  29.218  1.00  0.00     0.049 A 
ATOM     47  N   UNL A   1      42.134  25.480  28.790  1.00  0.00    -0.248 NA
ATOM     48  C   UNL A   1      40.403  25.467  27.280  1.00  0.00     0.031 C 
ATOM     49  C   UNL A   1      43.234  28.109  29.202  1.00  0.00     0.029 A 
ATOM     50  N   UNL A   1      41.635  29.441  30.056  1.00  0.00    -0.354 N 
ATOM     51  C   UNL A   1      42.322  24.389  27.971  1.00  0.00     0.074 A 
ATOM     52  C   UNL A   1      41.166  24.383  27.101  1.00  0.00     0.031 C 
ATOM     53  C   UNL A   1      43.806  28.852  30.162  1.00  0.00     0.029 A 
ATOM     54  C   UNL A   1      42.738  29.484  30.919  1.00  0.00     0.049 A 
ATOM     55  H   UNL A   1      40.882  30.075  30.046  1.00  0.00     0.167 HD
ATOM     56  C   UNL A   1      43.505  23.709  28.013  1.00  0.00     0.034 A 
ATOM     57  C   UNL A   1      42.574  29.398  32.271  1.00  0.00     0.034 A 
ATOM     58  C   UNL A   1      44.403  24.242  29.041  1.00  0.00     0.049 A 
ATOM     59  C   UNL A   1      43.252  28.193  32.886  1.00  0.00     0.074 A 
ATOM     60  C   UNL A   1      45.511  25.073  28.978  1.00  0.00     0.029 A 
ATOM     61  N   UNL A   1      44.059  24.151  30.387  1.00  0.00    -0.354 N 
ATOM     62  N   UNL A   1      43.679  27.166  32.204  1.00  0.00    -0.248 NA
ATOM     63  C   UNL A   1      43.488  28.044  34.319  1.00  0.00     0.031 C 
ATOM     64  C   UNL A   1      45.793  25.532  30.289  1.00  0.00     0.029 A 
ATOM     65  C   UNL A   1      44.877  24.959  31.154  1.00  0.00     0.049 A 
ATOM     66  H   UNL A   1      43.332  23.590  30.742  1.00  0.00     0.167 HD
ATOM     67  C   UNL A   1      44.216  26.234  33.056  1.00  0.00     0.074 A 
ATOM     68  C   UNL A   1      44.094  26.844  34.369  1.00  0.00     0.031 C 
ATOM     69  C   UNL A   1      44.707  25.040  32.602  1.00  0.00     0.034 A 
BRANCH  56  70
ATOM     70  C   UNL A   1      43.980  22.792  26.902  1.00  0.00     0.023 A 
ATOM     71  C   UNL A   1      43.357  21.536  26.723  1.00  0.00     0.031 A 
ATOM     72  C   UNL A   1      45.055  23.051  26.032  1.00  0.00     0.131 A 
ATOM     73  C   UNL A   1      43.876  20.573  25.837  1.00  0.00     0.055 A 
ATOM     74  C   UNL A   1      45.614  22.072  25.195  1.00  0.00     0.041 A 
ATOM     75  F   UNL A   1      45.578  24.279  25.908  1.00  0.00    -0.206 F 
ATOM     76  C   UNL A   1      45.036  20.817  25.109  1.00  0.00     0.022 A 
BRANCH  73  77
ATOM     77  S   UNL A   1      43.009  18.991  25.643  1.00  0.00     0.124 S 
ATOM     78  O   UNL A   1      41.617  19.411  25.518  1.00  0.00    -0.237 OA
ATOM     79  O   UNL A   1      43.632  18.445  24.441  1.00  0.00    -0.237 OA
ATOM     80  O   UNL A   1      43.327  18.276  26.878  1.00  0.00    -0.744 OA
ENDBRANCH  73  77
ENDBRANCH  56  70
BRANCH  57  81
ATOM     81  C   UNL A   1      41.308  30.025  32.751  1.00  0.00     0.023 A 
ATOM     82  C   UNL A   1      41.267  31.436  32.799  1.00  0.00     0.031 A 
ATOM     83  C   UNL A   1      40.092  29.331  32.775  1.00  0.00     0.131 A 
ATOM     84  C   UNL A   1      40.042  32.113  32.707  1.00  0.00     0.055 A 
ATOM     85  C   UNL A   1      38.867  30.013  32.749  1.00  0.00     0.041 A 
ATOM     86  F   UNL A   1      40.065  27.993  32.694  1.00  0.00    -0.206 F 
ATOM     87  C   UNL A   1      38.839  31.407  32.670  1.00  0.00     0.022 A 
BRANCH  84  88
ATOM     88  S   UNL A   1      40.035  33.902  32.376  1.00  0.00     0.124 S 
ATOM     89  O   UNL A   1      39.186  34.408  33.449  1.00  0.00    -0.237 OA
ATOM     90  O   UNL A   1      41.447  34.264  32.463  1.00  0.00    -0.237 OA
ATOM     91  O   UNL A   1      39.477  33.990  31.028  1.00  0.00    -0.744 OA
ENDBRANCH  84  88
ENDBRANCH  57  81
BRANCH  69  92
ATOM     92  C   UNL A   1      45.165  23.876  33.460  1.00  0.00     0.023 A 
ATOM     93  C   UNL A   1      46.463  23.751  33.974  1.00  0.00     0.031 A 
ATOM     94  C   UNL A   1      44.253  22.866  33.858  1.00  0.00     0.131 A 
ATOM     95  C   UNL A   1      46.836  22.643  34.759  1.00  0.00     0.055 A 
ATOM     96  C   UNL A   1      44.604  21.806  34.701  1.00  0.00     0.041 A 
ATOM     97  F   UNL A   1      42.974  22.866  33.452  1.00  0.00    -0.206 F 
ATOM     98  C   UNL A   1      45.909  21.679  35.145  1.00  0.00     0.022 A 
BRANCH  95  99
ATOM     99  S   UNL A   1      48.581  22.458  35.217  1.00  0.00     0.124 S 
ATOM    100  O   UNL A   1      48.776  21.018  35.078  1.00  0.00    -0.237 OA
ATOM    101  O   UNL A   1      49.255  23.287  34.223  1.00  0.00    -0.237 OA
ATOM    102  O   UNL A   1      48.635  22.962  36.587  1.00  0.00    -0.744 OA
ENDBRANCH  95  99
ENDBRANCH  69  92
ENDBRANCH  43  44
ENDBRANCH  35  38
ENDBRANCH  33  34
ENDBRANCH  32  33
ENDBRANCH  31  32
ENDBRANCH  30  31
ENDBRANCH   1  30
TORSDOF 22
ENDMDL
MODEL 3
REMARK VINA RESULT:     -12.2      4.183     10.492
REMARK SMILES Cc1ccc([C@@H](CC(=O)NCCCCCCNC(=O)c2ccc(-c3c4nc(c(-c5cc(S(=O)(=O)[O-])ccc5F)c5ccc([nH]5)c(-c5cc(S(=O)(=O)[O-])ccc5F)c5nc(c(-c6cc(S(=O)(=O)[O-])ccc6F)c6ccc3[nH]6)C=C5)C=C4)cc2)NC(=O)c2ccc(OC(F)F)cc2)cc1
REMARK SMILES IDX 12 1 11 2 10 3 8 4 9 5 7 7 6 8 5 9 1 10 2 11 3 12 97 13 4 14
REMARK SMILES IDX 96 15 83 16 84 17 85 19 86 20 87 21 95 22 88 23 94 24 89 25
REMARK SMILES IDX 90 26 91 27 92 28 93 29 13 30 14 31 15 32 16 33 17 34 18 35
REMARK SMILES IDX 19 37 20 38 21 39 82 40 22 41 81 42 23 43 24 44 25 45 75 46
REMARK SMILES IDX 26 47 80 48 74 49 76 50 27 51 79 52 73 53 72 54 28 56 60 57
REMARK SMILES IDX 40 58 59 59 41 60 44 61 58 62 77 63 42 64 43 65 57 67 78 68
REMARK SMILES IDX 45 69 29 70 30 71 38 72 31 73 37 74 39 75 36 76 32 77 33 78
REMARK SMILES IDX 34 79 35 80 61 81 62 82 70 83 63 84 69 85 71 86 68 87 64 88
REMARK SMILES IDX 65 89 66 90 67 91 46 92 47 93 55 94 48 95 54 96 56 97 53 98
REMARK SMILES IDX 49 99 50 100 51 101 52 102
REMARK H PARENT 10 6 83 18 17 36 76 55 44 66
REMARK Flexibility Score: inf
ROOT
ATOM      1  C   UNL A   1      31.989  27.306  26.562  1.00  0.00     0.021 C 
ENDROOT
BRANCH   1   2
ATOM      2  C   UNL A   1      30.832  26.706  25.759  1.00  0.00     0.116 C 
BRANCH   2   3
ATOM      3  N   UNL A   1      30.239  25.564  26.438  1.00  0.00    -0.356 N 
ATOM      4  C   UNL A   1      30.667  24.278  26.547  1.00  0.00     0.222 C 
ATOM      5  O   UNL A   1      30.028  23.505  27.266  1.00  0.00    -0.275 OA
ATOM      6  H   UNL A   1      29.388  25.754  26.895  1.00  0.00     0.163 HD
BRANCH   4   7
ATOM      7  C   UNL A   1      31.921  23.800  25.850  1.00  0.00     0.129 C 
BRANCH   7   8
ATOM      8  C   UNL A   1      31.723  23.190  24.446  1.00  0.00     0.122 C 
BRANCH   8   9
ATOM      9  C   UNL A   1      32.376  21.814  24.381  1.00  0.00    -0.025 A 
ATOM     10  C   UNL A   1      33.612  17.677  24.312  1.00  0.00     0.044 C 
ATOM     11  C   UNL A   1      33.255  19.131  24.297  1.00  0.00    -0.051 A 
ATOM     12  C   UNL A   1      33.585  19.954  25.377  1.00  0.00     0.004 A 
ATOM     13  C   UNL A   1      32.522  19.664  23.236  1.00  0.00     0.004 A 
ATOM     14  C   UNL A   1      33.156  21.285  25.416  1.00  0.00     0.006 A 
ATOM     15  C   UNL A   1      32.094  20.991  23.275  1.00  0.00     0.006 A 
ENDBRANCH   8   9
BRANCH   8  16
ATOM     16  N   UNL A   1      32.095  24.055  23.331  1.00  0.00    -0.345 N 
ATOM     17  C   UNL A   1      33.319  24.556  22.968  1.00  0.00     0.251 C 
ATOM     18  H   UNL A   1      31.349  24.322  22.748  1.00  0.00     0.164 HD
ATOM     19  O   UNL A   1      33.400  25.441  22.120  1.00  0.00    -0.269 OA
BRANCH  17  20
ATOM     20  C   UNL A   1      34.563  24.053  23.587  1.00  0.00     0.040 A 
ATOM     21  C   UNL A   1      34.970  24.580  24.815  1.00  0.00     0.017 A 
ATOM     22  C   UNL A   1      35.385  23.147  22.916  1.00  0.00     0.017 A 
ATOM     23  C   UNL A   1      36.174  24.160  25.386  1.00  0.00     0.047 A 
ATOM     24  C   UNL A   1      36.581  22.715  23.499  1.00  0.00     0.047 A 
ATOM     25  C   UNL A   1      36.980  23.216  24.739  1.00  0.00     0.126 A 
BRANCH  25  26
ATOM     26  O   UNL A   1      38.128  22.895  25.408  1.00  0.00    -0.435 OA
BRANCH  26  27
ATOM     27  C   UNL A   1      38.238  21.594  25.967  1.00  0.00     0.542 C 
ATOM     28  F   UNL A   1      38.259  20.661  24.986  1.00  0.00    -0.167 F 
ATOM     29  F   UNL A   1      39.384  21.485  26.684  1.00  0.00    -0.167 F 
ENDBRANCH  26  27
ENDBRANCH  25  26
ENDBRANCH  17  20
ENDBRANCH   8  16
ENDBRANCH   7   8
ENDBRANCH   4   7
ENDBRANCH   2   3
ENDBRANCH   1   2
BRANCH   1  30
ATOM     30  C   UNL A   1      32.541  28.646  26.061  1.00  0.00     0.002 C 
BRANCH  30  31
ATOM     31  C   UNL A   1      31.874  29.925  26.592  1.00  0.00     0.002 C 
BRANCH  31  32
ATOM     32  C   UNL A   1      32.794  30.912  27.308  1.00  0.00     0.021 C 
BRANCH  32  33
ATOM     33  C   UNL A   1      34.029  30.275  27.945  1.00  0.00     0.116 C 
BRANCH  33  34
ATOM     34  N   UNL A   1      34.880  31.270  28.599  1.00  0.00    -0.352 N 
ATOM     35  C   UNL A   1      36.163  31.149  29.093  1.00  0.00     0.251 C 
ATOM     36  H   UNL A   1      34.475  32.162  28.704  1.00  0.00     0.163 HD
ATOM     37  O   UNL A   1      36.738  32.076  29.658  1.00  0.00    -0.269 OA
BRANCH  35  38
ATOM     38  C   UNL A   1      36.902  29.903  28.815  1.00  0.00     0.039 A 
ATOM     39  C   UNL A   1      37.085  29.019  29.884  1.00  0.00     0.014 A 
ATOM     40  C   UNL A   1      37.607  29.747  27.627  1.00  0.00     0.014 A 
ATOM     41  C   UNL A   1      38.157  28.133  29.856  1.00  0.00     0.010 A 
ATOM     42  C   UNL A   1      38.714  28.920  27.631  1.00  0.00     0.010 A 
ATOM     43  C   UNL A   1      39.036  28.180  28.775  1.00  0.00    -0.014 A 
BRANCH  43  44
ATOM     44  C   UNL A   1      40.407  27.684  28.860  1.00  0.00     0.031 A 
ATOM     45  C   UNL A   1      40.768  26.313  28.455  1.00  0.00     0.074 A 
ATOM     46  C   UNL A   1      41.382  28.526  29.271  1.00  0.00     0.049 A 
ATOM     47  N   UNL A   1      41.780  25.660  28.921  1.00  0.00    -0.248 NA
ATOM     48  C   UNL A   1      39.978  25.548  27.502  1.00  0.00     0.031 C 
ATOM     49  C   UNL A   1      42.825  28.329  29.189  1.00  0.00     0.029 A 
ATOM     50  N   UNL A   1      41.235  29.648  30.078  1.00  0.00    -0.354 N 
ATOM     51  C   UNL A   1      41.957  24.546  28.131  1.00  0.00     0.074 A 
ATOM     52  C   UNL A   1      40.761  24.480  27.321  1.00  0.00     0.031 C 
ATOM     53  C   UNL A   1      43.423  29.120  30.094  1.00  0.00     0.029 A 
ATOM     54  C   UNL A   1      42.377  29.750  30.883  1.00  0.00     0.049 A 
ATOM     55  H   UNL A   1      40.464  30.261  30.085  1.00  0.00     0.167 HD
ATOM     56  C   UNL A   1      43.159  23.899  28.136  1.00  0.00     0.034 A 
ATOM     57  C   UNL A   1      42.282  29.706  32.243  1.00  0.00     0.034 A 
ATOM     58  C   UNL A   1      44.092  24.490  29.099  1.00  0.00     0.049 A 
ATOM     59  C   UNL A   1      43.023  28.541  32.863  1.00  0.00     0.074 A 
ATOM     60  C   UNL A   1      45.172  25.348  28.953  1.00  0.00     0.029 A 
ATOM     61  N   UNL A   1      43.817  24.438  30.462  1.00  0.00    -0.354 N 
ATOM     62  N   UNL A   1      43.445  27.503  32.195  1.00  0.00    -0.248 NA
ATOM     63  C   UNL A   1      43.335  28.448  34.286  1.00  0.00     0.031 C 
ATOM     64  C   UNL A   1      45.506  25.859  30.232  1.00  0.00     0.029 A 
ATOM     65  C   UNL A   1      44.650  25.292  31.161  1.00  0.00     0.049 A 
ATOM     66  H   UNL A   1      43.125  23.870  30.872  1.00  0.00     0.167 HD
ATOM     67  C   UNL A   1      44.049  26.615  33.050  1.00  0.00     0.074 A 
ATOM     68  C   UNL A   1      43.975  27.267  34.346  1.00  0.00     0.031 C 
ATOM     69  C   UNL A   1      44.550  25.419  32.611  1.00  0.00     0.034 A 
BRANCH  56  70
ATOM     70  C   UNL A   1      43.604  22.957  27.033  1.00  0.00     0.023 A 
ATOM     71  C   UNL A   1      43.050  21.659  26.963  1.00  0.00     0.031 A 
ATOM     72  C   UNL A   1      44.591  23.234  26.069  1.00  0.00     0.131 A 
ATOM     73  C   UNL A   1      43.558  20.684  26.082  1.00  0.00     0.055 A 
ATOM     74  C   UNL A   1      45.144  22.250  25.236  1.00  0.00     0.041 A 
ATOM     75  F   UNL A   1      45.025  24.483  25.848  1.00  0.00    -0.206 F 
ATOM     76  C   UNL A   1      44.641  20.960  25.254  1.00  0.00     0.022 A 
BRANCH  73  77
ATOM     77  S   UNL A   1      42.780  19.046  26.031  1.00  0.00     0.124 S 
ATOM     78  O   UNL A   1      42.480  18.799  27.437  1.00  0.00    -0.237 OA
ATOM     79  O   UNL A   1      41.636  19.278  25.154  1.00  0.00    -0.237 OA
ATOM     80  O   UNL A   1      43.824  18.193  25.466  1.00  0.00    -0.744 OA
ENDBRANCH  73  77
ENDBRANCH  56  70
BRANCH  57  81
ATOM     81  C   UNL A   1      41.025  30.316  32.766  1.00  0.00     0.023 A 
ATOM     82  C   UNL A   1      40.954  31.727  32.786  1.00  0.00     0.031 A 
ATOM     83  C   UNL A   1      39.827  29.597  32.857  1.00  0.00     0.131 A 
ATOM     84  C   UNL A   1      39.713  32.375  32.734  1.00  0.00     0.055 A 
ATOM     85  C   UNL A   1      38.587  30.252  32.870  1.00  0.00     0.041 A 
ATOM     86  F   UNL A   1      39.826  28.258  32.804  1.00  0.00    -0.206 F 
ATOM     87  C   UNL A   1      38.525  31.643  32.764  1.00  0.00     0.022 A 
BRANCH  84  88
ATOM     88  S   UNL A   1      39.651  34.157  32.367  1.00  0.00     0.124 S 
ATOM     89  O   UNL A   1      39.230  34.718  33.646  1.00  0.00    -0.237 OA
ATOM     90  O   UNL A   1      41.021  34.462  31.963  1.00  0.00    -0.237 OA
ATOM     91  O   UNL A   1      38.675  34.240  31.283  1.00  0.00    -0.744 OA
ENDBRANCH  84  88
ENDBRANCH  57  81
BRANCH  69  92
ATOM     92  C   UNL A   1      45.082  24.299  33.483  1.00  0.00     0.023 A 
ATOM     93  C   UNL A   1      46.427  24.175  33.858  1.00  0.00     0.031 A 
ATOM     94  C   UNL A   1      44.204  23.334  34.041  1.00  0.00     0.131 A 
ATOM     95  C   UNL A   1      46.867  23.107  34.664  1.00  0.00     0.055 A 
ATOM     96  C   UNL A   1      44.630  22.318  34.904  1.00  0.00     0.041 A 
ATOM     97  F   UNL A   1      42.888  23.339  33.779  1.00  0.00    -0.206 F 
ATOM     98  C   UNL A   1      45.974  22.188  35.208  1.00  0.00     0.022 A 
BRANCH  95  99
ATOM     99  S   UNL A   1      48.649  22.910  34.937  1.00  0.00     0.124 S 
ATOM    100  O   UNL A   1      49.208  23.781  33.907  1.00  0.00    -0.237 OA
ATOM    101  O   UNL A   1      48.808  23.373  36.312  1.00  0.00    -0.237 OA
ATOM    102  O   UNL A   1      48.876  21.482  34.732  1.00  0.00    -0.744 OA
ENDBRANCH  95  99
ENDBRANCH  69  92
ENDBRANCH  43  44
ENDBRANCH  35  38
ENDBRANCH  33  34
ENDBRANCH  32  33
ENDBRANCH  31  32
ENDBRANCH  30  31
ENDBRANCH   1  30
TORSDOF 22
ENDMDL
