MODEL 1
REMARK VINA RESULT:      -9.8      0.000      0.000
REMARK SMILES CC(C)[C@@H](CC(=O)OC(C)(C)C)C(=O)NCCCCCCNC(=O)c1ccc(-c2c3nc(c(-c4cc(S(=O)(=O)[O-])ccc4F)c4ccc([nH]4)c(-c4cc(S(=O)(=O)[O-])ccc4F)c4nc(c(-c5cc(S(=O)(=O)[O-])ccc5F)c5ccc2[nH]5)C=C4)C=C3)cc1
REMARK SMILES IDX 18 1 17 2 16 3 15 4 13 5 14 6 4 8 2 9 1 10 3 11 5 12 6 13
REMARK SMILES IDX 7 14 8 15 9 16 10 17 11 18 12 19 19 20 20 21 21 22 22 23
REMARK SMILES IDX 23 24 24 26 25 27 26 28 87 29 27 30 86 31 28 32 29 33 30 34
REMARK SMILES IDX 80 35 31 36 85 37 79 38 81 39 32 40 84 41 78 42 77 43 33 45
REMARK SMILES IDX 65 46 45 47 64 48 46 49 49 50 63 51 82 52 47 53 48 54 62 56
REMARK SMILES IDX 83 57 50 58 34 59 35 60 43 61 36 62 42 63 44 64 41 65 37 66
REMARK SMILES IDX 38 67 39 68 40 69 66 70 67 71 75 72 68 73 74 74 76 75 73 76
REMARK SMILES IDX 69 77 70 78 71 79 72 80 51 81 52 82 60 83 53 84 59 85 61 86
REMARK SMILES IDX 58 87 54 88 55 89 56 90 57 91
REMARK H PARENT 15 7 22 25 81 44 49 55
REMARK Flexibility Score: inf
ROOT
ATOM      1  C   UNL A   1      31.496  26.199  26.122  1.00  0.00     0.002 C 
ENDROOT
BRANCH   1   2
ATOM      2  C   UNL A   1      31.170  26.020  24.634  1.00  0.00     0.021 C 
BRANCH   2   3
ATOM      3  C   UNL A   1      31.328  24.596  24.104  1.00  0.00     0.116 C 
BRANCH   3   4
ATOM      4  N   UNL A   1      32.315  24.436  23.065  1.00  0.00    -0.356 N 
ATOM      5  C   UNL A   1      33.392  23.609  23.014  1.00  0.00     0.223 C 
ATOM      6  O   UNL A   1      33.925  23.448  21.911  1.00  0.00    -0.275 OA
ATOM      7  H   UNL A   1      32.190  25.012  22.277  1.00  0.00     0.163 HD
BRANCH   5   8
ATOM      8  C   UNL A   1      33.978  22.904  24.249  1.00  0.00     0.092 C 
BRANCH   8   9
ATOM      9  C   UNL A   1      34.374  23.832  25.428  1.00  0.00    -0.004 C 
ATOM     10  C   UNL A   1      33.960  23.234  26.780  1.00  0.00     0.008 C 
ATOM     11  C   UNL A   1      35.892  24.076  25.454  1.00  0.00     0.008 C 
ENDBRANCH   8   9
BRANCH   8  12
ATOM     12  C   UNL A   1      33.283  21.568  24.571  1.00  0.00     0.136 C 
BRANCH  12  13
ATOM     13  C   UNL A   1      34.101  20.333  24.868  1.00  0.00     0.307 C 
ATOM     14  O   UNL A   1      35.327  20.327  24.796  1.00  0.00    -0.252 OA
BRANCH  13  15
ATOM     15  O   UNL A   1      33.336  19.293  25.276  1.00  0.00    -0.460 OA
BRANCH  15  16
ATOM     16  C   UNL A   1      33.263  18.039  24.530  1.00  0.00     0.104 C 
ATOM     17  C   UNL A   1      34.623  17.464  24.119  1.00  0.00     0.056 C 
ATOM     18  C   UNL A   1      32.492  16.992  25.330  1.00  0.00     0.056 C 
ATOM     19  C   UNL A   1      32.477  18.400  23.258  1.00  0.00     0.056 C 
ENDBRANCH  15  16
ENDBRANCH  13  15
ENDBRANCH  12  13
ENDBRANCH   8  12
ENDBRANCH   5   8
ENDBRANCH   3   4
ENDBRANCH   2   3
ENDBRANCH   1   2
BRANCH   1  20
ATOM     20  C   UNL A   1      31.299  27.609  26.701  1.00  0.00     0.002 C 
BRANCH  20  21
ATOM     21  C   UNL A   1      32.487  28.202  27.461  1.00  0.00     0.021 C 
BRANCH  21  22
ATOM     22  C   UNL A   1      33.490  28.991  26.632  1.00  0.00     0.116 C 
BRANCH  22  23
ATOM     23  N   UNL A   1      33.512  30.400  26.974  1.00  0.00    -0.352 N 
ATOM     24  C   UNL A   1      34.360  31.129  27.771  1.00  0.00     0.251 C 
ATOM     25  H   UNL A   1      32.791  30.928  26.561  1.00  0.00     0.163 HD
ATOM     26  O   UNL A   1      34.043  32.285  28.049  1.00  0.00    -0.269 OA
BRANCH  24  27
ATOM     27  C   UNL A   1      35.620  30.563  28.321  1.00  0.00     0.039 A 
ATOM     28  C   UNL A   1      36.820  30.857  27.661  1.00  0.00     0.014 A 
ATOM     29  C   UNL A   1      35.647  29.698  29.418  1.00  0.00     0.014 A 
ATOM     30  C   UNL A   1      38.029  30.323  28.121  1.00  0.00     0.010 A 
ATOM     31  C   UNL A   1      36.865  29.247  29.936  1.00  0.00     0.010 A 
ATOM     32  C   UNL A   1      38.070  29.534  29.281  1.00  0.00    -0.014 A 
BRANCH  32  33
ATOM     33  C   UNL A   1      39.359  28.974  29.781  1.00  0.00     0.031 A 
ATOM     34  C   UNL A   1      40.040  29.580  30.984  1.00  0.00     0.074 A 
ATOM     35  C   UNL A   1      39.931  27.932  29.143  1.00  0.00     0.049 A 
ATOM     36  N   UNL A   1      41.167  29.240  31.558  1.00  0.00    -0.248 NA
ATOM     37  C   UNL A   1      39.383  30.740  31.605  1.00  0.00     0.031 C 
ATOM     38  C   UNL A   1      39.402  27.286  27.940  1.00  0.00     0.029 A 
ATOM     39  N   UNL A   1      41.080  27.230  29.414  1.00  0.00    -0.354 N 
ATOM     40  C   UNL A   1      41.359  30.151  32.594  1.00  0.00     0.074 A 
ATOM     41  C   UNL A   1      40.268  31.097  32.524  1.00  0.00     0.031 C 
ATOM     42  C   UNL A   1      40.200  26.262  27.601  1.00  0.00     0.029 A 
ATOM     43  C   UNL A   1      41.322  26.200  28.533  1.00  0.00     0.049 A 
ATOM     44  H   UNL A   1      41.675  27.442  30.169  1.00  0.00     0.167 HD
ATOM     45  C   UNL A   1      42.339  30.181  33.533  1.00  0.00     0.034 A 
ATOM     46  C   UNL A   1      42.332  25.308  28.477  1.00  0.00     0.034 A 
ATOM     47  C   UNL A   1      43.409  29.215  33.608  1.00  0.00     0.049 A 
ATOM     48  C   UNL A   1      43.407  25.359  29.534  1.00  0.00     0.074 A 
ATOM     49  C   UNL A   1      44.414  29.115  34.556  1.00  0.00     0.029 A 
ATOM     50  N   UNL A   1      43.617  28.185  32.700  1.00  0.00    -0.354 N 
ATOM     51  N   UNL A   1      43.537  26.192  30.541  1.00  0.00    -0.248 NA
ATOM     52  C   UNL A   1      44.461  24.339  29.456  1.00  0.00     0.031 C 
ATOM     53  C   UNL A   1      45.268  28.071  34.182  1.00  0.00     0.029 A 
ATOM     54  C   UNL A   1      44.753  27.467  33.047  1.00  0.00     0.049 A 
ATOM     55  H   UNL A   1      43.044  27.993  31.923  1.00  0.00     0.167 HD
ATOM     56  C   UNL A   1      44.673  25.776  31.232  1.00  0.00     0.074 A 
ATOM     57  C   UNL A   1      45.173  24.606  30.539  1.00  0.00     0.031 C 
ATOM     58  C   UNL A   1      45.250  26.310  32.339  1.00  0.00     0.034 A 
BRANCH  45  59
ATOM     59  C   UNL A   1      42.306  31.308  34.541  1.00  0.00     0.023 A 
ATOM     60  C   UNL A   1      43.044  32.491  34.356  1.00  0.00     0.031 A 
ATOM     61  C   UNL A   1      41.539  31.192  35.714  1.00  0.00     0.131 A 
ATOM     62  C   UNL A   1      43.059  33.474  35.358  1.00  0.00     0.055 A 
ATOM     63  C   UNL A   1      41.491  32.210  36.669  1.00  0.00     0.041 A 
ATOM     64  F   UNL A   1      40.828  30.079  35.958  1.00  0.00    -0.206 F 
ATOM     65  C   UNL A   1      42.267  33.353  36.502  1.00  0.00     0.022 A 
BRANCH  62  66
ATOM     66  S   UNL A   1      44.239  34.843  35.212  1.00  0.00     0.124 S 
ATOM     67  O   UNL A   1      44.879  34.821  36.526  1.00  0.00    -0.237 OA
ATOM     68  O   UNL A   1      45.070  34.425  34.090  1.00  0.00    -0.237 OA
ATOM     69  O   UNL A   1      43.388  36.004  34.962  1.00  0.00    -0.744 OA
ENDBRANCH  62  66
ENDBRANCH  45  59
BRANCH  46  70
ATOM     70  C   UNL A   1      42.387  24.292  27.386  1.00  0.00     0.023 A 
ATOM     71  C   UNL A   1      41.780  23.035  27.532  1.00  0.00     0.031 A 
ATOM     72  C   UNL A   1      43.093  24.547  26.196  1.00  0.00     0.131 A 
ATOM     73  C   UNL A   1      41.934  22.061  26.531  1.00  0.00     0.055 A 
ATOM     74  C   UNL A   1      43.195  23.596  25.179  1.00  0.00     0.041 A 
ATOM     75  F   UNL A   1      43.690  25.734  26.001  1.00  0.00    -0.206 F 
ATOM     76  C   UNL A   1      42.625  22.339  25.350  1.00  0.00     0.022 A 
BRANCH  73  77
ATOM     77  S   UNL A   1      41.294  20.391  26.837  1.00  0.00     0.124 S 
ATOM     78  O   UNL A   1      40.240  20.288  25.835  1.00  0.00    -0.237 OA
ATOM     79  O   UNL A   1      42.478  19.568  26.612  1.00  0.00    -0.237 OA
ATOM     80  O   UNL A   1      40.835  20.453  28.224  1.00  0.00    -0.744 OA
ENDBRANCH  73  77
ENDBRANCH  46  70
BRANCH  58  81
ATOM     81  C   UNL A   1      46.469  25.603  32.884  1.00  0.00     0.023 A 
ATOM     82  C   UNL A   1      46.361  24.565  33.827  1.00  0.00     0.031 A 
ATOM     83  C   UNL A   1      47.756  25.993  32.475  1.00  0.00     0.131 A 
ATOM     84  C   UNL A   1      47.520  24.001  34.381  1.00  0.00     0.055 A 
ATOM     85  C   UNL A   1      48.905  25.381  32.980  1.00  0.00     0.041 A 
ATOM     86  F   UNL A   1      47.920  26.979  31.579  1.00  0.00    -0.206 F 
ATOM     87  C   UNL A   1      48.791  24.390  33.951  1.00  0.00     0.022 A 
BRANCH  84  88
ATOM     88  S   UNL A   1      47.345  22.829  35.755  1.00  0.00     0.124 S 
ATOM     89  O   UNL A   1      47.941  23.570  36.863  1.00  0.00    -0.237 OA
ATOM     90  O   UNL A   1      45.900  22.639  35.820  1.00  0.00    -0.237 OA
ATOM     91  O   UNL A   1      48.104  21.662  35.309  1.00  0.00    -0.744 OA
ENDBRANCH  84  88
ENDBRANCH  58  81
ENDBRANCH  32  33
ENDBRANCH  24  27
ENDBRANCH  22  23
ENDBRANCH  21  22
ENDBRANCH  20  21
ENDBRANCH   1  20
TORSDOF 21
ENDMDL
MODEL 2
REMARK VINA RESULT:      -9.7      3.804      7.203
REMARK SMILES CC(C)[C@@H](CC(=O)OC(C)(C)C)C(=O)NCCCCCCNC(=O)c1ccc(-c2c3nc(c(-c4cc(S(=O)(=O)[O-])ccc4F)c4ccc([nH]4)c(-c4cc(S(=O)(=O)[O-])ccc4F)c4nc(c(-c5cc(S(=O)(=O)[O-])ccc5F)c5ccc2[nH]5)C=C4)C=C3)cc1
REMARK SMILES IDX 18 1 17 2 16 3 15 4 13 5 14 6 4 8 2 9 1 10 3 11 5 12 6 13
REMARK SMILES IDX 7 14 8 15 9 16 10 17 11 18 12 19 19 20 20 21 21 22 22 23
REMARK SMILES IDX 23 24 24 26 25 27 26 28 87 29 27 30 86 31 28 32 29 33 30 34
REMARK SMILES IDX 80 35 31 36 85 37 79 38 81 39 32 40 84 41 78 42 77 43 33 45
REMARK SMILES IDX 65 46 45 47 64 48 46 49 49 50 63 51 82 52 47 53 48 54 62 56
REMARK SMILES IDX 83 57 50 58 34 59 35 60 43 61 36 62 42 63 44 64 41 65 37 66
REMARK SMILES IDX 38 67 39 68 40 69 66 70 67 71 75 72 68 73 74 74 76 75 73 76
REMARK SMILES IDX 69 77 70 78 71 79 72 80 51 81 52 82 60 83 53 84 59 85 61 86
REMARK SMILES IDX 58 87 54 88 55 89 56 90 57 91
REMARK H PARENT 15 7 22 25 81 44 49 55
REMARK Flexibility Score: inf
ROOT
ATOM      1  C   UNL A   1      33.055  35.700  29.975  1.00  0.00     0.002 C 
ENDROOT
BRANCH   1   2
ATOM      2  C   UNL A   1      33.356  35.314  31.428  1.00  0.00     0.021 C 
BRANCH   2   3
ATOM      3  C   UNL A   1      34.810  34.944  31.710  1.00  0.00     0.116 C 
BRANCH   3   4
ATOM      4  N   UNL A   1      35.068  33.530  31.830  1.00  0.00    -0.356 N 
ATOM      5  C   UNL A   1      36.251  32.874  31.959  1.00  0.00     0.223 C 
ATOM      6  O   UNL A   1      36.203  31.694  32.326  1.00  0.00    -0.275 OA
ATOM      7  H   UNL A   1      34.269  32.955  31.814  1.00  0.00     0.163 HD
BRANCH   5   8
ATOM      8  C   UNL A   1      37.614  33.515  31.648  1.00  0.00     0.092 C 
BRANCH   8   9
ATOM      9  C   UNL A   1      37.916  33.756  30.146  1.00  0.00    -0.004 C 
ATOM     10  C   UNL A   1      38.708  35.053  29.931  1.00  0.00     0.008 C 
ATOM     11  C   UNL A   1      38.728  32.592  29.551  1.00  0.00     0.008 C 
ENDBRANCH   8   9
BRANCH   8  12
ATOM     12  C   UNL A   1      38.015  34.606  32.659  1.00  0.00     0.136 C 
BRANCH  12  13
ATOM     13  C   UNL A   1      39.034  34.312  33.736  1.00  0.00     0.307 C 
ATOM     14  O   UNL A   1      40.186  33.976  33.474  1.00  0.00    -0.252 OA
BRANCH  13  15
ATOM     15  O   UNL A   1      38.547  34.529  34.980  1.00  0.00    -0.460 OA
BRANCH  15  16
ATOM     16  C   UNL A   1      37.705  33.553  35.669  1.00  0.00     0.104 C 
ATOM     17  C   UNL A   1      36.201  33.822  35.557  1.00  0.00     0.056 C 
ATOM     18  C   UNL A   1      38.006  32.144  35.165  1.00  0.00     0.056 C 
ATOM     19  C   UNL A   1      38.117  33.674  37.146  1.00  0.00     0.056 C 
ENDBRANCH  15  16
ENDBRANCH  13  15
ENDBRANCH  12  13
ENDBRANCH   8  12
ENDBRANCH   5   8
ENDBRANCH   3   4
ENDBRANCH   2   3
ENDBRANCH   1   2
BRANCH   1  20
ATOM     20  C   UNL A   1      33.118  34.566  28.939  1.00  0.00     0.002 C 
BRANCH  20  21
ATOM     21  C   UNL A   1      34.350  34.543  28.032  1.00  0.00     0.021 C 
BRANCH  21  22
ATOM     22  C   UNL A   1      35.135  33.238  27.997  1.00  0.00     0.116 C 
BRANCH  22  23
ATOM     23  N   UNL A   1      34.309  32.100  27.643  1.00  0.00    -0.352 N 
ATOM     24  C   UNL A   1      34.593  30.758  27.574  1.00  0.00     0.251 C 
ATOM     25  H   UNL A   1      33.381  32.330  27.413  1.00  0.00     0.163 HD
ATOM     26  O   UNL A   1      33.758  30.015  27.060  1.00  0.00    -0.269 OA
BRANCH  24  27
ATOM     27  C   UNL A   1      35.871  30.187  28.074  1.00  0.00     0.039 A 
ATOM     28  C   UNL A   1      35.923  29.743  29.401  1.00  0.00     0.014 A 
ATOM     29  C   UNL A   1      37.034  30.141  27.301  1.00  0.00     0.014 A 
ATOM     30  C   UNL A   1      37.112  29.226  29.929  1.00  0.00     0.010 A 
ATOM     31  C   UNL A   1      38.191  29.533  27.796  1.00  0.00     0.010 A 
ATOM     32  C   UNL A   1      38.253  29.088  29.124  1.00  0.00    -0.014 A 
BRANCH  32  33
ATOM     33  C   UNL A   1      39.518  28.526  29.680  1.00  0.00     0.031 A 
ATOM     34  C   UNL A   1      40.132  29.112  30.928  1.00  0.00     0.074 A 
ATOM     35  C   UNL A   1      40.129  27.500  29.052  1.00  0.00     0.049 A 
ATOM     36  N   UNL A   1      41.230  28.767  31.553  1.00  0.00    -0.248 NA
ATOM     37  C   UNL A   1      39.436  30.256  31.536  1.00  0.00     0.031 C 
ATOM     38  C   UNL A   1      39.667  26.875  27.810  1.00  0.00     0.029 A 
ATOM     39  N   UNL A   1      41.266  26.798  29.369  1.00  0.00    -0.354 N 
ATOM     40  C   UNL A   1      41.362  29.658  32.614  1.00  0.00     0.074 A 
ATOM     41  C   UNL A   1      40.270  30.599  32.506  1.00  0.00     0.031 C 
ATOM     42  C   UNL A   1      40.488  25.861  27.494  1.00  0.00     0.029 A 
ATOM     43  C   UNL A   1      41.560  25.787  28.482  1.00  0.00     0.049 A 
ATOM     44  H   UNL A   1      41.820  26.998  30.158  1.00  0.00     0.167 HD
ATOM     45  C   UNL A   1      42.292  29.674  33.603  1.00  0.00     0.034 A 
ATOM     46  C   UNL A   1      42.578  24.902  28.461  1.00  0.00     0.034 A 
ATOM     47  C   UNL A   1      43.362  28.713  33.716  1.00  0.00     0.049 A 
ATOM     48  C   UNL A   1      43.596  24.938  29.574  1.00  0.00     0.074 A 
ATOM     49  C   UNL A   1      44.318  28.599  34.712  1.00  0.00     0.029 A 
ATOM     50  N   UNL A   1      43.624  27.702  32.800  1.00  0.00    -0.354 N 
ATOM     51  N   UNL A   1      43.668  25.751  30.602  1.00  0.00    -0.248 NA
ATOM     52  C   UNL A   1      44.658  23.925  29.530  1.00  0.00     0.031 C 
ATOM     53  C   UNL A   1      45.196  27.568  34.363  1.00  0.00     0.029 A 
ATOM     54  C   UNL A   1      44.744  26.983  33.191  1.00  0.00     0.049 A 
ATOM     55  H   UNL A   1      43.093  27.523  31.991  1.00  0.00     0.167 HD
ATOM     56  C   UNL A   1      44.770  25.328  31.343  1.00  0.00     0.074 A 
ATOM     57  C   UNL A   1      45.312  24.174  30.654  1.00  0.00     0.031 C 
ATOM     58  C   UNL A   1      45.285  25.843  32.488  1.00  0.00     0.034 A 
BRANCH  45  59
ATOM     59  C   UNL A   1      42.200  30.781  34.630  1.00  0.00     0.023 A 
ATOM     60  C   UNL A   1      42.896  31.994  34.479  1.00  0.00     0.031 A 
ATOM     61  C   UNL A   1      41.416  30.616  35.787  1.00  0.00     0.131 A 
ATOM     62  C   UNL A   1      42.857  32.958  35.498  1.00  0.00     0.055 A 
ATOM     63  C   UNL A   1      41.315  31.614  36.759  1.00  0.00     0.041 A 
ATOM     64  F   UNL A   1      40.744  29.473  35.999  1.00  0.00    -0.206 F 
ATOM     65  C   UNL A   1      42.050  32.788  36.625  1.00  0.00     0.022 A 
BRANCH  62  66
ATOM     66  S   UNL A   1      43.988  34.373  35.398  1.00  0.00     0.124 S 
ATOM     67  O   UNL A   1      44.063  34.790  36.796  1.00  0.00    -0.237 OA
ATOM     68  O   UNL A   1      45.196  33.772  34.845  1.00  0.00    -0.237 OA
ATOM     69  O   UNL A   1      43.293  35.306  34.514  1.00  0.00    -0.744 OA
ENDBRANCH  62  66
ENDBRANCH  45  59
BRANCH  46  70
ATOM     70  C   UNL A   1      42.695  23.908  27.354  1.00  0.00     0.023 A 
ATOM     71  C   UNL A   1      42.053  22.661  27.425  1.00  0.00     0.031 A 
ATOM     72  C   UNL A   1      43.496  24.172  26.228  1.00  0.00     0.131 A 
ATOM     73  C   UNL A   1      42.263  21.705  26.418  1.00  0.00     0.055 A 
ATOM     74  C   UNL A   1      43.656  23.240  25.201  1.00  0.00     0.041 A 
ATOM     75  F   UNL A   1      44.131  25.348  26.107  1.00  0.00    -0.206 F 
ATOM     76  C   UNL A   1      43.049  21.992  25.299  1.00  0.00     0.022 A 
BRANCH  73  77
ATOM     77  S   UNL A   1      41.568  20.045  26.636  1.00  0.00     0.124 S 
ATOM     78  O   UNL A   1      41.956  19.394  25.391  1.00  0.00    -0.237 OA
ATOM     79  O   UNL A   1      42.252  19.587  27.841  1.00  0.00    -0.237 OA
ATOM     80  O   UNL A   1      40.135  20.294  26.792  1.00  0.00    -0.744 OA
ENDBRANCH  73  77
ENDBRANCH  46  70
BRANCH  58  81
ATOM     81  C   UNL A   1      46.478  25.132  33.082  1.00  0.00     0.023 A 
ATOM     82  C   UNL A   1      46.329  24.008  33.914  1.00  0.00     0.031 A 
ATOM     83  C   UNL A   1      47.780  25.604  32.835  1.00  0.00     0.131 A 
ATOM     84  C   UNL A   1      47.456  23.436  34.523  1.00  0.00     0.055 A 
ATOM     85  C   UNL A   1      48.902  24.988  33.390  1.00  0.00     0.041 A 
ATOM     86  F   UNL A   1      47.981  26.673  32.050  1.00  0.00    -0.206 F 
ATOM     87  C   UNL A   1      48.743  23.908  34.254  1.00  0.00     0.022 A 
BRANCH  84  88
ATOM     88  S   UNL A   1      47.207  22.136  35.764  1.00  0.00     0.124 S 
ATOM     89  O   UNL A   1      46.167  22.717  36.607  1.00  0.00    -0.237 OA
ATOM     90  O   UNL A   1      46.802  20.998  34.946  1.00  0.00    -0.237 OA
ATOM     91  O   UNL A   1      48.519  22.009  36.397  1.00  0.00    -0.744 OA
ENDBRANCH  84  88
ENDBRANCH  58  81
ENDBRANCH  32  33
ENDBRANCH  24  27
ENDBRANCH  22  23
ENDBRANCH  21  22
ENDBRANCH  20  21
ENDBRANCH   1  20
TORSDOF 21
ENDMDL
MODEL 3
REMARK VINA RESULT:      -9.6      1.991      3.326
REMARK SMILES CC(C)[C@@H](CC(=O)OC(C)(C)C)C(=O)NCCCCCCNC(=O)c1ccc(-c2c3nc(c(-c4cc(S(=O)(=O)[O-])ccc4F)c4ccc([nH]4)c(-c4cc(S(=O)(=O)[O-])ccc4F)c4nc(c(-c5cc(S(=O)(=O)[O-])ccc5F)c5ccc2[nH]5)C=C4)C=C3)cc1
REMARK SMILES IDX 18 1 17 2 16 3 15 4 13 5 14 6 4 8 2 9 1 10 3 11 5 12 6 13
REMARK SMILES IDX 7 14 8 15 9 16 10 17 11 18 12 19 19 20 20 21 21 22 22 23
REMARK SMILES IDX 23 24 24 26 25 27 26 28 87 29 27 30 86 31 28 32 29 33 30 34
REMARK SMILES IDX 80 35 31 36 85 37 79 38 81 39 32 40 84 41 78 42 77 43 33 45
REMARK SMILES IDX 65 46 45 47 64 48 46 49 49 50 63 51 82 52 47 53 48 54 62 56
REMARK SMILES IDX 83 57 50 58 34 59 35 60 43 61 36 62 42 63 44 64 41 65 37 66
REMARK SMILES IDX 38 67 39 68 40 69 66 70 67 71 75 72 68 73 74 74 76 75 73 76
REMARK SMILES IDX 69 77 70 78 71 79 72 80 51 81 52 82 60 83 53 84 59 85 61 86
REMARK SMILES IDX 58 87 54 88 55 89 56 90 57 91
REMARK H PARENT 15 7 22 25 81 44 49 55
REMARK Flexibility Score: inf
ROOT
ATOM      1  C   UNL A   1      34.674  25.232  25.953  1.00  0.00     0.002 C 
ENDROOT
BRANCH   1   2
ATOM      2  C   UNL A   1      34.211  23.865  26.473  1.00  0.00     0.021 C 
BRANCH   2   3
ATOM      3  C   UNL A   1      32.774  23.824  26.988  1.00  0.00     0.116 C 
BRANCH   3   4
ATOM      4  N   UNL A   1      32.034  22.635  26.643  1.00  0.00    -0.356 N 
ATOM      5  C   UNL A   1      31.785  22.096  25.421  1.00  0.00     0.223 C 
ATOM      6  O   UNL A   1      31.373  20.930  25.395  1.00  0.00    -0.275 OA
ATOM      7  H   UNL A   1      31.653  22.143  27.405  1.00  0.00     0.163 HD
BRANCH   5   8
ATOM      8  C   UNL A   1      31.962  22.866  24.102  1.00  0.00     0.092 C 
BRANCH   8   9
ATOM      9  C   UNL A   1      32.862  22.183  23.040  1.00  0.00    -0.004 C 
ATOM     10  C   UNL A   1      32.032  21.591  21.892  1.00  0.00     0.008 C 
ATOM     11  C   UNL A   1      33.868  23.181  22.441  1.00  0.00     0.008 C 
ENDBRANCH   8   9
BRANCH   8  12
ATOM     12  C   UNL A   1      30.672  23.562  23.629  1.00  0.00     0.136 C 
BRANCH  12  13
ATOM     13  C   UNL A   1      30.619  25.066  23.497  1.00  0.00     0.307 C 
ATOM     14  O   UNL A   1      29.567  25.695  23.589  1.00  0.00    -0.252 OA
BRANCH  13  15
ATOM     15  O   UNL A   1      31.846  25.615  23.342  1.00  0.00    -0.460 OA
BRANCH  15  16
ATOM     16  C   UNL A   1      32.122  26.634  22.332  1.00  0.00     0.104 C 
ATOM     17  C   UNL A   1      31.283  27.909  22.471  1.00  0.00     0.056 C 
ATOM     18  C   UNL A   1      33.605  27.001  22.342  1.00  0.00     0.056 C 
ATOM     19  C   UNL A   1      31.766  25.954  20.999  1.00  0.00     0.056 C 
ENDBRANCH  15  16
ENDBRANCH  13  15
ENDBRANCH  12  13
ENDBRANCH   8  12
ENDBRANCH   5   8
ENDBRANCH   3   4
ENDBRANCH   2   3
ENDBRANCH   1   2
BRANCH   1  20
ATOM     20  C   UNL A   1      33.591  26.312  25.807  1.00  0.00     0.002 C 
BRANCH  20  21
ATOM     21  C   UNL A   1      33.834  27.623  26.559  1.00  0.00     0.021 C 
BRANCH  21  22
ATOM     22  C   UNL A   1      34.003  28.869  25.701  1.00  0.00     0.116 C 
BRANCH  22  23
ATOM     23  N   UNL A   1      33.763  30.093  26.441  1.00  0.00    -0.352 N 
ATOM     24  C   UNL A   1      34.427  30.659  27.501  1.00  0.00     0.251 C 
ATOM     25  H   UNL A   1      32.986  30.609  26.127  1.00  0.00     0.163 HD
ATOM     26  O   UNL A   1      33.902  31.615  28.070  1.00  0.00    -0.269 OA
BRANCH  24  27
ATOM     27  C   UNL A   1      35.734  30.145  27.989  1.00  0.00     0.039 A 
ATOM     28  C   UNL A   1      35.782  29.562  29.261  1.00  0.00     0.014 A 
ATOM     29  C   UNL A   1      36.920  30.281  27.264  1.00  0.00     0.014 A 
ATOM     30  C   UNL A   1      36.994  29.090  29.778  1.00  0.00     0.010 A 
ATOM     31  C   UNL A   1      38.110  29.721  27.738  1.00  0.00     0.010 A 
ATOM     32  C   UNL A   1      38.169  29.138  29.011  1.00  0.00    -0.014 A 
BRANCH  32  33
ATOM     33  C   UNL A   1      39.459  28.625  29.555  1.00  0.00     0.031 A 
ATOM     34  C   UNL A   1      40.064  29.237  30.795  1.00  0.00     0.074 A 
ATOM     35  C   UNL A   1      40.101  27.620  28.923  1.00  0.00     0.049 A 
ATOM     36  N   UNL A   1      41.181  28.935  31.409  1.00  0.00    -0.248 NA
ATOM     37  C   UNL A   1      39.333  30.357  31.407  1.00  0.00     0.031 C 
ATOM     38  C   UNL A   1      39.649  26.974  27.688  1.00  0.00     0.029 A 
ATOM     39  N   UNL A   1      41.267  26.962  29.230  1.00  0.00    -0.354 N 
ATOM     40  C   UNL A   1      41.291  29.834  32.466  1.00  0.00     0.074 A 
ATOM     41  C   UNL A   1      40.164  30.734  32.367  1.00  0.00     0.031 C 
ATOM     42  C   UNL A   1      40.504  25.991  27.366  1.00  0.00     0.029 A 
ATOM     43  C   UNL A   1      41.589  25.960  28.342  1.00  0.00     0.049 A 
ATOM     44  H   UNL A   1      41.821  27.185  30.012  1.00  0.00     0.167 HD
ATOM     45  C   UNL A   1      42.230  29.888  33.445  1.00  0.00     0.034 A 
ATOM     46  C   UNL A   1      42.638  25.113  28.313  1.00  0.00     0.034 A 
ATOM     47  C   UNL A   1      43.337  28.968  33.548  1.00  0.00     0.049 A 
ATOM     48  C   UNL A   1      43.666  25.191  29.414  1.00  0.00     0.074 A 
ATOM     49  C   UNL A   1      44.307  28.893  34.535  1.00  0.00     0.029 A 
ATOM     50  N   UNL A   1      43.626  27.964  32.633  1.00  0.00    -0.354 N 
ATOM     51  N   UNL A   1      43.719  26.009  30.440  1.00  0.00    -0.248 NA
ATOM     52  C   UNL A   1      44.765  24.218  29.362  1.00  0.00     0.031 C 
ATOM     53  C   UNL A   1      45.219  27.893  34.179  1.00  0.00     0.029 A 
ATOM     54  C   UNL A   1      44.776  27.288  33.014  1.00  0.00     0.049 A 
ATOM     55  H   UNL A   1      43.093  27.763  31.830  1.00  0.00     0.167 HD
ATOM     56  C   UNL A   1      44.844  25.629  31.169  1.00  0.00     0.074 A 
ATOM     57  C   UNL A   1      45.421  24.495  30.479  1.00  0.00     0.031 C 
ATOM     58  C   UNL A   1      45.352  26.167  32.308  1.00  0.00     0.034 A 
BRANCH  45  59
ATOM     59  C   UNL A   1      42.108  30.994  34.470  1.00  0.00     0.023 A 
ATOM     60  C   UNL A   1      42.712  32.250  34.281  1.00  0.00     0.031 A 
ATOM     61  C   UNL A   1      41.390  30.784  35.661  1.00  0.00     0.131 A 
ATOM     62  C   UNL A   1      42.652  33.217  35.297  1.00  0.00     0.055 A 
ATOM     63  C   UNL A   1      41.263  31.781  36.632  1.00  0.00     0.041 A 
ATOM     64  F   UNL A   1      40.808  29.600  35.909  1.00  0.00    -0.206 F 
ATOM     65  C   UNL A   1      41.910  33.002  36.460  1.00  0.00     0.022 A 
BRANCH  62  66
ATOM     66  S   UNL A   1      43.678  34.705  35.139  1.00  0.00     0.124 S 
ATOM     67  O   UNL A   1      42.939  35.467  34.134  1.00  0.00    -0.237 OA
ATOM     68  O   UNL A   1      43.657  35.247  36.493  1.00  0.00    -0.237 OA
ATOM     69  O   UNL A   1      44.968  34.187  34.692  1.00  0.00    -0.744 OA
ENDBRANCH  62  66
ENDBRANCH  45  59
BRANCH  46  70
ATOM     70  C   UNL A   1      42.781  24.121  27.208  1.00  0.00     0.023 A 
ATOM     71  C   UNL A   1      42.118  22.884  27.251  1.00  0.00     0.031 A 
ATOM     72  C   UNL A   1      43.626  24.376  26.112  1.00  0.00     0.131 A 
ATOM     73  C   UNL A   1      42.350  21.928  26.248  1.00  0.00     0.055 A 
ATOM     74  C   UNL A   1      43.808  23.445  25.089  1.00  0.00     0.041 A 
ATOM     75  F   UNL A   1      44.282  25.543  26.018  1.00  0.00    -0.206 F 
ATOM     76  C   UNL A   1      43.180  22.206  25.160  1.00  0.00     0.022 A 
BRANCH  73  77
ATOM     77  S   UNL A   1      41.622  20.277  26.436  1.00  0.00     0.124 S 
ATOM     78  O   UNL A   1      42.218  19.561  25.315  1.00  0.00    -0.237 OA
ATOM     79  O   UNL A   1      42.086  19.891  27.765  1.00  0.00    -0.237 OA
ATOM     80  O   UNL A   1      40.185  20.526  26.328  1.00  0.00    -0.744 OA
ENDBRANCH  73  77
ENDBRANCH  46  70
BRANCH  58  81
ATOM     81  C   UNL A   1      46.577  25.503  32.890  1.00  0.00     0.023 A 
ATOM     82  C   UNL A   1      47.872  25.813  32.437  1.00  0.00     0.031 A 
ATOM     83  C   UNL A   1      46.444  24.526  33.893  1.00  0.00     0.131 A 
ATOM     84  C   UNL A   1      48.975  25.104  32.935  1.00  0.00     0.055 A 
ATOM     85  C   UNL A   1      47.553  23.872  34.433  1.00  0.00     0.041 A 
ATOM     86  F   UNL A   1      45.233  24.188  34.362  1.00  0.00    -0.206 F 
ATOM     87  C   UNL A   1      48.826  24.148  33.942  1.00  0.00     0.022 A 
BRANCH  84  88
ATOM     88  S   UNL A   1      50.597  25.370  32.168  1.00  0.00     0.124 S 
ATOM     89  O   UNL A   1      50.617  24.337  31.136  1.00  0.00    -0.237 OA
ATOM     90  O   UNL A   1      50.495  26.745  31.690  1.00  0.00    -0.237 OA
ATOM     91  O   UNL A   1      51.536  25.165  33.269  1.00  0.00    -0.744 OA
ENDBRANCH  84  88
ENDBRANCH  58  81
ENDBRANCH  32  33
ENDBRANCH  24  27
ENDBRANCH  22  23
ENDBRANCH  21  22
ENDBRANCH  20  21
ENDBRANCH   1  20
TORSDOF 21
ENDMDL
