MODEL 1
REMARK VINA RESULT:     -12.8      0.000      0.000
REMARK SMILES Cc1c(-c2nn(-c3ccccc3)cc2/C=N/O)nnn1-c1ccc(C(=O)NCCCCCCNC(=O)c2ccc(-c3c4nc(c(-c5cc(S(=O)(=O)[O-])ccc5F)c5ccc([nH]5)c(-c5cc(S(=O)(=O)[O-])ccc5F)c5nc(c(-c6cc(S(=O)(=O)[O-])ccc6F)c6ccc3[nH]6)C=C5)C=C4)cc2)cc1
REMARK SMILES IDX 30 1 29 2 28 3 27 4 25 5 26 6 24 8 21 9 22 10 101 11 23 12
REMARK SMILES IDX 100 13 20 14 1 15 2 16 3 17 18 18 19 19 4 20 5 21 14 22 6 23
REMARK SMILES IDX 13 24 15 25 16 26 17 27 7 29 8 30 12 31 9 32 11 33 10 34
REMARK SMILES IDX 31 35 32 36 33 37 34 38 35 39 36 41 37 42 38 43 99 44 39 45
REMARK SMILES IDX 98 46 40 47 41 48 42 49 92 50 43 51 97 52 91 53 93 54 44 55
REMARK SMILES IDX 96 56 90 57 89 58 45 60 77 61 57 62 76 63 58 64 61 65 75 66
REMARK SMILES IDX 94 67 59 68 60 69 74 71 95 72 62 73 46 74 47 75 55 76 48 77
REMARK SMILES IDX 54 78 56 79 53 80 49 81 50 82 51 83 52 84 78 85 79 86 87 87
REMARK SMILES IDX 80 88 86 89 88 90 85 91 81 92 82 93 83 94 84 95 63 96 64 97
REMARK SMILES IDX 72 98 65 99 71 100 73 101 70 102 66 103 67 104 68 105 69 106
REMARK H PARENT 27 7 17 28 34 40 93 59 61 70
REMARK Flexibility Score: inf
ROOT
ATOM      1  C   UNL A   1      32.623  29.610  27.159  1.00  0.00     0.002 C 
ENDROOT
BRANCH   1   2
ATOM      2  C   UNL A   1      31.414  29.637  26.212  1.00  0.00     0.021 C 
BRANCH   2   3
ATOM      3  C   UNL A   1      31.282  30.948  25.434  1.00  0.00     0.116 C 
BRANCH   3   4
ATOM      4  N   UNL A   1      30.216  30.847  24.458  1.00  0.00    -0.352 N 
ATOM      5  C   UNL A   1      29.914  29.956  23.463  1.00  0.00     0.251 C 
ATOM      6  O   UNL A   1      28.901  30.194  22.801  1.00  0.00    -0.269 OA
ATOM      7  H   UNL A   1      29.564  31.582  24.525  1.00  0.00     0.163 HD
BRANCH   5   8
ATOM      8  C   UNL A   1      30.674  28.699  23.189  1.00  0.00     0.039 A 
ATOM      9  C   UNL A   1      31.960  26.211  22.925  1.00  0.00     0.067 A 
ATOM     10  C   UNL A   1      30.594  26.254  23.198  1.00  0.00     0.029 A 
ATOM     11  C   UNL A   1      32.666  27.395  22.692  1.00  0.00     0.029 A 
ATOM     12  C   UNL A   1      29.970  27.493  23.366  1.00  0.00     0.016 A 
ATOM     13  C   UNL A   1      32.004  28.628  22.767  1.00  0.00     0.016 A 
BRANCH   9  14
ATOM     14  N   UNL A   1      32.615  24.964  22.838  1.00  0.00    -0.217 N 
ATOM     15  C   UNL A   1      31.952  23.870  25.045  1.00  0.00     0.069 C 
ATOM     16  C   UNL A   1      32.755  23.989  23.806  1.00  0.00     0.071 A 
ATOM     17  C   UNL A   1      33.695  23.141  23.253  1.00  0.00     0.137 A 
ATOM     18  N   UNL A   1      33.958  23.502  21.966  1.00  0.00    -0.128 NA
ATOM     19  N   UNL A   1      33.217  24.571  21.691  1.00  0.00    -0.061 NA
BRANCH  17  20
ATOM     20  C   UNL A   1      34.285  21.951  23.853  1.00  0.00     0.124 A 
ATOM     21  N   UNL A   1      33.695  20.751  23.781  1.00  0.00    -0.165 NA
ATOM     22  C   UNL A   1      35.467  21.931  24.629  1.00  0.00     0.044 A 
ATOM     23  N   UNL A   1      34.424  19.974  24.610  1.00  0.00    -0.240 N 
ATOM     24  C   UNL A   1      35.493  20.650  25.150  1.00  0.00     0.125 A 
BRANCH  22  25
ATOM     25  C   UNL A   1      36.462  22.943  24.886  1.00  0.00     0.166 C 
ATOM     26  N   UNL A   1      37.479  22.675  25.636  1.00  0.00    -0.097 NA
BRANCH  26  27
ATOM     27  O   UNL A   1      38.265  23.827  25.762  1.00  0.00    -0.411 OA
ATOM     28  H   UNL A   1      38.880  24.050  25.091  1.00  0.00     0.330 HD
ENDBRANCH  26  27
ENDBRANCH  22  25
BRANCH  23  29
ATOM     29  C   UNL A   1      34.045  18.638  24.867  1.00  0.00     0.065 A 
ATOM     30  C   UNL A   1      34.833  17.596  24.362  1.00  0.00     0.028 A 
ATOM     31  C   UNL A   1      32.888  18.361  25.605  1.00  0.00     0.028 A 
ATOM     32  C   UNL A   1      34.478  16.273  24.627  1.00  0.00     0.002 A 
ATOM     33  C   UNL A   1      32.511  17.034  25.814  1.00  0.00     0.002 A 
ATOM     34  C   UNL A   1      33.311  15.993  25.339  1.00  0.00     0.000 A 
ENDBRANCH  23  29
ENDBRANCH  17  20
ENDBRANCH   9  14
ENDBRANCH   5   8
ENDBRANCH   3   4
ENDBRANCH   2   3
ENDBRANCH   1   2
BRANCH   1  35
ATOM     35  C   UNL A   1      33.349  30.954  27.339  1.00  0.00     0.002 C 
BRANCH  35  36
ATOM     36  C   UNL A   1      34.859  30.865  27.605  1.00  0.00     0.021 C 
BRANCH  36  37
ATOM     37  C   UNL A   1      35.483  32.198  27.994  1.00  0.00     0.116 C 
BRANCH  37  38
ATOM     38  N   UNL A   1      35.343  32.459  29.422  1.00  0.00    -0.352 N 
ATOM     39  C   UNL A   1      35.925  31.781  30.474  1.00  0.00     0.251 C 
ATOM     40  H   UNL A   1      34.758  33.213  29.666  1.00  0.00     0.163 HD
ATOM     41  O   UNL A   1      35.435  31.832  31.590  1.00  0.00    -0.269 OA
BRANCH  39  42
ATOM     42  C   UNL A   1      37.142  30.990  30.213  1.00  0.00     0.039 A 
ATOM     43  C   UNL A   1      38.392  31.609  30.168  1.00  0.00     0.014 A 
ATOM     44  C   UNL A   1      37.019  29.609  30.048  1.00  0.00     0.014 A 
ATOM     45  C   UNL A   1      39.529  30.815  30.046  1.00  0.00     0.010 A 
ATOM     46  C   UNL A   1      38.149  28.819  30.028  1.00  0.00     0.010 A 
ATOM     47  C   UNL A   1      39.408  29.414  30.010  1.00  0.00    -0.014 A 
BRANCH  47  48
ATOM     48  C   UNL A   1      40.604  28.576  30.164  1.00  0.00     0.031 A 
ATOM     49  C   UNL A   1      41.007  28.388  31.585  1.00  0.00     0.074 A 
ATOM     50  C   UNL A   1      41.161  27.842  29.174  1.00  0.00     0.049 A 
ATOM     51  N   UNL A   1      42.041  28.874  32.188  1.00  0.00    -0.248 NA
ATOM     52  C   UNL A   1      40.054  27.731  32.499  1.00  0.00     0.031 C 
ATOM     53  C   UNL A   1      40.657  27.688  27.805  1.00  0.00     0.029 A 
ATOM     54  N   UNL A   1      42.227  26.983  29.197  1.00  0.00    -0.354 N 
ATOM     55  C   UNL A   1      42.019  28.326  33.468  1.00  0.00     0.074 A 
ATOM     56  C   UNL A   1      40.677  27.860  33.673  1.00  0.00     0.031 C 
ATOM     57  C   UNL A   1      41.252  26.628  27.214  1.00  0.00     0.029 A 
ATOM     58  C   UNL A   1      42.309  26.144  28.084  1.00  0.00     0.049 A 
ATOM     59  H   UNL A   1      42.881  26.961  29.934  1.00  0.00     0.167 HD
ATOM     60  C   UNL A   1      43.186  28.002  34.095  1.00  0.00     0.034 A 
ATOM     61  C   UNL A   1      43.179  25.123  27.865  1.00  0.00     0.034 A 
ATOM     62  C   UNL A   1      44.303  28.613  33.413  1.00  0.00     0.049 A 
ATOM     63  C   UNL A   1      44.376  25.385  28.692  1.00  0.00     0.074 A 
ATOM     64  C   UNL A   1      44.831  29.878  33.274  1.00  0.00     0.029 A 
ATOM     65  N   UNL A   1      44.821  27.843  32.404  1.00  0.00    -0.354 N 
ATOM     66  N   UNL A   1      45.144  26.425  28.513  1.00  0.00    -0.248 NA
ATOM     67  C   UNL A   1      44.538  24.706  29.971  1.00  0.00     0.031 C 
ATOM     68  C   UNL A   1      45.523  29.882  32.025  1.00  0.00     0.029 A 
ATOM     69  C   UNL A   1      45.451  28.609  31.460  1.00  0.00     0.049 A 
ATOM     70  H   UNL A   1      44.749  26.862  32.363  1.00  0.00     0.167 HD
ATOM     71  C   UNL A   1      45.539  26.783  29.785  1.00  0.00     0.074 A 
ATOM     72  C   UNL A   1      45.298  25.602  30.606  1.00  0.00     0.031 C 
ATOM     73  C   UNL A   1      45.705  28.094  30.125  1.00  0.00     0.034 A 
BRANCH  60  74
ATOM     74  C   UNL A   1      43.409  26.766  34.961  1.00  0.00     0.023 A 
ATOM     75  C   UNL A   1      43.988  25.638  34.336  1.00  0.00     0.031 A 
ATOM     76  C   UNL A   1      42.822  26.523  36.224  1.00  0.00     0.131 A 
ATOM     77  C   UNL A   1      43.887  24.355  34.908  1.00  0.00     0.055 A 
ATOM     78  C   UNL A   1      42.767  25.253  36.809  1.00  0.00     0.041 A 
ATOM     79  F   UNL A   1      42.191  27.466  36.928  1.00  0.00    -0.206 F 
ATOM     80  C   UNL A   1      43.274  24.155  36.139  1.00  0.00     0.022 A 
BRANCH  77  81
ATOM     81  S   UNL A   1      44.436  22.921  33.943  1.00  0.00     0.124 S 
ATOM     82  O   UNL A   1      45.834  23.248  33.691  1.00  0.00    -0.237 OA
ATOM     83  O   UNL A   1      44.184  21.823  34.871  1.00  0.00    -0.237 OA
ATOM     84  O   UNL A   1      43.567  22.951  32.769  1.00  0.00    -0.744 OA
ENDBRANCH  77  81
ENDBRANCH  60  74
BRANCH  61  85
ATOM     85  C   UNL A   1      42.930  23.831  27.166  1.00  0.00     0.023 A 
ATOM     86  C   UNL A   1      43.884  23.203  26.337  1.00  0.00     0.031 A 
ATOM     87  C   UNL A   1      41.803  23.062  27.531  1.00  0.00     0.131 A 
ATOM     88  C   UNL A   1      43.698  21.861  25.924  1.00  0.00     0.055 A 
ATOM     89  C   UNL A   1      41.624  21.738  27.121  1.00  0.00     0.041 A 
ATOM     90  F   UNL A   1      40.876  23.546  28.374  1.00  0.00    -0.206 F 
ATOM     91  C   UNL A   1      42.579  21.127  26.325  1.00  0.00     0.022 A 
BRANCH  88  92
ATOM     92  S   UNL A   1      44.965  21.012  24.923  1.00  0.00     0.124 S 
ATOM     93  O   UNL A   1      44.847  19.632  25.376  1.00  0.00    -0.237 OA
ATOM     94  O   UNL A   1      44.524  21.289  23.560  1.00  0.00    -0.237 OA
ATOM     95  O   UNL A   1      46.209  21.680  25.310  1.00  0.00    -0.744 OA
ENDBRANCH  88  92
ENDBRANCH  61  85
BRANCH  73  96
ATOM     96  C   UNL A   1      46.063  29.066  29.029  1.00  0.00     0.023 A 
ATOM     97  C   UNL A   1      45.171  29.950  28.383  1.00  0.00     0.031 A 
ATOM     98  C   UNL A   1      47.417  29.108  28.647  1.00  0.00     0.131 A 
ATOM     99  C   UNL A   1      45.653  30.827  27.389  1.00  0.00     0.055 A 
ATOM    100  C   UNL A   1      47.892  29.991  27.682  1.00  0.00     0.041 A 
ATOM    101  F   UNL A   1      48.313  28.293  29.230  1.00  0.00    -0.206 F 
ATOM    102  C   UNL A   1      47.009  30.851  27.044  1.00  0.00     0.022 A 
BRANCH  99 103
ATOM    103  S   UNL A   1      44.518  31.938  26.496  1.00  0.00     0.124 S 
ATOM    104  O   UNL A   1      43.410  31.067  26.122  1.00  0.00    -0.237 OA
ATOM    105  O   UNL A   1      44.220  32.957  27.499  1.00  0.00    -0.237 OA
ATOM    106  O   UNL A   1      45.325  32.414  25.370  1.00  0.00    -0.744 OA
ENDBRANCH  99 103
ENDBRANCH  73  96
ENDBRANCH  47  48
ENDBRANCH  39  42
ENDBRANCH  37  38
ENDBRANCH  36  37
ENDBRANCH  35  36
ENDBRANCH   1  35
TORSDOF 21
ENDMDL
MODEL 2
REMARK VINA RESULT:     -12.2      4.391      6.777
REMARK SMILES Cc1c(-c2nn(-c3ccccc3)cc2/C=N/O)nnn1-c1ccc(C(=O)NCCCCCCNC(=O)c2ccc(-c3c4nc(c(-c5cc(S(=O)(=O)[O-])ccc5F)c5ccc([nH]5)c(-c5cc(S(=O)(=O)[O-])ccc5F)c5nc(c(-c6cc(S(=O)(=O)[O-])ccc6F)c6ccc3[nH]6)C=C5)C=C4)cc2)cc1
REMARK SMILES IDX 30 1 29 2 28 3 27 4 25 5 26 6 24 8 21 9 22 10 101 11 23 12
REMARK SMILES IDX 100 13 20 14 1 15 2 16 3 17 18 18 19 19 4 20 5 21 14 22 6 23
REMARK SMILES IDX 13 24 15 25 16 26 17 27 7 29 8 30 12 31 9 32 11 33 10 34
REMARK SMILES IDX 31 35 32 36 33 37 34 38 35 39 36 41 37 42 38 43 99 44 39 45
REMARK SMILES IDX 98 46 40 47 41 48 42 49 92 50 43 51 97 52 91 53 93 54 44 55
REMARK SMILES IDX 96 56 90 57 89 58 45 60 77 61 57 62 76 63 58 64 61 65 75 66
REMARK SMILES IDX 94 67 59 68 60 69 74 71 95 72 62 73 46 74 47 75 55 76 48 77
REMARK SMILES IDX 54 78 56 79 53 80 49 81 50 82 51 83 52 84 78 85 79 86 87 87
REMARK SMILES IDX 80 88 86 89 88 90 85 91 81 92 82 93 83 94 84 95 63 96 64 97
REMARK SMILES IDX 72 98 65 99 71 100 73 101 70 102 66 103 67 104 68 105 69 106
REMARK H PARENT 27 7 17 28 34 40 93 59 61 70
REMARK Flexibility Score: inf
ROOT
ATOM      1  C   UNL A   1      32.807  28.596  27.027  1.00  0.00     0.002 C 
ENDROOT
BRANCH   1   2
ATOM      2  C   UNL A   1      31.511  29.411  26.909  1.00  0.00     0.021 C 
BRANCH   2   3
ATOM      3  C   UNL A   1      31.671  30.685  26.075  1.00  0.00     0.116 C 
BRANCH   3   4
ATOM      4  N   UNL A   1      30.799  30.639  24.918  1.00  0.00    -0.352 N 
ATOM      5  C   UNL A   1      30.690  29.805  23.837  1.00  0.00     0.251 C 
ATOM      6  O   UNL A   1      29.810  30.080  23.018  1.00  0.00    -0.269 OA
ATOM      7  H   UNL A   1      30.138  31.370  24.907  1.00  0.00     0.163 HD
BRANCH   5   8
ATOM      8  C   UNL A   1      31.498  28.565  23.636  1.00  0.00     0.039 A 
ATOM      9  C   UNL A   1      32.887  26.122  23.519  1.00  0.00     0.067 A 
ATOM     10  C   UNL A   1      31.525  26.125  23.818  1.00  0.00     0.029 A 
ATOM     11  C   UNL A   1      33.536  27.315  23.188  1.00  0.00     0.029 A 
ATOM     12  C   UNL A   1      30.851  27.346  23.912  1.00  0.00     0.016 A 
ATOM     13  C   UNL A   1      32.822  28.521  23.191  1.00  0.00     0.016 A 
BRANCH   9  14
ATOM     14  N   UNL A   1      33.594  24.901  23.506  1.00  0.00    -0.217 N 
ATOM     15  C   UNL A   1      33.614  24.281  25.980  1.00  0.00     0.069 C 
ATOM     16  C   UNL A   1      34.057  24.154  24.573  1.00  0.00     0.071 A 
ATOM     17  C   UNL A   1      34.886  23.232  23.965  1.00  0.00     0.137 A 
ATOM     18  N   UNL A   1      34.777  23.320  22.609  1.00  0.00    -0.128 NA
ATOM     19  N   UNL A   1      33.908  24.289  22.340  1.00  0.00    -0.061 NA
BRANCH  17  20
ATOM     20  C   UNL A   1      35.704  22.210  24.605  1.00  0.00     0.124 A 
ATOM     21  N   UNL A   1      36.973  22.437  24.966  1.00  0.00    -0.165 NA
ATOM     22  C   UNL A   1      35.302  20.874  24.839  1.00  0.00     0.044 A 
ATOM     23  N   UNL A   1      37.438  21.221  25.323  1.00  0.00    -0.240 N 
ATOM     24  C   UNL A   1      36.466  20.251  25.249  1.00  0.00     0.125 A 
BRANCH  22  25
ATOM     25  C   UNL A   1      34.023  20.220  24.706  1.00  0.00     0.166 C 
ATOM     26  N   UNL A   1      33.312  19.970  25.755  1.00  0.00    -0.097 NA
BRANCH  26  27
ATOM     27  O   UNL A   1      32.147  19.298  25.363  1.00  0.00    -0.411 OA
ATOM     28  H   UNL A   1      32.105  18.364  25.416  1.00  0.00     0.330 HD
ENDBRANCH  26  27
ENDBRANCH  22  25
BRANCH  23  29
ATOM     29  C   UNL A   1      38.791  21.043  25.684  1.00  0.00     0.065 A 
ATOM     30  C   UNL A   1      39.559  22.164  26.025  1.00  0.00     0.028 A 
ATOM     31  C   UNL A   1      39.362  19.765  25.685  1.00  0.00     0.028 A 
ATOM     32  C   UNL A   1      40.892  21.998  26.401  1.00  0.00     0.002 A 
ATOM     33  C   UNL A   1      40.712  19.617  26.007  1.00  0.00     0.002 A 
ATOM     34  C   UNL A   1      41.471  20.728  26.378  1.00  0.00     0.000 A 
ENDBRANCH  23  29
ENDBRANCH  17  20
ENDBRANCH   9  14
ENDBRANCH   5   8
ENDBRANCH   3   4
ENDBRANCH   2   3
ENDBRANCH   1   2
BRANCH   1  35
ATOM     35  C   UNL A   1      34.080  29.305  26.536  1.00  0.00     0.002 C 
BRANCH  35  36
ATOM     36  C   UNL A   1      35.354  29.024  27.345  1.00  0.00     0.021 C 
BRANCH  36  37
ATOM     37  C   UNL A   1      36.186  30.270  27.615  1.00  0.00     0.116 C 
BRANCH  37  38
ATOM     38  N   UNL A   1      35.409  31.487  27.413  1.00  0.00    -0.352 N 
ATOM     39  C   UNL A   1      35.065  32.444  28.347  1.00  0.00     0.251 C 
ATOM     40  H   UNL A   1      35.088  31.646  26.496  1.00  0.00     0.163 HD
ATOM     41  O   UNL A   1      34.111  33.179  28.156  1.00  0.00    -0.269 OA
BRANCH  39  42
ATOM     42  C   UNL A   1      35.871  32.547  29.578  1.00  0.00     0.039 A 
ATOM     43  C   UNL A   1      35.567  31.759  30.689  1.00  0.00     0.014 A 
ATOM     44  C   UNL A   1      36.960  33.420  29.594  1.00  0.00     0.014 A 
ATOM     45  C   UNL A   1      36.423  31.789  31.786  1.00  0.00     0.010 A 
ATOM     46  C   UNL A   1      37.858  33.374  30.639  1.00  0.00     0.010 A 
ATOM     47  C   UNL A   1      37.589  32.573  31.747  1.00  0.00    -0.014 A 
BRANCH  47  48
ATOM     48  C   UNL A   1      38.623  32.392  32.773  1.00  0.00     0.031 A 
ATOM     49  C   UNL A   1      38.312  33.096  34.049  1.00  0.00     0.074 A 
ATOM     50  C   UNL A   1      39.637  31.501  32.694  1.00  0.00     0.049 A 
ATOM     51  N   UNL A   1      38.894  34.137  34.544  1.00  0.00    -0.248 NA
ATOM     52  C   UNL A   1      37.088  32.709  34.777  1.00  0.00     0.031 C 
ATOM     53  C   UNL A   1      39.860  30.518  31.628  1.00  0.00     0.029 A 
ATOM     54  N   UNL A   1      40.622  31.193  33.594  1.00  0.00    -0.354 N 
ATOM     55  C   UNL A   1      38.304  34.338  35.790  1.00  0.00     0.074 A 
ATOM     56  C   UNL A   1      37.064  33.615  35.758  1.00  0.00     0.031 C 
ATOM     57  C   UNL A   1      40.740  29.581  32.046  1.00  0.00     0.029 A 
ATOM     58  C   UNL A   1      41.286  29.994  33.326  1.00  0.00     0.049 A 
ATOM     59  H   UNL A   1      40.845  31.769  34.362  1.00  0.00     0.167 HD
ATOM     60  C   UNL A   1      39.050  34.794  36.835  1.00  0.00     0.034 A 
ATOM     61  C   UNL A   1      42.227  29.369  34.083  1.00  0.00     0.034 A 
ATOM     62  C   UNL A   1      40.309  35.317  36.359  1.00  0.00     0.049 A 
ATOM     63  C   UNL A   1      42.862  30.401  34.930  1.00  0.00     0.074 A 
ATOM     64  C   UNL A   1      40.745  36.431  35.676  1.00  0.00     0.029 A 
ATOM     65  N   UNL A   1      41.300  34.373  36.273  1.00  0.00    -0.354 N 
ATOM     66  N   UNL A   1      43.543  31.399  34.437  1.00  0.00    -0.248 NA
ATOM     67  C   UNL A   1      42.442  30.561  36.316  1.00  0.00     0.031 C 
ATOM     68  C   UNL A   1      41.947  36.040  35.011  1.00  0.00     0.029 A 
ATOM     69  C   UNL A   1      42.247  34.721  35.348  1.00  0.00     0.049 A 
ATOM     70  H   UNL A   1      41.328  33.549  36.811  1.00  0.00     0.167 HD
ATOM     71  C   UNL A   1      43.256  32.458  35.273  1.00  0.00     0.074 A 
ATOM     72  C   UNL A   1      42.739  31.851  36.494  1.00  0.00     0.031 C 
ATOM     73  C   UNL A   1      43.143  33.726  34.783  1.00  0.00     0.034 A 
BRANCH  60  74
ATOM     74  C   UNL A   1      38.922  34.324  38.282  1.00  0.00     0.023 A 
ATOM     75  C   UNL A   1      38.365  33.043  38.495  1.00  0.00     0.031 A 
ATOM     76  C   UNL A   1      39.008  35.145  39.430  1.00  0.00     0.131 A 
ATOM     77  C   UNL A   1      37.851  32.670  39.752  1.00  0.00     0.055 A 
ATOM     78  C   UNL A   1      38.538  34.751  40.687  1.00  0.00     0.041 A 
ATOM     79  F   UNL A   1      39.464  36.400  39.396  1.00  0.00    -0.206 F 
ATOM     80  C   UNL A   1      37.929  33.520  40.850  1.00  0.00     0.022 A 
BRANCH  77  81
ATOM     81  S   UNL A   1      36.936  31.111  39.898  1.00  0.00     0.124 S 
ATOM     82  O   UNL A   1      37.787  30.349  40.803  1.00  0.00    -0.237 OA
ATOM     83  O   UNL A   1      35.657  31.564  40.436  1.00  0.00    -0.237 OA
ATOM     84  O   UNL A   1      36.889  30.618  38.523  1.00  0.00    -0.744 OA
ENDBRANCH  77  81
ENDBRANCH  60  74
BRANCH  61  85
ATOM     85  C   UNL A   1      42.437  27.907  34.273  1.00  0.00     0.023 A 
ATOM     86  C   UNL A   1      43.392  27.161  33.549  1.00  0.00     0.031 A 
ATOM     87  C   UNL A   1      41.848  27.270  35.389  1.00  0.00     0.131 A 
ATOM     88  C   UNL A   1      43.733  25.849  33.959  1.00  0.00     0.055 A 
ATOM     89  C   UNL A   1      42.189  25.975  35.789  1.00  0.00     0.041 A 
ATOM     90  F   UNL A   1      40.982  27.923  36.182  1.00  0.00    -0.206 F 
ATOM     91  C   UNL A   1      43.144  25.263  35.082  1.00  0.00     0.022 A 
BRANCH  88  92
ATOM     92  S   UNL A   1      45.027  24.908  33.083  1.00  0.00     0.124 S 
ATOM     93  O   UNL A   1      45.630  24.130  34.158  1.00  0.00    -0.237 OA
ATOM     94  O   UNL A   1      44.256  24.162  32.094  1.00  0.00    -0.237 OA
ATOM     95  O   UNL A   1      45.889  25.952  32.524  1.00  0.00    -0.744 OA
ENDBRANCH  88  92
ENDBRANCH  61  85
BRANCH  73  96
ATOM     96  C   UNL A   1      43.910  34.069  33.530  1.00  0.00     0.023 A 
ATOM     97  C   UNL A   1      43.403  34.026  32.213  1.00  0.00     0.031 A 
ATOM     98  C   UNL A   1      45.238  34.498  33.706  1.00  0.00     0.131 A 
ATOM     99  C   UNL A   1      44.228  34.401  31.133  1.00  0.00     0.055 A 
ATOM    100  C   UNL A   1      46.042  34.889  32.640  1.00  0.00     0.041 A 
ATOM    101  F   UNL A   1      45.774  34.563  34.937  1.00  0.00    -0.206 F 
ATOM    102  C   UNL A   1      45.542  34.836  31.347  1.00  0.00     0.022 A 
BRANCH  99 103
ATOM    103  S   UNL A   1      43.623  34.301  29.417  1.00  0.00     0.124 S 
ATOM    104  O   UNL A   1      42.326  33.649  29.549  1.00  0.00    -0.237 OA
ATOM    105  O   UNL A   1      43.596  35.703  29.010  1.00  0.00    -0.237 OA
ATOM    106  O   UNL A   1      44.644  33.494  28.744  1.00  0.00    -0.744 OA
ENDBRANCH  99 103
ENDBRANCH  73  96
ENDBRANCH  47  48
ENDBRANCH  39  42
ENDBRANCH  37  38
ENDBRANCH  36  37
ENDBRANCH  35  36
ENDBRANCH   1  35
TORSDOF 21
ENDMDL
MODEL 3
REMARK VINA RESULT:     -11.8      2.782      7.088
REMARK SMILES Cc1c(-c2nn(-c3ccccc3)cc2/C=N/O)nnn1-c1ccc(C(=O)NCCCCCCNC(=O)c2ccc(-c3c4nc(c(-c5cc(S(=O)(=O)[O-])ccc5F)c5ccc([nH]5)c(-c5cc(S(=O)(=O)[O-])ccc5F)c5nc(c(-c6cc(S(=O)(=O)[O-])ccc6F)c6ccc3[nH]6)C=C5)C=C4)cc2)cc1
REMARK SMILES IDX 30 1 29 2 28 3 27 4 25 5 26 6 24 8 21 9 22 10 101 11 23 12
REMARK SMILES IDX 100 13 20 14 1 15 2 16 3 17 18 18 19 19 4 20 5 21 14 22 6 23
REMARK SMILES IDX 13 24 15 25 16 26 17 27 7 29 8 30 12 31 9 32 11 33 10 34
REMARK SMILES IDX 31 35 32 36 33 37 34 38 35 39 36 41 37 42 38 43 99 44 39 45
REMARK SMILES IDX 98 46 40 47 41 48 42 49 92 50 43 51 97 52 91 53 93 54 44 55
REMARK SMILES IDX 96 56 90 57 89 58 45 60 77 61 57 62 76 63 58 64 61 65 75 66
REMARK SMILES IDX 94 67 59 68 60 69 74 71 95 72 62 73 46 74 47 75 55 76 48 77
REMARK SMILES IDX 54 78 56 79 53 80 49 81 50 82 51 83 52 84 78 85 79 86 87 87
REMARK SMILES IDX 80 88 86 89 88 90 85 91 81 92 82 93 83 94 84 95 63 96 64 97
REMARK SMILES IDX 72 98 65 99 71 100 73 101 70 102 66 103 67 104 68 105 69 106
REMARK H PARENT 27 7 17 28 34 40 93 59 61 70
REMARK Flexibility Score: inf
ROOT
ATOM      1  C   UNL A   1      32.250  29.593  27.213  1.00  0.00     0.002 C 
ENDROOT
BRANCH   1   2
ATOM      2  C   UNL A   1      31.029  30.478  26.919  1.00  0.00     0.021 C 
BRANCH   2   3
ATOM      3  C   UNL A   1      31.248  31.444  25.752  1.00  0.00     0.116 C 
BRANCH   3   4
ATOM      4  N   UNL A   1      30.443  31.046  24.615  1.00  0.00    -0.352 N 
ATOM      5  C   UNL A   1      30.404  29.935  23.814  1.00  0.00     0.251 C 
ATOM      6  O   UNL A   1      29.569  29.941  22.907  1.00  0.00    -0.269 OA
ATOM      7  H   UNL A   1      29.776  31.725  24.361  1.00  0.00     0.163 HD
BRANCH   5   8
ATOM      8  C   UNL A   1      31.236  28.712  24.018  1.00  0.00     0.039 A 
ATOM      9  C   UNL A   1      32.648  26.368  24.673  1.00  0.00     0.067 A 
ATOM     10  C   UNL A   1      31.266  26.410  24.848  1.00  0.00     0.029 A 
ATOM     11  C   UNL A   1      33.315  27.450  24.089  1.00  0.00     0.029 A 
ATOM     12  C   UNL A   1      30.577  27.591  24.557  1.00  0.00     0.016 A 
ATOM     13  C   UNL A   1      32.594  28.591  23.711  1.00  0.00     0.016 A 
BRANCH   9  14
ATOM     14  N   UNL A   1      33.363  25.210  25.045  1.00  0.00    -0.217 N 
ATOM     15  C   UNL A   1      33.847  24.143  22.779  1.00  0.00     0.069 C 
ATOM     16  C   UNL A   1      33.765  24.148  24.258  1.00  0.00     0.071 A 
ATOM     17  C   UNL A   1      34.172  23.213  25.189  1.00  0.00     0.137 A 
ATOM     18  N   UNL A   1      34.174  23.759  26.438  1.00  0.00    -0.128 NA
ATOM     19  N   UNL A   1      33.764  25.018  26.325  1.00  0.00    -0.061 NA
BRANCH  17  20
ATOM     20  C   UNL A   1      34.648  21.858  24.943  1.00  0.00     0.124 A 
ATOM     21  N   UNL A   1      33.809  20.822  24.812  1.00  0.00    -0.165 NA
ATOM     22  C   UNL A   1      36.006  21.466  24.900  1.00  0.00     0.044 A 
ATOM     23  N   UNL A   1      34.617  19.741  24.803  1.00  0.00    -0.240 N 
ATOM     24  C   UNL A   1      35.947  20.086  24.867  1.00  0.00     0.125 A 
BRANCH  22  25
ATOM     25  C   UNL A   1      37.226  22.237  24.894  1.00  0.00     0.166 C 
ATOM     26  N   UNL A   1      37.473  23.065  25.853  1.00  0.00    -0.097 NA
BRANCH  26  27
ATOM     27  O   UNL A   1      38.686  23.713  25.592  1.00  0.00    -0.411 OA
ATOM     28  H   UNL A   1      39.471  23.428  26.018  1.00  0.00     0.330 HD
ENDBRANCH  26  27
ENDBRANCH  22  25
BRANCH  23  29
ATOM     29  C   UNL A   1      34.077  18.436  24.768  1.00  0.00     0.065 A 
ATOM     30  C   UNL A   1      32.872  18.179  25.434  1.00  0.00     0.028 A 
ATOM     31  C   UNL A   1      34.747  17.411  24.090  1.00  0.00     0.028 A 
ATOM     32  C   UNL A   1      32.320  16.899  25.391  1.00  0.00     0.002 A 
ATOM     33  C   UNL A   1      34.215  16.121  24.102  1.00  0.00     0.002 A 
ATOM     34  C   UNL A   1      32.998  15.869  24.738  1.00  0.00     0.000 A 
ENDBRANCH  23  29
ENDBRANCH  17  20
ENDBRANCH   9  14
ENDBRANCH   5   8
ENDBRANCH   3   4
ENDBRANCH   2   3
ENDBRANCH   1   2
BRANCH   1  35
ATOM     35  C   UNL A   1      33.613  30.299  27.124  1.00  0.00     0.002 C 
BRANCH  35  36
ATOM     36  C   UNL A   1      34.833  29.377  26.991  1.00  0.00     0.021 C 
BRANCH  36  37
ATOM     37  C   UNL A   1      36.103  29.965  27.591  1.00  0.00     0.116 C 
BRANCH  37  38
ATOM     38  N   UNL A   1      35.907  30.356  28.982  1.00  0.00    -0.352 N 
ATOM     39  C   UNL A   1      36.657  29.994  30.083  1.00  0.00     0.251 C 
ATOM     40  H   UNL A   1      35.143  30.952  29.158  1.00  0.00     0.163 HD
ATOM     41  O   UNL A   1      36.178  30.052  31.203  1.00  0.00    -0.269 OA
BRANCH  39  42
ATOM     42  C   UNL A   1      38.040  29.528  29.870  1.00  0.00     0.039 A 
ATOM     43  C   UNL A   1      39.078  30.446  29.707  1.00  0.00     0.014 A 
ATOM     44  C   UNL A   1      38.290  28.155  29.870  1.00  0.00     0.014 A 
ATOM     45  C   UNL A   1      40.385  29.973  29.634  1.00  0.00     0.010 A 
ATOM     46  C   UNL A   1      39.590  27.696  29.899  1.00  0.00     0.010 A 
ATOM     47  C   UNL A   1      40.644  28.597  29.764  1.00  0.00    -0.014 A 
BRANCH  47  48
ATOM     48  C   UNL A   1      42.021  28.131  29.969  1.00  0.00     0.031 A 
ATOM     49  C   UNL A   1      42.479  27.179  28.919  1.00  0.00     0.074 A 
ATOM     50  C   UNL A   1      42.889  28.665  30.858  1.00  0.00     0.049 A 
ATOM     51  N   UNL A   1      42.701  25.913  29.038  1.00  0.00    -0.248 NA
ATOM     52  C   UNL A   1      42.521  27.650  27.522  1.00  0.00     0.031 C 
ATOM     53  C   UNL A   1      42.657  29.827  31.722  1.00  0.00     0.029 A 
ATOM     54  N   UNL A   1      44.203  28.367  31.106  1.00  0.00    -0.354 N 
ATOM     55  C   UNL A   1      43.205  25.504  27.805  1.00  0.00     0.074 A 
ATOM     56  C   UNL A   1      42.831  26.528  26.870  1.00  0.00     0.031 C 
ATOM     57  C   UNL A   1      43.834  30.282  32.205  1.00  0.00     0.029 A 
ATOM     58  C   UNL A   1      44.879  29.340  31.843  1.00  0.00     0.049 A 
ATOM     59  H   UNL A   1      44.632  27.538  30.792  1.00  0.00     0.167 HD
ATOM     60  C   UNL A   1      44.168  24.542  27.743  1.00  0.00     0.034 A 
ATOM     61  C   UNL A   1      46.202  29.388  32.156  1.00  0.00     0.034 A 
ATOM     62  C   UNL A   1      44.269  23.856  29.010  1.00  0.00     0.049 A 
ATOM     63  C   UNL A   1      46.712  28.002  32.103  1.00  0.00     0.074 A 
ATOM     64  C   UNL A   1      43.526  22.943  29.725  1.00  0.00     0.029 A 
ATOM     65  N   UNL A   1      45.144  24.446  29.887  1.00  0.00    -0.354 N 
ATOM     66  N   UNL A   1      46.288  27.062  32.903  1.00  0.00    -0.248 NA
ATOM     67  C   UNL A   1      47.427  27.536  30.921  1.00  0.00     0.031 C 
ATOM     68  C   UNL A   1      43.853  23.158  31.099  1.00  0.00     0.029 A 
ATOM     69  C   UNL A   1      44.827  24.152  31.186  1.00  0.00     0.049 A 
ATOM     70  H   UNL A   1      45.904  25.009  29.616  1.00  0.00     0.167 HD
ATOM     71  C   UNL A   1      46.287  25.923  32.125  1.00  0.00     0.074 A 
ATOM     72  C   UNL A   1      47.159  26.230  30.997  1.00  0.00     0.031 C 
ATOM     73  C   UNL A   1      45.324  24.969  32.281  1.00  0.00     0.034 A 
BRANCH  60  74
ATOM     74  C   UNL A   1      45.354  24.539  26.782  1.00  0.00     0.023 A 
ATOM     75  C   UNL A   1      45.855  25.797  26.376  1.00  0.00     0.031 A 
ATOM     76  C   UNL A   1      45.800  23.435  26.020  1.00  0.00     0.131 A 
ATOM     77  C   UNL A   1      46.662  25.925  25.229  1.00  0.00     0.055 A 
ATOM     78  C   UNL A   1      46.641  23.565  24.909  1.00  0.00     0.041 A 
ATOM     79  F   UNL A   1      45.387  22.184  26.238  1.00  0.00    -0.206 F 
ATOM     80  C   UNL A   1      47.054  24.815  24.489  1.00  0.00     0.022 A 
BRANCH  77  81
ATOM     81  S   UNL A   1      47.071  27.586  24.626  1.00  0.00     0.124 S 
ATOM     82  O   UNL A   1      45.766  28.236  24.634  1.00  0.00    -0.237 OA
ATOM     83  O   UNL A   1      48.028  28.041  25.630  1.00  0.00    -0.237 OA
ATOM     84  O   UNL A   1      47.635  27.335  23.302  1.00  0.00    -0.744 OA
ENDBRANCH  77  81
ENDBRANCH  60  74
BRANCH  61  85
ATOM     85  C   UNL A   1      47.082  30.585  32.266  1.00  0.00     0.023 A 
ATOM     86  C   UNL A   1      47.541  31.313  31.148  1.00  0.00     0.031 A 
ATOM     87  C   UNL A   1      47.271  31.181  33.532  1.00  0.00     0.131 A 
ATOM     88  C   UNL A   1      48.141  32.585  31.321  1.00  0.00     0.055 A 
ATOM     89  C   UNL A   1      47.864  32.436  33.697  1.00  0.00     0.041 A 
ATOM     90  F   UNL A   1      46.805  30.599  34.649  1.00  0.00    -0.206 F 
ATOM     91  C   UNL A   1      48.290  33.150  32.589  1.00  0.00     0.022 A 
BRANCH  88  92
ATOM     92  S   UNL A   1      48.660  33.572  29.877  1.00  0.00     0.124 S 
ATOM     93  O   UNL A   1      47.611  34.580  29.795  1.00  0.00    -0.237 OA
ATOM     94  O   UNL A   1      49.982  34.040  30.278  1.00  0.00    -0.237 OA
ATOM     95  O   UNL A   1      48.664  32.600  28.782  1.00  0.00    -0.744 OA
ENDBRANCH  88  92
ENDBRANCH  61  85
BRANCH  73  96
ATOM     96  C   UNL A   1      44.675  24.838  33.636  1.00  0.00     0.023 A 
ATOM     97  C   UNL A   1      43.580  25.596  34.105  1.00  0.00     0.031 A 
ATOM     98  C   UNL A   1      45.196  23.846  34.487  1.00  0.00     0.131 A 
ATOM     99  C   UNL A   1      43.056  25.347  35.391  1.00  0.00     0.055 A 
ATOM    100  C   UNL A   1      44.662  23.588  35.745  1.00  0.00     0.041 A 
ATOM    101  F   UNL A   1      46.236  23.090  34.093  1.00  0.00    -0.206 F 
ATOM    102  C   UNL A   1      43.592  24.343  36.205  1.00  0.00     0.022 A 
BRANCH  99 103
ATOM    103  S   UNL A   1      41.682  26.347  36.048  1.00  0.00     0.124 S 
ATOM    104  O   UNL A   1      40.623  25.369  36.270  1.00  0.00    -0.237 OA
ATOM    105  O   UNL A   1      42.269  26.938  37.247  1.00  0.00    -0.237 OA
ATOM    106  O   UNL A   1      41.412  27.302  34.971  1.00  0.00    -0.744 OA
ENDBRANCH  99 103
ENDBRANCH  73  96
ENDBRANCH  47  48
ENDBRANCH  39  42
ENDBRANCH  37  38
ENDBRANCH  36  37
ENDBRANCH  35  36
ENDBRANCH   1  35
TORSDOF 21
ENDMDL
