MODEL 1
REMARK VINA RESULT:     -11.2      0.000      0.000
REMARK SMILES O=C(CC[NH+]1CCC([N@H+]2CCC[C@H](C(=O)NCc3cccnc3)C2)CC1)NCCCCCCNC(=O)c1ccc(-c2c3nc(c(-c4cc(S(=O)(=O)[O-])ccc4F)c4ccc([nH]4)c(-c4cc(S(=O)(=O)[O-])ccc4F)c4nc(c(-c5cc(S(=O)(=O)[O-])ccc5F)c5ccc2[nH]5)C=C4)C=C3)cc1
REMARK SMILES IDX 29 1 28 2 27 3 1 4 2 5 3 7 4 8 5 9 6 10 26 11 7 13 25 14
REMARK SMILES IDX 8 15 9 16 10 17 24 18 11 20 13 21 12 22 14 23 15 24 16 25
REMARK SMILES IDX 17 27 18 28 19 29 23 30 20 31 22 32 21 33 30 34 31 35 32 36
REMARK SMILES IDX 33 37 34 38 35 39 36 41 37 42 38 43 99 44 39 45 98 46 40 47
REMARK SMILES IDX 41 48 42 49 92 50 43 51 97 52 91 53 93 54 44 55 96 56 90 57
REMARK SMILES IDX 89 58 45 60 77 61 57 62 76 63 58 64 61 65 75 66 94 67 59 68
REMARK SMILES IDX 60 69 74 71 95 72 62 73 46 74 47 75 55 76 48 77 54 78 56 79
REMARK SMILES IDX 53 80 49 81 50 82 51 83 52 84 78 85 79 86 87 87 80 88 86 89
REMARK SMILES IDX 88 90 85 91 81 92 82 93 83 94 84 95 63 96 64 97 72 98 65 99
REMARK SMILES IDX 71 100 73 101 70 102 66 103 67 104 68 105 69 106
REMARK H PARENT 27 6 5 12 9 19 16 26 34 40 93 59 61 70
REMARK Flexibility Score: inf
ROOT
ATOM      1  C   UNL A   1      39.274  23.619  27.155  1.00  0.00     0.021 C 
ENDROOT
BRANCH   1   2
ATOM      2  C   UNL A   1      38.142  23.599  26.128  1.00  0.00     0.116 C 
BRANCH   2   3
ATOM      3  N   UNL A   1      37.549  22.284  26.010  1.00  0.00    -0.356 N 
ATOM      4  O   UNL A   1      36.866  22.448  23.820  1.00  0.00    -0.275 OA
ATOM      5  C   UNL A   1      36.968  21.805  24.861  1.00  0.00     0.225 C 
ATOM      6  H   UNL A   1      37.564  21.696  26.800  1.00  0.00     0.163 HD
BRANCH   5   7
ATOM      7  C   UNL A   1      36.417  20.397  24.993  1.00  0.00     0.161 C 
BRANCH   7   8
ATOM      8  C   UNL A   1      34.888  20.365  24.953  1.00  0.00     0.272 C 
BRANCH   8   9
ATOM      9  N   UNL A   1      34.356  21.738  24.899  1.00  0.00    -0.334 N 
ATOM     10  C   UNL A   1      33.396  21.923  23.803  1.00  0.00     0.268 C 
ATOM     11  C   UNL A   1      33.758  22.147  26.176  1.00  0.00     0.268 C 
ATOM     12  H   UNL A   1      35.158  22.340  24.716  1.00  0.00     0.348 HD
ATOM     13  C   UNL A   1      33.067  23.409  23.647  1.00  0.00     0.126 C 
ATOM     14  C   UNL A   1      33.479  23.646  26.136  1.00  0.00     0.126 C 
ATOM     15  C   UNL A   1      32.556  24.015  24.965  1.00  0.00     0.195 C 
BRANCH  15  16
ATOM     16  N   UNL A   1      32.357  25.478  24.968  1.00  0.00    -0.331 N 
ATOM     17  C   UNL A   1      31.828  26.043  26.213  1.00  0.00     0.262 C 
ATOM     18  C   UNL A   1      33.542  26.209  24.513  1.00  0.00     0.275 C 
ATOM     19  H   UNL A   1      31.615  25.614  24.282  1.00  0.00     0.348 HD
ATOM     20  C   UNL A   1      31.383  27.490  26.020  1.00  0.00     0.062 C 
ATOM     21  C   UNL A   1      33.299  27.710  24.327  1.00  0.00     0.133 C 
ATOM     22  C   UNL A   1      32.470  28.373  25.427  1.00  0.00     0.025 C 
BRANCH  21  23
ATOM     23  C   UNL A   1      32.958  28.123  22.895  1.00  0.00     0.229 C 
ATOM     24  O   UNL A   1      33.867  28.552  22.170  1.00  0.00    -0.275 OA
ATOM     25  N   UNL A   1      31.739  28.051  22.317  1.00  0.00    -0.352 N 
ATOM     26  H   UNL A   1      31.728  28.396  21.395  1.00  0.00     0.163 HD
BRANCH  25  27
ATOM     27  C   UNL A   1      30.445  27.573  22.760  1.00  0.00     0.153 C 
BRANCH  27  28
ATOM     28  C   UNL A   1      29.446  28.676  22.976  1.00  0.00    -0.010 A 
ATOM     29  C   UNL A   1      29.868  29.974  23.276  1.00  0.00     0.009 A 
ATOM     30  C   UNL A   1      28.073  28.458  22.962  1.00  0.00     0.116 A 
ATOM     31  C   UNL A   1      28.934  30.984  23.489  1.00  0.00     0.020 A 
ATOM     32  N   UNL A   1      27.142  29.416  23.172  1.00  0.00    -0.264 NA
ATOM     33  C   UNL A   1      27.593  30.662  23.420  1.00  0.00     0.111 A 
ENDBRANCH  27  28
ENDBRANCH  25  27
ENDBRANCH  21  23
ENDBRANCH  15  16
ENDBRANCH   8   9
ENDBRANCH   7   8
ENDBRANCH   5   7
ENDBRANCH   2   3
ENDBRANCH   1   2
BRANCH   1  34
ATOM     34  C   UNL A   1      40.503  22.784  26.772  1.00  0.00     0.002 C 
BRANCH  34  35
ATOM     35  C   UNL A   1      41.067  21.903  27.889  1.00  0.00     0.002 C 
BRANCH  35  36
ATOM     36  C   UNL A   1      41.370  20.459  27.496  1.00  0.00     0.021 C 
BRANCH  36  37
ATOM     37  C   UNL A   1      41.282  20.161  26.003  1.00  0.00     0.116 C 
BRANCH  37  38
ATOM     38  N   UNL A   1      42.493  19.558  25.466  1.00  0.00    -0.352 N 
ATOM     39  C   UNL A   1      43.724  20.107  25.197  1.00  0.00     0.251 C 
ATOM     40  H   UNL A   1      42.417  18.598  25.261  1.00  0.00     0.163 HD
ATOM     41  O   UNL A   1      44.571  19.427  24.624  1.00  0.00    -0.269 OA
BRANCH  39  42
ATOM     42  C   UNL A   1      44.012  21.519  25.542  1.00  0.00     0.039 A 
ATOM     43  C   UNL A   1      43.656  22.523  24.634  1.00  0.00     0.014 A 
ATOM     44  C   UNL A   1      44.625  21.857  26.749  1.00  0.00     0.014 A 
ATOM     45  C   UNL A   1      43.843  23.867  24.974  1.00  0.00     0.010 A 
ATOM     46  C   UNL A   1      44.738  23.194  27.119  1.00  0.00     0.010 A 
ATOM     47  C   UNL A   1      44.356  24.212  26.232  1.00  0.00    -0.014 A 
BRANCH  47  48
ATOM     48  C   UNL A   1      44.551  25.630  26.630  1.00  0.00     0.031 A 
ATOM     49  C   UNL A   1      45.912  26.258  26.495  1.00  0.00     0.074 A 
ATOM     50  C   UNL A   1      43.535  26.325  27.176  1.00  0.00     0.049 A 
ATOM     51  N   UNL A   1      46.323  27.443  26.865  1.00  0.00    -0.248 NA
ATOM     52  C   UNL A   1      46.960  25.419  25.893  1.00  0.00     0.031 C 
ATOM     53  C   UNL A   1      42.179  25.815  27.390  1.00  0.00     0.029 A 
ATOM     54  N   UNL A   1      43.486  27.608  27.661  1.00  0.00    -0.354 N 
ATOM     55  C   UNL A   1      47.679  27.487  26.558  1.00  0.00     0.074 A 
ATOM     56  C   UNL A   1      48.031  26.184  26.035  1.00  0.00     0.031 C 
ATOM     57  C   UNL A   1      41.429  26.782  27.944  1.00  0.00     0.029 A 
ATOM     58  C   UNL A   1      42.256  27.965  28.162  1.00  0.00     0.049 A 
ATOM     59  H   UNL A   1      44.261  28.216  27.652  1.00  0.00     0.167 HD
ATOM     60  C   UNL A   1      48.545  28.524  26.679  1.00  0.00     0.034 A 
ATOM     61  C   UNL A   1      41.847  29.112  28.738  1.00  0.00     0.034 A 
ATOM     62  C   UNL A   1      48.173  29.820  27.193  1.00  0.00     0.049 A 
ATOM     63  C   UNL A   1      42.833  30.243  28.889  1.00  0.00     0.074 A 
ATOM     64  C   UNL A   1      48.946  30.962  27.300  1.00  0.00     0.029 A 
ATOM     65  N   UNL A   1      46.918  30.143  27.699  1.00  0.00    -0.354 N 
ATOM     66  N   UNL A   1      44.099  30.290  28.543  1.00  0.00    -0.248 NA
ATOM     67  C   UNL A   1      42.328  31.478  29.502  1.00  0.00     0.031 C 
ATOM     68  C   UNL A   1      48.184  31.951  27.933  1.00  0.00     0.029 A 
ATOM     69  C   UNL A   1      46.910  31.454  28.154  1.00  0.00     0.049 A 
ATOM     70  H   UNL A   1      46.148  29.532  27.730  1.00  0.00     0.167 HD
ATOM     71  C   UNL A   1      44.534  31.572  28.872  1.00  0.00     0.074 A 
ATOM     72  C   UNL A   1      43.389  32.267  29.425  1.00  0.00     0.031 C 
ATOM     73  C   UNL A   1      45.766  32.127  28.728  1.00  0.00     0.034 A 
BRANCH  60  74
ATOM     74  C   UNL A   1      49.981  28.272  26.277  1.00  0.00     0.023 A 
ATOM     75  C   UNL A   1      50.444  28.546  24.978  1.00  0.00     0.031 A 
ATOM     76  C   UNL A   1      50.883  27.692  27.186  1.00  0.00     0.131 A 
ATOM     77  C   UNL A   1      51.735  28.151  24.595  1.00  0.00     0.055 A 
ATOM     78  C   UNL A   1      52.197  27.386  26.825  1.00  0.00     0.041 A 
ATOM     79  F   UNL A   1      50.497  27.388  28.435  1.00  0.00    -0.206 F 
ATOM     80  C   UNL A   1      52.624  27.596  25.517  1.00  0.00     0.022 A 
BRANCH  77  81
ATOM     81  S   UNL A   1      52.169  28.208  22.835  1.00  0.00     0.124 S 
ATOM     82  O   UNL A   1      53.506  28.796  22.879  1.00  0.00    -0.237 OA
ATOM     83  O   UNL A   1      52.101  26.804  22.448  1.00  0.00    -0.237 OA
ATOM     84  O   UNL A   1      51.139  29.067  22.254  1.00  0.00    -0.744 OA
ENDBRANCH  77  81
ENDBRANCH  60  74
BRANCH  61  85
ATOM     85  C   UNL A   1      40.444  29.259  29.218  1.00  0.00     0.023 A 
ATOM     86  C   UNL A   1      40.144  29.206  30.589  1.00  0.00     0.031 A 
ATOM     87  C   UNL A   1      39.378  29.418  28.314  1.00  0.00     0.131 A 
ATOM     88  C   UNL A   1      38.808  29.268  31.016  1.00  0.00     0.055 A 
ATOM     89  C   UNL A   1      38.055  29.526  28.747  1.00  0.00     0.041 A 
ATOM     90  F   UNL A   1      39.612  29.480  26.993  1.00  0.00    -0.206 F 
ATOM     91  C   UNL A   1      37.764  29.441  30.105  1.00  0.00     0.022 A 
BRANCH  88  92
ATOM     92  S   UNL A   1      38.450  29.053  32.781  1.00  0.00     0.124 S 
ATOM     93  O   UNL A   1      39.432  28.043  33.162  1.00  0.00    -0.237 OA
ATOM     94  O   UNL A   1      38.676  30.397  33.303  1.00  0.00    -0.237 OA
ATOM     95  O   UNL A   1      37.058  28.608  32.793  1.00  0.00    -0.744 OA
ENDBRANCH  88  92
ENDBRANCH  61  85
BRANCH  73  96
ATOM     96  C   UNL A   1      45.916  33.567  29.151  1.00  0.00     0.023 A 
ATOM     97  C   UNL A   1      45.824  34.622  28.226  1.00  0.00     0.031 A 
ATOM     98  C   UNL A   1      46.191  33.888  30.492  1.00  0.00     0.131 A 
ATOM     99  C   UNL A   1      46.069  35.940  28.640  1.00  0.00     0.055 A 
ATOM    100  C   UNL A   1      46.369  35.207  30.912  1.00  0.00     0.041 A 
ATOM    101  F   UNL A   1      46.294  32.922  31.419  1.00  0.00    -0.206 F 
ATOM    102  C   UNL A   1      46.325  36.241  29.980  1.00  0.00     0.022 A 
BRANCH  99 103
ATOM    103  S   UNL A   1      46.160  37.245  27.384  1.00  0.00     0.124 S 
ATOM    104  O   UNL A   1      47.276  38.053  27.866  1.00  0.00    -0.237 OA
ATOM    105  O   UNL A   1      46.405  36.485  26.162  1.00  0.00    -0.237 OA
ATOM    106  O   UNL A   1      44.850  37.889  27.461  1.00  0.00    -0.744 OA
ENDBRANCH  99 103
ENDBRANCH  73  96
ENDBRANCH  47  48
ENDBRANCH  39  42
ENDBRANCH  37  38
ENDBRANCH  36  37
ENDBRANCH  35  36
ENDBRANCH  34  35
ENDBRANCH   1  34
TORSDOF 22
ENDMDL
MODEL 2
REMARK VINA RESULT:     -10.3      1.841      2.086
REMARK SMILES O=C(CC[NH+]1CCC([N@H+]2CCC[C@H](C(=O)NCc3cccnc3)C2)CC1)NCCCCCCNC(=O)c1ccc(-c2c3nc(c(-c4cc(S(=O)(=O)[O-])ccc4F)c4ccc([nH]4)c(-c4cc(S(=O)(=O)[O-])ccc4F)c4nc(c(-c5cc(S(=O)(=O)[O-])ccc5F)c5ccc2[nH]5)C=C4)C=C3)cc1
REMARK SMILES IDX 29 1 28 2 27 3 1 4 2 5 3 7 4 8 5 9 6 10 26 11 7 13 25 14
REMARK SMILES IDX 8 15 9 16 10 17 24 18 11 20 13 21 12 22 14 23 15 24 16 25
REMARK SMILES IDX 17 27 18 28 19 29 23 30 20 31 22 32 21 33 30 34 31 35 32 36
REMARK SMILES IDX 33 37 34 38 35 39 36 41 37 42 38 43 99 44 39 45 98 46 40 47
REMARK SMILES IDX 41 48 42 49 92 50 43 51 97 52 91 53 93 54 44 55 96 56 90 57
REMARK SMILES IDX 89 58 45 60 77 61 57 62 76 63 58 64 61 65 75 66 94 67 59 68
REMARK SMILES IDX 60 69 74 71 95 72 62 73 46 74 47 75 55 76 48 77 54 78 56 79
REMARK SMILES IDX 53 80 49 81 50 82 51 83 52 84 78 85 79 86 87 87 80 88 86 89
REMARK SMILES IDX 88 90 85 91 81 92 82 93 83 94 84 95 63 96 64 97 72 98 65 99
REMARK SMILES IDX 71 100 73 101 70 102 66 103 67 104 68 105 69 106
REMARK H PARENT 27 6 5 12 9 19 16 26 34 40 93 59 61 70
REMARK Flexibility Score: inf
ROOT
ATOM      1  C   UNL A   1      38.964  23.718  26.963  1.00  0.00     0.021 C 
ENDROOT
BRANCH   1   2
ATOM      2  C   UNL A   1      37.974  23.559  25.809  1.00  0.00     0.116 C 
BRANCH   2   3
ATOM      3  N   UNL A   1      37.278  22.291  25.872  1.00  0.00    -0.356 N 
ATOM      4  O   UNL A   1      36.592  22.205  23.679  1.00  0.00    -0.275 OA
ATOM      5  C   UNL A   1      36.651  21.706  24.799  1.00  0.00     0.225 C 
ATOM      6  H   UNL A   1      37.253  21.818  26.736  1.00  0.00     0.163 HD
BRANCH   5   7
ATOM      7  C   UNL A   1      35.991  20.378  25.123  1.00  0.00     0.161 C 
BRANCH   7   8
ATOM      8  C   UNL A   1      34.480  20.407  24.887  1.00  0.00     0.272 C 
BRANCH   8   9
ATOM      9  N   UNL A   1      34.005  21.800  24.833  1.00  0.00    -0.334 N 
ATOM     10  C   UNL A   1      32.932  21.987  23.846  1.00  0.00     0.268 C 
ATOM     11  C   UNL A   1      33.578  22.289  26.150  1.00  0.00     0.268 C 
ATOM     12  H   UNL A   1      34.805  22.356  24.531  1.00  0.00     0.348 HD
ATOM     13  C   UNL A   1      32.651  23.479  23.662  1.00  0.00     0.126 C 
ATOM     14  C   UNL A   1      33.361  23.796  26.073  1.00  0.00     0.126 C 
ATOM     15  C   UNL A   1      32.324  24.162  25.001  1.00  0.00     0.195 C 
BRANCH  15  16
ATOM     16  N   UNL A   1      32.189  25.632  24.959  1.00  0.00    -0.331 N 
ATOM     17  C   UNL A   1      31.534  26.241  26.121  1.00  0.00     0.262 C 
ATOM     18  C   UNL A   1      33.451  26.305  24.646  1.00  0.00     0.275 C 
ATOM     19  H   UNL A   1      31.544  25.785  24.184  1.00  0.00     0.348 HD
ATOM     20  C   UNL A   1      31.179  27.701  25.854  1.00  0.00     0.062 C 
ATOM     21  C   UNL A   1      33.298  27.811  24.412  1.00  0.00     0.133 C 
ATOM     22  C   UNL A   1      32.368  28.527  25.391  1.00  0.00     0.025 C 
BRANCH  21  23
ATOM     23  C   UNL A   1      33.156  28.211  22.943  1.00  0.00     0.229 C 
ATOM     24  O   UNL A   1      34.151  28.653  22.351  1.00  0.00    -0.275 OA
ATOM     25  N   UNL A   1      32.033  28.114  22.199  1.00  0.00    -0.352 N 
ATOM     26  H   UNL A   1      32.147  28.455  21.283  1.00  0.00     0.163 HD
BRANCH  25  27
ATOM     27  C   UNL A   1      30.697  27.614  22.458  1.00  0.00     0.153 C 
BRANCH  27  28
ATOM     28  C   UNL A   1      29.650  28.692  22.465  1.00  0.00    -0.010 A 
ATOM     29  C   UNL A   1      29.914  29.949  21.913  1.00  0.00     0.009 A 
ATOM     30  C   UNL A   1      28.410  28.530  23.071  1.00  0.00     0.116 A 
ATOM     31  C   UNL A   1      28.942  30.945  21.937  1.00  0.00     0.020 A 
ATOM     32  N   UNL A   1      27.448  29.480  23.118  1.00  0.00    -0.264 NA
ATOM     33  C   UNL A   1      27.731  30.664  22.539  1.00  0.00     0.111 A 
ENDBRANCH  27  28
ENDBRANCH  25  27
ENDBRANCH  21  23
ENDBRANCH  15  16
ENDBRANCH   8   9
ENDBRANCH   7   8
ENDBRANCH   5   7
ENDBRANCH   2   3
ENDBRANCH   1   2
BRANCH   1  34
ATOM     34  C   UNL A   1      40.330  23.058  26.734  1.00  0.00     0.002 C 
BRANCH  34  35
ATOM     35  C   UNL A   1      40.844  22.201  27.893  1.00  0.00     0.002 C 
BRANCH  35  36
ATOM     36  C   UNL A   1      41.120  20.738  27.557  1.00  0.00     0.021 C 
BRANCH  36  37
ATOM     37  C   UNL A   1      40.960  20.370  26.085  1.00  0.00     0.116 C 
BRANCH  37  38
ATOM     38  N   UNL A   1      42.150  19.754  25.516  1.00  0.00    -0.352 N 
ATOM     39  C   UNL A   1      43.396  20.277  25.264  1.00  0.00     0.251 C 
ATOM     40  H   UNL A   1      42.045  18.806  25.270  1.00  0.00     0.163 HD
ATOM     41  O   UNL A   1      44.220  19.597  24.658  1.00  0.00    -0.269 OA
BRANCH  39  42
ATOM     42  C   UNL A   1      43.728  21.663  25.667  1.00  0.00     0.039 A 
ATOM     43  C   UNL A   1      43.426  22.713  24.792  1.00  0.00     0.014 A 
ATOM     44  C   UNL A   1      44.331  21.934  26.897  1.00  0.00     0.014 A 
ATOM     45  C   UNL A   1      43.654  24.035  25.186  1.00  0.00     0.010 A 
ATOM     46  C   UNL A   1      44.485  23.251  27.319  1.00  0.00     0.010 A 
ATOM     47  C   UNL A   1      44.157  24.315  26.465  1.00  0.00    -0.014 A 
BRANCH  47  48
ATOM     48  C   UNL A   1      44.395  25.709  26.921  1.00  0.00     0.031 A 
ATOM     49  C   UNL A   1      45.762  26.317  26.761  1.00  0.00     0.074 A 
ATOM     50  C   UNL A   1      43.414  26.396  27.537  1.00  0.00     0.049 A 
ATOM     51  N   UNL A   1      46.211  27.476  27.169  1.00  0.00    -0.248 NA
ATOM     52  C   UNL A   1      46.769  25.488  26.080  1.00  0.00     0.031 C 
ATOM     53  C   UNL A   1      42.058  25.901  27.781  1.00  0.00     0.029 A 
ATOM     54  N   UNL A   1      43.410  27.655  28.082  1.00  0.00    -0.354 N 
ATOM     55  C   UNL A   1      47.555  27.509  26.812  1.00  0.00     0.074 A 
ATOM     56  C   UNL A   1      47.860  26.226  26.216  1.00  0.00     0.031 C 
ATOM     57  C   UNL A   1      41.349  26.854  28.407  1.00  0.00     0.029 A 
ATOM     58  C   UNL A   1      42.207  28.010  28.647  1.00  0.00     0.049 A 
ATOM     59  H   UNL A   1      44.196  28.249  28.071  1.00  0.00     0.167 HD
ATOM     60  C   UNL A   1      48.445  28.523  26.947  1.00  0.00     0.034 A 
ATOM     61  C   UNL A   1      41.844  29.136  29.291  1.00  0.00     0.034 A 
ATOM     62  C   UNL A   1      48.119  29.800  27.534  1.00  0.00     0.049 A 
ATOM     63  C   UNL A   1      42.857  30.241  29.456  1.00  0.00     0.074 A 
ATOM     64  C   UNL A   1      48.919  30.922  27.663  1.00  0.00     0.029 A 
ATOM     65  N   UNL A   1      46.892  30.122  28.103  1.00  0.00    -0.354 N 
ATOM     66  N   UNL A   1      44.110  30.281  29.063  1.00  0.00    -0.248 NA
ATOM     67  C   UNL A   1      42.401  31.455  30.144  1.00  0.00     0.031 C 
ATOM     68  C   UNL A   1      48.202  31.894  28.371  1.00  0.00     0.029 A 
ATOM     69  C   UNL A   1      46.926  31.411  28.617  1.00  0.00     0.049 A 
ATOM     70  H   UNL A   1      46.111  29.524  28.136  1.00  0.00     0.167 HD
ATOM     71  C   UNL A   1      44.583  31.537  29.433  1.00  0.00     0.074 A 
ATOM     72  C   UNL A   1      43.474  32.227  30.062  1.00  0.00     0.031 C 
ATOM     73  C   UNL A   1      45.819  32.076  29.266  1.00  0.00     0.034 A 
BRANCH  60  74
ATOM     74  C   UNL A   1      49.859  28.264  26.477  1.00  0.00     0.023 A 
ATOM     75  C   UNL A   1      50.267  28.553  25.163  1.00  0.00     0.031 A 
ATOM     76  C   UNL A   1      50.796  27.664  27.337  1.00  0.00     0.131 A 
ATOM     77  C   UNL A   1      51.535  28.152  24.717  1.00  0.00     0.055 A 
ATOM     78  C   UNL A   1      52.089  27.351  26.913  1.00  0.00     0.041 A 
ATOM     79  F   UNL A   1      50.463  27.344  28.597  1.00  0.00    -0.206 F 
ATOM     80  C   UNL A   1      52.460  27.575  25.591  1.00  0.00     0.022 A 
BRANCH  77  81
ATOM     81  S   UNL A   1      51.892  28.231  22.940  1.00  0.00     0.124 S 
ATOM     82  O   UNL A   1      51.047  29.345  22.518  1.00  0.00    -0.237 OA
ATOM     83  O   UNL A   1      53.329  28.475  22.918  1.00  0.00    -0.237 OA
ATOM     84  O   UNL A   1      51.473  26.921  22.447  1.00  0.00    -0.744 OA
ENDBRANCH  77  81
ENDBRANCH  60  74
BRANCH  61  85
ATOM     85  C   UNL A   1      40.463  29.287  29.832  1.00  0.00     0.023 A 
ATOM     86  C   UNL A   1      39.430  29.800  29.032  1.00  0.00     0.031 A 
ATOM     87  C   UNL A   1      40.165  28.955  31.165  1.00  0.00     0.131 A 
ATOM     88  C   UNL A   1      38.156  30.007  29.583  1.00  0.00     0.055 A 
ATOM     89  C   UNL A   1      38.883  29.118  31.696  1.00  0.00     0.041 A 
ATOM     90  F   UNL A   1      41.116  28.455  31.971  1.00  0.00    -0.206 F 
ATOM     91  C   UNL A   1      37.872  29.658  30.905  1.00  0.00     0.022 A 
BRANCH  88  92
ATOM     92  S   UNL A   1      36.887  30.803  28.561  1.00  0.00     0.124 S 
ATOM     93  O   UNL A   1      35.665  30.449  29.276  1.00  0.00    -0.237 OA
ATOM     94  O   UNL A   1      37.283  32.207  28.623  1.00  0.00    -0.237 OA
ATOM     95  O   UNL A   1      37.053  30.169  27.255  1.00  0.00    -0.744 OA
ENDBRANCH  88  92
ENDBRANCH  61  85
BRANCH  73  96
ATOM     96  C   UNL A   1      46.015  33.492  29.750  1.00  0.00     0.023 A 
ATOM     97  C   UNL A   1      46.462  33.772  31.054  1.00  0.00     0.031 A 
ATOM     98  C   UNL A   1      45.718  34.578  28.907  1.00  0.00     0.131 A 
ATOM     99  C   UNL A   1      46.534  35.101  31.498  1.00  0.00     0.055 A 
ATOM    100  C   UNL A   1      45.855  35.900  29.333  1.00  0.00     0.041 A 
ATOM    101  F   UNL A   1      45.284  34.371  27.653  1.00  0.00    -0.206 F 
ATOM    102  C   UNL A   1      46.249  36.166  30.641  1.00  0.00     0.022 A 
BRANCH  99 103
ATOM    103  S   UNL A   1      46.898  35.415  33.247  1.00  0.00     0.124 S 
ATOM    104  O   UNL A   1      46.729  34.090  33.835  1.00  0.00    -0.237 OA
ATOM    105  O   UNL A   1      48.268  35.918  33.195  1.00  0.00    -0.237 OA
ATOM    106  O   UNL A   1      45.892  36.400  33.637  1.00  0.00    -0.744 OA
ENDBRANCH  99 103
ENDBRANCH  73  96
ENDBRANCH  47  48
ENDBRANCH  39  42
ENDBRANCH  37  38
ENDBRANCH  36  37
ENDBRANCH  35  36
ENDBRANCH  34  35
ENDBRANCH   1  34
TORSDOF 22
ENDMDL
MODEL 3
REMARK VINA RESULT:     -10.2      1.365      2.314
REMARK SMILES O=C(CC[NH+]1CCC([N@H+]2CCC[C@H](C(=O)NCc3cccnc3)C2)CC1)NCCCCCCNC(=O)c1ccc(-c2c3nc(c(-c4cc(S(=O)(=O)[O-])ccc4F)c4ccc([nH]4)c(-c4cc(S(=O)(=O)[O-])ccc4F)c4nc(c(-c5cc(S(=O)(=O)[O-])ccc5F)c5ccc2[nH]5)C=C4)C=C3)cc1
REMARK SMILES IDX 29 1 28 2 27 3 1 4 2 5 3 7 4 8 5 9 6 10 26 11 7 13 25 14
REMARK SMILES IDX 8 15 9 16 10 17 24 18 11 20 13 21 12 22 14 23 15 24 16 25
REMARK SMILES IDX 17 27 18 28 19 29 23 30 20 31 22 32 21 33 30 34 31 35 32 36
REMARK SMILES IDX 33 37 34 38 35 39 36 41 37 42 38 43 99 44 39 45 98 46 40 47
REMARK SMILES IDX 41 48 42 49 92 50 43 51 97 52 91 53 93 54 44 55 96 56 90 57
REMARK SMILES IDX 89 58 45 60 77 61 57 62 76 63 58 64 61 65 75 66 94 67 59 68
REMARK SMILES IDX 60 69 74 71 95 72 62 73 46 74 47 75 55 76 48 77 54 78 56 79
REMARK SMILES IDX 53 80 49 81 50 82 51 83 52 84 78 85 79 86 87 87 80 88 86 89
REMARK SMILES IDX 88 90 85 91 81 92 82 93 83 94 84 95 63 96 64 97 72 98 65 99
REMARK SMILES IDX 71 100 73 101 70 102 66 103 67 104 68 105 69 106
REMARK H PARENT 27 6 5 12 9 19 16 26 34 40 93 59 61 70
REMARK Flexibility Score: inf
ROOT
ATOM      1  C   UNL A   1      39.329  22.930  26.874  1.00  0.00     0.021 C 
ENDROOT
BRANCH   1   2
ATOM      2  C   UNL A   1      38.821  22.342  25.557  1.00  0.00     0.116 C 
BRANCH   2   3
ATOM      3  N   UNL A   1      37.603  21.583  25.743  1.00  0.00    -0.356 N 
ATOM      4  O   UNL A   1      36.605  22.103  23.738  1.00  0.00    -0.275 OA
ATOM      5  C   UNL A   1      36.594  21.513  24.814  1.00  0.00     0.225 C 
ATOM      6  H   UNL A   1      37.490  21.087  26.586  1.00  0.00     0.163 HD
BRANCH   5   7
ATOM      7  C   UNL A   1      35.420  20.653  25.247  1.00  0.00     0.161 C 
BRANCH   7   8
ATOM      8  C   UNL A   1      34.447  21.411  26.151  1.00  0.00     0.272 C 
BRANCH   8   9
ATOM      9  N   UNL A   1      34.149  22.733  25.575  1.00  0.00    -0.334 N 
ATOM     10  C   UNL A   1      33.285  22.645  24.390  1.00  0.00     0.268 C 
ATOM     11  C   UNL A   1      33.565  23.647  26.565  1.00  0.00     0.268 C 
ATOM     12  H   UNL A   1      35.047  23.117  25.279  1.00  0.00     0.348 HD
ATOM     13  C   UNL A   1      33.210  24.008  23.700  1.00  0.00     0.126 C 
ATOM     14  C   UNL A   1      33.537  25.056  25.984  1.00  0.00     0.126 C 
ATOM     15  C   UNL A   1      32.743  25.107  24.670  1.00  0.00     0.195 C 
BRANCH  15  16
ATOM     16  N   UNL A   1      32.785  26.487  24.149  1.00  0.00    -0.331 N 
ATOM     17  C   UNL A   1      33.915  26.797  23.267  1.00  0.00     0.262 C 
ATOM     18  C   UNL A   1      31.515  26.904  23.552  1.00  0.00     0.275 C 
ATOM     19  H   UNL A   1      32.944  27.048  24.986  1.00  0.00     0.348 HD
ATOM     20  C   UNL A   1      34.034  28.300  23.026  1.00  0.00     0.062 C 
ATOM     21  C   UNL A   1      31.474  28.388  23.176  1.00  0.00     0.133 C 
ATOM     22  C   UNL A   1      32.745  28.924  22.517  1.00  0.00     0.025 C 
BRANCH  21  23
ATOM     23  C   UNL A   1      30.841  29.292  24.234  1.00  0.00     0.229 C 
ATOM     24  O   UNL A   1      29.924  30.053  23.892  1.00  0.00    -0.275 OA
ATOM     25  N   UNL A   1      31.174  29.336  25.543  1.00  0.00    -0.352 N 
ATOM     26  H   UNL A   1      30.664  30.010  26.048  1.00  0.00     0.163 HD
BRANCH  25  27
ATOM     27  C   UNL A   1      32.117  28.604  26.363  1.00  0.00     0.153 C 
BRANCH  27  28
ATOM     28  C   UNL A   1      33.273  29.443  26.832  1.00  0.00    -0.010 A 
ATOM     29  C   UNL A   1      34.557  28.899  26.933  1.00  0.00     0.009 A 
ATOM     30  C   UNL A   1      33.123  30.759  27.253  1.00  0.00     0.116 A 
ATOM     31  C   UNL A   1      35.617  29.681  27.382  1.00  0.00     0.020 A 
ATOM     32  N   UNL A   1      34.131  31.541  27.702  1.00  0.00    -0.264 NA
ATOM     33  C   UNL A   1      35.360  30.988  27.745  1.00  0.00     0.111 A 
ENDBRANCH  27  28
ENDBRANCH  25  27
ENDBRANCH  21  23
ENDBRANCH  15  16
ENDBRANCH   8   9
ENDBRANCH   7   8
ENDBRANCH   5   7
ENDBRANCH   2   3
ENDBRANCH   1   2
BRANCH   1  34
ATOM     34  C   UNL A   1      40.784  22.581  27.214  1.00  0.00     0.002 C 
BRANCH  34  35
ATOM     35  C   UNL A   1      40.983  21.251  27.944  1.00  0.00     0.002 C 
BRANCH  35  36
ATOM     36  C   UNL A   1      42.025  20.317  27.334  1.00  0.00     0.021 C 
BRANCH  36  37
ATOM     37  C   UNL A   1      41.702  19.814  25.930  1.00  0.00     0.116 C 
BRANCH  37  38
ATOM     38  N   UNL A   1      42.851  19.233  25.251  1.00  0.00    -0.352 N 
ATOM     39  C   UNL A   1      44.044  19.798  24.865  1.00  0.00     0.251 C 
ATOM     40  H   UNL A   1      42.759  18.278  25.031  1.00  0.00     0.163 HD
ATOM     41  O   UNL A   1      44.827  19.138  24.187  1.00  0.00    -0.269 OA
BRANCH  39  42
ATOM     42  C   UNL A   1      44.360  21.203  25.211  1.00  0.00     0.039 A 
ATOM     43  C   UNL A   1      43.825  22.231  24.426  1.00  0.00     0.014 A 
ATOM     44  C   UNL A   1      45.175  21.513  26.301  1.00  0.00     0.014 A 
ATOM     45  C   UNL A   1      44.042  23.565  24.782  1.00  0.00     0.010 A 
ATOM     46  C   UNL A   1      45.326  22.838  26.701  1.00  0.00     0.010 A 
ATOM     47  C   UNL A   1      44.768  23.878  25.941  1.00  0.00    -0.014 A 
BRANCH  47  48
ATOM     48  C   UNL A   1      45.003  25.284  26.357  1.00  0.00     0.031 A 
ATOM     49  C   UNL A   1      46.372  25.887  26.194  1.00  0.00     0.074 A 
ATOM     50  C   UNL A   1      44.016  25.990  26.942  1.00  0.00     0.049 A 
ATOM     51  N   UNL A   1      46.817  27.057  26.572  1.00  0.00    -0.248 NA
ATOM     52  C   UNL A   1      47.385  25.038  25.549  1.00  0.00     0.031 C 
ATOM     53  C   UNL A   1      42.657  25.503  27.185  1.00  0.00     0.029 A 
ATOM     54  N   UNL A   1      44.007  27.265  27.449  1.00  0.00    -0.354 N 
ATOM     55  C   UNL A   1      48.165  27.079  26.228  1.00  0.00     0.074 A 
ATOM     56  C   UNL A   1      48.475  25.779  25.675  1.00  0.00     0.031 C 
ATOM     57  C   UNL A   1      41.942  26.475  27.775  1.00  0.00     0.029 A 
ATOM     58  C   UNL A   1      42.799  27.638  27.990  1.00  0.00     0.049 A 
ATOM     59  H   UNL A   1      44.794  27.858  27.428  1.00  0.00     0.167 HD
ATOM     60  C   UNL A   1      49.055  28.096  26.343  1.00  0.00     0.034 A 
ATOM     61  C   UNL A   1      42.429  28.783  28.596  1.00  0.00     0.034 A 
ATOM     62  C   UNL A   1      48.723  29.391  26.888  1.00  0.00     0.049 A 
ATOM     63  C   UNL A   1      43.441  29.891  28.739  1.00  0.00     0.074 A 
ATOM     64  C   UNL A   1      49.523  30.515  26.992  1.00  0.00     0.029 A 
ATOM     65  N   UNL A   1      47.490  29.730  27.433  1.00  0.00    -0.354 N 
ATOM     66  N   UNL A   1      44.698  29.919  28.358  1.00  0.00    -0.248 NA
ATOM     67  C   UNL A   1      42.979  31.125  29.385  1.00  0.00     0.031 C 
ATOM     68  C   UNL A   1      48.798  31.509  27.662  1.00  0.00     0.029 A 
ATOM     69  C   UNL A   1      47.520  31.033  27.910  1.00  0.00     0.049 A 
ATOM     70  H   UNL A   1      46.709  29.134  27.476  1.00  0.00     0.167 HD
ATOM     71  C   UNL A   1      45.168  31.186  28.696  1.00  0.00     0.074 A 
ATOM     72  C   UNL A   1      44.053  31.894  29.292  1.00  0.00     0.031 C 
ATOM     73  C   UNL A   1      46.407  31.718  28.526  1.00  0.00     0.034 A 
BRANCH  60  74
ATOM     74  C   UNL A   1      50.473  27.823  25.897  1.00  0.00     0.023 A 
ATOM     75  C   UNL A   1      50.887  28.039  24.570  1.00  0.00     0.031 A 
ATOM     76  C   UNL A   1      51.410  27.281  26.795  1.00  0.00     0.131 A 
ATOM     77  C   UNL A   1      52.161  27.624  24.154  1.00  0.00     0.055 A 
ATOM     78  C   UNL A   1      52.708  26.955  26.396  1.00  0.00     0.041 A 
ATOM     79  F   UNL A   1      51.072  27.032  28.069  1.00  0.00    -0.206 F 
ATOM     80  C   UNL A   1      53.085  27.106  25.065  1.00  0.00     0.022 A 
BRANCH  77  81
ATOM     81  S   UNL A   1      52.527  27.604  22.378  1.00  0.00     0.124 S 
ATOM     82  O   UNL A   1      53.146  26.290  22.219  1.00  0.00    -0.237 OA
ATOM     83  O   UNL A   1      51.205  27.764  21.783  1.00  0.00    -0.237 OA
ATOM     84  O   UNL A   1      53.433  28.736  22.201  1.00  0.00    -0.744 OA
ENDBRANCH  77  81
ENDBRANCH  60  74
BRANCH  61  85
ATOM     85  C   UNL A   1      41.043  28.950  29.117  1.00  0.00     0.023 A 
ATOM     86  C   UNL A   1      40.770  28.819  30.489  1.00  0.00     0.031 A 
ATOM     87  C   UNL A   1      39.965  29.205  28.250  1.00  0.00     0.131 A 
ATOM     88  C   UNL A   1      39.447  28.902  30.949  1.00  0.00     0.055 A 
ATOM     89  C   UNL A   1      38.657  29.334  28.720  1.00  0.00     0.041 A 
ATOM     90  F   UNL A   1      40.173  29.344  26.931  1.00  0.00    -0.206 F 
ATOM     91  C   UNL A   1      38.391  29.171  30.077  1.00  0.00     0.022 A 
BRANCH  88  92
ATOM     92  S   UNL A   1      39.118  28.586  32.705  1.00  0.00     0.124 S 
ATOM     93  O   UNL A   1      40.469  28.490  33.248  1.00  0.00    -0.237 OA
ATOM     94  O   UNL A   1      38.354  29.769  33.089  1.00  0.00    -0.237 OA
ATOM     95  O   UNL A   1      38.361  27.337  32.690  1.00  0.00    -0.744 OA
ENDBRANCH  88  92
ENDBRANCH  61  85
BRANCH  73  96
ATOM     96  C   UNL A   1      46.598  33.149  28.969  1.00  0.00     0.023 A 
ATOM     97  C   UNL A   1      46.399  34.227  28.088  1.00  0.00     0.031 A 
ATOM     98  C   UNL A   1      47.018  33.436  30.280  1.00  0.00     0.131 A 
ATOM     99  C   UNL A   1      46.684  35.535  28.509  1.00  0.00     0.055 A 
ATOM    100  C   UNL A   1      47.237  34.744  30.713  1.00  0.00     0.041 A 
ATOM    101  F   UNL A   1      47.227  32.446  31.163  1.00  0.00    -0.206 F 
ATOM    102  C   UNL A   1      47.086  35.802  29.820  1.00  0.00     0.022 A 
BRANCH  99 103
ATOM    103  S   UNL A   1      46.631  36.873  27.286  1.00  0.00     0.124 S 
ATOM    104  O   UNL A   1      46.306  36.151  26.060  1.00  0.00    -0.237 OA
ATOM    105  O   UNL A   1      45.579  37.736  27.814  1.00  0.00    -0.237 OA
ATOM    106  O   UNL A   1      47.979  37.438  27.335  1.00  0.00    -0.744 OA
ENDBRANCH  99 103
ENDBRANCH  73  96
ENDBRANCH  47  48
ENDBRANCH  39  42
ENDBRANCH  37  38
ENDBRANCH  36  37
ENDBRANCH  35  36
ENDBRANCH  34  35
ENDBRANCH   1  34
TORSDOF 22
ENDMDL
