MODEL 1
REMARK VINA RESULT:     -11.8      0.000      0.000
REMARK SMILES Cc1ccccc1C(=O)Nc1ccc(N2CCC(n3c(C)nc4cccnc43)CC2)c(C(=O)NCCCCCCNC(=O)c2ccc(-c3c4nc(c(-c5cc(S(=O)(=O)[O-])ccc5F)c5ccc([nH]5)c(-c5cc(S(=O)(=O)[O-])ccc5F)c5nc(c(-c6cc(S(=O)(=O)[O-])ccc6F)c6ccc3[nH]6)C=C5)C=C4)cc2)c1
REMARK SMILES IDX 38 1 37 2 36 3 35 4 34 5 32 6 33 7 31 9 11 10 12 11 107 12
REMARK SMILES IDX 13 13 14 14 10 15 8 16 9 17 7 19 1 20 2 21 3 22 4 23 6 24
REMARK SMILES IDX 5 25 15 26 16 27 30 28 17 29 29 30 18 31 19 32 20 33 28 34
REMARK SMILES IDX 21 35 22 36 23 37 27 38 24 39 26 40 25 41 39 42 40 43 41 44
REMARK SMILES IDX 42 45 43 47 44 48 45 49 106 50 46 51 105 52 47 53 48 54
REMARK SMILES IDX 49 55 99 56 50 57 104 58 98 59 100 60 51 61 103 62 97 63
REMARK SMILES IDX 96 64 52 66 84 67 64 68 83 69 65 70 68 71 82 72 101 73 66 74
REMARK SMILES IDX 67 75 81 77 102 78 69 79 53 80 54 81 62 82 55 83 61 84 63 85
REMARK SMILES IDX 60 86 56 87 57 88 58 89 59 90 85 91 86 92 94 93 87 94 93 95
REMARK SMILES IDX 95 96 92 97 88 98 89 99 90 100 91 101 70 102 71 103 79 104
REMARK SMILES IDX 72 105 78 106 80 107 77 108 73 109 74 110 75 111 76 112
REMARK H PARENT 34 8 10 18 41 46 100 65 68 76
REMARK Flexibility Score: inf
ROOT
ATOM      1  C   UNL A   1      44.291  24.824  37.556  1.00  0.00     0.002 C 
ENDROOT
BRANCH   1   2
ATOM      2  C   UNL A   1      45.827  24.828  37.521  1.00  0.00     0.002 C 
BRANCH   2   3
ATOM      3  C   UNL A   1      46.574  23.520  37.221  1.00  0.00     0.021 C 
BRANCH   3   4
ATOM      4  C   UNL A   1      46.512  22.427  38.281  1.00  0.00     0.116 C 
BRANCH   4   5
ATOM      5  N   UNL A   1      46.003  21.145  37.847  1.00  0.00    -0.352 N 
ATOM      6  C   UNL A   1      46.533  19.884  37.995  1.00  0.00     0.253 C 
ATOM      7  O   UNL A   1      45.834  18.931  37.633  1.00  0.00    -0.269 OA
ATOM      8  H   UNL A   1      45.143  21.180  37.372  1.00  0.00     0.163 HD
BRANCH   6   9
ATOM      9  C   UNL A   1      47.911  19.580  38.515  1.00  0.00     0.065 A 
ATOM     10  C   UNL A   1      50.209  19.202  37.759  1.00  0.00     0.042 A 
ATOM     11  C   UNL A   1      50.602  18.899  39.050  1.00  0.00     0.028 A 
ATOM     12  C   UNL A   1      48.921  19.691  37.528  1.00  0.00     0.042 A 
ATOM     13  C   UNL A   1      49.636  18.840  40.051  1.00  0.00     0.029 A 
ATOM     14  C   UNL A   1      48.261  19.020  39.767  1.00  0.00     0.050 A 
BRANCH  10  15
ATOM     15  N   UNL A   1      51.004  18.903  36.645  1.00  0.00    -0.322 N 
ATOM     16  C   UNL A   1      51.143  19.583  35.449  1.00  0.00     0.255 C 
ATOM     17  O   UNL A   1      51.786  19.050  34.540  1.00  0.00    -0.269 OA
ATOM     18  H   UNL A   1      51.545  18.085  36.725  1.00  0.00     0.170 HD
BRANCH  16  19
ATOM     19  C   UNL A   1      50.620  20.969  35.208  1.00  0.00     0.043 A 
ATOM     20  C   UNL A   1      48.464  20.313  33.945  1.00  0.00     0.045 C 
ATOM     21  C   UNL A   1      49.432  21.303  34.522  1.00  0.00    -0.038 A 
ATOM     22  C   UNL A   1      49.081  22.663  34.377  1.00  0.00     0.004 A 
ATOM     23  C   UNL A   1      49.816  23.669  34.998  1.00  0.00     0.000 A 
ATOM     24  C   UNL A   1      51.329  21.999  35.857  1.00  0.00     0.014 A 
ATOM     25  C   UNL A   1      50.923  23.334  35.765  1.00  0.00     0.001 A 
ENDBRANCH  16  19
ENDBRANCH  10  15
BRANCH  14  26
ATOM     26  N   UNL A   1      47.386  18.373  40.641  1.00  0.00    -0.371 N 
ATOM     27  C   UNL A   1      47.700  17.034  41.126  1.00  0.00     0.118 C 
ATOM     28  C   UNL A   1      46.267  19.142  41.169  1.00  0.00     0.118 C 
ATOM     29  C   UNL A   1      46.453  16.228  41.463  1.00  0.00     0.047 C 
ATOM     30  C   UNL A   1      45.048  18.261  41.373  1.00  0.00     0.047 C 
ATOM     31  C   UNL A   1      45.396  17.044  42.235  1.00  0.00     0.094 C 
BRANCH  31  32
ATOM     32  N   UNL A   1      44.274  16.234  42.728  1.00  0.00    -0.310 N 
ATOM     33  C   UNL A   1      43.937  15.826  44.014  1.00  0.00     0.108 A 
ATOM     34  C   UNL A   1      43.410  15.564  41.875  1.00  0.00     0.160 A 
ATOM     35  C   UNL A   1      44.551  16.271  45.292  1.00  0.00     0.088 C 
ATOM     36  N   UNL A   1      42.955  14.940  43.998  1.00  0.00    -0.232 NA
ATOM     37  C   UNL A   1      42.629  14.761  42.689  1.00  0.00     0.108 A 
ATOM     38  N   UNL A   1      43.329  15.662  40.531  1.00  0.00    -0.237 NA
ATOM     39  C   UNL A   1      41.671  13.937  42.088  1.00  0.00     0.034 A 
ATOM     40  C   UNL A   1      42.345  14.900  40.001  1.00  0.00     0.113 A 
ATOM     41  C   UNL A   1      41.528  14.025  40.704  1.00  0.00     0.022 A 
ENDBRANCH  31  32
ENDBRANCH  14  26
ENDBRANCH   6   9
ENDBRANCH   4   5
ENDBRANCH   3   4
ENDBRANCH   2   3
ENDBRANCH   1   2
BRANCH   1  42
ATOM     42  C   UNL A   1      43.571  25.439  36.355  1.00  0.00     0.021 C 
BRANCH  42  43
ATOM     43  C   UNL A   1      42.868  24.459  35.416  1.00  0.00     0.116 C 
BRANCH  43  44
ATOM     44  N   UNL A   1      43.439  23.105  35.411  1.00  0.00    -0.352 N 
ATOM     45  C   UNL A   1      44.419  22.580  34.577  1.00  0.00     0.251 C 
ATOM     46  H   UNL A   1      43.080  22.489  36.088  1.00  0.00     0.163 HD
ATOM     47  O   UNL A   1      44.944  21.494  34.746  1.00  0.00    -0.269 OA
BRANCH  45  48
ATOM     48  C   UNL A   1      44.886  23.446  33.471  1.00  0.00     0.039 A 
ATOM     49  C   UNL A   1      45.965  24.294  33.723  1.00  0.00     0.014 A 
ATOM     50  C   UNL A   1      44.009  23.682  32.419  1.00  0.00     0.014 A 
ATOM     51  C   UNL A   1      45.990  25.541  33.106  1.00  0.00     0.010 A 
ATOM     52  C   UNL A   1      44.005  24.940  31.836  1.00  0.00     0.010 A 
ATOM     53  C   UNL A   1      44.924  25.900  32.270  1.00  0.00    -0.014 A 
BRANCH  53  54
ATOM     54  C   UNL A   1      44.560  27.303  32.074  1.00  0.00     0.031 A 
ATOM     55  C   UNL A   1      43.659  27.994  33.008  1.00  0.00     0.074 A 
ATOM     56  C   UNL A   1      44.972  27.971  30.971  1.00  0.00     0.049 A 
ATOM     57  N   UNL A   1      42.668  28.732  32.630  1.00  0.00    -0.248 NA
ATOM     58  C   UNL A   1      43.811  27.891  34.452  1.00  0.00     0.031 C 
ATOM     59  C   UNL A   1      44.747  29.384  30.667  1.00  0.00     0.029 A 
ATOM     60  N   UNL A   1      45.482  27.447  29.781  1.00  0.00    -0.354 N 
ATOM     61  C   UNL A   1      42.219  29.398  33.744  1.00  0.00     0.074 A 
ATOM     62  C   UNL A   1      42.902  28.782  34.864  1.00  0.00     0.031 C 
ATOM     63  C   UNL A   1      44.803  29.546  29.336  1.00  0.00     0.029 A 
ATOM     64  C   UNL A   1      44.978  28.232  28.735  1.00  0.00     0.049 A 
ATOM     65  H   UNL A   1      46.083  26.672  29.693  1.00  0.00     0.167 HD
ATOM     66  C   UNL A   1      41.443  30.512  33.627  1.00  0.00     0.034 A 
ATOM     67  C   UNL A   1      44.283  27.740  27.672  1.00  0.00     0.034 A 
ATOM     68  C   UNL A   1      41.276  30.932  32.240  1.00  0.00     0.049 A 
ATOM     69  C   UNL A   1      42.902  28.353  27.531  1.00  0.00     0.074 A 
ATOM     70  C   UNL A   1      41.905  31.916  31.494  1.00  0.00     0.029 A 
ATOM     71  N   UNL A   1      40.561  30.153  31.341  1.00  0.00    -0.354 N 
ATOM     72  N   UNL A   1      42.319  29.085  28.439  1.00  0.00    -0.248 NA
ATOM     73  C   UNL A   1      42.039  28.100  26.379  1.00  0.00     0.031 C 
ATOM     74  C   UNL A   1      41.589  31.705  30.131  1.00  0.00     0.029 A 
ATOM     75  C   UNL A   1      40.756  30.603  30.047  1.00  0.00     0.049 A 
ATOM     76  H   UNL A   1      39.993  29.386  31.589  1.00  0.00     0.167 HD
ATOM     77  C   UNL A   1      41.014  29.317  28.069  1.00  0.00     0.074 A 
ATOM     78  C   UNL A   1      40.909  28.724  26.749  1.00  0.00     0.031 C 
ATOM     79  C   UNL A   1      40.128  29.942  28.909  1.00  0.00     0.034 A 
BRANCH  66  80
ATOM     80  C   UNL A   1      41.133  31.401  34.807  1.00  0.00     0.023 A 
ATOM     81  C   UNL A   1      39.919  31.250  35.505  1.00  0.00     0.031 A 
ATOM     82  C   UNL A   1      41.986  32.423  35.269  1.00  0.00     0.131 A 
ATOM     83  C   UNL A   1      39.544  32.148  36.520  1.00  0.00     0.055 A 
ATOM     84  C   UNL A   1      41.594  33.348  36.245  1.00  0.00     0.041 A 
ATOM     85  F   UNL A   1      43.235  32.552  34.793  1.00  0.00    -0.206 F 
ATOM     86  C   UNL A   1      40.358  33.223  36.865  1.00  0.00     0.022 A 
BRANCH  83  87
ATOM     87  S   UNL A   1      37.965  31.890  37.375  1.00  0.00     0.124 S 
ATOM     88  O   UNL A   1      37.758  30.453  37.218  1.00  0.00    -0.237 OA
ATOM     89  O   UNL A   1      38.267  32.355  38.724  1.00  0.00    -0.237 OA
ATOM     90  O   UNL A   1      37.034  32.732  36.625  1.00  0.00    -0.744 OA
ENDBRANCH  83  87
ENDBRANCH  66  80
BRANCH  67  91
ATOM     91  C   UNL A   1      44.575  26.322  27.321  1.00  0.00     0.023 A 
ATOM     92  C   UNL A   1      43.775  25.288  27.853  1.00  0.00     0.031 A 
ATOM     93  C   UNL A   1      45.419  26.018  26.243  1.00  0.00     0.131 A 
ATOM     94  C   UNL A   1      43.768  24.024  27.242  1.00  0.00     0.055 A 
ATOM     95  C   UNL A   1      45.416  24.756  25.646  1.00  0.00     0.041 A 
ATOM     96  F   UNL A   1      46.163  26.975  25.670  1.00  0.00    -0.206 F 
ATOM     97  C   UNL A   1      44.563  23.764  26.122  1.00  0.00     0.022 A 
BRANCH  94  98
ATOM     98  S   UNL A   1      42.656  22.701  27.805  1.00  0.00     0.124 S 
ATOM     99  O   UNL A   1      42.887  21.662  26.809  1.00  0.00    -0.237 OA
ATOM    100  O   UNL A   1      43.138  22.398  29.149  1.00  0.00    -0.237 OA
ATOM    101  O   UNL A   1      41.348  23.349  27.747  1.00  0.00    -0.744 OA
ENDBRANCH  94  98
ENDBRANCH  67  91
BRANCH  79 102
ATOM    102  C   UNL A   1      38.628  30.079  28.700  1.00  0.00     0.023 A 
ATOM    103  C   UNL A   1      37.941  31.301  28.751  1.00  0.00     0.031 A 
ATOM    104  C   UNL A   1      37.824  28.953  28.390  1.00  0.00     0.131 A 
ATOM    105  C   UNL A   1      36.540  31.369  28.614  1.00  0.00     0.055 A 
ATOM    106  C   UNL A   1      36.441  29.030  28.174  1.00  0.00     0.041 A 
ATOM    107  F   UNL A   1      38.343  27.722  28.274  1.00  0.00    -0.206 F 
ATOM    108  C   UNL A   1      35.785  30.242  28.308  1.00  0.00     0.022 A 
BRANCH 105 109
ATOM    109  S   UNL A   1      35.724  32.956  28.930  1.00  0.00     0.124 S 
ATOM    110  O   UNL A   1      34.827  33.065  27.782  1.00  0.00    -0.237 OA
ATOM    111  O   UNL A   1      35.079  32.724  30.217  1.00  0.00    -0.237 OA
ATOM    112  O   UNL A   1      36.827  33.915  28.948  1.00  0.00    -0.744 OA
ENDBRANCH 105 109
ENDBRANCH  79 102
ENDBRANCH  53  54
ENDBRANCH  45  48
ENDBRANCH  43  44
ENDBRANCH  42  43
ENDBRANCH   1  42
TORSDOF 20
ENDMDL
MODEL 2
REMARK VINA RESULT:     -11.5      4.629     13.655
REMARK SMILES Cc1ccccc1C(=O)Nc1ccc(N2CCC(n3c(C)nc4cccnc43)CC2)c(C(=O)NCCCCCCNC(=O)c2ccc(-c3c4nc(c(-c5cc(S(=O)(=O)[O-])ccc5F)c5ccc([nH]5)c(-c5cc(S(=O)(=O)[O-])ccc5F)c5nc(c(-c6cc(S(=O)(=O)[O-])ccc6F)c6ccc3[nH]6)C=C5)C=C4)cc2)c1
REMARK SMILES IDX 38 1 37 2 36 3 35 4 34 5 32 6 33 7 31 9 11 10 12 11 107 12
REMARK SMILES IDX 13 13 14 14 10 15 8 16 9 17 7 19 1 20 2 21 3 22 4 23 6 24
REMARK SMILES IDX 5 25 15 26 16 27 30 28 17 29 29 30 18 31 19 32 20 33 28 34
REMARK SMILES IDX 21 35 22 36 23 37 27 38 24 39 26 40 25 41 39 42 40 43 41 44
REMARK SMILES IDX 42 45 43 47 44 48 45 49 106 50 46 51 105 52 47 53 48 54
REMARK SMILES IDX 49 55 99 56 50 57 104 58 98 59 100 60 51 61 103 62 97 63
REMARK SMILES IDX 96 64 52 66 84 67 64 68 83 69 65 70 68 71 82 72 101 73 66 74
REMARK SMILES IDX 67 75 81 77 102 78 69 79 53 80 54 81 62 82 55 83 61 84 63 85
REMARK SMILES IDX 60 86 56 87 57 88 58 89 59 90 85 91 86 92 94 93 87 94 93 95
REMARK SMILES IDX 95 96 92 97 88 98 89 99 90 100 91 101 70 102 71 103 79 104
REMARK SMILES IDX 72 105 78 106 80 107 77 108 73 109 74 110 75 111 76 112
REMARK H PARENT 34 8 10 18 41 46 100 65 68 76
REMARK Flexibility Score: inf
ROOT
ATOM      1  C   UNL A   1      44.634  30.464  28.580  1.00  0.00     0.002 C 
ENDROOT
BRANCH   1   2
ATOM      2  C   UNL A   1      43.959  31.033  29.838  1.00  0.00     0.002 C 
BRANCH   2   3
ATOM      3  C   UNL A   1      43.420  32.471  29.814  1.00  0.00     0.021 C 
BRANCH   3   4
ATOM      4  C   UNL A   1      41.915  32.651  29.976  1.00  0.00     0.116 C 
BRANCH   4   5
ATOM      5  N   UNL A   1      41.306  31.958  31.088  1.00  0.00    -0.352 N 
ATOM      6  C   UNL A   1      40.475  30.861  31.104  1.00  0.00     0.253 C 
ATOM      7  O   UNL A   1      40.184  30.388  32.207  1.00  0.00    -0.269 OA
ATOM      8  H   UNL A   1      41.518  32.329  31.974  1.00  0.00     0.163 HD
BRANCH   6   9
ATOM      9  C   UNL A   1      39.858  30.227  29.887  1.00  0.00     0.065 A 
ATOM     10  C   UNL A   1      40.453  29.160  27.765  1.00  0.00     0.042 A 
ATOM     11  C   UNL A   1      39.119  29.086  27.409  1.00  0.00     0.028 A 
ATOM     12  C   UNL A   1      40.800  29.576  29.054  1.00  0.00     0.042 A 
ATOM     13  C   UNL A   1      38.167  29.668  28.241  1.00  0.00     0.029 A 
ATOM     14  C   UNL A   1      38.536  30.384  29.405  1.00  0.00     0.050 A 
BRANCH  10  15
ATOM     15  N   UNL A   1      41.487  28.971  26.839  1.00  0.00    -0.322 N 
ATOM     16  C   UNL A   1      42.172  27.819  26.500  1.00  0.00     0.255 C 
ATOM     17  O   UNL A   1      43.159  27.915  25.765  1.00  0.00    -0.269 OA
ATOM     18  H   UNL A   1      41.770  29.782  26.359  1.00  0.00     0.170 HD
BRANCH  16  19
ATOM     19  C   UNL A   1      41.746  26.440  26.912  1.00  0.00     0.043 A 
ATOM     20  C   UNL A   1      42.700  26.483  29.313  1.00  0.00     0.045 C 
ATOM     21  C   UNL A   1      41.994  25.831  28.161  1.00  0.00    -0.038 A 
ATOM     22  C   UNL A   1      41.527  24.518  28.390  1.00  0.00     0.004 A 
ATOM     23  C   UNL A   1      40.727  23.862  27.458  1.00  0.00     0.000 A 
ATOM     24  C   UNL A   1      40.908  25.772  25.997  1.00  0.00     0.014 A 
ATOM     25  C   UNL A   1      40.392  24.503  26.273  1.00  0.00     0.001 A 
ENDBRANCH  16  19
ENDBRANCH  10  15
BRANCH  14  26
ATOM     26  N   UNL A   1      37.641  31.380  29.797  1.00  0.00    -0.371 N 
ATOM     27  C   UNL A   1      36.605  31.082  30.780  1.00  0.00     0.118 C 
ATOM     28  C   UNL A   1      37.891  32.736  29.326  1.00  0.00     0.118 C 
ATOM     29  C   UNL A   1      35.369  31.953  30.606  1.00  0.00     0.047 C 
ATOM     30  C   UNL A   1      36.589  33.480  29.091  1.00  0.00     0.047 C 
ATOM     31  C   UNL A   1      35.704  33.435  30.341  1.00  0.00     0.094 C 
BRANCH  31  32
ATOM     32  N   UNL A   1      34.529  34.315  30.357  1.00  0.00    -0.310 N 
ATOM     33  C   UNL A   1      33.580  34.590  29.378  1.00  0.00     0.108 A 
ATOM     34  C   UNL A   1      34.277  35.202  31.393  1.00  0.00     0.160 A 
ATOM     35  C   UNL A   1      33.404  33.902  28.073  1.00  0.00     0.088 C 
ATOM     36  N   UNL A   1      32.795  35.594  29.734  1.00  0.00    -0.232 NA
ATOM     37  C   UNL A   1      33.220  35.987  30.965  1.00  0.00     0.108 A 
ATOM     38  N   UNL A   1      34.916  35.295  32.579  1.00  0.00    -0.237 NA
ATOM     39  C   UNL A   1      32.763  37.005  31.810  1.00  0.00     0.034 A 
ATOM     40  C   UNL A   1      34.396  36.245  33.389  1.00  0.00     0.113 A 
ATOM     41  C   UNL A   1      33.371  37.120  33.060  1.00  0.00     0.022 A 
ENDBRANCH  31  32
ENDBRANCH  14  26
ENDBRANCH   6   9
ENDBRANCH   4   5
ENDBRANCH   3   4
ENDBRANCH   2   3
ENDBRANCH   1   2
BRANCH   1  42
ATOM     42  C   UNL A   1      45.050  28.993  28.625  1.00  0.00     0.021 C 
BRANCH  42  43
ATOM     43  C   UNL A   1      46.332  28.678  29.395  1.00  0.00     0.116 C 
BRANCH  43  44
ATOM     44  N   UNL A   1      47.435  28.180  28.560  1.00  0.00    -0.352 N 
ATOM     45  C   UNL A   1      47.987  26.905  28.522  1.00  0.00     0.251 C 
ATOM     46  H   UNL A   1      47.835  28.837  27.947  1.00  0.00     0.163 HD
ATOM     47  O   UNL A   1      48.795  26.540  27.687  1.00  0.00    -0.269 OA
BRANCH  45  48
ATOM     48  C   UNL A   1      47.487  25.934  29.520  1.00  0.00     0.039 A 
ATOM     49  C   UNL A   1      46.298  25.261  29.232  1.00  0.00     0.014 A 
ATOM     50  C   UNL A   1      47.962  26.041  30.823  1.00  0.00     0.014 A 
ATOM     51  C   UNL A   1      45.436  24.956  30.280  1.00  0.00     0.010 A 
ATOM     52  C   UNL A   1      47.086  25.780  31.865  1.00  0.00     0.010 A 
ATOM     53  C   UNL A   1      45.787  25.351  31.578  1.00  0.00    -0.014 A 
BRANCH  53  54
ATOM     54  C   UNL A   1      44.763  25.616  32.588  1.00  0.00     0.031 A 
ATOM     55  C   UNL A   1      44.437  26.989  33.000  1.00  0.00     0.074 A 
ATOM     56  C   UNL A   1      44.156  24.593  33.236  1.00  0.00     0.049 A 
ATOM     57  N   UNL A   1      44.312  27.353  34.233  1.00  0.00    -0.248 NA
ATOM     58  C   UNL A   1      44.237  28.061  32.037  1.00  0.00     0.031 C 
ATOM     59  C   UNL A   1      43.075  24.694  34.215  1.00  0.00     0.029 A 
ATOM     60  N   UNL A   1      44.557  23.257  33.313  1.00  0.00    -0.354 N 
ATOM     61  C   UNL A   1      43.771  28.616  34.224  1.00  0.00     0.074 A 
ATOM     62  C   UNL A   1      43.819  29.046  32.841  1.00  0.00     0.031 C 
ATOM     63  C   UNL A   1      43.111  23.606  35.001  1.00  0.00     0.029 A 
ATOM     64  C   UNL A   1      44.267  22.813  34.610  1.00  0.00     0.049 A 
ATOM     65  H   UNL A   1      44.967  22.727  32.592  1.00  0.00     0.167 HD
ATOM     66  C   UNL A   1      43.178  29.131  35.337  1.00  0.00     0.034 A 
ATOM     67  C   UNL A   1      45.181  22.262  35.456  1.00  0.00     0.034 A 
ATOM     68  C   UNL A   1      43.100  28.163  36.426  1.00  0.00     0.049 A 
ATOM     69  C   UNL A   1      45.310  23.018  36.765  1.00  0.00     0.074 A 
ATOM     70  C   UNL A   1      42.064  27.359  36.871  1.00  0.00     0.029 A 
ATOM     71  N   UNL A   1      44.250  27.711  37.060  1.00  0.00    -0.354 N 
ATOM     72  N   UNL A   1      44.805  24.198  36.992  1.00  0.00    -0.248 NA
ATOM     73  C   UNL A   1      46.107  22.526  37.886  1.00  0.00     0.031 C 
ATOM     74  C   UNL A   1      42.602  26.395  37.756  1.00  0.00     0.029 A 
ATOM     75  C   UNL A   1      43.963  26.621  37.862  1.00  0.00     0.049 A 
ATOM     76  H   UNL A   1      45.145  28.110  36.954  1.00  0.00     0.167 HD
ATOM     77  C   UNL A   1      45.266  24.667  38.202  1.00  0.00     0.074 A 
ATOM     78  C   UNL A   1      46.032  23.558  38.741  1.00  0.00     0.031 C 
ATOM     79  C   UNL A   1      45.005  25.944  38.626  1.00  0.00     0.034 A 
BRANCH  66  80
ATOM     80  C   UNL A   1      42.368  30.404  35.297  1.00  0.00     0.023 A 
ATOM     81  C   UNL A   1      41.043  30.412  35.775  1.00  0.00     0.031 A 
ATOM     82  C   UNL A   1      42.843  31.625  34.780  1.00  0.00     0.131 A 
ATOM     83  C   UNL A   1      40.220  31.543  35.628  1.00  0.00     0.055 A 
ATOM     84  C   UNL A   1      42.012  32.737  34.588  1.00  0.00     0.041 A 
ATOM     85  F   UNL A   1      44.135  31.783  34.451  1.00  0.00    -0.206 F 
ATOM     86  C   UNL A   1      40.687  32.693  34.998  1.00  0.00     0.022 A 
BRANCH  83  87
ATOM     87  S   UNL A   1      38.525  31.479  36.268  1.00  0.00     0.124 S 
ATOM     88  O   UNL A   1      37.818  32.386  35.368  1.00  0.00    -0.237 OA
ATOM     89  O   UNL A   1      38.202  30.063  36.142  1.00  0.00    -0.237 OA
ATOM     90  O   UNL A   1      38.664  31.961  37.642  1.00  0.00    -0.744 OA
ENDBRANCH  83  87
ENDBRANCH  66  80
BRANCH  67  91
ATOM     91  C   UNL A   1      46.334  21.590  34.795  1.00  0.00     0.023 A 
ATOM     92  C   UNL A   1      47.545  22.291  34.614  1.00  0.00     0.031 A 
ATOM     93  C   UNL A   1      46.346  20.196  34.635  1.00  0.00     0.131 A 
ATOM     94  C   UNL A   1      48.735  21.584  34.376  1.00  0.00     0.055 A 
ATOM     95  C   UNL A   1      47.530  19.499  34.388  1.00  0.00     0.041 A 
ATOM     96  F   UNL A   1      45.233  19.478  34.843  1.00  0.00    -0.206 F 
ATOM     97  C   UNL A   1      48.736  20.189  34.293  1.00  0.00     0.022 A 
BRANCH  94  98
ATOM     98  S   UNL A   1      50.340  22.430  34.270  1.00  0.00     0.124 S 
ATOM     99  O   UNL A   1      50.192  23.493  35.258  1.00  0.00    -0.237 OA
ATOM    100  O   UNL A   1      51.301  21.387  34.613  1.00  0.00    -0.237 OA
ATOM    101  O   UNL A   1      50.369  22.868  32.877  1.00  0.00    -0.744 OA
ENDBRANCH  94  98
ENDBRANCH  67  91
BRANCH  79 102
ATOM    102  C   UNL A   1      45.615  26.637  39.835  1.00  0.00     0.023 A 
ATOM    103  C   UNL A   1      44.861  27.244  40.850  1.00  0.00     0.031 A 
ATOM    104  C   UNL A   1      47.019  26.672  40.030  1.00  0.00     0.131 A 
ATOM    105  C   UNL A   1      45.474  27.929  41.917  1.00  0.00     0.055 A 
ATOM    106  C   UNL A   1      47.628  27.284  41.134  1.00  0.00     0.041 A 
ATOM    107  F   UNL A   1      47.869  26.105  39.161  1.00  0.00    -0.206 F 
ATOM    108  C   UNL A   1      46.856  27.939  42.076  1.00  0.00     0.022 A 
BRANCH 105 109
ATOM    109  S   UNL A   1      44.419  28.878  43.045  1.00  0.00     0.124 S 
ATOM    110  O   UNL A   1      43.784  27.817  43.824  1.00  0.00    -0.237 OA
ATOM    111  O   UNL A   1      45.388  29.697  43.764  1.00  0.00    -0.237 OA
ATOM    112  O   UNL A   1      43.525  29.610  42.150  1.00  0.00    -0.744 OA
ENDBRANCH 105 109
ENDBRANCH  79 102
ENDBRANCH  53  54
ENDBRANCH  45  48
ENDBRANCH  43  44
ENDBRANCH  42  43
ENDBRANCH   1  42
TORSDOF 20
ENDMDL
MODEL 3
REMARK VINA RESULT:     -11.4      9.138     12.259
REMARK SMILES Cc1ccccc1C(=O)Nc1ccc(N2CCC(n3c(C)nc4cccnc43)CC2)c(C(=O)NCCCCCCNC(=O)c2ccc(-c3c4nc(c(-c5cc(S(=O)(=O)[O-])ccc5F)c5ccc([nH]5)c(-c5cc(S(=O)(=O)[O-])ccc5F)c5nc(c(-c6cc(S(=O)(=O)[O-])ccc6F)c6ccc3[nH]6)C=C5)C=C4)cc2)c1
REMARK SMILES IDX 38 1 37 2 36 3 35 4 34 5 32 6 33 7 31 9 11 10 12 11 107 12
REMARK SMILES IDX 13 13 14 14 10 15 8 16 9 17 7 19 1 20 2 21 3 22 4 23 6 24
REMARK SMILES IDX 5 25 15 26 16 27 30 28 17 29 29 30 18 31 19 32 20 33 28 34
REMARK SMILES IDX 21 35 22 36 23 37 27 38 24 39 26 40 25 41 39 42 40 43 41 44
REMARK SMILES IDX 42 45 43 47 44 48 45 49 106 50 46 51 105 52 47 53 48 54
REMARK SMILES IDX 49 55 99 56 50 57 104 58 98 59 100 60 51 61 103 62 97 63
REMARK SMILES IDX 96 64 52 66 84 67 64 68 83 69 65 70 68 71 82 72 101 73 66 74
REMARK SMILES IDX 67 75 81 77 102 78 69 79 53 80 54 81 62 82 55 83 61 84 63 85
REMARK SMILES IDX 60 86 56 87 57 88 58 89 59 90 85 91 86 92 94 93 87 94 93 95
REMARK SMILES IDX 95 96 92 97 88 98 89 99 90 100 91 101 70 102 71 103 79 104
REMARK SMILES IDX 72 105 78 106 80 107 77 108 73 109 74 110 75 111 76 112
REMARK H PARENT 34 8 10 18 41 46 100 65 68 76
REMARK Flexibility Score: inf
ROOT
ATOM      1  C   UNL A   1      36.863  29.072  27.915  1.00  0.00     0.002 C 
ENDROOT
BRANCH   1   2
ATOM      2  C   UNL A   1      38.247  29.690  27.663  1.00  0.00     0.002 C 
BRANCH   2   3
ATOM      3  C   UNL A   1      39.491  29.006  28.249  1.00  0.00     0.021 C 
BRANCH   3   4
ATOM      4  C   UNL A   1      40.086  27.848  27.455  1.00  0.00     0.116 C 
BRANCH   4   5
ATOM      5  N   UNL A   1      40.712  28.190  26.199  1.00  0.00    -0.352 N 
ATOM      6  C   UNL A   1      42.040  28.191  25.839  1.00  0.00     0.253 C 
ATOM      7  O   UNL A   1      42.305  28.414  24.654  1.00  0.00    -0.269 OA
ATOM      8  H   UNL A   1      40.091  28.466  25.488  1.00  0.00     0.163 HD
BRANCH   6   9
ATOM      9  C   UNL A   1      43.192  27.990  26.786  1.00  0.00     0.065 A 
ATOM     10  C   UNL A   1      45.308  29.008  27.481  1.00  0.00     0.042 A 
ATOM     11  C   UNL A   1      45.576  27.929  28.303  1.00  0.00     0.028 A 
ATOM     12  C   UNL A   1      44.059  29.108  26.860  1.00  0.00     0.042 A 
ATOM     13  C   UNL A   1      44.708  26.842  28.291  1.00  0.00     0.029 A 
ATOM     14  C   UNL A   1      43.596  26.788  27.417  1.00  0.00     0.050 A 
BRANCH  10  15
ATOM     15  N   UNL A   1      46.289  29.943  27.127  1.00  0.00    -0.322 N 
ATOM     16  C   UNL A   1      47.595  29.743  26.716  1.00  0.00     0.255 C 
ATOM     17  O   UNL A   1      48.334  30.725  26.604  1.00  0.00    -0.269 OA
ATOM     18  H   UNL A   1      46.008  30.884  27.180  1.00  0.00     0.170 HD
BRANCH  16  19
ATOM     19  C   UNL A   1      48.153  28.406  26.323  1.00  0.00     0.043 A 
ATOM     20  C   UNL A   1      46.676  28.009  24.241  1.00  0.00     0.045 C 
ATOM     21  C   UNL A   1      47.735  27.619  25.229  1.00  0.00    -0.038 A 
ATOM     22  C   UNL A   1      48.363  26.375  24.997  1.00  0.00     0.004 A 
ATOM     23  C   UNL A   1      49.462  25.969  25.751  1.00  0.00     0.000 A 
ATOM     24  C   UNL A   1      49.286  27.992  27.051  1.00  0.00     0.014 A 
ATOM     25  C   UNL A   1      49.943  26.793  26.758  1.00  0.00     0.001 A 
ENDBRANCH  16  19
ENDBRANCH  10  15
BRANCH  14  26
ATOM     26  N   UNL A   1      43.185  25.505  27.058  1.00  0.00    -0.371 N 
ATOM     27  C   UNL A   1      42.705  24.582  28.081  1.00  0.00     0.118 C 
ATOM     28  C   UNL A   1      43.093  25.197  25.637  1.00  0.00     0.118 C 
ATOM     29  C   UNL A   1      42.944  23.124  27.709  1.00  0.00     0.047 C 
ATOM     30  C   UNL A   1      43.448  23.745  25.369  1.00  0.00     0.047 C 
ATOM     31  C   UNL A   1      42.601  22.810  26.239  1.00  0.00     0.094 C 
BRANCH  31  32
ATOM     32  N   UNL A   1      42.648  21.378  25.918  1.00  0.00    -0.310 N 
ATOM     33  C   UNL A   1      41.683  20.383  26.034  1.00  0.00     0.108 A 
ATOM     34  C   UNL A   1      43.827  20.730  25.580  1.00  0.00     0.160 A 
ATOM     35  C   UNL A   1      40.243  20.556  26.360  1.00  0.00     0.088 C 
ATOM     36  N   UNL A   1      42.197  19.183  25.820  1.00  0.00    -0.232 NA
ATOM     37  C   UNL A   1      43.517  19.381  25.551  1.00  0.00     0.108 A 
ATOM     38  N   UNL A   1      45.033  21.281  25.325  1.00  0.00    -0.237 NA
ATOM     39  C   UNL A   1      44.538  18.470  25.260  1.00  0.00     0.034 A 
ATOM     40  C   UNL A   1      45.971  20.369  24.982  1.00  0.00     0.113 A 
ATOM     41  C   UNL A   1      45.795  18.993  24.959  1.00  0.00     0.022 A 
ENDBRANCH  31  32
ENDBRANCH  14  26
ENDBRANCH   6   9
ENDBRANCH   4   5
ENDBRANCH   3   4
ENDBRANCH   2   3
ENDBRANCH   1   2
BRANCH   1  42
ATOM     42  C   UNL A   1      35.718  30.042  28.210  1.00  0.00     0.021 C 
BRANCH  42  43
ATOM     43  C   UNL A   1      35.927  31.488  27.762  1.00  0.00     0.116 C 
BRANCH  43  44
ATOM     44  N   UNL A   1      35.352  32.493  28.666  1.00  0.00    -0.352 N 
ATOM     45  C   UNL A   1      36.009  33.454  29.427  1.00  0.00     0.251 C 
ATOM     46  H   UNL A   1      34.371  32.486  28.744  1.00  0.00     0.163 HD
ATOM     47  O   UNL A   1      35.443  34.349  30.028  1.00  0.00    -0.269 OA
BRANCH  45  48
ATOM     48  C   UNL A   1      37.489  33.405  29.425  1.00  0.00     0.039 A 
ATOM     49  C   UNL A   1      38.100  32.230  29.865  1.00  0.00     0.014 A 
ATOM     50  C   UNL A   1      38.177  34.613  29.396  1.00  0.00     0.014 A 
ATOM     51  C   UNL A   1      39.302  32.325  30.557  1.00  0.00     0.010 A 
ATOM     52  C   UNL A   1      39.351  34.717  30.124  1.00  0.00     0.010 A 
ATOM     53  C   UNL A   1      39.843  33.595  30.797  1.00  0.00    -0.014 A 
BRANCH  53  54
ATOM     54  C   UNL A   1      40.707  33.840  31.952  1.00  0.00     0.031 A 
ATOM     55  C   UNL A   1      40.154  34.314  33.229  1.00  0.00     0.074 A 
ATOM     56  C   UNL A   1      42.052  33.725  31.841  1.00  0.00     0.049 A 
ATOM     57  N   UNL A   1      40.667  35.283  33.913  1.00  0.00    -0.248 NA
ATOM     58  C   UNL A   1      38.963  33.726  33.826  1.00  0.00     0.031 C 
ATOM     59  C   UNL A   1      43.035  33.871  32.913  1.00  0.00     0.029 A 
ATOM     60  N   UNL A   1      42.824  33.681  30.678  1.00  0.00    -0.354 N 
ATOM     61  C   UNL A   1      40.047  35.278  35.140  1.00  0.00     0.074 A 
ATOM     62  C   UNL A   1      38.941  34.350  35.009  1.00  0.00     0.031 C 
ATOM     63  C   UNL A   1      44.210  34.222  32.366  1.00  0.00     0.029 A 
ATOM     64  C   UNL A   1      44.000  34.397  30.937  1.00  0.00     0.049 A 
ATOM     65  H   UNL A   1      42.587  33.231  29.835  1.00  0.00     0.167 HD
ATOM     66  C   UNL A   1      40.601  35.918  36.206  1.00  0.00     0.034 A 
ATOM     67  C   UNL A   1      44.442  35.444  30.186  1.00  0.00     0.034 A 
ATOM     68  C   UNL A   1      41.920  36.466  35.904  1.00  0.00     0.049 A 
ATOM     69  C   UNL A   1      44.615  36.719  30.990  1.00  0.00     0.074 A 
ATOM     70  C   UNL A   1      43.196  35.998  36.173  1.00  0.00     0.029 A 
ATOM     71  N   UNL A   1      42.066  37.514  35.004  1.00  0.00    -0.354 N 
ATOM     72  N   UNL A   1      44.171  36.897  32.203  1.00  0.00    -0.248 NA
ATOM     73  C   UNL A   1      45.228  37.925  30.438  1.00  0.00     0.031 C 
ATOM     74  C   UNL A   1      44.113  36.751  35.402  1.00  0.00     0.029 A 
ATOM     75  C   UNL A   1      43.399  37.687  34.676  1.00  0.00     0.049 A 
ATOM     76  H   UNL A   1      41.325  38.057  34.648  1.00  0.00     0.167 HD
ATOM     77  C   UNL A   1      44.332  38.217  32.559  1.00  0.00     0.074 A 
ATOM     78  C   UNL A   1      45.046  38.801  31.439  1.00  0.00     0.031 C 
ATOM     79  C   UNL A   1      43.822  38.714  33.730  1.00  0.00     0.034 A 
BRANCH  66  80
ATOM     80  C   UNL A   1      40.081  35.735  37.611  1.00  0.00     0.023 A 
ATOM     81  C   UNL A   1      39.372  34.568  37.955  1.00  0.00     0.031 A 
ATOM     82  C   UNL A   1      40.233  36.687  38.638  1.00  0.00     0.131 A 
ATOM     83  C   UNL A   1      38.760  34.428  39.213  1.00  0.00     0.055 A 
ATOM     84  C   UNL A   1      39.585  36.573  39.874  1.00  0.00     0.041 A 
ATOM     85  F   UNL A   1      41.028  37.758  38.479  1.00  0.00    -0.206 F 
ATOM     86  C   UNL A   1      38.827  35.445  40.161  1.00  0.00     0.022 A 
BRANCH  83  87
ATOM     87  S   UNL A   1      37.865  32.895  39.583  1.00  0.00     0.124 S 
ATOM     88  O   UNL A   1      38.941  31.998  39.996  1.00  0.00    -0.237 OA
ATOM     89  O   UNL A   1      36.943  33.323  40.630  1.00  0.00    -0.237 OA
ATOM     90  O   UNL A   1      37.235  32.554  38.308  1.00  0.00    -0.744 OA
ENDBRANCH  83  87
ENDBRANCH  66  80
BRANCH  67  91
ATOM     91  C   UNL A   1      43.997  35.441  28.765  1.00  0.00     0.023 A 
ATOM     92  C   UNL A   1      44.620  34.580  27.836  1.00  0.00     0.031 A 
ATOM     93  C   UNL A   1      42.781  36.038  28.402  1.00  0.00     0.131 A 
ATOM     94  C   UNL A   1      43.974  34.269  26.629  1.00  0.00     0.055 A 
ATOM     95  C   UNL A   1      42.149  35.732  27.195  1.00  0.00     0.041 A 
ATOM     96  F   UNL A   1      42.124  36.824  29.266  1.00  0.00    -0.206 F 
ATOM     97  C   UNL A   1      42.727  34.818  26.319  1.00  0.00     0.022 A 
BRANCH  94  98
ATOM     98  S   UNL A   1      44.672  33.062  25.461  1.00  0.00     0.124 S 
ATOM     99  O   UNL A   1      46.069  33.008  25.875  1.00  0.00    -0.237 OA
ATOM    100  O   UNL A   1      43.896  31.853  25.715  1.00  0.00    -0.237 OA
ATOM    101  O   UNL A   1      44.423  33.700  24.170  1.00  0.00    -0.744 OA
ENDBRANCH  94  98
ENDBRANCH  67  91
BRANCH  79 102
ATOM    102  C   UNL A   1      43.761  40.178  34.140  1.00  0.00     0.023 A 
ATOM    103  C   UNL A   1      43.251  41.197  33.323  1.00  0.00     0.031 A 
ATOM    104  C   UNL A   1      44.189  40.598  35.425  1.00  0.00     0.131 A 
ATOM    105  C   UNL A   1      43.275  42.548  33.723  1.00  0.00     0.055 A 
ATOM    106  C   UNL A   1      44.138  41.931  35.855  1.00  0.00     0.041 A 
ATOM    107  F   UNL A   1      44.670  39.734  36.330  1.00  0.00    -0.206 F 
ATOM    108  C   UNL A   1      43.700  42.922  34.993  1.00  0.00     0.022 A 
BRANCH 105 109
ATOM    109  S   UNL A   1      42.812  43.810  32.507  1.00  0.00     0.124 S 
ATOM    110  O   UNL A   1      44.111  44.377  32.156  1.00  0.00    -0.237 OA
ATOM    111  O   UNL A   1      42.165  43.018  31.468  1.00  0.00    -0.237 OA
ATOM    112  O   UNL A   1      41.927  44.702  33.254  1.00  0.00    -0.744 OA
ENDBRANCH 105 109
ENDBRANCH  79 102
ENDBRANCH  53  54
ENDBRANCH  45  48
ENDBRANCH  43  44
ENDBRANCH  42  43
ENDBRANCH   1  42
TORSDOF 20
ENDMDL
