MODEL 1
REMARK VINA RESULT:     -11.4      0.000      0.000
REMARK SMILES C[C@H](NC(=O)N1CCN(/C=C/c2ccccc2)CC1)C(=O)NCCCCCCNC(=O)c1ccc(-c2c3nc(c(-c4cc(S(=O)(=O)[O-])ccc4F)c4ccc([nH]4)c(-c4cc(S(=O)(=O)[O-])ccc4F)c4nc(c(-c5cc(S(=O)(=O)[O-])ccc5F)c5ccc2[nH]5)C=C4)C=C3)cc1
REMARK SMILES IDX 25 1 24 2 23 3 22 4 20 5 21 6 2 8 1 9 3 10 4 11 5 13 6 14
REMARK SMILES IDX 7 15 19 16 8 17 18 18 9 19 10 20 11 21 12 22 13 23 17 24
REMARK SMILES IDX 14 25 16 26 15 27 26 28 27 29 28 30 29 31 30 32 31 34 32 35
REMARK SMILES IDX 33 36 94 37 34 38 93 39 35 40 36 41 37 42 87 43 38 44 92 45
REMARK SMILES IDX 86 46 88 47 39 48 91 49 85 50 84 51 40 53 72 54 52 55 71 56
REMARK SMILES IDX 53 57 56 58 70 59 89 60 54 61 55 62 69 64 90 65 57 66 41 67
REMARK SMILES IDX 42 68 50 69 43 70 49 71 51 72 48 73 44 74 45 75 46 76 47 77
REMARK SMILES IDX 73 78 74 79 82 80 75 81 81 82 83 83 80 84 76 85 77 86 78 87
REMARK SMILES IDX 79 88 58 89 59 90 67 91 60 92 66 93 68 94 65 95 61 96 62 97
REMARK SMILES IDX 63 98 64 99
REMARK H PARENT 22 7 3 12 29 33 88 52 56 63
REMARK Flexibility Score: inf
ROOT
ATOM      1  C   UNL A   1      31.788  28.991  25.604  1.00  0.00     0.002 C 
ENDROOT
BRANCH   1   2
ATOM      2  C   UNL A   1      33.176  28.739  25.003  1.00  0.00     0.021 C 
BRANCH   2   3
ATOM      3  C   UNL A   1      33.386  27.292  24.572  1.00  0.00     0.116 C 
BRANCH   3   4
ATOM      4  N   UNL A   1      32.117  26.586  24.549  1.00  0.00    -0.354 N 
ATOM      5  C   UNL A   1      31.832  25.303  24.191  1.00  0.00     0.242 C 
ATOM      6  O   UNL A   1      30.652  24.944  24.210  1.00  0.00    -0.273 OA
ATOM      7  H   UNL A   1      31.342  27.117  24.839  1.00  0.00     0.163 HD
BRANCH   5   8
ATOM      8  C   UNL A   1      32.961  24.294  23.911  1.00  0.00     0.170 C 
ATOM      9  C   UNL A   1      33.292  24.434  22.431  1.00  0.00     0.041 C 
BRANCH   8  10
ATOM     10  N   UNL A   1      32.637  22.976  24.474  1.00  0.00    -0.326 N 
ATOM     11  C   UNL A   1      33.358  21.905  24.862  1.00  0.00     0.318 C 
ATOM     12  H   UNL A   1      31.668  22.844  24.594  1.00  0.00     0.166 HD
ATOM     13  O   UNL A   1      32.832  20.800  24.721  1.00  0.00    -0.249 OA
ATOM     14  N   UNL A   1      34.626  22.054  25.320  1.00  0.00    -0.321 N 
ATOM     15  C   UNL A   1      35.553  20.926  25.235  1.00  0.00     0.143 C 
ATOM     16  C   UNL A   1      35.038  23.054  26.301  1.00  0.00     0.143 C 
ATOM     17  C   UNL A   1      36.957  21.417  24.856  1.00  0.00     0.137 C 
ATOM     18  C   UNL A   1      36.475  23.552  26.071  1.00  0.00     0.137 C 
ATOM     19  N   UNL A   1      37.438  22.463  25.790  1.00  0.00    -0.374 N 
BRANCH  19  20
ATOM     20  C   UNL A   1      38.771  22.623  26.130  1.00  0.00     0.081 C 
ATOM     21  C   UNL A   1      39.759  21.723  26.216  1.00  0.00     0.025 C 
BRANCH  21  22
ATOM     22  C   UNL A   1      41.103  22.068  26.698  1.00  0.00    -0.024 A 
ATOM     23  C   UNL A   1      41.312  22.293  28.063  1.00  0.00     0.008 A 
ATOM     24  C   UNL A   1      42.167  22.271  25.807  1.00  0.00     0.008 A 
ATOM     25  C   UNL A   1      42.567  22.697  28.527  1.00  0.00     0.001 A 
ATOM     26  C   UNL A   1      43.420  22.669  26.271  1.00  0.00     0.001 A 
ATOM     27  C   UNL A   1      43.619  22.885  27.632  1.00  0.00     0.000 A 
ENDBRANCH  21  22
ENDBRANCH  19  20
ENDBRANCH   8  10
ENDBRANCH   5   8
ENDBRANCH   3   4
ENDBRANCH   2   3
ENDBRANCH   1   2
BRANCH   1  28
ATOM     28  C   UNL A   1      31.796  29.825  26.890  1.00  0.00     0.002 C 
BRANCH  28  29
ATOM     29  C   UNL A   1      31.770  31.338  26.667  1.00  0.00     0.021 C 
BRANCH  29  30
ATOM     30  C   UNL A   1      33.002  32.068  27.190  1.00  0.00     0.116 C 
BRANCH  30  31
ATOM     31  N   UNL A   1      32.724  33.470  27.463  1.00  0.00    -0.352 N 
ATOM     32  C   UNL A   1      33.237  34.275  28.447  1.00  0.00     0.251 C 
ATOM     33  H   UNL A   1      32.078  33.899  26.857  1.00  0.00     0.163 HD
ATOM     34  O   UNL A   1      32.728  35.372  28.669  1.00  0.00    -0.269 OA
BRANCH  32  35
ATOM     35  C   UNL A   1      34.382  33.801  29.251  1.00  0.00     0.039 A 
ATOM     36  C   UNL A   1      34.154  32.895  30.289  1.00  0.00     0.014 A 
ATOM     37  C   UNL A   1      35.680  34.240  28.969  1.00  0.00     0.014 A 
ATOM     38  C   UNL A   1      35.237  32.385  31.008  1.00  0.00     0.010 A 
ATOM     39  C   UNL A   1      36.761  33.672  29.635  1.00  0.00     0.010 A 
ATOM     40  C   UNL A   1      36.551  32.740  30.663  1.00  0.00    -0.014 A 
BRANCH  40  41
ATOM     41  C   UNL A   1      37.718  32.148  31.369  1.00  0.00     0.031 A 
ATOM     42  C   UNL A   1      38.531  31.067  30.706  1.00  0.00     0.074 A 
ATOM     43  C   UNL A   1      38.006  32.541  32.627  1.00  0.00     0.049 A 
ATOM     44  N   UNL A   1      39.539  30.382  31.181  1.00  0.00    -0.248 NA
ATOM     45  C   UNL A   1      38.142  30.690  29.338  1.00  0.00     0.031 C 
ATOM     46  C   UNL A   1      37.268  33.556  33.385  1.00  0.00     0.029 A 
ATOM     47  N   UNL A   1      38.988  32.133  33.495  1.00  0.00    -0.354 N 
ATOM     48  C   UNL A   1      39.891  29.481  30.182  1.00  0.00     0.074 A 
ATOM     49  C   UNL A   1      38.957  29.675  29.094  1.00  0.00     0.031 C 
ATOM     50  C   UNL A   1      37.841  33.710  34.589  1.00  0.00     0.029 A 
ATOM     51  C   UNL A   1      38.949  32.769  34.716  1.00  0.00     0.049 A 
ATOM     52  H   UNL A   1      39.658  31.449  33.266  1.00  0.00     0.167 HD
ATOM     53  C   UNL A   1      40.909  28.587  30.170  1.00  0.00     0.034 A 
ATOM     54  C   UNL A   1      39.708  32.599  35.818  1.00  0.00     0.034 A 
ATOM     55  C   UNL A   1      41.843  28.423  31.257  1.00  0.00     0.049 A 
ATOM     56  C   UNL A   1      40.815  31.573  35.786  1.00  0.00     0.074 A 
ATOM     57  C   UNL A   1      42.958  27.603  31.316  1.00  0.00     0.029 A 
ATOM     58  N   UNL A   1      41.767  29.077  32.480  1.00  0.00    -0.354 N 
ATOM     59  N   UNL A   1      41.179  30.780  34.804  1.00  0.00    -0.248 NA
ATOM     60  C   UNL A   1      41.620  31.426  37.006  1.00  0.00     0.031 C 
ATOM     61  C   UNL A   1      43.501  27.695  32.600  1.00  0.00     0.029 A 
ATOM     62  C   UNL A   1      42.788  28.643  33.314  1.00  0.00     0.049 A 
ATOM     63  H   UNL A   1      41.090  29.749  32.720  1.00  0.00     0.167 HD
ATOM     64  C   UNL A   1      42.281  30.072  35.278  1.00  0.00     0.074 A 
ATOM     65  C   UNL A   1      42.529  30.543  36.623  1.00  0.00     0.031 C 
ATOM     66  C   UNL A   1      43.024  29.121  34.656  1.00  0.00     0.034 A 
BRANCH  53  67
ATOM     67  C   UNL A   1      41.048  27.689  28.963  1.00  0.00     0.023 A 
ATOM     68  C   UNL A   1      42.044  27.891  27.994  1.00  0.00     0.031 A 
ATOM     69  C   UNL A   1      40.169  26.605  28.788  1.00  0.00     0.131 A 
ATOM     70  C   UNL A   1      42.103  27.059  26.865  1.00  0.00     0.055 A 
ATOM     71  C   UNL A   1      40.282  25.733  27.704  1.00  0.00     0.041 A 
ATOM     72  F   UNL A   1      39.182  26.376  29.668  1.00  0.00    -0.206 F 
ATOM     73  C   UNL A   1      41.246  25.964  26.728  1.00  0.00     0.022 A 
BRANCH  70  74
ATOM     74  S   UNL A   1      43.232  27.501  25.517  1.00  0.00     0.124 S 
ATOM     75  O   UNL A   1      44.109  28.468  26.171  1.00  0.00    -0.237 OA
ATOM     76  O   UNL A   1      43.836  26.217  25.177  1.00  0.00    -0.237 OA
ATOM     77  O   UNL A   1      42.347  28.063  24.498  1.00  0.00    -0.744 OA
ENDBRANCH  70  74
ENDBRANCH  53  67
BRANCH  54  78
ATOM     78  C   UNL A   1      39.450  33.394  37.056  1.00  0.00     0.023 A 
ATOM     79  C   UNL A   1      40.187  34.556  37.335  1.00  0.00     0.031 A 
ATOM     80  C   UNL A   1      38.521  32.960  38.020  1.00  0.00     0.131 A 
ATOM     81  C   UNL A   1      40.036  35.203  38.572  1.00  0.00     0.055 A 
ATOM     82  C   UNL A   1      38.324  33.647  39.219  1.00  0.00     0.041 A 
ATOM     83  F   UNL A   1      37.788  31.855  37.809  1.00  0.00    -0.206 F 
ATOM     84  C   UNL A   1      39.098  34.766  39.509  1.00  0.00     0.022 A 
BRANCH  81  85
ATOM     85  S   UNL A   1      41.180  36.548  38.991  1.00  0.00     0.124 S 
ATOM     86  O   UNL A   1      42.226  36.367  37.991  1.00  0.00    -0.237 OA
ATOM     87  O   UNL A   1      40.333  37.725  38.830  1.00  0.00    -0.237 OA
ATOM     88  O   UNL A   1      41.570  36.245  40.367  1.00  0.00    -0.744 OA
ENDBRANCH  81  85
ENDBRANCH  54  78
BRANCH  66  89
ATOM     89  C   UNL A   1      44.214  28.572  35.408  1.00  0.00     0.023 A 
ATOM     90  C   UNL A   1      44.092  27.513  36.324  1.00  0.00     0.031 A 
ATOM     91  C   UNL A   1      45.491  29.127  35.206  1.00  0.00     0.131 A 
ATOM     92  C   UNL A   1      45.215  27.081  37.046  1.00  0.00     0.055 A 
ATOM     93  C   UNL A   1      46.616  28.646  35.875  1.00  0.00     0.041 A 
ATOM     94  F   UNL A   1      45.666  30.144  34.347  1.00  0.00    -0.206 F 
ATOM     95  C   UNL A   1      46.480  27.627  36.812  1.00  0.00     0.022 A 
BRANCH  92  96
ATOM     96  S   UNL A   1      44.984  25.863  38.370  1.00  0.00     0.124 S 
ATOM     97  O   UNL A   1      46.298  25.850  39.003  1.00  0.00    -0.237 OA
ATOM     98  O   UNL A   1      43.904  26.454  39.153  1.00  0.00    -0.237 OA
ATOM     99  O   UNL A   1      44.630  24.640  37.652  1.00  0.00    -0.744 OA
ENDBRANCH  92  96
ENDBRANCH  66  89
ENDBRANCH  40  41
ENDBRANCH  32  35
ENDBRANCH  30  31
ENDBRANCH  29  30
ENDBRANCH  28  29
ENDBRANCH   1  28
TORSDOF 19
ENDMDL
MODEL 2
REMARK VINA RESULT:     -11.3      2.485      3.970
REMARK SMILES C[C@H](NC(=O)N1CCN(/C=C/c2ccccc2)CC1)C(=O)NCCCCCCNC(=O)c1ccc(-c2c3nc(c(-c4cc(S(=O)(=O)[O-])ccc4F)c4ccc([nH]4)c(-c4cc(S(=O)(=O)[O-])ccc4F)c4nc(c(-c5cc(S(=O)(=O)[O-])ccc5F)c5ccc2[nH]5)C=C4)C=C3)cc1
REMARK SMILES IDX 25 1 24 2 23 3 22 4 20 5 21 6 2 8 1 9 3 10 4 11 5 13 6 14
REMARK SMILES IDX 7 15 19 16 8 17 18 18 9 19 10 20 11 21 12 22 13 23 17 24
REMARK SMILES IDX 14 25 16 26 15 27 26 28 27 29 28 30 29 31 30 32 31 34 32 35
REMARK SMILES IDX 33 36 94 37 34 38 93 39 35 40 36 41 37 42 87 43 38 44 92 45
REMARK SMILES IDX 86 46 88 47 39 48 91 49 85 50 84 51 40 53 72 54 52 55 71 56
REMARK SMILES IDX 53 57 56 58 70 59 89 60 54 61 55 62 69 64 90 65 57 66 41 67
REMARK SMILES IDX 42 68 50 69 43 70 49 71 51 72 48 73 44 74 45 75 46 76 47 77
REMARK SMILES IDX 73 78 74 79 82 80 75 81 81 82 83 83 80 84 76 85 77 86 78 87
REMARK SMILES IDX 79 88 58 89 59 90 67 91 60 92 66 93 68 94 65 95 61 96 62 97
REMARK SMILES IDX 63 98 64 99
REMARK H PARENT 22 7 3 12 29 33 88 52 56 63
REMARK Flexibility Score: inf
ROOT
ATOM      1  C   UNL A   1      31.846  29.761  25.032  1.00  0.00     0.002 C 
ENDROOT
BRANCH   1   2
ATOM      2  C   UNL A   1      30.696  29.546  24.041  1.00  0.00     0.021 C 
BRANCH   2   3
ATOM      3  C   UNL A   1      30.867  28.292  23.191  1.00  0.00     0.116 C 
BRANCH   3   4
ATOM      4  N   UNL A   1      32.067  28.396  22.379  1.00  0.00    -0.354 N 
ATOM      5  C   UNL A   1      33.212  27.659  22.406  1.00  0.00     0.242 C 
ATOM      6  O   UNL A   1      34.123  27.975  21.637  1.00  0.00    -0.273 OA
ATOM      7  H   UNL A   1      32.050  29.111  21.703  1.00  0.00     0.163 HD
BRANCH   5   8
ATOM      8  C   UNL A   1      33.308  26.384  23.264  1.00  0.00     0.170 C 
ATOM      9  C   UNL A   1      32.464  25.334  22.552  1.00  0.00     0.041 C 
BRANCH   8  10
ATOM     10  N   UNL A   1      33.068  26.687  24.682  1.00  0.00    -0.326 N 
ATOM     11  C   UNL A   1      32.664  25.972  25.752  1.00  0.00     0.318 C 
ATOM     12  H   UNL A   1      33.242  27.632  24.901  1.00  0.00     0.166 HD
ATOM     13  O   UNL A   1      32.007  26.572  26.603  1.00  0.00    -0.249 OA
ATOM     14  N   UNL A   1      32.922  24.643  25.833  1.00  0.00    -0.321 N 
ATOM     15  C   UNL A   1      32.070  23.801  26.671  1.00  0.00     0.143 C 
ATOM     16  C   UNL A   1      34.218  24.035  25.547  1.00  0.00     0.143 C 
ATOM     17  C   UNL A   1      31.823  22.448  25.991  1.00  0.00     0.137 C 
ATOM     18  C   UNL A   1      34.089  22.625  24.944  1.00  0.00     0.137 C 
ATOM     19  N   UNL A   1      33.095  21.776  25.639  1.00  0.00    -0.374 N 
BRANCH  19  20
ATOM     20  C   UNL A   1      33.254  20.400  25.641  1.00  0.00     0.081 C 
ATOM     21  C   UNL A   1      33.590  19.563  24.651  1.00  0.00     0.025 C 
BRANCH  21  22
ATOM     22  C   UNL A   1      33.610  18.104  24.820  1.00  0.00    -0.024 A 
ATOM     23  C   UNL A   1      32.504  17.458  25.382  1.00  0.00     0.008 A 
ATOM     24  C   UNL A   1      34.754  17.350  24.518  1.00  0.00     0.008 A 
ATOM     25  C   UNL A   1      32.538  16.081  25.620  1.00  0.00     0.001 A 
ATOM     26  C   UNL A   1      34.786  15.976  24.752  1.00  0.00     0.001 A 
ATOM     27  C   UNL A   1      33.678  15.342  25.306  1.00  0.00     0.000 A 
ENDBRANCH  21  22
ENDBRANCH  19  20
ENDBRANCH   8  10
ENDBRANCH   5   8
ENDBRANCH   3   4
ENDBRANCH   2   3
ENDBRANCH   1   2
BRANCH   1  28
ATOM     28  C   UNL A   1      31.404  30.210  26.428  1.00  0.00     0.002 C 
BRANCH  28  29
ATOM     29  C   UNL A   1      31.285  31.725  26.602  1.00  0.00     0.021 C 
BRANCH  29  30
ATOM     30  C   UNL A   1      32.622  32.447  26.736  1.00  0.00     0.116 C 
BRANCH  30  31
ATOM     31  N   UNL A   1      32.469  33.761  27.340  1.00  0.00    -0.352 N 
ATOM     32  C   UNL A   1      33.139  34.303  28.406  1.00  0.00     0.251 C 
ATOM     33  H   UNL A   1      31.790  34.341  26.926  1.00  0.00     0.163 HD
ATOM     34  O   UNL A   1      32.732  35.342  28.922  1.00  0.00    -0.269 OA
BRANCH  32  35
ATOM     35  C   UNL A   1      34.332  33.615  28.941  1.00  0.00     0.039 A 
ATOM     36  C   UNL A   1      35.592  34.181  28.734  1.00  0.00     0.014 A 
ATOM     37  C   UNL A   1      34.204  32.421  29.657  1.00  0.00     0.014 A 
ATOM     38  C   UNL A   1      36.718  33.579  29.297  1.00  0.00     0.010 A 
ATOM     39  C   UNL A   1      35.317  31.866  30.281  1.00  0.00     0.010 A 
ATOM     40  C   UNL A   1      36.587  32.438  30.105  1.00  0.00    -0.014 A 
BRANCH  40  41
ATOM     41  C   UNL A   1      37.767  31.828  30.773  1.00  0.00     0.031 A 
ATOM     42  C   UNL A   1      38.598  30.804  30.046  1.00  0.00     0.074 A 
ATOM     43  C   UNL A   1      38.051  32.152  32.051  1.00  0.00     0.049 A 
ATOM     44  N   UNL A   1      39.620  30.111  30.478  1.00  0.00    -0.248 NA
ATOM     45  C   UNL A   1      38.212  30.500  28.658  1.00  0.00     0.031 C 
ATOM     46  C   UNL A   1      37.297  33.106  32.868  1.00  0.00     0.029 A 
ATOM     47  N   UNL A   1      39.044  31.712  32.891  1.00  0.00    -0.354 N 
ATOM     48  C   UNL A   1      39.986  29.277  29.427  1.00  0.00     0.074 A 
ATOM     49  C   UNL A   1      39.045  29.517  28.353  1.00  0.00     0.031 C 
ATOM     50  C   UNL A   1      37.871  33.200  34.079  1.00  0.00     0.029 A 
ATOM     51  C   UNL A   1      38.997  32.274  34.147  1.00  0.00     0.049 A 
ATOM     52  H   UNL A   1      39.725  31.056  32.622  1.00  0.00     0.167 HD
ATOM     53  C   UNL A   1      41.020  28.404  29.360  1.00  0.00     0.034 A 
ATOM     54  C   UNL A   1      39.762  32.055  35.237  1.00  0.00     0.034 A 
ATOM     55  C   UNL A   1      41.961  28.195  30.433  1.00  0.00     0.049 A 
ATOM     56  C   UNL A   1      40.888  31.053  35.142  1.00  0.00     0.074 A 
ATOM     57  C   UNL A   1      43.091  27.394  30.441  1.00  0.00     0.029 A 
ATOM     58  N   UNL A   1      41.877  28.774  31.693  1.00  0.00    -0.354 N 
ATOM     59  N   UNL A   1      41.264  30.326  34.114  1.00  0.00    -0.248 NA
ATOM     60  C   UNL A   1      41.699  30.850  36.349  1.00  0.00     0.031 C 
ATOM     61  C   UNL A   1      43.636  27.421  31.728  1.00  0.00     0.029 A 
ATOM     62  C   UNL A   1      42.907  28.311  32.498  1.00  0.00     0.049 A 
ATOM     63  H   UNL A   1      41.187  29.418  31.973  1.00  0.00     0.167 HD
ATOM     64  C   UNL A   1      42.380  29.612  34.544  1.00  0.00     0.074 A 
ATOM     65  C   UNL A   1      42.624  30.008  35.914  1.00  0.00     0.031 C 
ATOM     66  C   UNL A   1      43.139  28.714  33.865  1.00  0.00     0.034 A 
BRANCH  53  67
ATOM     67  C   UNL A   1      41.172  27.582  28.102  1.00  0.00     0.023 A 
ATOM     68  C   UNL A   1      40.804  26.228  28.046  1.00  0.00     0.031 A 
ATOM     69  C   UNL A   1      41.689  28.172  26.934  1.00  0.00     0.131 A 
ATOM     70  C   UNL A   1      41.009  25.493  26.868  1.00  0.00     0.055 A 
ATOM     71  C   UNL A   1      41.817  27.458  25.742  1.00  0.00     0.041 A 
ATOM     72  F   UNL A   1      42.080  29.456  26.933  1.00  0.00    -0.206 F 
ATOM     73  C   UNL A   1      41.487  26.107  25.707  1.00  0.00     0.022 A 
BRANCH  70  74
ATOM     74  S   UNL A   1      40.761  23.698  26.908  1.00  0.00     0.124 S 
ATOM     75  O   UNL A   1      41.138  23.378  28.282  1.00  0.00    -0.237 OA
ATOM     76  O   UNL A   1      39.345  23.567  26.586  1.00  0.00    -0.237 OA
ATOM     77  O   UNL A   1      41.681  23.201  25.886  1.00  0.00    -0.744 OA
ENDBRANCH  70  74
ENDBRANCH  53  67
BRANCH  54  78
ATOM     78  C   UNL A   1      39.493  32.770  36.520  1.00  0.00     0.023 A 
ATOM     79  C   UNL A   1      38.648  32.212  37.494  1.00  0.00     0.031 A 
ATOM     80  C   UNL A   1      40.008  34.057  36.759  1.00  0.00     0.131 A 
ATOM     81  C   UNL A   1      38.288  32.964  38.623  1.00  0.00     0.055 A 
ATOM     82  C   UNL A   1      39.703  34.772  37.918  1.00  0.00     0.041 A 
ATOM     83  F   UNL A   1      40.821  34.641  35.863  1.00  0.00    -0.206 F 
ATOM     84  C   UNL A   1      38.821  34.234  38.850  1.00  0.00     0.022 A 
BRANCH  81  85
ATOM     85  S   UNL A   1      37.005  32.308  39.726  1.00  0.00     0.124 S 
ATOM     86  O   UNL A   1      35.787  32.716  39.037  1.00  0.00    -0.237 OA
ATOM     87  O   UNL A   1      37.301  30.879  39.717  1.00  0.00    -0.237 OA
ATOM     88  O   UNL A   1      37.266  32.989  40.992  1.00  0.00    -0.744 OA
ENDBRANCH  81  85
ENDBRANCH  54  78
BRANCH  66  89
ATOM     89  C   UNL A   1      44.341  28.144  34.581  1.00  0.00     0.023 A 
ATOM     90  C   UNL A   1      44.282  26.930  35.287  1.00  0.00     0.031 A 
ATOM     91  C   UNL A   1      45.565  28.837  34.560  1.00  0.00     0.131 A 
ATOM     92  C   UNL A   1      45.408  26.475  35.990  1.00  0.00     0.055 A 
ATOM     93  C   UNL A   1      46.701  28.344  35.203  1.00  0.00     0.041 A 
ATOM     94  F   UNL A   1      45.680  30.004  33.907  1.00  0.00    -0.206 F 
ATOM     95  C   UNL A   1      46.622  27.164  35.935  1.00  0.00     0.022 A 
BRANCH  92  96
ATOM     96  S   UNL A   1      45.237  25.021  37.061  1.00  0.00     0.124 S 
ATOM     97  O   UNL A   1      45.207  23.931  36.092  1.00  0.00    -0.237 OA
ATOM     98  O   UNL A   1      46.434  25.104  37.892  1.00  0.00    -0.237 OA
ATOM     99  O   UNL A   1      43.978  25.260  37.764  1.00  0.00    -0.744 OA
ENDBRANCH  92  96
ENDBRANCH  66  89
ENDBRANCH  40  41
ENDBRANCH  32  35
ENDBRANCH  30  31
ENDBRANCH  29  30
ENDBRANCH  28  29
ENDBRANCH   1  28
TORSDOF 19
ENDMDL
MODEL 3
REMARK VINA RESULT:     -10.2      1.941      2.386
REMARK SMILES C[C@H](NC(=O)N1CCN(/C=C/c2ccccc2)CC1)C(=O)NCCCCCCNC(=O)c1ccc(-c2c3nc(c(-c4cc(S(=O)(=O)[O-])ccc4F)c4ccc([nH]4)c(-c4cc(S(=O)(=O)[O-])ccc4F)c4nc(c(-c5cc(S(=O)(=O)[O-])ccc5F)c5ccc2[nH]5)C=C4)C=C3)cc1
REMARK SMILES IDX 25 1 24 2 23 3 22 4 20 5 21 6 2 8 1 9 3 10 4 11 5 13 6 14
REMARK SMILES IDX 7 15 19 16 8 17 18 18 9 19 10 20 11 21 12 22 13 23 17 24
REMARK SMILES IDX 14 25 16 26 15 27 26 28 27 29 28 30 29 31 30 32 31 34 32 35
REMARK SMILES IDX 33 36 94 37 34 38 93 39 35 40 36 41 37 42 87 43 38 44 92 45
REMARK SMILES IDX 86 46 88 47 39 48 91 49 85 50 84 51 40 53 72 54 52 55 71 56
REMARK SMILES IDX 53 57 56 58 70 59 89 60 54 61 55 62 69 64 90 65 57 66 41 67
REMARK SMILES IDX 42 68 50 69 43 70 49 71 51 72 48 73 44 74 45 75 46 76 47 77
REMARK SMILES IDX 73 78 74 79 82 80 75 81 81 82 83 83 80 84 76 85 77 86 78 87
REMARK SMILES IDX 79 88 58 89 59 90 67 91 60 92 66 93 68 94 65 95 61 96 62 97
REMARK SMILES IDX 63 98 64 99
REMARK H PARENT 22 7 3 12 29 33 88 52 56 63
REMARK Flexibility Score: inf
ROOT
ATOM      1  C   UNL A   1      34.667  29.738  26.645  1.00  0.00     0.002 C 
ENDROOT
BRANCH   1   2
ATOM      2  C   UNL A   1      34.361  28.236  26.623  1.00  0.00     0.021 C 
BRANCH   2   3
ATOM      3  C   UNL A   1      32.871  27.929  26.727  1.00  0.00     0.116 C 
BRANCH   3   4
ATOM      4  N   UNL A   1      32.227  28.128  25.440  1.00  0.00    -0.354 N 
ATOM      5  C   UNL A   1      32.322  27.405  24.290  1.00  0.00     0.242 C 
ATOM      6  O   UNL A   1      31.706  27.808  23.299  1.00  0.00    -0.273 OA
ATOM      7  H   UNL A   1      31.629  28.907  25.392  1.00  0.00     0.163 HD
BRANCH   5   8
ATOM      8  C   UNL A   1      33.054  26.051  24.268  1.00  0.00     0.170 C 
ATOM      9  C   UNL A   1      33.709  25.950  22.896  1.00  0.00     0.041 C 
BRANCH   8  10
ATOM     10  N   UNL A   1      32.179  24.973  24.750  1.00  0.00    -0.326 N 
ATOM     11  C   UNL A   1      32.333  23.653  24.975  1.00  0.00     0.318 C 
ATOM     12  H   UNL A   1      31.269  25.289  24.955  1.00  0.00     0.166 HD
ATOM     13  O   UNL A   1      31.344  22.940  24.797  1.00  0.00    -0.249 OA
ATOM     14  N   UNL A   1      33.544  23.145  25.314  1.00  0.00    -0.321 N 
ATOM     15  C   UNL A   1      33.829  21.737  25.044  1.00  0.00     0.143 C 
ATOM     16  C   UNL A   1      34.425  23.718  26.328  1.00  0.00     0.143 C 
ATOM     17  C   UNL A   1      35.278  21.567  24.568  1.00  0.00     0.137 C 
ATOM     18  C   UNL A   1      35.915  23.521  25.997  1.00  0.00     0.137 C 
ATOM     19  N   UNL A   1      36.239  22.154  25.532  1.00  0.00    -0.374 N 
BRANCH  19  20
ATOM     20  C   UNL A   1      37.507  21.641  25.749  1.00  0.00     0.081 C 
ATOM     21  C   UNL A   1      38.657  22.263  26.040  1.00  0.00     0.025 C 
BRANCH  21  22
ATOM     22  C   UNL A   1      39.938  21.552  26.135  1.00  0.00    -0.024 A 
ATOM     23  C   UNL A   1      41.132  22.280  26.194  1.00  0.00     0.008 A 
ATOM     24  C   UNL A   1      40.002  20.151  26.073  1.00  0.00     0.008 A 
ATOM     25  C   UNL A   1      42.362  21.617  26.208  1.00  0.00     0.001 A 
ATOM     26  C   UNL A   1      41.229  19.491  26.091  1.00  0.00     0.001 A 
ATOM     27  C   UNL A   1      42.410  20.224  26.155  1.00  0.00     0.000 A 
ENDBRANCH  21  22
ENDBRANCH  19  20
ENDBRANCH   8  10
ENDBRANCH   5   8
ENDBRANCH   3   4
ENDBRANCH   2   3
ENDBRANCH   1   2
BRANCH   1  28
ATOM     28  C   UNL A   1      33.806  30.547  27.621  1.00  0.00     0.002 C 
BRANCH  28  29
ATOM     29  C   UNL A   1      33.821  32.057  27.381  1.00  0.00     0.021 C 
BRANCH  29  30
ATOM     30  C   UNL A   1      32.473  32.738  27.597  1.00  0.00     0.116 C 
BRANCH  30  31
ATOM     31  N   UNL A   1      32.621  34.167  27.830  1.00  0.00    -0.352 N 
ATOM     32  C   UNL A   1      33.501  34.819  28.655  1.00  0.00     0.251 C 
ATOM     33  H   UNL A   1      32.004  34.744  27.326  1.00  0.00     0.163 HD
ATOM     34  O   UNL A   1      33.343  36.014  28.898  1.00  0.00    -0.269 OA
BRANCH  32  35
ATOM     35  C   UNL A   1      34.618  34.069  29.265  1.00  0.00     0.039 A 
ATOM     36  C   UNL A   1      35.909  34.250  28.767  1.00  0.00     0.014 A 
ATOM     37  C   UNL A   1      34.389  33.199  30.337  1.00  0.00     0.014 A 
ATOM     38  C   UNL A   1      36.982  33.602  29.382  1.00  0.00     0.010 A 
ATOM     39  C   UNL A   1      35.468  32.617  30.995  1.00  0.00     0.010 A 
ATOM     40  C   UNL A   1      36.776  32.810  30.524  1.00  0.00    -0.014 A 
BRANCH  40  41
ATOM     41  C   UNL A   1      37.916  32.174  31.236  1.00  0.00     0.031 A 
ATOM     42  C   UNL A   1      38.677  31.050  30.584  1.00  0.00     0.074 A 
ATOM     43  C   UNL A   1      38.222  32.568  32.488  1.00  0.00     0.049 A 
ATOM     44  N   UNL A   1      39.654  30.325  31.066  1.00  0.00    -0.248 NA
ATOM     45  C   UNL A   1      38.269  30.675  29.221  1.00  0.00     0.031 C 
ATOM     46  C   UNL A   1      37.533  33.624  33.235  1.00  0.00     0.029 A 
ATOM     47  N   UNL A   1      39.187  32.126  33.360  1.00  0.00    -0.354 N 
ATOM     48  C   UNL A   1      39.963  29.398  30.077  1.00  0.00     0.074 A 
ATOM     49  C   UNL A   1      39.037  29.621  28.988  1.00  0.00     0.031 C 
ATOM     50  C   UNL A   1      38.114  33.766  34.437  1.00  0.00     0.029 A 
ATOM     51  C   UNL A   1      39.178  32.777  34.573  1.00  0.00     0.049 A 
ATOM     52  H   UNL A   1      39.824  31.410  33.139  1.00  0.00     0.167 HD
ATOM     53  C   UNL A   1      40.939  28.458  30.075  1.00  0.00     0.034 A 
ATOM     54  C   UNL A   1      39.931  32.586  35.677  1.00  0.00     0.034 A 
ATOM     55  C   UNL A   1      41.867  28.264  31.163  1.00  0.00     0.049 A 
ATOM     56  C   UNL A   1      40.990  31.511  35.655  1.00  0.00     0.074 A 
ATOM     57  C   UNL A   1      42.943  27.396  31.230  1.00  0.00     0.029 A 
ATOM     58  N   UNL A   1      41.823  28.935  32.378  1.00  0.00    -0.354 N 
ATOM     59  N   UNL A   1      41.316  30.690  34.683  1.00  0.00    -0.248 NA
ATOM     60  C   UNL A   1      41.789  31.341  36.876  1.00  0.00     0.031 C 
ATOM     61  C   UNL A   1      43.492  27.478  32.513  1.00  0.00     0.029 A 
ATOM     62  C   UNL A   1      42.823  28.465  33.216  1.00  0.00     0.049 A 
ATOM     63  H   UNL A   1      41.177  29.640  32.611  1.00  0.00     0.167 HD
ATOM     64  C   UNL A   1      42.385  29.938  35.164  1.00  0.00     0.074 A 
ATOM     65  C   UNL A   1      42.657  30.413  36.503  1.00  0.00     0.031 C 
ATOM     66  C   UNL A   1      43.083  28.947  34.552  1.00  0.00     0.034 A 
BRANCH  53  67
ATOM     67  C   UNL A   1      41.036  27.541  28.878  1.00  0.00     0.023 A 
ATOM     68  C   UNL A   1      42.044  27.681  27.910  1.00  0.00     0.031 A 
ATOM     69  C   UNL A   1      40.103  26.501  28.712  1.00  0.00     0.131 A 
ATOM     70  C   UNL A   1      42.063  26.834  26.791  1.00  0.00     0.055 A 
ATOM     71  C   UNL A   1      40.174  25.612  27.638  1.00  0.00     0.041 A 
ATOM     72  F   UNL A   1      39.103  26.333  29.591  1.00  0.00    -0.206 F 
ATOM     73  C   UNL A   1      41.151  25.783  26.662  1.00  0.00     0.022 A 
BRANCH  70  74
ATOM     74  S   UNL A   1      43.217  27.203  25.442  1.00  0.00     0.124 S 
ATOM     75  O   UNL A   1      44.271  27.930  26.144  1.00  0.00    -0.237 OA
ATOM     76  O   UNL A   1      43.571  25.873  24.957  1.00  0.00    -0.237 OA
ATOM     77  O   UNL A   1      42.421  28.011  24.519  1.00  0.00    -0.744 OA
ENDBRANCH  70  74
ENDBRANCH  53  67
BRANCH  54  78
ATOM     78  C   UNL A   1      39.711  33.406  36.906  1.00  0.00     0.023 A 
ATOM     79  C   UNL A   1      39.048  32.870  38.022  1.00  0.00     0.031 A 
ATOM     80  C   UNL A   1      40.085  34.761  36.955  1.00  0.00     0.131 A 
ATOM     81  C   UNL A   1      38.718  33.698  39.106  1.00  0.00     0.055 A 
ATOM     82  C   UNL A   1      39.816  35.563  38.065  1.00  0.00     0.041 A 
ATOM     83  F   UNL A   1      40.721  35.329  35.917  1.00  0.00    -0.206 F 
ATOM     84  C   UNL A   1      39.111  35.037  39.142  1.00  0.00     0.022 A 
BRANCH  81  85
ATOM     85  S   UNL A   1      37.648  33.030  40.411  1.00  0.00     0.124 S 
ATOM     86  O   UNL A   1      38.317  31.772  40.725  1.00  0.00    -0.237 OA
ATOM     87  O   UNL A   1      37.729  34.072  41.430  1.00  0.00    -0.237 OA
ATOM     88  O   UNL A   1      36.350  32.901  39.753  1.00  0.00    -0.744 OA
ENDBRANCH  81  85
ENDBRANCH  54  78
BRANCH  66  89
ATOM     89  C   UNL A   1      44.248  28.354  35.309  1.00  0.00     0.023 A 
ATOM     90  C   UNL A   1      45.531  28.925  35.270  1.00  0.00     0.031 A 
ATOM     91  C   UNL A   1      44.066  27.191  36.079  1.00  0.00     0.131 A 
ATOM     92  C   UNL A   1      46.595  28.301  35.939  1.00  0.00     0.055 A 
ATOM     93  C   UNL A   1      45.113  26.614  36.799  1.00  0.00     0.041 A 
ATOM     94  F   UNL A   1      42.864  26.598  36.151  1.00  0.00    -0.206 F 
ATOM     95  C   UNL A   1      46.390  27.161  36.719  1.00  0.00     0.022 A 
BRANCH  92  96
ATOM     96  S   UNL A   1      48.275  28.942  35.693  1.00  0.00     0.124 S 
ATOM     97  O   UNL A   1      49.095  27.815  36.124  1.00  0.00    -0.237 OA
ATOM     98  O   UNL A   1      48.291  29.234  34.263  1.00  0.00    -0.237 OA
ATOM     99  O   UNL A   1      48.325  30.114  36.565  1.00  0.00    -0.744 OA
ENDBRANCH  92  96
ENDBRANCH  66  89
ENDBRANCH  40  41
ENDBRANCH  32  35
ENDBRANCH  30  31
ENDBRANCH  29  30
ENDBRANCH  28  29
ENDBRANCH   1  28
TORSDOF 19
ENDMDL
