MODEL 1
REMARK VINA RESULT:     -10.9      0.000      0.000
REMARK SMILES C[C@@H](CCC(=O)NCCCCCCNC(=O)c1ccc(-c2c3nc(c(-c4cc(S(=O)(=O)[O-])ccc4F)c4ccc([nH]4)c(-c4cc(S(=O)(=O)[O-])ccc4F)c4nc(c(-c5cc(S(=O)(=O)[O-])ccc5F)c5ccc2[nH]5)C=C4)C=C3)cc1)NC(=O)Nc1ccc(Cl)c(Br)c1
REMARK SMILES IDX 10 1 9 2 8 3 7 4 5 5 6 6 4 8 3 9 2 10 1 11 80 12 81 13 82 15
REMARK SMILES IDX 83 16 84 18 85 19 91 20 86 21 89 22 87 23 90 24 88 25 11 26
REMARK SMILES IDX 12 27 13 28 14 29 15 30 16 32 17 33 18 34 79 35 19 36 78 37
REMARK SMILES IDX 20 38 21 39 22 40 72 41 23 42 77 43 71 44 73 45 24 46 76 47
REMARK SMILES IDX 70 48 69 49 25 51 57 52 37 53 56 54 38 55 41 56 55 57 74 58
REMARK SMILES IDX 39 59 40 60 54 62 75 63 42 64 26 65 27 66 35 67 28 68 34 69
REMARK SMILES IDX 36 70 33 71 29 72 30 73 31 74 32 75 58 76 59 77 67 78 60 79
REMARK SMILES IDX 66 80 68 81 65 82 61 83 62 84 63 85 64 86 43 87 44 88 52 89
REMARK SMILES IDX 45 90 51 91 53 92 50 93 46 94 47 95 48 96 49 97
REMARK H PARENT 7 7 80 14 83 17 14 31 73 50 41 61
REMARK Flexibility Score: inf
ROOT
ATOM      1  C   UNL A   1      34.022  21.958  23.651  1.00  0.00     0.002 C 
ENDROOT
BRANCH   1   2
ATOM      2  C   UNL A   1      33.260  20.776  24.255  1.00  0.00     0.021 C 
BRANCH   2   3
ATOM      3  C   UNL A   1      32.056  21.183  25.105  1.00  0.00     0.116 C 
BRANCH   3   4
ATOM      4  N   UNL A   1      32.444  21.525  26.464  1.00  0.00    -0.356 N 
ATOM      5  C   UNL A   1      32.304  22.679  27.168  1.00  0.00     0.220 C 
ATOM      6  O   UNL A   1      32.782  22.733  28.303  1.00  0.00    -0.275 OA
ATOM      7  H   UNL A   1      32.883  20.796  26.959  1.00  0.00     0.163 HD
BRANCH   5   8
ATOM      8  C   UNL A   1      31.627  23.889  26.566  1.00  0.00     0.102 C 
BRANCH   8   9
ATOM      9  C   UNL A   1      32.537  24.633  25.582  1.00  0.00     0.034 C 
BRANCH   9  10
ATOM     10  C   UNL A   1      31.866  25.267  24.344  1.00  0.00     0.081 C 
ATOM     11  C   UNL A   1      30.441  24.750  24.133  1.00  0.00     0.031 C 
BRANCH  10  12
ATOM     12  N   UNL A   1      32.735  25.190  23.162  1.00  0.00    -0.335 N 
ATOM     13  C   UNL A   1      33.113  26.060  22.201  1.00  0.00     0.319 C 
ATOM     14  H   UNL A   1      33.134  24.298  23.043  1.00  0.00     0.165 HD
ATOM     15  O   UNL A   1      33.632  25.597  21.181  1.00  0.00    -0.248 OA
ATOM     16  N   UNL A   1      32.827  27.379  22.241  1.00  0.00    -0.308 N 
ATOM     17  H   UNL A   1      32.740  27.800  21.355  1.00  0.00     0.171 HD
BRANCH  16  18
ATOM     18  C   UNL A   1      32.633  28.254  23.312  1.00  0.00     0.044 A 
ATOM     19  C   UNL A   1      31.409  28.918  23.402  1.00  0.00     0.028 A 
ATOM     20  C   UNL A   1      33.608  28.470  24.284  1.00  0.00     0.043 A 
ATOM     21  C   UNL A   1      31.102  29.654  24.548  1.00  0.00     0.024 A 
ATOM     22  C   UNL A   1      33.302  29.196  25.438  1.00  0.00     0.038 A 
ATOM     23  C   UNL A   1      32.035  29.767  25.584  1.00  0.00     0.055 A 
ATOM     24  Br  UNL A   1      34.641  29.294  26.783  1.00  0.00    -0.049 Br
ATOM     25  Cl  UNL A   1      31.546  30.595  27.018  1.00  0.00    -0.083 Cl
ENDBRANCH  16  18
ENDBRANCH  10  12
ENDBRANCH   9  10
ENDBRANCH   8   9
ENDBRANCH   5   8
ENDBRANCH   3   4
ENDBRANCH   2   3
ENDBRANCH   1   2
BRANCH   1  26
ATOM     26  C   UNL A   1      35.433  22.134  24.214  1.00  0.00     0.002 C 
BRANCH  26  27
ATOM     27  C   UNL A   1      35.807  23.569  24.611  1.00  0.00     0.021 C 
BRANCH  27  28
ATOM     28  C   UNL A   1      36.524  23.703  25.954  1.00  0.00     0.116 C 
BRANCH  28  29
ATOM     29  N   UNL A   1      37.511  22.652  26.139  1.00  0.00    -0.352 N 
ATOM     30  C   UNL A   1      38.852  22.772  26.407  1.00  0.00     0.251 C 
ATOM     31  H   UNL A   1      37.173  21.730  26.061  1.00  0.00     0.163 HD
ATOM     32  O   UNL A   1      39.602  21.810  26.247  1.00  0.00    -0.269 OA
BRANCH  30  33
ATOM     33  C   UNL A   1      39.390  24.065  26.883  1.00  0.00     0.039 A 
ATOM     34  C   UNL A   1      40.002  24.929  25.972  1.00  0.00     0.014 A 
ATOM     35  C   UNL A   1      39.298  24.414  28.234  1.00  0.00     0.014 A 
ATOM     36  C   UNL A   1      40.477  26.168  26.409  1.00  0.00     0.010 A 
ATOM     37  C   UNL A   1      39.718  25.674  28.656  1.00  0.00     0.010 A 
ATOM     38  C   UNL A   1      40.317  26.562  27.749  1.00  0.00    -0.014 A 
BRANCH  38  39
ATOM     39  C   UNL A   1      40.773  27.898  28.211  1.00  0.00     0.031 A 
ATOM     40  C   UNL A   1      42.235  28.254  28.181  1.00  0.00     0.074 A 
ATOM     41  C   UNL A   1      39.876  28.771  28.710  1.00  0.00     0.049 A 
ATOM     42  N   UNL A   1      42.827  29.358  28.563  1.00  0.00    -0.248 NA
ATOM     43  C   UNL A   1      43.153  27.219  27.686  1.00  0.00     0.031 C 
ATOM     44  C   UNL A   1      38.439  28.521  28.840  1.00  0.00     0.029 A 
ATOM     45  N   UNL A   1      40.036  30.042  29.201  1.00  0.00    -0.354 N 
ATOM     46  C   UNL A   1      44.187  29.148  28.362  1.00  0.00     0.074 A 
ATOM     47  C   UNL A   1      44.332  27.786  27.889  1.00  0.00     0.031 C 
ATOM     48  C   UNL A   1      37.847  29.614  29.347  1.00  0.00     0.029 A 
ATOM     49  C   UNL A   1      38.862  30.628  29.609  1.00  0.00     0.049 A 
ATOM     50  H   UNL A   1      40.911  30.491  29.256  1.00  0.00     0.167 HD
ATOM     51  C   UNL A   1      45.217  30.016  28.533  1.00  0.00     0.034 A 
ATOM     52  C   UNL A   1      38.629  31.847  30.135  1.00  0.00     0.034 A 
ATOM     53  C   UNL A   1      45.052  31.373  28.997  1.00  0.00     0.049 A 
ATOM     54  C   UNL A   1      39.786  32.792  30.325  1.00  0.00     0.074 A 
ATOM     55  C   UNL A   1      46.012  32.362  29.135  1.00  0.00     0.029 A 
ATOM     56  N   UNL A   1      43.849  31.933  29.409  1.00  0.00    -0.354 N 
ATOM     57  N   UNL A   1      41.060  32.604  30.066  1.00  0.00    -0.248 NA
ATOM     58  C   UNL A   1      39.470  34.119  30.869  1.00  0.00     0.031 C 
ATOM     59  C   UNL A   1      45.403  33.492  29.694  1.00  0.00     0.029 A 
ATOM     60  C   UNL A   1      44.048  33.237  29.838  1.00  0.00     0.049 A 
ATOM     61  H   UNL A   1      42.980  31.470  29.399  1.00  0.00     0.167 HD
ATOM     62  C   UNL A   1      41.694  33.799  30.395  1.00  0.00     0.074 A 
ATOM     63  C   UNL A   1      40.659  34.704  30.852  1.00  0.00     0.031 C 
ATOM     64  C   UNL A   1      43.011  34.120  30.322  1.00  0.00     0.034 A 
BRANCH  51  65
ATOM     65  C   UNL A   1      46.609  29.503  28.242  1.00  0.00     0.023 A 
ATOM     66  C   UNL A   1      47.423  28.957  29.252  1.00  0.00     0.031 A 
ATOM     67  C   UNL A   1      47.151  29.603  26.948  1.00  0.00     0.131 A 
ATOM     68  C   UNL A   1      48.756  28.622  28.975  1.00  0.00     0.055 A 
ATOM     69  C   UNL A   1      48.452  29.185  26.659  1.00  0.00     0.041 A 
ATOM     70  F   UNL A   1      46.433  30.132  25.945  1.00  0.00    -0.206 F 
ATOM     71  C   UNL A   1      49.271  28.709  27.680  1.00  0.00     0.022 A 
BRANCH  68  72
ATOM     72  S   UNL A   1      49.856  28.235  30.365  1.00  0.00     0.124 S 
ATOM     73  O   UNL A   1      49.053  27.273  31.117  1.00  0.00    -0.237 OA
ATOM     74  O   UNL A   1      51.033  27.698  29.694  1.00  0.00    -0.237 OA
ATOM     75  O   UNL A   1      50.044  29.526  31.024  1.00  0.00    -0.744 OA
ENDBRANCH  68  72
ENDBRANCH  51  65
BRANCH  52  76
ATOM     76  C   UNL A   1      37.245  32.250  30.510  1.00  0.00     0.023 A 
ATOM     77  C   UNL A   1      36.375  32.807  29.561  1.00  0.00     0.031 A 
ATOM     78  C   UNL A   1      36.781  32.102  31.829  1.00  0.00     0.131 A 
ATOM     79  C   UNL A   1      35.096  33.231  29.951  1.00  0.00     0.055 A 
ATOM     80  C   UNL A   1      35.492  32.485  32.202  1.00  0.00     0.041 A 
ATOM     81  F   UNL A   1      37.572  31.565  32.771  1.00  0.00    -0.206 F 
ATOM     82  C   UNL A   1      34.643  33.064  31.262  1.00  0.00     0.022 A 
BRANCH  79  83
ATOM     83  S   UNL A   1      34.044  34.059  28.727  1.00  0.00     0.124 S 
ATOM     84  O   UNL A   1      34.926  35.115  28.242  1.00  0.00    -0.237 OA
ATOM     85  O   UNL A   1      33.761  32.977  27.789  1.00  0.00    -0.237 OA
ATOM     86  O   UNL A   1      32.899  34.513  29.513  1.00  0.00    -0.744 OA
ENDBRANCH  79  83
ENDBRANCH  52  76
BRANCH  64  87
ATOM     87  C   UNL A   1      43.391  35.523  30.729  1.00  0.00     0.023 A 
ATOM     88  C   UNL A   1      43.578  35.872  32.078  1.00  0.00     0.031 A 
ATOM     89  C   UNL A   1      43.532  36.530  29.759  1.00  0.00     0.131 A 
ATOM     90  C   UNL A   1      43.835  37.207  32.426  1.00  0.00     0.055 A 
ATOM     91  C   UNL A   1      43.848  37.845  30.106  1.00  0.00     0.041 A 
ATOM     92  F   UNL A   1      43.359  36.255  28.456  1.00  0.00    -0.206 F 
ATOM     93  C   UNL A   1      43.987  38.193  31.447  1.00  0.00     0.022 A 
BRANCH  90  94
ATOM     94  S   UNL A   1      43.865  37.657  34.183  1.00  0.00     0.124 S 
ATOM     95  O   UNL A   1      43.976  36.354  34.829  1.00  0.00    -0.237 OA
ATOM     96  O   UNL A   1      45.044  38.513  34.266  1.00  0.00    -0.237 OA
ATOM     97  O   UNL A   1      42.588  38.341  34.384  1.00  0.00    -0.744 OA
ENDBRANCH  90  94
ENDBRANCH  64  87
ENDBRANCH  38  39
ENDBRANCH  30  33
ENDBRANCH  28  29
ENDBRANCH  27  28
ENDBRANCH  26  27
ENDBRANCH   1  26
TORSDOF 20
ENDMDL
MODEL 2
REMARK VINA RESULT:     -10.4      1.923      2.232
REMARK SMILES C[C@@H](CCC(=O)NCCCCCCNC(=O)c1ccc(-c2c3nc(c(-c4cc(S(=O)(=O)[O-])ccc4F)c4ccc([nH]4)c(-c4cc(S(=O)(=O)[O-])ccc4F)c4nc(c(-c5cc(S(=O)(=O)[O-])ccc5F)c5ccc2[nH]5)C=C4)C=C3)cc1)NC(=O)Nc1ccc(Cl)c(Br)c1
REMARK SMILES IDX 10 1 9 2 8 3 7 4 5 5 6 6 4 8 3 9 2 10 1 11 80 12 81 13 82 15
REMARK SMILES IDX 83 16 84 18 85 19 91 20 86 21 89 22 87 23 90 24 88 25 11 26
REMARK SMILES IDX 12 27 13 28 14 29 15 30 16 32 17 33 18 34 79 35 19 36 78 37
REMARK SMILES IDX 20 38 21 39 22 40 72 41 23 42 77 43 71 44 73 45 24 46 76 47
REMARK SMILES IDX 70 48 69 49 25 51 57 52 37 53 56 54 38 55 41 56 55 57 74 58
REMARK SMILES IDX 39 59 40 60 54 62 75 63 42 64 26 65 27 66 35 67 28 68 34 69
REMARK SMILES IDX 36 70 33 71 29 72 30 73 31 74 32 75 58 76 59 77 67 78 60 79
REMARK SMILES IDX 66 80 68 81 65 82 61 83 62 84 63 85 64 86 43 87 44 88 52 89
REMARK SMILES IDX 45 90 51 91 53 92 50 93 46 94 47 95 48 96 49 97
REMARK H PARENT 7 7 80 14 83 17 14 31 73 50 41 61
REMARK Flexibility Score: inf
ROOT
ATOM      1  C   UNL A   1      35.883  20.369  24.977  1.00  0.00     0.002 C 
ENDROOT
BRANCH   1   2
ATOM      2  C   UNL A   1      34.360  20.512  25.045  1.00  0.00     0.021 C 
BRANCH   2   3
ATOM      3  C   UNL A   1      33.852  21.114  26.355  1.00  0.00     0.116 C 
BRANCH   3   4
ATOM      4  N   UNL A   1      32.403  21.238  26.367  1.00  0.00    -0.356 N 
ATOM      5  C   UNL A   1      31.574  22.071  25.686  1.00  0.00     0.220 C 
ATOM      6  O   UNL A   1      30.365  22.017  25.926  1.00  0.00    -0.275 OA
ATOM      7  H   UNL A   1      31.945  20.611  26.972  1.00  0.00     0.163 HD
BRANCH   5   8
ATOM      8  C   UNL A   1      32.111  23.077  24.694  1.00  0.00     0.102 C 
BRANCH   8   9
ATOM      9  C   UNL A   1      31.783  24.519  25.096  1.00  0.00     0.034 C 
BRANCH   9  10
ATOM     10  C   UNL A   1      31.389  25.493  23.964  1.00  0.00     0.081 C 
ATOM     11  C   UNL A   1      29.909  25.377  23.593  1.00  0.00     0.031 C 
BRANCH  10  12
ATOM     12  N   UNL A   1      32.321  25.407  22.831  1.00  0.00    -0.335 N 
ATOM     13  C   UNL A   1      32.862  26.300  21.975  1.00  0.00     0.319 C 
ATOM     14  H   UNL A   1      32.620  24.485  22.656  1.00  0.00     0.165 HD
ATOM     15  O   UNL A   1      33.391  25.861  20.949  1.00  0.00    -0.248 OA
ATOM     16  N   UNL A   1      32.731  27.636  22.115  1.00  0.00    -0.308 N 
ATOM     17  H   UNL A   1      32.754  28.135  21.268  1.00  0.00     0.171 HD
BRANCH  16  18
ATOM     18  C   UNL A   1      32.569  28.438  23.248  1.00  0.00     0.044 A 
ATOM     19  C   UNL A   1      31.373  29.144  23.385  1.00  0.00     0.028 A 
ATOM     20  C   UNL A   1      33.548  28.541  24.234  1.00  0.00     0.043 A 
ATOM     21  C   UNL A   1      31.092  29.807  24.581  1.00  0.00     0.024 A 
ATOM     22  C   UNL A   1      33.267  29.194  25.438  1.00  0.00     0.038 A 
ATOM     23  C   UNL A   1      32.024  29.805  25.623  1.00  0.00     0.055 A 
ATOM     24  Br  UNL A   1      34.603  29.137  26.788  1.00  0.00    -0.049 Br
ATOM     25  Cl  UNL A   1      31.564  30.546  27.113  1.00  0.00    -0.083 Cl
ENDBRANCH  16  18
ENDBRANCH  10  12
ENDBRANCH   9  10
ENDBRANCH   8   9
ENDBRANCH   5   8
ENDBRANCH   3   4
ENDBRANCH   2   3
ENDBRANCH   1   2
BRANCH   1  26
ATOM     26  C   UNL A   1      36.562  21.426  24.104  1.00  0.00     0.002 C 
BRANCH  26  27
ATOM     27  C   UNL A   1      36.278  22.883  24.496  1.00  0.00     0.021 C 
BRANCH  27  28
ATOM     28  C   UNL A   1      36.984  23.361  25.765  1.00  0.00     0.116 C 
BRANCH  28  29
ATOM     29  N   UNL A   1      38.020  22.430  26.181  1.00  0.00    -0.352 N 
ATOM     30  C   UNL A   1      39.291  22.703  26.621  1.00  0.00     0.251 C 
ATOM     31  H   UNL A   1      37.779  21.476  26.142  1.00  0.00     0.163 HD
ATOM     32  O   UNL A   1      40.138  21.810  26.656  1.00  0.00    -0.269 OA
BRANCH  30  33
ATOM     33  C   UNL A   1      39.640  24.076  27.046  1.00  0.00     0.039 A 
ATOM     34  C   UNL A   1      39.434  24.455  28.375  1.00  0.00     0.014 A 
ATOM     35  C   UNL A   1      40.158  24.991  26.124  1.00  0.00     0.014 A 
ATOM     36  C   UNL A   1      39.798  25.738  28.791  1.00  0.00     0.010 A 
ATOM     37  C   UNL A   1      40.575  26.249  26.555  1.00  0.00     0.010 A 
ATOM     38  C   UNL A   1      40.395  26.637  27.891  1.00  0.00    -0.014 A 
BRANCH  38  39
ATOM     39  C   UNL A   1      40.831  27.986  28.337  1.00  0.00     0.031 A 
ATOM     40  C   UNL A   1      42.286  28.367  28.293  1.00  0.00     0.074 A 
ATOM     41  C   UNL A   1      39.922  28.848  28.833  1.00  0.00     0.049 A 
ATOM     42  N   UNL A   1      42.861  29.485  28.659  1.00  0.00    -0.248 NA
ATOM     43  C   UNL A   1      43.219  27.343  27.803  1.00  0.00     0.031 C 
ATOM     44  C   UNL A   1      38.490  28.574  28.976  1.00  0.00     0.029 A 
ATOM     45  N   UNL A   1      40.063  30.126  29.309  1.00  0.00    -0.354 N 
ATOM     46  C   UNL A   1      44.224  29.296  28.451  1.00  0.00     0.074 A 
ATOM     47  C   UNL A   1      44.389  27.933  27.992  1.00  0.00     0.031 C 
ATOM     48  C   UNL A   1      37.882  29.662  29.475  1.00  0.00     0.029 A 
ATOM     49  C   UNL A   1      38.881  30.697  29.720  1.00  0.00     0.049 A 
ATOM     50  H   UNL A   1      40.930  30.592  29.354  1.00  0.00     0.167 HD
ATOM     51  C   UNL A   1      45.239  30.184  28.607  1.00  0.00     0.034 A 
ATOM     52  C   UNL A   1      38.631  31.916  30.234  1.00  0.00     0.034 A 
ATOM     53  C   UNL A   1      45.054  31.543  29.057  1.00  0.00     0.049 A 
ATOM     54  C   UNL A   1      39.772  32.884  30.407  1.00  0.00     0.074 A 
ATOM     55  C   UNL A   1      45.996  32.550  29.178  1.00  0.00     0.029 A 
ATOM     56  N   UNL A   1      43.843  32.086  29.472  1.00  0.00    -0.354 N 
ATOM     57  N   UNL A   1      41.047  32.715  30.141  1.00  0.00    -0.248 NA
ATOM     58  C   UNL A   1      39.436  34.210  30.939  1.00  0.00     0.031 C 
ATOM     59  C   UNL A   1      45.371  33.675  29.730  1.00  0.00     0.029 A 
ATOM     60  C   UNL A   1      44.022  33.398  29.886  1.00  0.00     0.049 A 
ATOM     61  H   UNL A   1      42.982  31.608  29.473  1.00  0.00     0.167 HD
ATOM     62  C   UNL A   1      41.662  33.924  30.453  1.00  0.00     0.074 A 
ATOM     63  C   UNL A   1      40.615  34.816  30.908  1.00  0.00     0.031 C 
ATOM     64  C   UNL A   1      42.973  34.267  30.368  1.00  0.00     0.034 A 
BRANCH  51  65
ATOM     65  C   UNL A   1      46.638  29.693  28.311  1.00  0.00     0.023 A 
ATOM     66  C   UNL A   1      47.020  29.281  27.021  1.00  0.00     0.031 A 
ATOM     67  C   UNL A   1      47.591  29.590  29.340  1.00  0.00     0.131 A 
ATOM     68  C   UNL A   1      48.280  28.699  26.814  1.00  0.00     0.055 A 
ATOM     69  C   UNL A   1      48.875  29.091  29.109  1.00  0.00     0.041 A 
ATOM     70  F   UNL A   1      47.282  29.948  30.596  1.00  0.00    -0.206 F 
ATOM     71  C   UNL A   1      49.220  28.624  27.844  1.00  0.00     0.022 A 
BRANCH  68  72
ATOM     72  S   UNL A   1      48.607  27.890  25.224  1.00  0.00     0.124 S 
ATOM     73  O   UNL A   1      49.976  28.322  24.950  1.00  0.00    -0.237 OA
ATOM     74  O   UNL A   1      48.434  26.480  25.548  1.00  0.00    -0.237 OA
ATOM     75  O   UNL A   1      47.594  28.458  24.336  1.00  0.00    -0.744 OA
ENDBRANCH  68  72
ENDBRANCH  51  65
BRANCH  52  76
ATOM     76  C   UNL A   1      37.242  32.300  30.615  1.00  0.00     0.023 A 
ATOM     77  C   UNL A   1      36.370  32.871  29.677  1.00  0.00     0.031 A 
ATOM     78  C   UNL A   1      36.776  32.117  31.929  1.00  0.00     0.131 A 
ATOM     79  C   UNL A   1      35.087  33.276  30.073  1.00  0.00     0.055 A 
ATOM     80  C   UNL A   1      35.483  32.481  32.307  1.00  0.00     0.041 A 
ATOM     81  F   UNL A   1      37.569  31.564  32.860  1.00  0.00    -0.206 F 
ATOM     82  C   UNL A   1      34.632  33.073  31.378  1.00  0.00     0.022 A 
BRANCH  79  83
ATOM     83  S   UNL A   1      34.031  34.123  28.865  1.00  0.00     0.124 S 
ATOM     84  O   UNL A   1      34.972  35.048  28.244  1.00  0.00    -0.237 OA
ATOM     85  O   UNL A   1      33.575  33.015  28.032  1.00  0.00    -0.237 OA
ATOM     86  O   UNL A   1      32.998  34.743  29.692  1.00  0.00    -0.744 OA
ENDBRANCH  79  83
ENDBRANCH  52  76
BRANCH  64  87
ATOM     87  C   UNL A   1      43.331  35.681  30.758  1.00  0.00     0.023 A 
ATOM     88  C   UNL A   1      43.374  36.717  29.810  1.00  0.00     0.031 A 
ATOM     89  C   UNL A   1      43.667  35.987  32.089  1.00  0.00     0.131 A 
ATOM     90  C   UNL A   1      43.805  37.997  30.191  1.00  0.00     0.055 A 
ATOM     91  C   UNL A   1      44.036  37.277  32.475  1.00  0.00     0.041 A 
ATOM     92  F   UNL A   1      43.647  35.035  33.035  1.00  0.00    -0.206 F 
ATOM     93  C   UNL A   1      44.120  38.288  31.521  1.00  0.00     0.022 A 
BRANCH  90  94
ATOM     94  S   UNL A   1      44.047  39.253  28.905  1.00  0.00     0.124 S 
ATOM     95  O   UNL A   1      45.453  39.600  29.080  1.00  0.00    -0.237 OA
ATOM     96  O   UNL A   1      43.719  38.520  27.686  1.00  0.00    -0.237 OA
ATOM     97  O   UNL A   1      43.099  40.305  29.270  1.00  0.00    -0.744 OA
ENDBRANCH  90  94
ENDBRANCH  64  87
ENDBRANCH  38  39
ENDBRANCH  30  33
ENDBRANCH  28  29
ENDBRANCH  27  28
ENDBRANCH  26  27
ENDBRANCH   1  26
TORSDOF 20
ENDMDL
MODEL 3
REMARK VINA RESULT:     -10.3      3.950      9.360
REMARK SMILES C[C@@H](CCC(=O)NCCCCCCNC(=O)c1ccc(-c2c3nc(c(-c4cc(S(=O)(=O)[O-])ccc4F)c4ccc([nH]4)c(-c4cc(S(=O)(=O)[O-])ccc4F)c4nc(c(-c5cc(S(=O)(=O)[O-])ccc5F)c5ccc2[nH]5)C=C4)C=C3)cc1)NC(=O)Nc1ccc(Cl)c(Br)c1
REMARK SMILES IDX 10 1 9 2 8 3 7 4 5 5 6 6 4 8 3 9 2 10 1 11 80 12 81 13 82 15
REMARK SMILES IDX 83 16 84 18 85 19 91 20 86 21 89 22 87 23 90 24 88 25 11 26
REMARK SMILES IDX 12 27 13 28 14 29 15 30 16 32 17 33 18 34 79 35 19 36 78 37
REMARK SMILES IDX 20 38 21 39 22 40 72 41 23 42 77 43 71 44 73 45 24 46 76 47
REMARK SMILES IDX 70 48 69 49 25 51 57 52 37 53 56 54 38 55 41 56 55 57 74 58
REMARK SMILES IDX 39 59 40 60 54 62 75 63 42 64 26 65 27 66 35 67 28 68 34 69
REMARK SMILES IDX 36 70 33 71 29 72 30 73 31 74 32 75 58 76 59 77 67 78 60 79
REMARK SMILES IDX 66 80 68 81 65 82 61 83 62 84 63 85 64 86 43 87 44 88 52 89
REMARK SMILES IDX 45 90 51 91 53 92 50 93 46 94 47 95 48 96 49 97
REMARK H PARENT 7 7 80 14 83 17 14 31 73 50 41 61
REMARK Flexibility Score: inf
ROOT
ATOM      1  C   UNL A   1      31.505  29.258  24.611  1.00  0.00     0.002 C 
ENDROOT
BRANCH   1   2
ATOM      2  C   UNL A   1      31.703  28.947  23.125  1.00  0.00     0.021 C 
BRANCH   2   3
ATOM      3  C   UNL A   1      33.104  28.445  22.778  1.00  0.00     0.116 C 
BRANCH   3   4
ATOM      4  N   UNL A   1      33.067  27.380  21.789  1.00  0.00    -0.356 N 
ATOM      5  C   UNL A   1      33.250  26.040  21.914  1.00  0.00     0.220 C 
ATOM      6  O   UNL A   1      33.230  25.350  20.892  1.00  0.00    -0.275 OA
ATOM      7  H   UNL A   1      32.877  27.682  20.871  1.00  0.00     0.163 HD
BRANCH   5   8
ATOM      8  C   UNL A   1      33.525  25.406  23.258  1.00  0.00     0.102 C 
BRANCH   8   9
ATOM      9  C   UNL A   1      32.276  25.365  24.146  1.00  0.00     0.034 C 
BRANCH   9  10
ATOM     10  C   UNL A   1      31.646  23.981  24.412  1.00  0.00     0.081 C 
ATOM     11  C   UNL A   1      30.778  23.508  23.244  1.00  0.00     0.031 C 
BRANCH  10  12
ATOM     12  N   UNL A   1      30.995  23.930  25.729  1.00  0.00    -0.335 N 
ATOM     13  C   UNL A   1      31.022  23.073  26.771  1.00  0.00     0.319 C 
ATOM     14  H   UNL A   1      30.401  24.700  25.887  1.00  0.00     0.165 HD
ATOM     15  O   UNL A   1      30.132  23.175  27.620  1.00  0.00    -0.248 OA
ATOM     16  N   UNL A   1      31.881  22.034  26.854  1.00  0.00    -0.308 N 
ATOM     17  H   UNL A   1      31.539  21.268  27.369  1.00  0.00     0.171 HD
BRANCH  16  18
ATOM     18  C   UNL A   1      33.168  21.852  26.343  1.00  0.00     0.044 A 
ATOM     19  C   UNL A   1      33.420  20.695  25.604  1.00  0.00     0.028 A 
ATOM     20  C   UNL A   1      34.186  22.782  26.537  1.00  0.00     0.043 A 
ATOM     21  C   UNL A   1      34.630  20.560  24.920  1.00  0.00     0.024 A 
ATOM     22  C   UNL A   1      35.395  22.657  25.847  1.00  0.00     0.038 A 
ATOM     23  C   UNL A   1      35.607  21.556  25.012  1.00  0.00     0.055 A 
ATOM     24  Br  UNL A   1      36.658  24.062  26.045  1.00  0.00    -0.049 Br
ATOM     25  Cl  UNL A   1      37.030  21.377  24.051  1.00  0.00    -0.083 Cl
ENDBRANCH  16  18
ENDBRANCH  10  12
ENDBRANCH   9  10
ENDBRANCH   8   9
ENDBRANCH   5   8
ENDBRANCH   3   4
ENDBRANCH   2   3
ENDBRANCH   1   2
BRANCH   1  26
ATOM     26  C   UNL A   1      32.814  29.407  25.389  1.00  0.00     0.002 C 
BRANCH  26  27
ATOM     27  C   UNL A   1      32.703  30.158  26.723  1.00  0.00     0.021 C 
BRANCH  27  28
ATOM     28  C   UNL A   1      34.035  30.489  27.393  1.00  0.00     0.116 C 
BRANCH  28  29
ATOM     29  N   UNL A   1      33.978  31.762  28.093  1.00  0.00    -0.352 N 
ATOM     30  C   UNL A   1      34.752  32.200  29.139  1.00  0.00     0.251 C 
ATOM     31  H   UNL A   1      33.292  32.393  27.777  1.00  0.00     0.163 HD
ATOM     32  O   UNL A   1      34.394  33.170  29.807  1.00  0.00    -0.269 OA
BRANCH  30  33
ATOM     33  C   UNL A   1      36.012  31.498  29.461  1.00  0.00     0.039 A 
ATOM     34  C   UNL A   1      37.225  32.025  29.011  1.00  0.00     0.014 A 
ATOM     35  C   UNL A   1      35.991  30.310  30.199  1.00  0.00     0.014 A 
ATOM     36  C   UNL A   1      38.422  31.388  29.346  1.00  0.00     0.010 A 
ATOM     37  C   UNL A   1      37.189  29.710  30.583  1.00  0.00     0.010 A 
ATOM     38  C   UNL A   1      38.416  30.239  30.156  1.00  0.00    -0.014 A 
BRANCH  38  39
ATOM     39  C   UNL A   1      39.687  29.583  30.559  1.00  0.00     0.031 A 
ATOM     40  C   UNL A   1      40.444  30.069  31.765  1.00  0.00     0.074 A 
ATOM     41  C   UNL A   1      40.187  28.585  29.805  1.00  0.00     0.049 A 
ATOM     42  N   UNL A   1      41.578  29.641  32.260  1.00  0.00    -0.248 NA
ATOM     43  C   UNL A   1      39.862  31.207  32.491  1.00  0.00     0.031 C 
ATOM     44  C   UNL A   1      39.573  28.062  28.583  1.00  0.00     0.029 A 
ATOM     45  N   UNL A   1      41.325  27.832  29.952  1.00  0.00    -0.354 N 
ATOM     46  C   UNL A   1      41.850  30.462  33.350  1.00  0.00     0.074 A 
ATOM     47  C   UNL A   1      40.795  31.453  33.397  1.00  0.00     0.031 C 
ATOM     48  C   UNL A   1      40.325  27.055  28.110  1.00  0.00     0.029 A 
ATOM     49  C   UNL A   1      41.489  26.882  28.972  1.00  0.00     0.049 A 
ATOM     50  H   UNL A   1      41.964  27.961  30.690  1.00  0.00     0.167 HD
ATOM     51  C   UNL A   1      42.872  30.382  34.240  1.00  0.00     0.034 A 
ATOM     52  C   UNL A   1      42.467  25.974  28.790  1.00  0.00     0.034 A 
ATOM     53  C   UNL A   1      43.910  29.381  34.182  1.00  0.00     0.049 A 
ATOM     54  C   UNL A   1      43.596  25.907  29.783  1.00  0.00     0.074 A 
ATOM     55  C   UNL A   1      44.948  29.159  35.071  1.00  0.00     0.029 A 
ATOM     56  N   UNL A   1      44.050  28.438  33.171  1.00  0.00    -0.354 N 
ATOM     57  N   UNL A   1      43.804  26.646  30.849  1.00  0.00    -0.248 NA
ATOM     58  C   UNL A   1      44.615  24.875  29.555  1.00  0.00     0.031 C 
ATOM     59  C   UNL A   1      45.752  28.131  34.563  1.00  0.00     0.029 A 
ATOM     60  C   UNL A   1      45.177  27.659  33.393  1.00  0.00     0.049 A 
ATOM     61  H   UNL A   1      43.438  28.337  32.406  1.00  0.00     0.167 HD
ATOM     62  C   UNL A   1      44.968  26.152  31.431  1.00  0.00     0.074 A 
ATOM     63  C   UNL A   1      45.403  25.041  30.607  1.00  0.00     0.031 C 
ATOM     64  C   UNL A   1      45.617  26.575  32.546  1.00  0.00     0.034 A 
BRANCH  51  65
ATOM     65  C   UNL A   1      42.920  31.428  35.331  1.00  0.00     0.023 A 
ATOM     66  C   UNL A   1      43.632  32.631  35.172  1.00  0.00     0.031 A 
ATOM     67  C   UNL A   1      42.286  31.202  36.566  1.00  0.00     0.131 A 
ATOM     68  C   UNL A   1      43.773  33.513  36.254  1.00  0.00     0.055 A 
ATOM     69  C   UNL A   1      42.356  32.126  37.611  1.00  0.00     0.041 A 
ATOM     70  F   UNL A   1      41.607  30.066  36.788  1.00  0.00    -0.206 F 
ATOM     71  C   UNL A   1      43.119  33.281  37.466  1.00  0.00     0.022 A 
BRANCH  68  72
ATOM     72  S   UNL A   1      44.960  34.877  36.108  1.00  0.00     0.124 S 
ATOM     73  O   UNL A   1      44.262  35.951  36.813  1.00  0.00    -0.237 OA
ATOM     74  O   UNL A   1      46.141  34.339  36.770  1.00  0.00    -0.237 OA
ATOM     75  O   UNL A   1      45.084  35.070  34.664  1.00  0.00    -0.744 OA
ENDBRANCH  68  72
ENDBRANCH  51  65
BRANCH  52  76
ATOM     76  C   UNL A   1      42.421  25.045  27.625  1.00  0.00     0.023 A 
ATOM     77  C   UNL A   1      41.663  23.865  27.674  1.00  0.00     0.031 A 
ATOM     78  C   UNL A   1      43.150  25.316  26.454  1.00  0.00     0.131 A 
ATOM     79  C   UNL A   1      41.679  22.979  26.587  1.00  0.00     0.055 A 
ATOM     80  C   UNL A   1      43.129  24.452  25.358  1.00  0.00     0.041 A 
ATOM     81  F   UNL A   1      43.883  26.437  26.355  1.00  0.00    -0.206 F 
ATOM     82  C   UNL A   1      42.398  23.270  25.424  1.00  0.00     0.022 A 
BRANCH  79  83
ATOM     83  S   UNL A   1      40.787  21.406  26.734  1.00  0.00     0.124 S 
ATOM     84  O   UNL A   1      41.539  20.552  25.821  1.00  0.00    -0.237 OA
ATOM     85  O   UNL A   1      40.930  21.109  28.156  1.00  0.00    -0.237 OA
ATOM     86  O   UNL A   1      39.432  21.742  26.303  1.00  0.00    -0.744 OA
ENDBRANCH  79  83
ENDBRANCH  52  76
BRANCH  64  87
ATOM     87  C   UNL A   1      46.855  25.807  32.943  1.00  0.00     0.023 A 
ATOM     88  C   UNL A   1      48.112  26.101  32.385  1.00  0.00     0.031 A 
ATOM     89  C   UNL A   1      46.771  24.748  33.863  1.00  0.00     0.131 A 
ATOM     90  C   UNL A   1      49.222  25.304  32.704  1.00  0.00     0.055 A 
ATOM     91  C   UNL A   1      47.891  23.997  34.223  1.00  0.00     0.041 A 
ATOM     92  F   UNL A   1      45.595  24.421  34.423  1.00  0.00    -0.206 F 
ATOM     93  C   UNL A   1      49.123  24.263  33.632  1.00  0.00     0.022 A 
BRANCH  90  94
ATOM     94  S   UNL A   1      50.777  25.579  31.810  1.00  0.00     0.124 S 
ATOM     95  O   UNL A   1      51.735  24.852  32.636  1.00  0.00    -0.237 OA
ATOM     96  O   UNL A   1      50.493  24.997  30.502  1.00  0.00    -0.237 OA
ATOM     97  O   UNL A   1      50.926  27.033  31.822  1.00  0.00    -0.744 OA
ENDBRANCH  90  94
ENDBRANCH  64  87
ENDBRANCH  38  39
ENDBRANCH  30  33
ENDBRANCH  28  29
ENDBRANCH  27  28
ENDBRANCH  26  27
ENDBRANCH   1  26
TORSDOF 20
ENDMDL
