MODEL 1
REMARK VINA RESULT:     -11.2      0.000      0.000
REMARK SMILES C[C@@H]1[C@H](C(=O)NCCCCCCNC(=O)c2ccc(-c3c4nc(c(-c5cc(S(=O)(=O)[O-])ccc5F)c5ccc([nH]5)c(-c5cc(S(=O)(=O)[O-])ccc5F)c5nc(c(-c6cc(S(=O)(=O)[O-])ccc6F)c6ccc3[nH]6)C=C5)C=C4)cc2)CCN1C(=O)COCc1ccccc1
REMARK SMILES IDX 8 1 7 2 6 3 4 4 5 5 3 7 1 8 2 9 81 10 79 11 80 12 82 13
REMARK SMILES IDX 83 14 84 15 85 16 86 17 87 18 88 19 92 20 89 21 91 22 90 23
REMARK SMILES IDX 9 24 10 25 11 26 12 27 13 28 14 29 15 31 16 32 17 33 78 34
REMARK SMILES IDX 18 35 77 36 19 37 20 38 21 39 71 40 22 41 76 42 70 43 72 44
REMARK SMILES IDX 23 45 75 46 69 47 68 48 24 50 56 51 36 52 55 53 37 54 40 55
REMARK SMILES IDX 54 56 73 57 38 58 39 59 53 61 74 62 41 63 25 64 26 65 34 66
REMARK SMILES IDX 27 67 33 68 35 69 32 70 28 71 29 72 30 73 31 74 57 75 58 76
REMARK SMILES IDX 66 77 59 78 65 79 67 80 64 81 60 82 61 83 62 84 63 85 42 86
REMARK SMILES IDX 43 87 51 88 44 89 50 90 52 91 49 92 45 93 46 94 47 95 48 96
REMARK H PARENT 6 6 13 30 72 49 40 60
REMARK Flexibility Score: inf
ROOT
ATOM      1  C   UNL A   1      31.304  28.574  23.652  1.00  0.00     0.021 C 
ENDROOT
BRANCH   1   2
ATOM      2  C   UNL A   1      32.502  28.864  22.746  1.00  0.00     0.116 C 
BRANCH   2   3
ATOM      3  N   UNL A   1      32.916  27.679  22.016  1.00  0.00    -0.356 N 
ATOM      4  C   UNL A   1      33.271  26.435  22.429  1.00  0.00     0.225 C 
ATOM      5  O   UNL A   1      33.677  25.653  21.563  1.00  0.00    -0.275 OA
ATOM      6  H   UNL A   1      32.943  27.799  21.039  1.00  0.00     0.163 HD
BRANCH   4   7
ATOM      7  C   UNL A   1      33.191  25.971  23.875  1.00  0.00     0.102 C 
ATOM      8  C   UNL A   1      31.079  24.555  23.261  1.00  0.00     0.032 C 
ATOM      9  C   UNL A   1      31.943  25.190  24.344  1.00  0.00     0.094 C 
ATOM     10  N   UNL A   1      32.469  24.239  25.340  1.00  0.00    -0.337 N 
ATOM     11  C   UNL A   1      34.409  25.193  24.372  1.00  0.00     0.037 C 
ATOM     12  C   UNL A   1      33.889  24.425  25.567  1.00  0.00     0.121 C 
BRANCH  10  13
ATOM     13  C   UNL A   1      31.770  23.431  26.221  1.00  0.00     0.248 C 
ATOM     14  O   UNL A   1      31.332  23.877  27.286  1.00  0.00    -0.272 OA
BRANCH  13  15
ATOM     15  C   UNL A   1      31.566  21.957  25.864  1.00  0.00     0.260 C 
BRANCH  15  16
ATOM     16  O   UNL A   1      32.481  21.391  24.933  1.00  0.00    -0.367 OA
BRANCH  16  17
ATOM     17  C   UNL A   1      33.312  20.372  25.495  1.00  0.00     0.196 C 
BRANCH  17  18
ATOM     18  C   UNL A   1      33.375  19.159  24.607  1.00  0.00    -0.022 A 
ATOM     19  C   UNL A   1      34.403  18.220  24.758  1.00  0.00     0.006 A 
ATOM     20  C   UNL A   1      32.450  19.000  23.564  1.00  0.00     0.006 A 
ATOM     21  C   UNL A   1      34.519  17.156  23.866  1.00  0.00     0.000 A 
ATOM     22  C   UNL A   1      32.572  17.938  22.670  1.00  0.00     0.000 A 
ATOM     23  C   UNL A   1      33.610  17.020  22.818  1.00  0.00     0.000 A 
ENDBRANCH  17  18
ENDBRANCH  16  17
ENDBRANCH  15  16
ENDBRANCH  13  15
ENDBRANCH  10  13
ENDBRANCH   4   7
ENDBRANCH   2   3
ENDBRANCH   1   2
BRANCH   1  24
ATOM     24  C   UNL A   1      31.363  29.233  25.029  1.00  0.00     0.002 C 
BRANCH  24  25
ATOM     25  C   UNL A   1      31.546  28.273  26.206  1.00  0.00     0.002 C 
BRANCH  25  26
ATOM     26  C   UNL A   1      32.912  28.326  26.897  1.00  0.00     0.021 C 
BRANCH  26  27
ATOM     27  C   UNL A   1      33.921  29.297  26.286  1.00  0.00     0.116 C 
BRANCH  27  28
ATOM     28  N   UNL A   1      33.786  30.638  26.823  1.00  0.00    -0.352 N 
ATOM     29  C   UNL A   1      34.513  31.265  27.805  1.00  0.00     0.251 C 
ATOM     30  H   UNL A   1      33.067  31.179  26.424  1.00  0.00     0.163 HD
ATOM     31  O   UNL A   1      34.116  32.334  28.257  1.00  0.00    -0.269 OA
BRANCH  29  32
ATOM     32  C   UNL A   1      35.752  30.648  28.330  1.00  0.00     0.039 A 
ATOM     33  C   UNL A   1      36.962  30.930  27.688  1.00  0.00     0.014 A 
ATOM     34  C   UNL A   1      35.726  29.769  29.416  1.00  0.00     0.014 A 
ATOM     35  C   UNL A   1      38.147  30.364  28.161  1.00  0.00     0.010 A 
ATOM     36  C   UNL A   1      36.918  29.255  29.927  1.00  0.00     0.010 A 
ATOM     37  C   UNL A   1      38.140  29.538  29.296  1.00  0.00    -0.014 A 
BRANCH  37  38
ATOM     38  C   UNL A   1      39.402  28.945  29.813  1.00  0.00     0.031 A 
ATOM     39  C   UNL A   1      40.064  29.524  31.034  1.00  0.00     0.074 A 
ATOM     40  C   UNL A   1      39.966  27.907  29.164  1.00  0.00     0.049 A 
ATOM     41  N   UNL A   1      41.177  29.165  31.622  1.00  0.00    -0.248 NA
ATOM     42  C   UNL A   1      39.398  30.675  31.661  1.00  0.00     0.031 C 
ATOM     43  C   UNL A   1      39.439  27.287  27.947  1.00  0.00     0.029 A 
ATOM     44  N   UNL A   1      41.106  27.193  29.433  1.00  0.00    -0.354 N 
ATOM     45  C   UNL A   1      41.350  30.049  32.682  1.00  0.00     0.074 A 
ATOM     46  C   UNL A   1      40.258  31.000  32.614  1.00  0.00     0.031 C 
ATOM     47  C   UNL A   1      40.241  26.269  27.591  1.00  0.00     0.029 A 
ATOM     48  C   UNL A   1      41.356  26.187  28.528  1.00  0.00     0.049 A 
ATOM     49  H   UNL A   1      41.691  27.383  30.202  1.00  0.00     0.167 HD
ATOM     50  C   UNL A   1      42.313  30.055  33.637  1.00  0.00     0.034 A 
ATOM     51  C   UNL A   1      42.371  25.303  28.460  1.00  0.00     0.034 A 
ATOM     52  C   UNL A   1      43.388  29.093  33.698  1.00  0.00     0.049 A 
ATOM     53  C   UNL A   1      43.438  25.337  29.524  1.00  0.00     0.074 A 
ATOM     54  C   UNL A   1      44.385  28.971  34.649  1.00  0.00     0.029 A 
ATOM     55  N   UNL A   1      43.610  28.090  32.762  1.00  0.00    -0.354 N 
ATOM     56  N   UNL A   1      43.557  26.147  30.551  1.00  0.00    -0.248 NA
ATOM     57  C   UNL A   1      44.502  24.329  29.424  1.00  0.00     0.031 C 
ATOM     58  C   UNL A   1      45.244  27.937  34.258  1.00  0.00     0.029 A 
ATOM     59  C   UNL A   1      44.745  27.366  33.099  1.00  0.00     0.049 A 
ATOM     60  H   UNL A   1      43.045  27.918  31.974  1.00  0.00     0.167 HD
ATOM     61  C   UNL A   1      44.695  25.727  31.235  1.00  0.00     0.074 A 
ATOM     62  C   UNL A   1      45.213  24.583  30.514  1.00  0.00     0.031 C 
ATOM     63  C   UNL A   1      45.259  26.238  32.358  1.00  0.00     0.034 A 
BRANCH  50  64
ATOM     64  C   UNL A   1      42.255  31.152  34.675  1.00  0.00     0.023 A 
ATOM     65  C   UNL A   1      42.833  32.413  34.449  1.00  0.00     0.031 A 
ATOM     66  C   UNL A   1      41.639  30.924  35.918  1.00  0.00     0.131 A 
ATOM     67  C   UNL A   1      42.856  33.369  35.476  1.00  0.00     0.055 A 
ATOM     68  C   UNL A   1      41.593  31.909  36.908  1.00  0.00     0.041 A 
ATOM     69  F   UNL A   1      41.086  29.734  36.201  1.00  0.00    -0.206 F 
ATOM     70  C   UNL A   1      42.218  33.134  36.696  1.00  0.00     0.022 A 
BRANCH  67  71
ATOM     71  S   UNL A   1      43.856  34.864  35.247  1.00  0.00     0.124 S 
ATOM     72  O   UNL A   1      42.989  35.668  34.388  1.00  0.00    -0.237 OA
ATOM     73  O   UNL A   1      44.025  35.345  36.613  1.00  0.00    -0.237 OA
ATOM     74  O   UNL A   1      45.071  34.369  34.603  1.00  0.00    -0.744 OA
ENDBRANCH  67  71
ENDBRANCH  50  64
BRANCH  51  75
ATOM     75  C   UNL A   1      42.435  24.312  27.349  1.00  0.00     0.023 A 
ATOM     76  C   UNL A   1      41.632  23.160  27.359  1.00  0.00     0.031 A 
ATOM     77  C   UNL A   1      43.332  24.481  26.280  1.00  0.00     0.131 A 
ATOM     78  C   UNL A   1      41.774  22.200  26.346  1.00  0.00     0.055 A 
ATOM     79  C   UNL A   1      43.434  23.547  25.248  1.00  0.00     0.041 A 
ATOM     80  F   UNL A   1      44.118  25.568  26.219  1.00  0.00    -0.206 F 
ATOM     81  C   UNL A   1      42.661  22.391  25.284  1.00  0.00     0.022 A 
BRANCH  78  82
ATOM     82  S   UNL A   1      40.836  20.653  26.478  1.00  0.00     0.124 S 
ATOM     83  O   UNL A   1      40.929  20.369  27.905  1.00  0.00    -0.237 OA
ATOM     84  O   UNL A   1      39.521  21.055  25.987  1.00  0.00    -0.237 OA
ATOM     85  O   UNL A   1      41.568  19.736  25.608  1.00  0.00    -0.744 OA
ENDBRANCH  78  82
ENDBRANCH  51  75
BRANCH  63  86
ATOM     86  C   UNL A   1      46.484  25.533  32.887  1.00  0.00     0.023 A 
ATOM     87  C   UNL A   1      46.387  24.478  33.810  1.00  0.00     0.031 A 
ATOM     88  C   UNL A   1      47.766  25.939  32.475  1.00  0.00     0.131 A 
ATOM     89  C   UNL A   1      47.553  23.903  34.337  1.00  0.00     0.055 A 
ATOM     90  C   UNL A   1      48.921  25.322  32.959  1.00  0.00     0.041 A 
ATOM     91  F   UNL A   1      47.916  26.942  31.596  1.00  0.00    -0.206 F 
ATOM     92  C   UNL A   1      48.819  24.307  33.906  1.00  0.00     0.022 A 
BRANCH  89  93
ATOM     93  S   UNL A   1      47.395  22.678  35.667  1.00  0.00     0.124 S 
ATOM     94  O   UNL A   1      47.175  23.524  36.834  1.00  0.00    -0.237 OA
ATOM     95  O   UNL A   1      46.250  21.886  35.228  1.00  0.00    -0.237 OA
ATOM     96  O   UNL A   1      48.678  21.977  35.643  1.00  0.00    -0.744 OA
ENDBRANCH  89  93
ENDBRANCH  63  86
ENDBRANCH  37  38
ENDBRANCH  29  32
ENDBRANCH  27  28
ENDBRANCH  26  27
ENDBRANCH  25  26
ENDBRANCH  24  25
ENDBRANCH   1  24
TORSDOF 21
ENDMDL
MODEL 2
REMARK VINA RESULT:     -10.9      1.816      2.122
REMARK SMILES C[C@@H]1[C@H](C(=O)NCCCCCCNC(=O)c2ccc(-c3c4nc(c(-c5cc(S(=O)(=O)[O-])ccc5F)c5ccc([nH]5)c(-c5cc(S(=O)(=O)[O-])ccc5F)c5nc(c(-c6cc(S(=O)(=O)[O-])ccc6F)c6ccc3[nH]6)C=C5)C=C4)cc2)CCN1C(=O)COCc1ccccc1
REMARK SMILES IDX 8 1 7 2 6 3 4 4 5 5 3 7 1 8 2 9 81 10 79 11 80 12 82 13
REMARK SMILES IDX 83 14 84 15 85 16 86 17 87 18 88 19 92 20 89 21 91 22 90 23
REMARK SMILES IDX 9 24 10 25 11 26 12 27 13 28 14 29 15 31 16 32 17 33 78 34
REMARK SMILES IDX 18 35 77 36 19 37 20 38 21 39 71 40 22 41 76 42 70 43 72 44
REMARK SMILES IDX 23 45 75 46 69 47 68 48 24 50 56 51 36 52 55 53 37 54 40 55
REMARK SMILES IDX 54 56 73 57 38 58 39 59 53 61 74 62 41 63 25 64 26 65 34 66
REMARK SMILES IDX 27 67 33 68 35 69 32 70 28 71 29 72 30 73 31 74 57 75 58 76
REMARK SMILES IDX 66 77 59 78 65 79 67 80 64 81 60 82 61 83 62 84 63 85 42 86
REMARK SMILES IDX 43 87 51 88 44 89 50 90 52 91 49 92 45 93 46 94 47 95 48 96
REMARK H PARENT 6 6 13 30 72 49 40 60
REMARK Flexibility Score: inf
ROOT
ATOM      1  C   UNL A   1      31.230  28.551  23.731  1.00  0.00     0.021 C 
ENDROOT
BRANCH   1   2
ATOM      2  C   UNL A   1      32.199  28.848  22.585  1.00  0.00     0.116 C 
BRANCH   2   3
ATOM      3  N   UNL A   1      32.707  27.626  21.989  1.00  0.00    -0.356 N 
ATOM      4  C   UNL A   1      33.125  26.455  22.535  1.00  0.00     0.225 C 
ATOM      5  O   UNL A   1      33.605  25.618  21.763  1.00  0.00    -0.275 OA
ATOM      6  H   UNL A   1      32.758  27.649  21.006  1.00  0.00     0.163 HD
BRANCH   4   7
ATOM      7  C   UNL A   1      33.029  26.131  24.017  1.00  0.00     0.102 C 
ATOM      8  C   UNL A   1      31.395  24.171  23.443  1.00  0.00     0.032 C 
ATOM      9  C   UNL A   1      31.973  25.110  24.495  1.00  0.00     0.094 C 
ATOM     10  N   UNL A   1      32.622  24.428  25.630  1.00  0.00    -0.337 N 
ATOM     11  C   UNL A   1      34.349  25.743  24.682  1.00  0.00     0.037 C 
ATOM     12  C   UNL A   1      33.926  24.991  25.924  1.00  0.00     0.121 C 
BRANCH  10  13
ATOM     13  C   UNL A   1      32.065  23.562  26.554  1.00  0.00     0.248 C 
ATOM     14  O   UNL A   1      31.021  23.847  27.149  1.00  0.00    -0.272 OA
BRANCH  13  15
ATOM     15  C   UNL A   1      32.781  22.241  26.851  1.00  0.00     0.260 C 
BRANCH  15  16
ATOM     16  O   UNL A   1      32.631  21.202  25.892  1.00  0.00    -0.367 OA
BRANCH  16  17
ATOM     17  C   UNL A   1      33.865  20.579  25.526  1.00  0.00     0.196 C 
BRANCH  17  18
ATOM     18  C   UNL A   1      33.650  19.477  24.524  1.00  0.00    -0.022 A 
ATOM     19  C   UNL A   1      32.530  19.490  23.684  1.00  0.00     0.006 A 
ATOM     20  C   UNL A   1      34.528  18.385  24.477  1.00  0.00     0.006 A 
ATOM     21  C   UNL A   1      32.278  18.416  22.832  1.00  0.00     0.000 A 
ATOM     22  C   UNL A   1      34.272  17.309  23.629  1.00  0.00     0.000 A 
ATOM     23  C   UNL A   1      33.143  17.323  22.811  1.00  0.00     0.000 A 
ENDBRANCH  17  18
ENDBRANCH  16  17
ENDBRANCH  15  16
ENDBRANCH  13  15
ENDBRANCH  10  13
ENDBRANCH   4   7
ENDBRANCH   2   3
ENDBRANCH   1   2
BRANCH   1  24
ATOM     24  C   UNL A   1      31.370  29.468  24.946  1.00  0.00     0.002 C 
BRANCH  24  25
ATOM     25  C   UNL A   1      31.428  28.754  26.298  1.00  0.00     0.002 C 
BRANCH  25  26
ATOM     26  C   UNL A   1      32.832  28.533  26.869  1.00  0.00     0.021 C 
BRANCH  26  27
ATOM     27  C   UNL A   1      33.909  29.488  26.355  1.00  0.00     0.116 C 
BRANCH  27  28
ATOM     28  N   UNL A   1      33.769  30.821  26.909  1.00  0.00    -0.352 N 
ATOM     29  C   UNL A   1      34.496  31.440  27.896  1.00  0.00     0.251 C 
ATOM     30  H   UNL A   1      33.046  31.364  26.518  1.00  0.00     0.163 HD
ATOM     31  O   UNL A   1      34.095  32.502  28.361  1.00  0.00    -0.269 OA
BRANCH  29  32
ATOM     32  C   UNL A   1      35.739  30.823  28.410  1.00  0.00     0.039 A 
ATOM     33  C   UNL A   1      36.964  31.278  27.914  1.00  0.00     0.014 A 
ATOM     34  C   UNL A   1      35.705  29.780  29.340  1.00  0.00     0.014 A 
ATOM     35  C   UNL A   1      38.154  30.716  28.382  1.00  0.00     0.010 A 
ATOM     36  C   UNL A   1      36.896  29.264  29.853  1.00  0.00     0.010 A 
ATOM     37  C   UNL A   1      38.133  29.719  29.369  1.00  0.00    -0.014 A 
BRANCH  37  38
ATOM     38  C   UNL A   1      39.397  29.128  29.881  1.00  0.00     0.031 A 
ATOM     39  C   UNL A   1      40.075  29.720  31.087  1.00  0.00     0.074 A 
ATOM     40  C   UNL A   1      39.951  28.079  29.240  1.00  0.00     0.049 A 
ATOM     41  N   UNL A   1      41.192  29.366  31.668  1.00  0.00    -0.248 NA
ATOM     42  C   UNL A   1      39.419  30.883  31.705  1.00  0.00     0.031 C 
ATOM     43  C   UNL A   1      39.409  27.444  28.037  1.00  0.00     0.029 A 
ATOM     44  N   UNL A   1      41.091  27.364  29.507  1.00  0.00    -0.354 N 
ATOM     45  C   UNL A   1      41.380  30.264  32.714  1.00  0.00     0.074 A 
ATOM     46  C   UNL A   1      40.291  31.217  32.644  1.00  0.00     0.031 C 
ATOM     47  C   UNL A   1      40.203  26.419  27.687  1.00  0.00     0.029 A 
ATOM     48  C   UNL A   1      41.327  26.345  28.614  1.00  0.00     0.049 A 
ATOM     49  H   UNL A   1      41.684  27.562  30.267  1.00  0.00     0.167 HD
ATOM     50  C   UNL A   1      42.353  30.279  33.658  1.00  0.00     0.034 A 
ATOM     51  C   UNL A   1      42.338  25.456  28.548  1.00  0.00     0.034 A 
ATOM     52  C   UNL A   1      43.425  29.313  33.721  1.00  0.00     0.049 A 
ATOM     53  C   UNL A   1      43.417  25.500  29.599  1.00  0.00     0.074 A 
ATOM     54  C   UNL A   1      44.431  29.200  34.664  1.00  0.00     0.029 A 
ATOM     55  N   UNL A   1      43.633  28.296  32.798  1.00  0.00    -0.354 N 
ATOM     56  N   UNL A   1      43.549  26.324  30.614  1.00  0.00    -0.248 NA
ATOM     57  C   UNL A   1      44.476  24.487  29.503  1.00  0.00     0.031 C 
ATOM     58  C   UNL A   1      45.282  28.158  34.278  1.00  0.00     0.029 A 
ATOM     59  C   UNL A   1      44.768  27.573  33.132  1.00  0.00     0.049 A 
ATOM     60  H   UNL A   1      43.059  28.116  32.018  1.00  0.00     0.167 HD
ATOM     61  C   UNL A   1      44.693  25.908  31.292  1.00  0.00     0.074 A 
ATOM     62  C   UNL A   1      45.199  24.753  30.581  1.00  0.00     0.031 C 
ATOM     63  C   UNL A   1      45.270  26.432  32.402  1.00  0.00     0.034 A 
BRANCH  50  64
ATOM     64  C   UNL A   1      42.310  31.389  34.682  1.00  0.00     0.023 A 
ATOM     65  C   UNL A   1      41.294  31.461  35.651  1.00  0.00     0.031 A 
ATOM     66  C   UNL A   1      43.279  32.408  34.670  1.00  0.00     0.131 A 
ATOM     67  C   UNL A   1      41.222  32.565  36.514  1.00  0.00     0.055 A 
ATOM     68  C   UNL A   1      43.250  33.463  35.586  1.00  0.00     0.041 A 
ATOM     69  F   UNL A   1      44.263  32.406  33.758  1.00  0.00    -0.206 F 
ATOM     70  C   UNL A   1      42.208  33.554  36.504  1.00  0.00     0.022 A 
BRANCH  67  71
ATOM     71  S   UNL A   1      39.746  32.763  37.548  1.00  0.00     0.124 S 
ATOM     72  O   UNL A   1      38.995  31.552  37.223  1.00  0.00    -0.237 OA
ATOM     73  O   UNL A   1      40.307  32.826  38.892  1.00  0.00    -0.237 OA
ATOM     74  O   UNL A   1      39.150  34.006  37.061  1.00  0.00    -0.744 OA
ENDBRANCH  67  71
ENDBRANCH  50  64
BRANCH  51  75
ATOM     75  C   UNL A   1      42.387  24.449  27.449  1.00  0.00     0.023 A 
ATOM     76  C   UNL A   1      41.698  23.230  27.554  1.00  0.00     0.031 A 
ATOM     77  C   UNL A   1      43.158  24.675  26.295  1.00  0.00     0.131 A 
ATOM     78  C   UNL A   1      41.831  22.264  26.545  1.00  0.00     0.055 A 
ATOM     79  C   UNL A   1      43.247  23.730  25.272  1.00  0.00     0.041 A 
ATOM     80  F   UNL A   1      43.831  25.827  26.143  1.00  0.00    -0.206 F 
ATOM     81  C   UNL A   1      42.591  22.510  25.399  1.00  0.00     0.022 A 
BRANCH  78  82
ATOM     82  S   UNL A   1      41.056  20.641  26.790  1.00  0.00     0.124 S 
ATOM     83  O   UNL A   1      40.796  20.649  28.225  1.00  0.00    -0.237 OA
ATOM     84  O   UNL A   1      39.885  20.732  25.924  1.00  0.00    -0.237 OA
ATOM     85  O   UNL A   1      42.085  19.703  26.346  1.00  0.00    -0.744 OA
ENDBRANCH  78  82
ENDBRANCH  51  75
BRANCH  63  86
ATOM     86  C   UNL A   1      46.498  25.730  32.927  1.00  0.00     0.023 A 
ATOM     87  C   UNL A   1      47.769  25.946  32.368  1.00  0.00     0.031 A 
ATOM     88  C   UNL A   1      46.388  24.814  33.989  1.00  0.00     0.131 A 
ATOM     89  C   UNL A   1      48.871  25.213  32.833  1.00  0.00     0.055 A 
ATOM     90  C   UNL A   1      47.499  24.131  34.487  1.00  0.00     0.041 A 
ATOM     91  F   UNL A   1      45.199  24.568  34.560  1.00  0.00    -0.206 F 
ATOM     92  C   UNL A   1      48.747  24.318  33.899  1.00  0.00     0.022 A 
BRANCH  89  93
ATOM     93  S   UNL A   1      50.454  25.376  31.962  1.00  0.00     0.124 S 
ATOM     94  O   UNL A   1      50.039  25.323  30.565  1.00  0.00    -0.237 OA
ATOM     95  O   UNL A   1      50.939  26.669  32.434  1.00  0.00    -0.237 OA
ATOM     96  O   UNL A   1      51.221  24.221  32.425  1.00  0.00    -0.744 OA
ENDBRANCH  89  93
ENDBRANCH  63  86
ENDBRANCH  37  38
ENDBRANCH  29  32
ENDBRANCH  27  28
ENDBRANCH  26  27
ENDBRANCH  25  26
ENDBRANCH  24  25
ENDBRANCH   1  24
TORSDOF 21
ENDMDL
MODEL 3
REMARK VINA RESULT:     -10.8      3.834      5.951
REMARK SMILES C[C@@H]1[C@H](C(=O)NCCCCCCNC(=O)c2ccc(-c3c4nc(c(-c5cc(S(=O)(=O)[O-])ccc5F)c5ccc([nH]5)c(-c5cc(S(=O)(=O)[O-])ccc5F)c5nc(c(-c6cc(S(=O)(=O)[O-])ccc6F)c6ccc3[nH]6)C=C5)C=C4)cc2)CCN1C(=O)COCc1ccccc1
REMARK SMILES IDX 8 1 7 2 6 3 4 4 5 5 3 7 1 8 2 9 81 10 79 11 80 12 82 13
REMARK SMILES IDX 83 14 84 15 85 16 86 17 87 18 88 19 92 20 89 21 91 22 90 23
REMARK SMILES IDX 9 24 10 25 11 26 12 27 13 28 14 29 15 31 16 32 17 33 78 34
REMARK SMILES IDX 18 35 77 36 19 37 20 38 21 39 71 40 22 41 76 42 70 43 72 44
REMARK SMILES IDX 23 45 75 46 69 47 68 48 24 50 56 51 36 52 55 53 37 54 40 55
REMARK SMILES IDX 54 56 73 57 38 58 39 59 53 61 74 62 41 63 25 64 26 65 34 66
REMARK SMILES IDX 27 67 33 68 35 69 32 70 28 71 29 72 30 73 31 74 57 75 58 76
REMARK SMILES IDX 66 77 59 78 65 79 67 80 64 81 60 82 61 83 62 84 63 85 42 86
REMARK SMILES IDX 43 87 51 88 44 89 50 90 52 91 49 92 45 93 46 94 47 95 48 96
REMARK H PARENT 6 6 13 30 72 49 40 60
REMARK Flexibility Score: inf
ROOT
ATOM      1  C   UNL A   1      35.318  30.255  27.982  1.00  0.00     0.021 C 
ENDROOT
BRANCH   1   2
ATOM      2  C   UNL A   1      34.221  29.451  27.282  1.00  0.00     0.116 C 
BRANCH   2   3
ATOM      3  N   UNL A   1      34.415  29.428  25.844  1.00  0.00    -0.356 N 
ATOM      4  C   UNL A   1      33.998  28.562  24.884  1.00  0.00     0.225 C 
ATOM      5  O   UNL A   1      34.412  28.757  23.737  1.00  0.00    -0.275 OA
ATOM      6  H   UNL A   1      34.947  30.181  25.499  1.00  0.00     0.163 HD
BRANCH   4   7
ATOM      7  C   UNL A   1      33.064  27.392  25.151  1.00  0.00     0.102 C 
ATOM      8  C   UNL A   1      31.030  29.024  24.962  1.00  0.00     0.032 C 
ATOM      9  C   UNL A   1      31.567  27.671  25.410  1.00  0.00     0.094 C 
ATOM     10  N   UNL A   1      30.878  26.513  24.813  1.00  0.00    -0.337 N 
ATOM     11  C   UNL A   1      33.130  26.265  24.120  1.00  0.00     0.037 C 
ATOM     12  C   UNL A   1      31.815  25.537  24.292  1.00  0.00     0.121 C 
BRANCH  10  13
ATOM     13  C   UNL A   1      29.549  26.143  24.926  1.00  0.00     0.248 C 
ATOM     14  O   UNL A   1      29.135  25.542  25.922  1.00  0.00    -0.272 OA
BRANCH  13  15
ATOM     15  C   UNL A   1      28.593  26.470  23.775  1.00  0.00     0.260 C 
BRANCH  15  16
ATOM     16  O   UNL A   1      28.721  27.758  23.184  1.00  0.00    -0.367 OA
BRANCH  16  17
ATOM     17  C   UNL A   1      27.509  28.517  23.197  1.00  0.00     0.196 C 
BRANCH  17  18
ATOM     18  C   UNL A   1      27.734  29.924  22.715  1.00  0.00    -0.022 A 
ATOM     19  C   UNL A   1      28.000  30.177  21.363  1.00  0.00     0.006 A 
ATOM     20  C   UNL A   1      27.760  30.987  23.629  1.00  0.00     0.006 A 
ATOM     21  C   UNL A   1      28.313  31.467  20.939  1.00  0.00     0.000 A 
ATOM     22  C   UNL A   1      28.079  32.275  23.203  1.00  0.00     0.000 A 
ATOM     23  C   UNL A   1      28.361  32.514  21.858  1.00  0.00     0.000 A 
ENDBRANCH  17  18
ENDBRANCH  16  17
ENDBRANCH  15  16
ENDBRANCH  13  15
ENDBRANCH  10  13
ENDBRANCH   4   7
ENDBRANCH   2   3
ENDBRANCH   1   2
BRANCH   1  24
ATOM     24  C   UNL A   1      34.831  31.502  28.720  1.00  0.00     0.002 C 
BRANCH  24  25
ATOM     25  C   UNL A   1      34.860  32.796  27.906  1.00  0.00     0.002 C 
BRANCH  25  26
ATOM     26  C   UNL A   1      33.660  33.729  28.104  1.00  0.00     0.021 C 
BRANCH  26  27
ATOM     27  C   UNL A   1      33.991  35.119  28.645  1.00  0.00     0.116 C 
BRANCH  27  28
ATOM     28  N   UNL A   1      33.249  35.429  29.852  1.00  0.00    -0.352 N 
ATOM     29  C   UNL A   1      33.425  34.964  31.132  1.00  0.00     0.251 C 
ATOM     30  H   UNL A   1      32.508  36.067  29.736  1.00  0.00     0.163 HD
ATOM     31  O   UNL A   1      32.567  35.195  31.979  1.00  0.00    -0.269 OA
BRANCH  29  32
ATOM     32  C   UNL A   1      34.628  34.177  31.484  1.00  0.00     0.039 A 
ATOM     33  C   UNL A   1      35.880  34.657  31.090  1.00  0.00     0.014 A 
ATOM     34  C   UNL A   1      34.528  32.957  32.160  1.00  0.00     0.014 A 
ATOM     35  C   UNL A   1      37.032  33.936  31.410  1.00  0.00     0.010 A 
ATOM     36  C   UNL A   1      35.684  32.270  32.534  1.00  0.00     0.010 A 
ATOM     37  C   UNL A   1      36.947  32.747  32.151  1.00  0.00    -0.014 A 
BRANCH  37  38
ATOM     38  C   UNL A   1      38.173  31.984  32.507  1.00  0.00     0.031 A 
ATOM     39  C   UNL A   1      38.907  32.286  33.786  1.00  0.00     0.074 A 
ATOM     40  C   UNL A   1      38.641  31.042  31.664  1.00  0.00     0.049 A 
ATOM     41  N   UNL A   1      40.003  31.751  34.258  1.00  0.00    -0.248 NA
ATOM     42  C   UNL A   1      38.346  33.351  34.631  1.00  0.00     0.031 C 
ATOM     43  C   UNL A   1      38.038  30.688  30.377  1.00  0.00     0.029 A 
ATOM     44  N   UNL A   1      39.729  30.213  31.759  1.00  0.00    -0.354 N 
ATOM     45  C   UNL A   1      40.269  32.416  35.450  1.00  0.00     0.074 A 
ATOM     46  C   UNL A   1      39.252  33.438  35.593  1.00  0.00     0.031 C 
ATOM     47  C   UNL A   1      38.751  29.697  29.816  1.00  0.00     0.029 A 
ATOM     48  C   UNL A   1      39.879  29.370  30.681  1.00  0.00     0.049 A 
ATOM     49  H   UNL A   1      40.345  30.220  32.527  1.00  0.00     0.167 HD
ATOM     50  C   UNL A   1      41.254  32.183  36.354  1.00  0.00     0.034 A 
ATOM     51  C   UNL A   1      40.821  28.443  30.420  1.00  0.00     0.034 A 
ATOM     52  C   UNL A   1      42.253  31.152  36.203  1.00  0.00     0.049 A 
ATOM     53  C   UNL A   1      41.914  28.210  31.431  1.00  0.00     0.074 A 
ATOM     54  C   UNL A   1      43.261  30.791  37.080  1.00  0.00     0.029 A 
ATOM     55  N   UNL A   1      42.375  30.319  35.097  1.00  0.00    -0.354 N 
ATOM     56  N   UNL A   1      42.120  28.813  32.581  1.00  0.00    -0.248 NA
ATOM     57  C   UNL A   1      42.896  27.164  31.115  1.00  0.00     0.031 C 
ATOM     58  C   UNL A   1      44.029  29.787  36.480  1.00  0.00     0.029 A 
ATOM     59  C   UNL A   1      43.459  29.469  35.257  1.00  0.00     0.049 A 
ATOM     60  H   UNL A   1      41.779  30.332  34.313  1.00  0.00     0.167 HD
ATOM     61  C   UNL A   1      43.239  28.198  33.136  1.00  0.00     0.074 A 
ATOM     62  C   UNL A   1      43.651  27.168  32.205  1.00  0.00     0.031 C 
ATOM     63  C   UNL A   1      43.868  28.458  34.310  1.00  0.00     0.034 A 
BRANCH  50  64
ATOM     64  C   UNL A   1      41.304  33.077  37.571  1.00  0.00     0.023 A 
ATOM     65  C   UNL A   1      40.548  32.799  38.723  1.00  0.00     0.031 A 
ATOM     66  C   UNL A   1      42.095  34.239  37.569  1.00  0.00     0.131 A 
ATOM     67  C   UNL A   1      40.535  33.709  39.791  1.00  0.00     0.055 A 
ATOM     68  C   UNL A   1      42.142  35.100  38.669  1.00  0.00     0.041 A 
ATOM     69  F   UNL A   1      42.825  34.569  36.492  1.00  0.00    -0.206 F 
ATOM     70  C   UNL A   1      41.346  34.845  39.782  1.00  0.00     0.022 A 
BRANCH  67  71
ATOM     71  S   UNL A   1      39.334  33.460  41.127  1.00  0.00     0.124 S 
ATOM     72  O   UNL A   1      40.038  34.044  42.267  1.00  0.00    -0.237 OA
ATOM     73  O   UNL A   1      38.171  34.197  40.648  1.00  0.00    -0.237 OA
ATOM     74  O   UNL A   1      39.175  32.008  41.179  1.00  0.00    -0.744 OA
ENDBRANCH  67  71
ENDBRANCH  50  64
BRANCH  51  75
ATOM     75  C   UNL A   1      40.783  27.665  29.149  1.00  0.00     0.023 A 
ATOM     76  C   UNL A   1      41.681  27.939  28.106  1.00  0.00     0.031 A 
ATOM     77  C   UNL A   1      39.818  26.663  28.944  1.00  0.00     0.131 A 
ATOM     78  C   UNL A   1      41.567  27.251  26.887  1.00  0.00     0.055 A 
ATOM     79  C   UNL A   1      39.741  25.948  27.748  1.00  0.00     0.041 A 
ATOM     80  F   UNL A   1      38.939  26.358  29.912  1.00  0.00    -0.206 F 
ATOM     81  C   UNL A   1      40.612  26.250  26.705  1.00  0.00     0.022 A 
BRANCH  78  82
ATOM     82  S   UNL A   1      42.642  27.743  25.510  1.00  0.00     0.124 S 
ATOM     83  O   UNL A   1      41.934  28.902  24.979  1.00  0.00    -0.237 OA
ATOM     84  O   UNL A   1      43.902  28.018  26.194  1.00  0.00    -0.237 OA
ATOM     85  O   UNL A   1      42.648  26.564  24.647  1.00  0.00    -0.744 OA
ENDBRANCH  78  82
ENDBRANCH  51  75
BRANCH  63  86
ATOM     86  C   UNL A   1      45.048  27.585  34.659  1.00  0.00     0.023 A 
ATOM     87  C   UNL A   1      44.884  26.337  35.282  1.00  0.00     0.031 A 
ATOM     88  C   UNL A   1      46.356  28.021  34.381  1.00  0.00     0.131 A 
ATOM     89  C   UNL A   1      46.011  25.592  35.662  1.00  0.00     0.055 A 
ATOM     90  C   UNL A   1      47.472  27.249  34.708  1.00  0.00     0.041 A 
ATOM     91  F   UNL A   1      46.571  29.205  33.788  1.00  0.00    -0.206 F 
ATOM     92  C   UNL A   1      47.303  26.033  35.365  1.00  0.00     0.022 A 
BRANCH  89  93
ATOM     93  S   UNL A   1      45.768  24.080  36.635  1.00  0.00     0.124 S 
ATOM     94  O   UNL A   1      44.403  23.708  36.281  1.00  0.00    -0.237 OA
ATOM     95  O   UNL A   1      46.820  23.207  36.123  1.00  0.00    -0.237 OA
ATOM     96  O   UNL A   1      45.950  24.526  38.015  1.00  0.00    -0.744 OA
ENDBRANCH  89  93
ENDBRANCH  63  86
ENDBRANCH  37  38
ENDBRANCH  29  32
ENDBRANCH  27  28
ENDBRANCH  26  27
ENDBRANCH  25  26
ENDBRANCH  24  25
ENDBRANCH   1  24
TORSDOF 21
ENDMDL
