MODEL 1
REMARK VINA RESULT:     -11.2      0.000      0.000
REMARK SMILES C[C@H]1CN([C@@H](C(=O)NCCCCCCNC(=O)c2ccc(-c3c4nc(c(-c5cc(S(=O)(=O)[O-])ccc5F)c5ccc([nH]5)c(-c5cc(S(=O)(=O)[O-])ccc5F)c5nc(c(-c6cc(S(=O)(=O)[O-])ccc6F)c6ccc3[nH]6)C=C5)C=C4)cc2)C(C)(C)C)S(=O)(=O)C1
REMARK SMILES IDX 12 1 11 2 10 3 9 4 8 5 6 6 7 7 5 9 4 10 1 11 2 12 3 13 88 14
REMARK SMILES IDX 85 15 86 16 87 17 81 18 82 19 83 20 84 21 13 22 14 23 15 24
REMARK SMILES IDX 16 25 17 27 18 28 19 29 80 30 20 31 79 32 21 33 22 34 23 35
REMARK SMILES IDX 73 36 24 37 78 38 72 39 74 40 25 41 77 42 71 43 70 44 26 46
REMARK SMILES IDX 58 47 38 48 57 49 39 50 42 51 56 52 75 53 40 54 41 55 55 57
REMARK SMILES IDX 76 58 43 59 27 60 28 61 36 62 29 63 35 64 37 65 34 66 30 67
REMARK SMILES IDX 31 68 32 69 33 70 59 71 60 72 68 73 61 74 67 75 69 76 66 77
REMARK SMILES IDX 62 78 63 79 64 80 65 81 44 82 45 83 53 84 46 85 52 86 54 87
REMARK SMILES IDX 51 88 47 89 48 90 49 91 50 92
REMARK H PARENT 8 8 15 26 74 45 42 56
REMARK Flexibility Score: inf
ROOT
ATOM      1  C   UNL A   1      31.892  30.371  26.135  1.00  0.00     0.002 C 
ENDROOT
BRANCH   1   2
ATOM      2  C   UNL A   1      31.980  29.237  27.152  1.00  0.00     0.002 C 
BRANCH   2   3
ATOM      3  C   UNL A   1      33.394  28.681  27.345  1.00  0.00     0.021 C 
BRANCH   3   4
ATOM      4  C   UNL A   1      33.862  27.691  26.270  1.00  0.00     0.116 C 
BRANCH   4   5
ATOM      5  N   UNL A   1      33.156  26.420  26.338  1.00  0.00    -0.355 N 
ATOM      6  C   UNL A   1      33.237  25.243  25.643  1.00  0.00     0.238 C 
ATOM      7  O   UNL A   1      32.439  24.374  26.002  1.00  0.00    -0.273 OA
ATOM      8  H   UNL A   1      32.467  26.402  27.041  1.00  0.00     0.163 HD
BRANCH   6   9
ATOM      9  C   UNL A   1      34.277  25.015  24.522  1.00  0.00     0.167 C 
BRANCH   9  10
ATOM     10  N   UNL A   1      33.803  25.343  23.135  1.00  0.00    -0.189 NA
ATOM     11  C   UNL A   1      31.183  27.085  23.322  1.00  0.00     0.010 C 
ATOM     12  C   UNL A   1      32.272  27.011  22.239  1.00  0.00     0.017 C 
ATOM     13  C   UNL A   1      33.709  26.766  22.746  1.00  0.00     0.107 C 
ATOM     14  C   UNL A   1      32.026  25.813  21.332  1.00  0.00     0.159 C 
ATOM     15  S   UNL A   1      32.675  24.429  22.257  1.00  0.00     0.215 S 
ATOM     16  O   UNL A   1      33.387  23.574  21.339  1.00  0.00    -0.212 OA
ATOM     17  O   UNL A   1      31.635  23.950  23.138  1.00  0.00    -0.212 OA
ENDBRANCH   9  10
BRANCH   9  18
ATOM     18  C   UNL A   1      35.015  23.615  24.636  1.00  0.00    -0.013 C 
ATOM     19  C   UNL A   1      36.047  23.477  23.494  1.00  0.00     0.013 C 
ATOM     20  C   UNL A   1      35.813  23.550  25.965  1.00  0.00     0.013 C 
ATOM     21  C   UNL A   1      34.110  22.365  24.618  1.00  0.00     0.013 C 
ENDBRANCH   9  18
ENDBRANCH   6   9
ENDBRANCH   4   5
ENDBRANCH   3   4
ENDBRANCH   2   3
ENDBRANCH   1   2
BRANCH   1  22
ATOM     22  C   UNL A   1      31.631  31.756  26.738  1.00  0.00     0.021 C 
BRANCH  22  23
ATOM     23  C   UNL A   1      32.851  32.410  27.382  1.00  0.00     0.116 C 
BRANCH  23  24
ATOM     24  N   UNL A   1      32.642  33.835  27.581  1.00  0.00    -0.352 N 
ATOM     25  C   UNL A   1      33.158  34.630  28.575  1.00  0.00     0.251 C 
ATOM     26  H   UNL A   1      32.061  34.284  26.925  1.00  0.00     0.163 HD
ATOM     27  O   UNL A   1      32.667  35.727  28.815  1.00  0.00    -0.269 OA
BRANCH  25  28
ATOM     28  C   UNL A   1      34.309  34.129  29.357  1.00  0.00     0.039 A 
ATOM     29  C   UNL A   1      34.086  33.386  30.517  1.00  0.00     0.014 A 
ATOM     30  C   UNL A   1      35.611  34.374  28.910  1.00  0.00     0.014 A 
ATOM     31  C   UNL A   1      35.174  32.842  31.203  1.00  0.00     0.010 A 
ATOM     32  C   UNL A   1      36.685  33.769  29.551  1.00  0.00     0.010 A 
ATOM     33  C   UNL A   1      36.481  33.003  30.710  1.00  0.00    -0.014 A 
BRANCH  33  34
ATOM     34  C   UNL A   1      37.652  32.402  31.402  1.00  0.00     0.031 A 
ATOM     35  C   UNL A   1      38.404  31.273  30.749  1.00  0.00     0.074 A 
ATOM     36  C   UNL A   1      37.998  32.826  32.635  1.00  0.00     0.049 A 
ATOM     37  N   UNL A   1      39.392  30.555  31.219  1.00  0.00    -0.248 NA
ATOM     38  C   UNL A   1      37.967  30.879  29.400  1.00  0.00     0.031 C 
ATOM     39  C   UNL A   1      37.331  33.897  33.379  1.00  0.00     0.029 A 
ATOM     40  N   UNL A   1      38.992  32.407  33.484  1.00  0.00    -0.354 N 
ATOM     41  C   UNL A   1      39.681  29.615  30.236  1.00  0.00     0.074 A 
ATOM     42  C   UNL A   1      38.727  29.819  29.166  1.00  0.00     0.031 C 
ATOM     43  C   UNL A   1      37.954  34.070  34.557  1.00  0.00     0.029 A 
ATOM     44  C   UNL A   1      39.026  33.089  34.681  1.00  0.00     0.049 A 
ATOM     45  H   UNL A   1      39.623  31.685  33.259  1.00  0.00     0.167 HD
ATOM     46  C   UNL A   1      40.663  28.681  30.218  1.00  0.00     0.034 A 
ATOM     47  C   UNL A   1      39.821  32.929  35.758  1.00  0.00     0.034 A 
ATOM     48  C   UNL A   1      41.620  28.508  31.282  1.00  0.00     0.049 A 
ATOM     49  C   UNL A   1      40.881  31.853  35.727  1.00  0.00     0.074 A 
ATOM     50  C   UNL A   1      42.696  27.639  31.336  1.00  0.00     0.029 A 
ATOM     51  N   UNL A   1      41.615  29.207  32.482  1.00  0.00    -0.354 N 
ATOM     52  N   UNL A   1      41.174  31.009  34.764  1.00  0.00    -0.248 NA
ATOM     53  C   UNL A   1      41.723  31.713  36.923  1.00  0.00     0.031 C 
ATOM     54  C   UNL A   1      43.286  27.750  32.598  1.00  0.00     0.029 A 
ATOM     55  C   UNL A   1      42.641  28.757  33.298  1.00  0.00     0.049 A 
ATOM     56  H   UNL A   1      40.975  29.917  32.719  1.00  0.00     0.167 HD
ATOM     57  C   UNL A   1      42.265  30.273  35.224  1.00  0.00     0.074 A 
ATOM     58  C   UNL A   1      42.579  30.778  36.543  1.00  0.00     0.031 C 
ATOM     59  C   UNL A   1      42.949  29.274  34.610  1.00  0.00     0.034 A 
BRANCH  46  60
ATOM     60  C   UNL A   1      40.732  27.753  29.030  1.00  0.00     0.023 A 
ATOM     61  C   UNL A   1      41.691  27.912  28.014  1.00  0.00     0.031 A 
ATOM     62  C   UNL A   1      39.826  26.682  28.917  1.00  0.00     0.131 A 
ATOM     63  C   UNL A   1      41.682  27.055  26.903  1.00  0.00     0.055 A 
ATOM     64  C   UNL A   1      39.876  25.784  27.849  1.00  0.00     0.041 A 
ATOM     65  F   UNL A   1      38.873  26.493  29.843  1.00  0.00    -0.206 F 
ATOM     66  C   UNL A   1      40.800  25.975  26.827  1.00  0.00     0.022 A 
BRANCH  63  67
ATOM     67  S   UNL A   1      42.755  27.451  25.494  1.00  0.00     0.124 S 
ATOM     68  O   UNL A   1      42.023  28.551  24.869  1.00  0.00    -0.237 OA
ATOM     69  O   UNL A   1      44.011  27.806  26.144  1.00  0.00    -0.237 OA
ATOM     70  O   UNL A   1      42.778  26.210  24.723  1.00  0.00    -0.744 OA
ENDBRANCH  63  67
ENDBRANCH  46  60
BRANCH  47  71
ATOM     71  C   UNL A   1      39.655  33.788  36.969  1.00  0.00     0.023 A 
ATOM     72  C   UNL A   1      39.062  33.279  38.136  1.00  0.00     0.031 A 
ATOM     73  C   UNL A   1      40.012  35.148  36.956  1.00  0.00     0.131 A 
ATOM     74  C   UNL A   1      38.777  34.135  39.211  1.00  0.00     0.055 A 
ATOM     75  C   UNL A   1      39.790  35.982  38.054  1.00  0.00     0.041 A 
ATOM     76  F   UNL A   1      40.582  35.691  35.868  1.00  0.00    -0.206 F 
ATOM     77  C   UNL A   1      39.151  35.480  39.185  1.00  0.00     0.022 A 
BRANCH  74  78
ATOM     78  S   UNL A   1      37.791  33.493  40.591  1.00  0.00     0.124 S 
ATOM     79  O   UNL A   1      37.627  34.684  41.414  1.00  0.00    -0.237 OA
ATOM     80  O   UNL A   1      36.594  33.011  39.907  1.00  0.00    -0.237 OA
ATOM     81  O   UNL A   1      38.644  32.450  41.161  1.00  0.00    -0.744 OA
ENDBRANCH  74  78
ENDBRANCH  47  71
BRANCH  59  82
ATOM     82  C   UNL A   1      44.149  28.710  35.330  1.00  0.00     0.023 A 
ATOM     83  C   UNL A   1      44.057  27.584  36.167  1.00  0.00     0.031 A 
ATOM     84  C   UNL A   1      45.411  29.311  35.168  1.00  0.00     0.131 A 
ATOM     85  C   UNL A   1      45.194  27.128  36.850  1.00  0.00     0.055 A 
ATOM     86  C   UNL A   1      46.551  28.811  35.797  1.00  0.00     0.041 A 
ATOM     87  F   UNL A   1      45.558  30.392  34.384  1.00  0.00    -0.206 F 
ATOM     88  C   UNL A   1      46.444  27.721  36.654  1.00  0.00     0.022 A 
BRANCH  85  89
ATOM     89  S   UNL A   1      45.001  25.803  38.074  1.00  0.00     0.124 S 
ATOM     90  O   UNL A   1      43.849  25.075  37.553  1.00  0.00    -0.237 OA
ATOM     91  O   UNL A   1      46.282  25.111  37.992  1.00  0.00    -0.237 OA
ATOM     92  O   UNL A   1      44.765  26.523  39.324  1.00  0.00    -0.744 OA
ENDBRANCH  85  89
ENDBRANCH  59  82
ENDBRANCH  33  34
ENDBRANCH  25  28
ENDBRANCH  23  24
ENDBRANCH  22  23
ENDBRANCH   1  22
TORSDOF 18
ENDMDL
MODEL 2
REMARK VINA RESULT:     -11.1      1.038      2.013
REMARK SMILES C[C@H]1CN([C@@H](C(=O)NCCCCCCNC(=O)c2ccc(-c3c4nc(c(-c5cc(S(=O)(=O)[O-])ccc5F)c5ccc([nH]5)c(-c5cc(S(=O)(=O)[O-])ccc5F)c5nc(c(-c6cc(S(=O)(=O)[O-])ccc6F)c6ccc3[nH]6)C=C5)C=C4)cc2)C(C)(C)C)S(=O)(=O)C1
REMARK SMILES IDX 12 1 11 2 10 3 9 4 8 5 6 6 7 7 5 9 4 10 1 11 2 12 3 13 88 14
REMARK SMILES IDX 85 15 86 16 87 17 81 18 82 19 83 20 84 21 13 22 14 23 15 24
REMARK SMILES IDX 16 25 17 27 18 28 19 29 80 30 20 31 79 32 21 33 22 34 23 35
REMARK SMILES IDX 73 36 24 37 78 38 72 39 74 40 25 41 77 42 71 43 70 44 26 46
REMARK SMILES IDX 58 47 38 48 57 49 39 50 42 51 56 52 75 53 40 54 41 55 55 57
REMARK SMILES IDX 76 58 43 59 27 60 28 61 36 62 29 63 35 64 37 65 34 66 30 67
REMARK SMILES IDX 31 68 32 69 33 70 59 71 60 72 68 73 61 74 67 75 69 76 66 77
REMARK SMILES IDX 62 78 63 79 64 80 65 81 44 82 45 83 53 84 46 85 52 86 54 87
REMARK SMILES IDX 51 88 47 89 48 90 49 91 50 92
REMARK H PARENT 8 8 15 26 74 45 42 56
REMARK Flexibility Score: inf
ROOT
ATOM      1  C   UNL A   1      31.740  30.432  26.593  1.00  0.00     0.002 C 
ENDROOT
BRANCH   1   2
ATOM      2  C   UNL A   1      32.926  29.892  25.798  1.00  0.00     0.002 C 
BRANCH   2   3
ATOM      3  C   UNL A   1      33.932  29.102  26.638  1.00  0.00     0.021 C 
BRANCH   3   4
ATOM      4  C   UNL A   1      34.021  27.604  26.320  1.00  0.00     0.116 C 
BRANCH   4   5
ATOM      5  N   UNL A   1      33.803  27.320  24.909  1.00  0.00    -0.355 N 
ATOM      6  C   UNL A   1      33.296  26.255  24.215  1.00  0.00     0.238 C 
ATOM      7  O   UNL A   1      33.282  26.394  22.989  1.00  0.00    -0.273 OA
ATOM      8  H   UNL A   1      34.082  28.060  24.322  1.00  0.00     0.163 HD
BRANCH   6   9
ATOM      9  C   UNL A   1      32.748  24.993  24.921  1.00  0.00     0.167 C 
BRANCH   9  10
ATOM     10  N   UNL A   1      33.351  23.695  24.467  1.00  0.00    -0.189 NA
ATOM     11  C   UNL A   1      34.366  22.087  26.981  1.00  0.00     0.010 C 
ATOM     12  C   UNL A   1      33.887  21.608  25.601  1.00  0.00     0.017 C 
ATOM     13  C   UNL A   1      32.754  22.435  24.956  1.00  0.00     0.107 C 
ATOM     14  C   UNL A   1      35.014  21.732  24.585  1.00  0.00     0.159 C 
ATOM     15  S   UNL A   1      34.998  23.460  24.129  1.00  0.00     0.215 S 
ATOM     16  O   UNL A   1      35.195  23.546  22.704  1.00  0.00    -0.212 OA
ATOM     17  O   UNL A   1      35.805  24.183  25.084  1.00  0.00    -0.212 OA
ENDBRANCH   9  10
BRANCH   9  18
ATOM     18  C   UNL A   1      31.164  24.971  25.012  1.00  0.00    -0.013 C 
ATOM     19  C   UNL A   1      30.638  26.406  25.243  1.00  0.00     0.013 C 
ATOM     20  C   UNL A   1      30.569  24.492  23.661  1.00  0.00     0.013 C 
ATOM     21  C   UNL A   1      30.557  24.058  26.097  1.00  0.00     0.013 C 
ENDBRANCH   9  18
ENDBRANCH   6   9
ENDBRANCH   4   5
ENDBRANCH   3   4
ENDBRANCH   2   3
ENDBRANCH   1   2
BRANCH   1  22
ATOM     22  C   UNL A   1      31.670  31.960  26.685  1.00  0.00     0.021 C 
BRANCH  22  23
ATOM     23  C   UNL A   1      32.853  32.610  27.400  1.00  0.00     0.116 C 
BRANCH  23  24
ATOM     24  N   UNL A   1      32.620  34.027  27.623  1.00  0.00    -0.352 N 
ATOM     25  C   UNL A   1      33.116  34.811  28.637  1.00  0.00     0.251 C 
ATOM     26  H   UNL A   1      32.038  34.479  26.971  1.00  0.00     0.163 HD
ATOM     27  O   UNL A   1      32.606  35.896  28.893  1.00  0.00    -0.269 OA
BRANCH  25  28
ATOM     28  C   UNL A   1      34.268  34.313  29.418  1.00  0.00     0.039 A 
ATOM     29  C   UNL A   1      34.049  33.638  30.620  1.00  0.00     0.014 A 
ATOM     30  C   UNL A   1      35.567  34.492  28.931  1.00  0.00     0.014 A 
ATOM     31  C   UNL A   1      35.135  33.094  31.310  1.00  0.00     0.010 A 
ATOM     32  C   UNL A   1      36.636  33.885  29.580  1.00  0.00     0.010 A 
ATOM     33  C   UNL A   1      36.435  33.187  30.781  1.00  0.00    -0.014 A 
BRANCH  33  34
ATOM     34  C   UNL A   1      37.602  32.584  31.477  1.00  0.00     0.031 A 
ATOM     35  C   UNL A   1      38.345  31.443  30.835  1.00  0.00     0.074 A 
ATOM     36  C   UNL A   1      37.952  33.017  32.706  1.00  0.00     0.049 A 
ATOM     37  N   UNL A   1      39.328  30.723  31.311  1.00  0.00    -0.248 NA
ATOM     38  C   UNL A   1      37.904  31.039  29.490  1.00  0.00     0.031 C 
ATOM     39  C   UNL A   1      37.294  34.100  33.440  1.00  0.00     0.029 A 
ATOM     40  N   UNL A   1      38.944  32.599  33.558  1.00  0.00    -0.354 N 
ATOM     41  C   UNL A   1      39.609  29.771  30.336  1.00  0.00     0.074 A 
ATOM     42  C   UNL A   1      38.656  29.972  29.266  1.00  0.00     0.031 C 
ATOM     43  C   UNL A   1      37.919  34.280  34.616  1.00  0.00     0.029 A 
ATOM     44  C   UNL A   1      38.984  33.292  34.748  1.00  0.00     0.049 A 
ATOM     45  H   UNL A   1      39.569  31.870  33.339  1.00  0.00     0.167 HD
ATOM     46  C   UNL A   1      40.584  28.829  30.326  1.00  0.00     0.034 A 
ATOM     47  C   UNL A   1      39.779  33.137  35.826  1.00  0.00     0.034 A 
ATOM     48  C   UNL A   1      41.541  28.660  31.391  1.00  0.00     0.049 A 
ATOM     49  C   UNL A   1      40.831  32.052  35.804  1.00  0.00     0.074 A 
ATOM     50  C   UNL A   1      42.611  27.784  31.452  1.00  0.00     0.029 A 
ATOM     51  N   UNL A   1      41.542  29.370  32.585  1.00  0.00    -0.354 N 
ATOM     52  N   UNL A   1      41.117  31.197  34.850  1.00  0.00    -0.248 NA
ATOM     53  C   UNL A   1      41.673  31.918  37.001  1.00  0.00     0.031 C 
ATOM     54  C   UNL A   1      43.203  27.902  32.713  1.00  0.00     0.029 A 
ATOM     55  C   UNL A   1      42.566  28.921  33.404  1.00  0.00     0.049 A 
ATOM     56  H   UNL A   1      40.908  30.088  32.815  1.00  0.00     0.167 HD
ATOM     57  C   UNL A   1      42.203  30.458  35.316  1.00  0.00     0.074 A 
ATOM     58  C   UNL A   1      42.522  30.973  36.630  1.00  0.00     0.031 C 
ATOM     59  C   UNL A   1      42.878  29.448  34.711  1.00  0.00     0.034 A 
BRANCH  46  60
ATOM     60  C   UNL A   1      40.646  27.889  29.147  1.00  0.00     0.023 A 
ATOM     61  C   UNL A   1      41.562  28.071  28.096  1.00  0.00     0.031 A 
ATOM     62  C   UNL A   1      39.776  26.786  29.078  1.00  0.00     0.131 A 
ATOM     63  C   UNL A   1      41.545  27.200  26.995  1.00  0.00     0.055 A 
ATOM     64  C   UNL A   1      39.821  25.877  28.020  1.00  0.00     0.041 A 
ATOM     65  F   UNL A   1      38.863  26.574  30.040  1.00  0.00    -0.206 F 
ATOM     66  C   UNL A   1      40.701  26.087  26.964  1.00  0.00     0.022 A 
BRANCH  63  67
ATOM     67  S   UNL A   1      42.553  27.616  25.546  1.00  0.00     0.124 S 
ATOM     68  O   UNL A   1      43.882  27.748  26.140  1.00  0.00    -0.237 OA
ATOM     69  O   UNL A   1      42.352  26.461  24.679  1.00  0.00    -0.237 OA
ATOM     70  O   UNL A   1      41.965  28.866  25.069  1.00  0.00    -0.744 OA
ENDBRANCH  63  67
ENDBRANCH  46  60
BRANCH  47  71
ATOM     71  C   UNL A   1      39.621  34.008  37.029  1.00  0.00     0.023 A 
ATOM     72  C   UNL A   1      39.049  33.507  38.210  1.00  0.00     0.031 A 
ATOM     73  C   UNL A   1      39.962  35.372  36.995  1.00  0.00     0.131 A 
ATOM     74  C   UNL A   1      38.770  34.373  39.278  1.00  0.00     0.055 A 
ATOM     75  C   UNL A   1      39.746  36.216  38.086  1.00  0.00     0.041 A 
ATOM     76  F   UNL A   1      40.511  35.908  35.892  1.00  0.00    -0.206 F 
ATOM     77  C   UNL A   1      39.129  35.721  39.231  1.00  0.00     0.022 A 
BRANCH  74  78
ATOM     78  S   UNL A   1      37.810  33.737  40.680  1.00  0.00     0.124 S 
ATOM     79  O   UNL A   1      37.550  34.956  41.436  1.00  0.00    -0.237 OA
ATOM     80  O   UNL A   1      36.661  33.137  40.010  1.00  0.00    -0.237 OA
ATOM     81  O   UNL A   1      38.725  32.789  41.315  1.00  0.00    -0.744 OA
ENDBRANCH  74  78
ENDBRANCH  47  71
BRANCH  59  82
ATOM     82  C   UNL A   1      44.076  28.882  35.435  1.00  0.00     0.023 A 
ATOM     83  C   UNL A   1      43.970  27.786  36.308  1.00  0.00     0.031 A 
ATOM     84  C   UNL A   1      45.347  29.451  35.240  1.00  0.00     0.131 A 
ATOM     85  C   UNL A   1      45.106  27.327  36.993  1.00  0.00     0.055 A 
ATOM     86  C   UNL A   1      46.484  28.947  35.872  1.00  0.00     0.041 A 
ATOM     87  F   UNL A   1      45.507  30.503  34.420  1.00  0.00    -0.206 F 
ATOM     88  C   UNL A   1      46.365  27.888  36.765  1.00  0.00     0.022 A 
BRANCH  85  89
ATOM     89  S   UNL A   1      44.899  26.047  38.261  1.00  0.00     0.124 S 
ATOM     90  O   UNL A   1      44.688  24.851  37.453  1.00  0.00    -0.237 OA
ATOM     91  O   UNL A   1      46.166  26.113  38.982  1.00  0.00    -0.237 OA
ATOM     92  O   UNL A   1      43.732  26.498  39.017  1.00  0.00    -0.744 OA
ENDBRANCH  85  89
ENDBRANCH  59  82
ENDBRANCH  33  34
ENDBRANCH  25  28
ENDBRANCH  23  24
ENDBRANCH  22  23
ENDBRANCH   1  22
TORSDOF 18
ENDMDL
MODEL 3
REMARK VINA RESULT:     -10.8      6.095      9.512
REMARK SMILES C[C@H]1CN([C@@H](C(=O)NCCCCCCNC(=O)c2ccc(-c3c4nc(c(-c5cc(S(=O)(=O)[O-])ccc5F)c5ccc([nH]5)c(-c5cc(S(=O)(=O)[O-])ccc5F)c5nc(c(-c6cc(S(=O)(=O)[O-])ccc6F)c6ccc3[nH]6)C=C5)C=C4)cc2)C(C)(C)C)S(=O)(=O)C1
REMARK SMILES IDX 12 1 11 2 10 3 9 4 8 5 6 6 7 7 5 9 4 10 1 11 2 12 3 13 88 14
REMARK SMILES IDX 85 15 86 16 87 17 81 18 82 19 83 20 84 21 13 22 14 23 15 24
REMARK SMILES IDX 16 25 17 27 18 28 19 29 80 30 20 31 79 32 21 33 22 34 23 35
REMARK SMILES IDX 73 36 24 37 78 38 72 39 74 40 25 41 77 42 71 43 70 44 26 46
REMARK SMILES IDX 58 47 38 48 57 49 39 50 42 51 56 52 75 53 40 54 41 55 55 57
REMARK SMILES IDX 76 58 43 59 27 60 28 61 36 62 29 63 35 64 37 65 34 66 30 67
REMARK SMILES IDX 31 68 32 69 33 70 59 71 60 72 68 73 61 74 67 75 69 76 66 77
REMARK SMILES IDX 62 78 63 79 64 80 65 81 44 82 45 83 53 84 46 85 52 86 54 87
REMARK SMILES IDX 51 88 47 89 48 90 49 91 50 92
REMARK H PARENT 8 8 15 26 74 45 42 56
REMARK Flexibility Score: inf
ROOT
ATOM      1  C   UNL A   1      36.746  20.302  24.988  1.00  0.00     0.002 C 
ENDROOT
BRANCH   1   2
ATOM      2  C   UNL A   1      36.564  21.584  25.796  1.00  0.00     0.002 C 
BRANCH   2   3
ATOM      3  C   UNL A   1      36.718  22.866  24.972  1.00  0.00     0.021 C 
BRANCH   3   4
ATOM      4  C   UNL A   1      36.067  24.117  25.576  1.00  0.00     0.116 C 
BRANCH   4   5
ATOM      5  N   UNL A   1      34.785  23.830  26.204  1.00  0.00    -0.355 N 
ATOM      6  C   UNL A   1      33.479  24.046  25.854  1.00  0.00     0.238 C 
ATOM      7  O   UNL A   1      32.650  23.655  26.680  1.00  0.00    -0.273 OA
ATOM      8  H   UNL A   1      34.878  23.380  27.075  1.00  0.00     0.163 HD
BRANCH   6   9
ATOM      9  C   UNL A   1      33.081  24.696  24.508  1.00  0.00     0.167 C 
BRANCH   9  10
ATOM     10  N   UNL A   1      32.260  25.947  24.623  1.00  0.00    -0.189 NA
ATOM     11  C   UNL A   1      33.895  28.371  23.445  1.00  0.00     0.010 C 
ATOM     12  C   UNL A   1      32.380  28.134  23.559  1.00  0.00     0.017 C 
ATOM     13  C   UNL A   1      31.912  26.673  23.384  1.00  0.00     0.107 C 
ATOM     14  C   UNL A   1      31.902  28.475  24.963  1.00  0.00     0.159 C 
ATOM     15  S   UNL A   1      32.326  27.031  25.927  1.00  0.00     0.215 S 
ATOM     16  O   UNL A   1      31.228  26.752  26.818  1.00  0.00    -0.212 OA
ATOM     17  O   UNL A   1      33.691  27.178  26.377  1.00  0.00    -0.212 OA
ENDBRANCH   9  10
BRANCH   9  18
ATOM     18  C   UNL A   1      32.517  23.648  23.458  1.00  0.00    -0.013 C 
ATOM     19  C   UNL A   1      32.972  24.045  22.035  1.00  0.00     0.013 C 
ATOM     20  C   UNL A   1      33.118  22.246  23.742  1.00  0.00     0.013 C 
ATOM     21  C   UNL A   1      30.986  23.463  23.436  1.00  0.00     0.013 C 
ENDBRANCH   9  18
ENDBRANCH   6   9
ENDBRANCH   4   5
ENDBRANCH   3   4
ENDBRANCH   2   3
ENDBRANCH   1   2
BRANCH   1  22
ATOM     22  C   UNL A   1      38.202  19.858  24.807  1.00  0.00     0.021 C 
BRANCH  22  23
ATOM     23  C   UNL A   1      39.179  20.449  25.822  1.00  0.00     0.116 C 
BRANCH  23  24
ATOM     24  N   UNL A   1      40.238  19.507  26.144  1.00  0.00    -0.352 N 
ATOM     25  C   UNL A   1      41.566  19.779  26.365  1.00  0.00     0.251 C 
ATOM     26  H   UNL A   1      39.972  18.561  26.211  1.00  0.00     0.163 HD
ATOM     27  O   UNL A   1      42.403  18.885  26.317  1.00  0.00    -0.269 OA
BRANCH  25  28
ATOM     28  C   UNL A   1      41.966  21.174  26.649  1.00  0.00     0.039 A 
ATOM     29  C   UNL A   1      42.169  22.064  25.593  1.00  0.00     0.014 A 
ATOM     30  C   UNL A   1      42.103  21.600  27.974  1.00  0.00     0.014 A 
ATOM     31  C   UNL A   1      42.461  23.402  25.870  1.00  0.00     0.010 A 
ATOM     32  C   UNL A   1      42.319  22.946  28.246  1.00  0.00     0.010 A 
ATOM     33  C   UNL A   1      42.509  23.861  27.198  1.00  0.00    -0.014 A 
BRANCH  33  34
ATOM     34  C   UNL A   1      42.780  25.288  27.517  1.00  0.00     0.031 A 
ATOM     35  C   UNL A   1      44.171  25.839  27.342  1.00  0.00     0.074 A 
ATOM     36  C   UNL A   1      41.800  26.066  28.019  1.00  0.00     0.049 A 
ATOM     37  N   UNL A   1      44.637  27.023  27.645  1.00  0.00    -0.248 NA
ATOM     38  C   UNL A   1      45.179  24.926  26.779  1.00  0.00     0.031 C 
ATOM     39  C   UNL A   1      40.419  25.639  28.255  1.00  0.00     0.029 A 
ATOM     40  N   UNL A   1      41.812  27.377  28.428  1.00  0.00    -0.354 N 
ATOM     41  C   UNL A   1      45.991  26.992  27.329  1.00  0.00     0.074 A 
ATOM     42  C   UNL A   1      46.283  25.653  26.863  1.00  0.00     0.031 C 
ATOM     43  C   UNL A   1      39.712  26.675  28.736  1.00  0.00     0.029 A 
ATOM     44  C   UNL A   1      40.597  27.824  28.898  1.00  0.00     0.049 A 
ATOM     45  H   UNL A   1      42.615  27.945  28.389  1.00  0.00     0.167 HD
ATOM     46  C   UNL A   1      46.903  27.993  27.403  1.00  0.00     0.034 A 
ATOM     47  C   UNL A   1      40.243  29.019  29.415  1.00  0.00     0.034 A 
ATOM     48  C   UNL A   1      46.588  29.328  27.847  1.00  0.00     0.049 A 
ATOM     49  C   UNL A   1      41.289  30.103  29.523  1.00  0.00     0.074 A 
ATOM     50  C   UNL A   1      47.419  30.434  27.896  1.00  0.00     0.029 A 
ATOM     51  N   UNL A   1      45.352  29.739  28.327  1.00  0.00    -0.354 N 
ATOM     52  N   UNL A   1      42.553  30.071  29.168  1.00  0.00    -0.248 NA
ATOM     53  C   UNL A   1      40.860  31.388  30.094  1.00  0.00     0.031 C 
ATOM     54  C   UNL A   1      46.713  31.486  28.485  1.00  0.00     0.029 A 
ATOM     55  C   UNL A   1      45.411  31.069  28.715  1.00  0.00     0.049 A 
ATOM     56  H   UNL A   1      44.550  29.169  28.385  1.00  0.00     0.167 HD
ATOM     57  C   UNL A   1      43.053  31.345  29.430  1.00  0.00     0.074 A 
ATOM     58  C   UNL A   1      41.954  32.121  29.963  1.00  0.00     0.031 C 
ATOM     59  C   UNL A   1      44.305  31.833  29.240  1.00  0.00     0.034 A 
BRANCH  46  60
ATOM     60  C   UNL A   1      48.330  27.676  27.029  1.00  0.00     0.023 A 
ATOM     61  C   UNL A   1      48.816  27.856  25.722  1.00  0.00     0.031 A 
ATOM     62  C   UNL A   1      49.223  27.193  28.002  1.00  0.00     0.131 A 
ATOM     63  C   UNL A   1      50.137  27.498  25.411  1.00  0.00     0.055 A 
ATOM     64  C   UNL A   1      50.559  26.916  27.704  1.00  0.00     0.041 A 
ATOM     65  F   UNL A   1      48.812  26.977  29.261  1.00  0.00    -0.206 F 
ATOM     66  C   UNL A   1      51.020  27.056  26.399  1.00  0.00     0.022 A 
BRANCH  63  67
ATOM     67  S   UNL A   1      50.646  27.493  23.670  1.00  0.00     0.124 S 
ATOM     68  O   UNL A   1      51.807  26.606  23.707  1.00  0.00    -0.237 OA
ATOM     69  O   UNL A   1      49.464  26.972  22.996  1.00  0.00    -0.237 OA
ATOM     70  O   UNL A   1      50.953  28.897  23.401  1.00  0.00    -0.744 OA
ENDBRANCH  63  67
ENDBRANCH  46  60
BRANCH  47  71
ATOM     71  C   UNL A   1      38.847  29.269  29.885  1.00  0.00     0.023 A 
ATOM     72  C   UNL A   1      37.929  29.957  29.076  1.00  0.00     0.031 A 
ATOM     73  C   UNL A   1      38.432  28.898  31.177  1.00  0.00     0.131 A 
ATOM     74  C   UNL A   1      36.672  30.315  29.587  1.00  0.00     0.055 A 
ATOM     75  C   UNL A   1      37.156  29.196  31.658  1.00  0.00     0.041 A 
ATOM     76  F   UNL A   1      39.268  28.239  31.996  1.00  0.00    -0.206 F 
ATOM     77  C   UNL A   1      36.273  29.926  30.868  1.00  0.00     0.022 A 
BRANCH  74  78
ATOM     78  S   UNL A   1      35.617  31.413  28.602  1.00  0.00     0.124 S 
ATOM     79  O   UNL A   1      35.020  30.477  27.657  1.00  0.00    -0.237 OA
ATOM     80  O   UNL A   1      34.723  31.962  29.616  1.00  0.00    -0.237 OA
ATOM     81  O   UNL A   1      36.564  32.366  28.025  1.00  0.00    -0.744 OA
ENDBRANCH  74  78
ENDBRANCH  47  71
BRANCH  59  82
ATOM     82  C   UNL A   1      44.536  33.293  29.546  1.00  0.00     0.023 A 
ATOM     83  C   UNL A   1      44.239  34.306  28.619  1.00  0.00     0.031 A 
ATOM     84  C   UNL A   1      45.058  33.674  30.796  1.00  0.00     0.131 A 
ATOM     85  C   UNL A   1      44.516  35.645  28.935  1.00  0.00     0.055 A 
ATOM     86  C   UNL A   1      45.267  35.012  31.130  1.00  0.00     0.041 A 
ATOM     87  F   UNL A   1      45.364  32.748  31.720  1.00  0.00    -0.206 F 
ATOM     88  C   UNL A   1      45.009  36.006  30.192  1.00  0.00     0.022 A 
BRANCH  85  89
ATOM     89  S   UNL A   1      44.312  36.904  27.645  1.00  0.00     0.124 S 
ATOM     90  O   UNL A   1      43.882  38.064  28.418  1.00  0.00    -0.237 OA
ATOM     91  O   UNL A   1      45.650  36.982  27.069  1.00  0.00    -0.237 OA
ATOM     92  O   UNL A   1      43.293  36.332  26.767  1.00  0.00    -0.744 OA
ENDBRANCH  85  89
ENDBRANCH  59  82
ENDBRANCH  33  34
ENDBRANCH  25  28
ENDBRANCH  23  24
ENDBRANCH  22  23
ENDBRANCH   1  22
TORSDOF 18
ENDMDL
