MODEL 1
REMARK VINA RESULT:     -14.3      0.000      0.000
REMARK SMILES O=C1C[C@H](c2cn[nH]c2C(=O)NCCCCCCNC(=O)c2ccc(-c3c4nc(c(-c5cc(S(=O)(=O)[O-])ccc5F)c5ccc([nH]5)c(-c5cc(S(=O)(=O)[O-])ccc5F)c5nc(c(-c6cc(S(=O)(=O)[O-])ccc6F)c6ccc3[nH]6)C=C5)C=C4)cc2)c2c(-c3cccs3)n[nH]c2N1
REMARK SMILES IDX 16 1 15 2 14 3 13 4 12 5 10 6 11 7 9 9 5 10 6 11 7 12 8 13
REMARK SMILES IDX 4 15 1 16 2 17 3 18 95 19 94 20 85 22 93 23 86 24 92 25
REMARK SMILES IDX 87 27 88 28 91 29 89 30 90 31 17 32 18 33 19 34 20 35 21 37
REMARK SMILES IDX 22 38 23 39 84 40 24 41 83 42 25 43 26 44 27 45 77 46 28 47
REMARK SMILES IDX 82 48 76 49 78 50 29 51 81 52 75 53 74 54 30 56 62 57 42 58
REMARK SMILES IDX 61 59 43 60 46 61 60 62 79 63 44 64 45 65 59 67 80 68 47 69
REMARK SMILES IDX 31 70 32 71 40 72 33 73 39 74 41 75 38 76 34 77 35 78 36 79
REMARK SMILES IDX 37 80 63 81 64 82 72 83 65 84 71 85 73 86 70 87 66 88 67 89
REMARK SMILES IDX 68 90 69 91 48 92 49 93 57 94 50 95 56 96 58 97 55 98 51 99
REMARK SMILES IDX 52 100 53 101 54 102
REMARK H PARENT 12 8 8 14 95 21 93 26 19 36 78 55 46 66
REMARK Flexibility Score: inf
ROOT
ATOM      1  C   UNL A   1      35.756  21.093  25.392  1.00  0.00     0.002 C 
ENDROOT
BRANCH   1   2
ATOM      2  C   UNL A   1      35.456  22.328  24.534  1.00  0.00     0.002 C 
BRANCH   2   3
ATOM      3  C   UNL A   1      35.475  23.663  25.281  1.00  0.00     0.021 C 
BRANCH   3   4
ATOM      4  C   UNL A   1      34.172  24.731  24.823  1.00  0.00     0.116 C 
BRANCH   4   5
ATOM      5  N   UNL A   1      34.299  26.690  23.917  1.00  0.00    -0.351 N 
ATOM      6  C   UNL A   1      33.900  28.011  23.598  1.00  0.00     0.269 C 
ATOM      7  O   UNL A   1      34.689  28.657  22.901  1.00  0.00    -0.268 OA
ATOM      8  H   UNL A   1      35.153  26.623  23.430  1.00  0.00     0.163 HD
BRANCH   6   9
ATOM      9  C   UNL A   1      32.710  28.641  24.119  1.00  0.00     0.126 A 
ATOM     10  C   UNL A   1      31.384  28.612  23.713  1.00  0.00     0.011 A 
ATOM     11  C   UNL A   1      30.689  29.332  24.699  1.00  0.00     0.140 A 
ATOM     12  N   UNL A   1      31.500  29.804  25.650  1.00  0.00    -0.183 NA
ATOM     13  N   UNL A   1      32.720  29.393  25.257  1.00  0.00    -0.273 N 
ATOM     14  H   UNL A   1      33.544  29.614  25.748  1.00  0.00     0.190 HD
BRANCH  10  15
ATOM     15  C   UNL A   1      30.879  27.902  22.508  1.00  0.00     0.069 C 
ATOM     16  O   UNL A   1      31.307  24.124  22.868  1.00  0.00    -0.275 OA
ATOM     17  C   UNL A   1      30.814  25.239  23.066  1.00  0.00     0.226 C 
ATOM     18  C   UNL A   1      31.451  26.473  22.362  1.00  0.00     0.114 C 
ATOM     19  N   UNL A   1      29.688  25.318  23.847  1.00  0.00    -0.311 N 
ATOM     20  C   UNL A   1      28.921  26.436  23.733  1.00  0.00     0.132 A 
ATOM     21  H   UNL A   1      29.445  24.593  24.468  1.00  0.00     0.171 HD
ATOM     22  C   UNL A   1      29.443  27.801  22.741  1.00  0.00     0.031 A 
ATOM     23  N   UNL A   1      27.179  26.756  24.271  1.00  0.00    -0.262 N 
ATOM     24  C   UNL A   1      27.957  29.049  22.619  1.00  0.00     0.108 A 
ATOM     25  N   UNL A   1      26.593  28.389  23.531  1.00  0.00    -0.173 NA
ATOM     26  H   UNL A   1      26.645  26.168  24.853  1.00  0.00     0.192 HD
BRANCH  24  27
ATOM     27  C   UNL A   1      28.126  30.450  22.160  1.00  0.00     0.055 A 
ATOM     28  C   UNL A   1      28.058  30.819  20.839  1.00  0.00     0.022 A 
ATOM     29  S   UNL A   1      28.245  31.776  23.215  1.00  0.00    -0.142 S 
ATOM     30  C   UNL A   1      28.016  32.238  20.700  1.00  0.00     0.012 A 
ATOM     31  C   UNL A   1      28.173  32.882  21.910  1.00  0.00     0.065 A 
ENDBRANCH  24  27
ENDBRANCH  10  15
ENDBRANCH   6   9
ENDBRANCH   4   5
ENDBRANCH   3   4
ENDBRANCH   2   3
ENDBRANCH   1   2
BRANCH   1  32
ATOM     32  C   UNL A   1      36.973  20.263  24.943  1.00  0.00     0.021 C 
BRANCH  32  33
ATOM     33  C   UNL A   1      38.281  20.894  25.373  1.00  0.00     0.116 C 
BRANCH  33  34
ATOM     34  N   UNL A   1      39.261  19.870  25.741  1.00  0.00    -0.352 N 
ATOM     35  C   UNL A   1      40.617  19.988  25.928  1.00  0.00     0.251 C 
ATOM     36  H   UNL A   1      38.895  18.965  25.873  1.00  0.00     0.163 HD
ATOM     37  O   UNL A   1      41.356  19.015  25.869  1.00  0.00    -0.269 OA
BRANCH  35  38
ATOM     38  C   UNL A   1      41.107  21.300  26.347  1.00  0.00     0.039 A 
ATOM     39  C   UNL A   1      41.959  22.127  25.620  1.00  0.00     0.014 A 
ATOM     40  C   UNL A   1      40.814  21.642  27.652  1.00  0.00     0.014 A 
ATOM     41  C   UNL A   1      42.502  23.226  26.301  1.00  0.00     0.010 A 
ATOM     42  C   UNL A   1      40.828  22.950  27.952  1.00  0.00     0.010 A 
ATOM     43  C   UNL A   1      42.017  23.523  27.589  1.00  0.00    -0.014 A 
BRANCH  43  44
ATOM     44  C   UNL A   1      42.275  24.708  28.391  1.00  0.00     0.031 A 
ATOM     45  C   UNL A   1      41.120  25.647  28.211  1.00  0.00     0.074 A 
ATOM     46  C   UNL A   1      43.279  24.763  29.317  1.00  0.00     0.049 A 
ATOM     47  N   UNL A   1      41.062  26.565  27.299  1.00  0.00    -0.248 NA
ATOM     48  C   UNL A   1      39.769  25.322  28.741  1.00  0.00     0.031 C 
ATOM     49  C   UNL A   1      44.331  23.794  29.683  1.00  0.00     0.029 A 
ATOM     50  N   UNL A   1      43.582  25.795  30.170  1.00  0.00    -0.354 N 
ATOM     51  C   UNL A   1      39.825  27.171  27.465  1.00  0.00     0.074 A 
ATOM     52  C   UNL A   1      38.995  26.175  28.062  1.00  0.00     0.031 C 
ATOM     53  C   UNL A   1      44.982  24.191  30.816  1.00  0.00     0.029 A 
ATOM     54  C   UNL A   1      44.505  25.506  31.209  1.00  0.00     0.049 A 
ATOM     55  H   UNL A   1      43.182  26.688  30.065  1.00  0.00     0.167 HD
ATOM     56  C   UNL A   1      39.734  28.530  27.467  1.00  0.00     0.034 A 
ATOM     57  C   UNL A   1      44.878  26.361  32.232  1.00  0.00     0.034 A 
ATOM     58  C   UNL A   1      40.980  29.090  26.980  1.00  0.00     0.049 A 
ATOM     59  C   UNL A   1      44.536  27.725  31.709  1.00  0.00     0.074 A 
ATOM     60  C   UNL A   1      41.664  28.998  25.785  1.00  0.00     0.029 A 
ATOM     61  N   UNL A   1      41.918  29.401  27.942  1.00  0.00    -0.354 N 
ATOM     62  N   UNL A   1      45.145  28.225  30.660  1.00  0.00    -0.248 NA
ATOM     63  C   UNL A   1      43.156  28.166  31.905  1.00  0.00     0.031 C 
ATOM     64  C   UNL A   1      43.020  28.763  26.162  1.00  0.00     0.029 A 
ATOM     65  C   UNL A   1      43.144  28.915  27.546  1.00  0.00     0.049 A 
ATOM     66  H   UNL A   1      41.740  29.893  28.776  1.00  0.00     0.167 HD
ATOM     67  C   UNL A   1      44.123  28.670  29.831  1.00  0.00     0.074 A 
ATOM     68  C   UNL A   1      42.909  28.607  30.663  1.00  0.00     0.031 C 
ATOM     69  C   UNL A   1      44.247  28.674  28.465  1.00  0.00     0.034 A 
BRANCH  56  70
ATOM     70  C   UNL A   1      38.770  29.352  28.295  1.00  0.00     0.023 A 
ATOM     71  C   UNL A   1      39.000  29.369  29.684  1.00  0.00     0.031 A 
ATOM     72  C   UNL A   1      37.526  29.872  27.874  1.00  0.00     0.131 A 
ATOM     73  C   UNL A   1      38.000  29.782  30.579  1.00  0.00     0.055 A 
ATOM     74  C   UNL A   1      36.556  30.339  28.767  1.00  0.00     0.041 A 
ATOM     75  F   UNL A   1      37.134  29.884  26.595  1.00  0.00    -0.206 F 
ATOM     76  C   UNL A   1      36.778  30.271  30.132  1.00  0.00     0.022 A 
BRANCH  73  77
ATOM     77  S   UNL A   1      38.273  29.502  32.347  1.00  0.00     0.124 S 
ATOM     78  O   UNL A   1      37.282  28.473  32.640  1.00  0.00    -0.237 OA
ATOM     79  O   UNL A   1      39.669  29.076  32.371  1.00  0.00    -0.237 OA
ATOM     80  O   UNL A   1      38.011  30.810  32.940  1.00  0.00    -0.744 OA
ENDBRANCH  73  77
ENDBRANCH  56  70
BRANCH  57  81
ATOM     81  C   UNL A   1      44.966  26.067  33.730  1.00  0.00     0.023 A 
ATOM     82  C   UNL A   1      43.994  26.383  34.742  1.00  0.00     0.031 A 
ATOM     83  C   UNL A   1      45.989  25.188  34.139  1.00  0.00     0.131 A 
ATOM     84  C   UNL A   1      44.097  25.821  36.061  1.00  0.00     0.055 A 
ATOM     85  C   UNL A   1      46.059  24.617  35.414  1.00  0.00     0.041 A 
ATOM     86  F   UNL A   1      46.935  24.787  33.278  1.00  0.00    -0.206 F 
ATOM     87  C   UNL A   1      45.114  24.920  36.375  1.00  0.00     0.022 A 
BRANCH  84  88
ATOM     88  S   UNL A   1      42.920  26.201  37.438  1.00  0.00     0.124 S 
ATOM     89  O   UNL A   1      42.390  27.504  37.052  1.00  0.00    -0.237 OA
ATOM     90  O   UNL A   1      41.987  25.081  37.393  1.00  0.00    -0.237 OA
ATOM     91  O   UNL A   1      43.774  26.229  38.628  1.00  0.00    -0.744 OA
ENDBRANCH  84  88
ENDBRANCH  57  81
BRANCH  69  92
ATOM     92  C   UNL A   1      45.600  28.333  27.842  1.00  0.00     0.023 A 
ATOM     93  C   UNL A   1      46.052  27.058  27.405  1.00  0.00     0.031 A 
ATOM     94  C   UNL A   1      46.432  29.432  27.570  1.00  0.00     0.131 A 
ATOM     95  C   UNL A   1      47.306  26.931  26.757  1.00  0.00     0.055 A 
ATOM     96  C   UNL A   1      47.641  29.308  26.891  1.00  0.00     0.041 A 
ATOM     97  F   UNL A   1      46.056  30.668  27.932  1.00  0.00    -0.206 F 
ATOM     98  C   UNL A   1      48.090  28.058  26.491  1.00  0.00     0.022 A 
BRANCH  95  99
ATOM     99  S   UNL A   1      47.991  25.293  26.308  1.00  0.00     0.124 S 
ATOM    100  O   UNL A   1      47.197  24.908  25.146  1.00  0.00    -0.237 OA
ATOM    101  O   UNL A   1      49.396  25.590  26.047  1.00  0.00    -0.237 OA
ATOM    102  O   UNL A   1      47.753  24.481  27.504  1.00  0.00    -0.744 OA
ENDBRANCH  95  99
ENDBRANCH  69  92
ENDBRANCH  43  44
ENDBRANCH  35  38
ENDBRANCH  33  34
ENDBRANCH  32  33
ENDBRANCH   1  32
TORSDOF 18
ENDMDL
MODEL 2
REMARK VINA RESULT:     -13.9      2.690      3.641
REMARK SMILES O=C1C[C@H](c2cn[nH]c2C(=O)NCCCCCCNC(=O)c2ccc(-c3c4nc(c(-c5cc(S(=O)(=O)[O-])ccc5F)c5ccc([nH]5)c(-c5cc(S(=O)(=O)[O-])ccc5F)c5nc(c(-c6cc(S(=O)(=O)[O-])ccc6F)c6ccc3[nH]6)C=C5)C=C4)cc2)c2c(-c3cccs3)n[nH]c2N1
REMARK SMILES IDX 16 1 15 2 14 3 13 4 12 5 10 6 11 7 9 9 5 10 6 11 7 12 8 13
REMARK SMILES IDX 4 15 1 16 2 17 3 18 95 19 94 20 85 22 93 23 86 24 92 25
REMARK SMILES IDX 87 27 88 28 91 29 89 30 90 31 17 32 18 33 19 34 20 35 21 37
REMARK SMILES IDX 22 38 23 39 84 40 24 41 83 42 25 43 26 44 27 45 77 46 28 47
REMARK SMILES IDX 82 48 76 49 78 50 29 51 81 52 75 53 74 54 30 56 62 57 42 58
REMARK SMILES IDX 61 59 43 60 46 61 60 62 79 63 44 64 45 65 59 67 80 68 47 69
REMARK SMILES IDX 31 70 32 71 40 72 33 73 39 74 41 75 38 76 34 77 35 78 36 79
REMARK SMILES IDX 37 80 63 81 64 82 72 83 65 84 71 85 73 86 70 87 66 88 67 89
REMARK SMILES IDX 68 90 69 91 48 92 49 93 57 94 50 95 56 96 58 97 55 98 51 99
REMARK SMILES IDX 52 100 53 101 54 102
REMARK H PARENT 12 8 8 14 95 21 93 26 19 36 78 55 46 66
REMARK Flexibility Score: inf
ROOT
ATOM      1  C   UNL A   1      39.661  21.286  26.163  1.00  0.00     0.002 C 
ENDROOT
BRANCH   1   2
ATOM      2  C   UNL A   1      38.360  21.677  25.451  1.00  0.00     0.002 C 
BRANCH   2   3
ATOM      3  C   UNL A   1      37.605  20.523  24.788  1.00  0.00     0.021 C 
BRANCH   3   4
ATOM      4  C   UNL A   1      35.923  20.442  25.247  1.00  0.00     0.116 C 
BRANCH   4   5
ATOM      5  N   UNL A   1      34.896  21.569  26.780  1.00  0.00    -0.351 N 
ATOM      6  C   UNL A   1      33.926  22.441  27.334  1.00  0.00     0.269 C 
ATOM      7  O   UNL A   1      33.985  22.603  28.557  1.00  0.00    -0.268 OA
ATOM      8  H   UNL A   1      35.421  21.332  27.579  1.00  0.00     0.163 HD
BRANCH   6   9
ATOM      9  C   UNL A   1      32.854  23.039  26.574  1.00  0.00     0.126 A 
ATOM     10  C   UNL A   1      32.836  24.037  25.612  1.00  0.00     0.011 A 
ATOM     11  C   UNL A   1      31.503  24.085  25.167  1.00  0.00     0.140 A 
ATOM     12  N   UNL A   1      30.724  23.206  25.802  1.00  0.00    -0.183 NA
ATOM     13  N   UNL A   1      31.564  22.606  26.666  1.00  0.00    -0.273 N 
ATOM     14  H   UNL A   1      31.273  21.917  27.306  1.00  0.00     0.190 HD
BRANCH  10  15
ATOM     15  C   UNL A   1      34.025  24.810  25.165  1.00  0.00     0.069 C 
ATOM     16  O   UNL A   1      36.068  22.824  22.622  1.00  0.00    -0.275 OA
ATOM     17  C   UNL A   1      35.130  23.504  23.048  1.00  0.00     0.226 C 
ATOM     18  C   UNL A   1      35.129  23.920  24.548  1.00  0.00     0.114 C 
ATOM     19  N   UNL A   1      34.169  23.911  22.155  1.00  0.00    -0.311 N 
ATOM     20  C   UNL A   1      33.390  24.969  22.509  1.00  0.00     0.132 A 
ATOM     21  H   UNL A   1      34.048  23.454  21.291  1.00  0.00     0.171 HD
ATOM     22  C   UNL A   1      33.501  25.682  24.121  1.00  0.00     0.031 A 
ATOM     23  N   UNL A   1      32.301  26.054  21.479  1.00  0.00    -0.262 N 
ATOM     24  C   UNL A   1      32.448  27.317  24.120  1.00  0.00     0.108 A 
ATOM     25  N   UNL A   1      31.750  27.536  22.510  1.00  0.00    -0.173 NA
ATOM     26  H   UNL A   1      32.048  25.885  20.543  1.00  0.00     0.192 HD
BRANCH  24  27
ATOM     27  C   UNL A   1      32.031  28.000  25.370  1.00  0.00     0.055 A 
ATOM     28  C   UNL A   1      31.796  27.331  26.547  1.00  0.00     0.022 A 
ATOM     29  S   UNL A   1      31.968  29.689  25.542  1.00  0.00    -0.142 S 
ATOM     30  C   UNL A   1      31.645  28.239  27.636  1.00  0.00     0.012 A 
ATOM     31  C   UNL A   1      31.654  29.555  27.220  1.00  0.00     0.065 A 
ENDBRANCH  24  27
ENDBRANCH  10  15
ENDBRANCH   6   9
ENDBRANCH   4   5
ENDBRANCH   3   4
ENDBRANCH   2   3
ENDBRANCH   1   2
BRANCH   1  32
ATOM     32  C   UNL A   1      40.200  19.885  25.819  1.00  0.00     0.021 C 
BRANCH  32  33
ATOM     33  C   UNL A   1      41.315  19.459  26.749  1.00  0.00     0.116 C 
BRANCH  33  34
ATOM     34  N   UNL A   1      42.592  19.378  26.036  1.00  0.00    -0.352 N 
ATOM     35  C   UNL A   1      43.319  20.375  25.433  1.00  0.00     0.251 C 
ATOM     36  H   UNL A   1      42.985  18.477  25.981  1.00  0.00     0.163 HD
ATOM     37  O   UNL A   1      44.155  20.126  24.576  1.00  0.00    -0.269 OA
BRANCH  35  38
ATOM     38  C   UNL A   1      43.152  21.723  25.973  1.00  0.00     0.039 A 
ATOM     39  C   UNL A   1      42.963  22.885  25.230  1.00  0.00     0.014 A 
ATOM     40  C   UNL A   1      43.373  21.840  27.330  1.00  0.00     0.014 A 
ATOM     41  C   UNL A   1      43.070  24.100  25.922  1.00  0.00     0.010 A 
ATOM     42  C   UNL A   1      42.819  22.897  27.946  1.00  0.00     0.010 A 
ATOM     43  C   UNL A   1      43.173  24.064  27.326  1.00  0.00    -0.014 A 
BRANCH  43  44
ATOM     44  C   UNL A   1      43.091  25.178  28.257  1.00  0.00     0.031 A 
ATOM     45  C   UNL A   1      41.697  25.726  28.199  1.00  0.00     0.074 A 
ATOM     46  C   UNL A   1      44.070  25.443  29.174  1.00  0.00     0.049 A 
ATOM     47  N   UNL A   1      41.318  26.673  27.400  1.00  0.00    -0.248 NA
ATOM     48  C   UNL A   1      40.536  24.943  28.701  1.00  0.00     0.031 C 
ATOM     49  C   UNL A   1      45.385  24.814  29.414  1.00  0.00     0.029 A 
ATOM     50  N   UNL A   1      44.080  26.420  30.138  1.00  0.00    -0.354 N 
ATOM     51  C   UNL A   1      39.964  26.843  27.648  1.00  0.00     0.074 A 
ATOM     52  C   UNL A   1      39.507  25.581  28.133  1.00  0.00     0.031 C 
ATOM     53  C   UNL A   1      45.932  25.270  30.579  1.00  0.00     0.029 A 
ATOM     54  C   UNL A   1      45.093  26.322  31.127  1.00  0.00     0.049 A 
ATOM     55  H   UNL A   1      43.420  27.150  30.141  1.00  0.00     0.167 HD
ATOM     56  C   UNL A   1      39.460  28.098  27.807  1.00  0.00     0.034 A 
ATOM     57  C   UNL A   1      45.231  27.135  32.239  1.00  0.00     0.034 A 
ATOM     58  C   UNL A   1      40.450  29.066  27.377  1.00  0.00     0.049 A 
ATOM     59  C   UNL A   1      44.464  28.373  31.881  1.00  0.00     0.074 A 
ATOM     60  C   UNL A   1      41.074  29.320  26.172  1.00  0.00     0.029 A 
ATOM     61  N   UNL A   1      41.290  29.549  28.359  1.00  0.00    -0.354 N 
ATOM     62  N   UNL A   1      44.842  29.147  30.891  1.00  0.00    -0.248 NA
ATOM     63  C   UNL A   1      43.025  28.341  32.140  1.00  0.00     0.031 C 
ATOM     64  C   UNL A   1      42.453  29.479  26.507  1.00  0.00     0.029 A 
ATOM     65  C   UNL A   1      42.587  29.512  27.898  1.00  0.00     0.049 A 
ATOM     66  H   UNL A   1      41.008  29.868  29.246  1.00  0.00     0.167 HD
ATOM     67  C   UNL A   1      43.696  29.340  30.129  1.00  0.00     0.074 A 
ATOM     68  C   UNL A   1      42.599  28.814  30.960  1.00  0.00     0.031 C 
ATOM     69  C   UNL A   1      43.751  29.528  28.772  1.00  0.00     0.034 A 
BRANCH  56  70
ATOM     70  C   UNL A   1      38.329  28.487  28.735  1.00  0.00     0.023 A 
ATOM     71  C   UNL A   1      37.397  29.413  28.228  1.00  0.00     0.031 A 
ATOM     72  C   UNL A   1      38.254  28.242  30.124  1.00  0.00     0.131 A 
ATOM     73  C   UNL A   1      36.532  30.114  29.083  1.00  0.00     0.055 A 
ATOM     74  C   UNL A   1      37.349  28.900  30.964  1.00  0.00     0.041 A 
ATOM     75  F   UNL A   1      39.097  27.427  30.769  1.00  0.00    -0.206 F 
ATOM     76  C   UNL A   1      36.498  29.863  30.450  1.00  0.00     0.022 A 
BRANCH  73  77
ATOM     77  S   UNL A   1      35.575  31.485  28.388  1.00  0.00     0.124 S 
ATOM     78  O   UNL A   1      36.624  32.450  28.078  1.00  0.00    -0.237 OA
ATOM     79  O   UNL A   1      34.927  30.849  27.246  1.00  0.00    -0.237 OA
ATOM     80  O   UNL A   1      34.682  31.861  29.481  1.00  0.00    -0.744 OA
ENDBRANCH  73  77
ENDBRANCH  56  70
BRANCH  57  81
ATOM     81  C   UNL A   1      45.473  26.724  33.692  1.00  0.00     0.023 A 
ATOM     82  C   UNL A   1      44.486  26.503  34.714  1.00  0.00     0.031 A 
ATOM     83  C   UNL A   1      46.774  26.284  34.013  1.00  0.00     0.131 A 
ATOM     84  C   UNL A   1      44.842  25.876  35.957  1.00  0.00     0.055 A 
ATOM     85  C   UNL A   1      47.102  25.640  35.210  1.00  0.00     0.041 A 
ATOM     86  F   UNL A   1      47.775  26.400  33.129  1.00  0.00    -0.206 F 
ATOM     87  C   UNL A   1      46.143  25.425  36.180  1.00  0.00     0.022 A 
BRANCH  84  88
ATOM     88  S   UNL A   1      43.653  25.588  37.345  1.00  0.00     0.124 S 
ATOM     89  O   UNL A   1      43.365  26.942  37.803  1.00  0.00    -0.237 OA
ATOM     90  O   UNL A   1      42.558  24.874  36.698  1.00  0.00    -0.237 OA
ATOM     91  O   UNL A   1      44.419  24.781  38.299  1.00  0.00    -0.744 OA
ENDBRANCH  84  88
ENDBRANCH  57  81
BRANCH  69  92
ATOM     92  C   UNL A   1      45.113  29.693  28.100  1.00  0.00     0.023 A 
ATOM     93  C   UNL A   1      45.948  28.667  27.578  1.00  0.00     0.031 A 
ATOM     94  C   UNL A   1      45.519  31.019  27.877  1.00  0.00     0.131 A 
ATOM     95  C   UNL A   1      47.144  29.001  26.896  1.00  0.00     0.055 A 
ATOM     96  C   UNL A   1      46.671  31.343  27.165  1.00  0.00     0.041 A 
ATOM     97  F   UNL A   1      44.766  32.038  28.320  1.00  0.00    -0.206 F 
ATOM     98  C   UNL A   1      47.496  30.337  26.681  1.00  0.00     0.022 A 
BRANCH  95  99
ATOM     99  S   UNL A   1      48.319  27.712  26.335  1.00  0.00     0.124 S 
ATOM    100  O   UNL A   1      48.983  28.340  25.198  1.00  0.00    -0.237 OA
ATOM    101  O   UNL A   1      49.150  27.495  27.516  1.00  0.00    -0.237 OA
ATOM    102  O   UNL A   1      47.452  26.584  25.987  1.00  0.00    -0.744 OA
ENDBRANCH  95  99
ENDBRANCH  69  92
ENDBRANCH  43  44
ENDBRANCH  35  38
ENDBRANCH  33  34
ENDBRANCH  32  33
ENDBRANCH   1  32
TORSDOF 18
ENDMDL
MODEL 3
REMARK VINA RESULT:     -13.7      1.996      2.804
REMARK SMILES O=C1C[C@H](c2cn[nH]c2C(=O)NCCCCCCNC(=O)c2ccc(-c3c4nc(c(-c5cc(S(=O)(=O)[O-])ccc5F)c5ccc([nH]5)c(-c5cc(S(=O)(=O)[O-])ccc5F)c5nc(c(-c6cc(S(=O)(=O)[O-])ccc6F)c6ccc3[nH]6)C=C5)C=C4)cc2)c2c(-c3cccs3)n[nH]c2N1
REMARK SMILES IDX 16 1 15 2 14 3 13 4 12 5 10 6 11 7 9 9 5 10 6 11 7 12 8 13
REMARK SMILES IDX 4 15 1 16 2 17 3 18 95 19 94 20 85 22 93 23 86 24 92 25
REMARK SMILES IDX 87 27 88 28 91 29 89 30 90 31 17 32 18 33 19 34 20 35 21 37
REMARK SMILES IDX 22 38 23 39 84 40 24 41 83 42 25 43 26 44 27 45 77 46 28 47
REMARK SMILES IDX 82 48 76 49 78 50 29 51 81 52 75 53 74 54 30 56 62 57 42 58
REMARK SMILES IDX 61 59 43 60 46 61 60 62 79 63 44 64 45 65 59 67 80 68 47 69
REMARK SMILES IDX 31 70 32 71 40 72 33 73 39 74 41 75 38 76 34 77 35 78 36 79
REMARK SMILES IDX 37 80 63 81 64 82 72 83 65 84 71 85 73 86 70 87 66 88 67 89
REMARK SMILES IDX 68 90 69 91 48 92 49 93 57 94 50 95 56 96 58 97 55 98 51 99
REMARK SMILES IDX 52 100 53 101 54 102
REMARK H PARENT 12 8 8 14 95 21 93 26 19 36 78 55 46 66
REMARK Flexibility Score: inf
ROOT
ATOM      1  C   UNL A   1      37.852  22.910  25.551  1.00  0.00     0.002 C 
ENDROOT
BRANCH   1   2
ATOM      2  C   UNL A   1      36.419  23.454  25.507  1.00  0.00     0.002 C 
BRANCH   2   3
ATOM      3  C   UNL A   1      35.747  23.635  26.870  1.00  0.00     0.021 C 
BRANCH   3   4
ATOM      4  C   UNL A   1      34.606  22.371  27.253  1.00  0.00     0.116 C 
BRANCH   4   5
ATOM      5  N   UNL A   1      32.575  22.140  26.549  1.00  0.00    -0.351 N 
ATOM      6  C   UNL A   1      31.266  22.538  26.177  1.00  0.00     0.269 C 
ATOM      7  O   UNL A   1      30.531  21.639  25.756  1.00  0.00    -0.268 OA
ATOM      8  H   UNL A   1      32.534  21.169  26.391  1.00  0.00     0.163 HD
BRANCH   6   9
ATOM      9  C   UNL A   1      30.813  23.909  26.172  1.00  0.00     0.126 A 
ATOM     10  C   UNL A   1      31.356  25.069  25.642  1.00  0.00     0.011 A 
ATOM     11  C   UNL A   1      30.382  26.058  25.864  1.00  0.00     0.140 A 
ATOM     12  N   UNL A   1      29.310  25.580  26.501  1.00  0.00    -0.183 NA
ATOM     13  N   UNL A   1      29.611  24.283  26.698  1.00  0.00    -0.273 N 
ATOM     14  H   UNL A   1      29.018  23.661  27.177  1.00  0.00     0.190 HD
BRANCH  10  15
ATOM     15  C   UNL A   1      32.672  25.155  24.954  1.00  0.00     0.069 C 
ATOM     16  O   UNL A   1      32.915  22.582  22.143  1.00  0.00    -0.275 OA
ATOM     17  C   UNL A   1      32.552  23.615  22.714  1.00  0.00     0.226 C 
ATOM     18  C   UNL A   1      33.032  23.871  24.173  1.00  0.00     0.114 C 
ATOM     19  N   UNL A   1      31.795  24.514  22.003  1.00  0.00    -0.311 N 
ATOM     20  C   UNL A   1      31.747  25.795  22.460  1.00  0.00     0.132 A 
ATOM     21  H   UNL A   1      31.305  24.242  21.193  1.00  0.00     0.171 HD
ATOM     22  C   UNL A   1      32.493  26.242  23.997  1.00  0.00     0.031 A 
ATOM     23  N   UNL A   1      31.206  27.350  21.616  1.00  0.00    -0.262 N 
ATOM     24  C   UNL A   1      32.448  28.181  24.138  1.00  0.00     0.108 A 
ATOM     25  N   UNL A   1      31.687  28.832  22.680  1.00  0.00    -0.173 NA
ATOM     26  H   UNL A   1      30.740  27.397  20.750  1.00  0.00     0.192 HD
BRANCH  24  27
ATOM     27  C   UNL A   1      32.671  28.894  25.419  1.00  0.00     0.055 A 
ATOM     28  C   UNL A   1      33.708  28.600  26.270  1.00  0.00     0.022 A 
ATOM     29  S   UNL A   1      31.786  30.263  25.898  1.00  0.00    -0.142 S 
ATOM     30  C   UNL A   1      33.828  29.582  27.298  1.00  0.00     0.012 A 
ATOM     31  C   UNL A   1      32.807  30.509  27.251  1.00  0.00     0.065 A 
ENDBRANCH  24  27
ENDBRANCH  10  15
ENDBRANCH   6   9
ENDBRANCH   4   5
ENDBRANCH   3   4
ENDBRANCH   2   3
ENDBRANCH   1   2
BRANCH   1  32
ATOM     32  C   UNL A   1      37.989  21.463  26.059  1.00  0.00     0.021 C 
BRANCH  32  33
ATOM     33  C   UNL A   1      38.544  20.537  24.998  1.00  0.00     0.116 C 
BRANCH  33  34
ATOM     34  N   UNL A   1      39.478  19.571  25.581  1.00  0.00    -0.352 N 
ATOM     35  C   UNL A   1      40.786  19.745  25.963  1.00  0.00     0.251 C 
ATOM     36  H   UNL A   1      39.115  18.666  25.720  1.00  0.00     0.163 HD
ATOM     37  O   UNL A   1      41.546  18.794  26.086  1.00  0.00    -0.269 OA
BRANCH  35  38
ATOM     38  C   UNL A   1      41.177  21.096  26.360  1.00  0.00     0.039 A 
ATOM     39  C   UNL A   1      41.717  22.070  25.524  1.00  0.00     0.014 A 
ATOM     40  C   UNL A   1      41.152  21.336  27.718  1.00  0.00     0.014 A 
ATOM     41  C   UNL A   1      42.250  23.209  26.146  1.00  0.00     0.010 A 
ATOM     42  C   UNL A   1      41.058  22.619  28.105  1.00  0.00     0.010 A 
ATOM     43  C   UNL A   1      42.041  23.376  27.529  1.00  0.00    -0.014 A 
BRANCH  43  44
ATOM     44  C   UNL A   1      42.316  24.552  28.339  1.00  0.00     0.031 A 
ATOM     45  C   UNL A   1      41.144  25.480  28.216  1.00  0.00     0.074 A 
ATOM     46  C   UNL A   1      43.353  24.606  29.227  1.00  0.00     0.049 A 
ATOM     47  N   UNL A   1      41.040  26.410  27.322  1.00  0.00    -0.248 NA
ATOM     48  C   UNL A   1      39.818  25.130  28.792  1.00  0.00     0.031 C 
ATOM     49  C   UNL A   1      44.430  23.645  29.538  1.00  0.00     0.029 A 
ATOM     50  N   UNL A   1      43.676  25.629  30.084  1.00  0.00    -0.354 N 
ATOM     51  C   UNL A   1      39.804  26.998  27.544  1.00  0.00     0.074 A 
ATOM     52  C   UNL A   1      39.008  25.983  28.156  1.00  0.00     0.031 C 
ATOM     53  C   UNL A   1      45.118  24.033  30.652  1.00  0.00     0.029 A 
ATOM     54  C   UNL A   1      44.641  25.335  31.083  1.00  0.00     0.049 A 
ATOM     55  H   UNL A   1      43.261  26.518  30.008  1.00  0.00     0.167 HD
ATOM     56  C   UNL A   1      39.696  28.356  27.570  1.00  0.00     0.034 A 
ATOM     57  C   UNL A   1      45.042  26.180  32.104  1.00  0.00     0.034 A 
ATOM     58  C   UNL A   1      40.916  28.938  27.045  1.00  0.00     0.049 A 
ATOM     59  C   UNL A   1      44.664  27.546  31.616  1.00  0.00     0.074 A 
ATOM     60  C   UNL A   1      41.555  28.873  25.824  1.00  0.00     0.029 A 
ATOM     61  N   UNL A   1      41.887  29.247  27.976  1.00  0.00    -0.354 N 
ATOM     62  N   UNL A   1      45.228  28.070  30.553  1.00  0.00    -0.248 NA
ATOM     63  C   UNL A   1      43.288  27.968  31.870  1.00  0.00     0.031 C 
ATOM     64  C   UNL A   1      42.928  28.650  26.146  1.00  0.00     0.029 A 
ATOM     65  C   UNL A   1      43.102  28.782  27.527  1.00  0.00     0.049 A 
ATOM     66  H   UNL A   1      41.734  29.724  28.824  1.00  0.00     0.167 HD
ATOM     67  C   UNL A   1      44.170  28.515  29.770  1.00  0.00     0.074 A 
ATOM     68  C   UNL A   1      42.989  28.424  30.645  1.00  0.00     0.031 C 
ATOM     69  C   UNL A   1      44.242  28.541  28.400  1.00  0.00     0.034 A 
BRANCH  56  70
ATOM     70  C   UNL A   1      38.755  29.153  28.446  1.00  0.00     0.023 A 
ATOM     71  C   UNL A   1      39.032  29.146  29.826  1.00  0.00     0.031 A 
ATOM     72  C   UNL A   1      37.492  29.670  28.078  1.00  0.00     0.131 A 
ATOM     73  C   UNL A   1      38.061  29.533  30.764  1.00  0.00     0.055 A 
ATOM     74  C   UNL A   1      36.550  30.111  29.014  1.00  0.00     0.041 A 
ATOM     75  F   UNL A   1      37.057  29.703  26.814  1.00  0.00    -0.206 F 
ATOM     76  C   UNL A   1      36.820  30.019  30.368  1.00  0.00     0.022 A 
BRANCH  73  77
ATOM     77  S   UNL A   1      38.397  29.223  32.515  1.00  0.00     0.124 S 
ATOM     78  O   UNL A   1      39.778  28.752  32.472  1.00  0.00    -0.237 OA
ATOM     79  O   UNL A   1      38.185  30.543  33.100  1.00  0.00    -0.237 OA
ATOM     80  O   UNL A   1      37.405  28.214  32.876  1.00  0.00    -0.744 OA
ENDBRANCH  73  77
ENDBRANCH  56  70
BRANCH  57  81
ATOM     81  C   UNL A   1      45.190  25.864  33.593  1.00  0.00     0.023 A 
ATOM     82  C   UNL A   1      44.217  26.069  34.632  1.00  0.00     0.031 A 
ATOM     83  C   UNL A   1      46.298  25.073  33.961  1.00  0.00     0.131 A 
ATOM     84  C   UNL A   1      44.399  25.492  35.936  1.00  0.00     0.055 A 
ATOM     85  C   UNL A   1      46.447  24.485  35.221  1.00  0.00     0.041 A 
ATOM     86  F   UNL A   1      47.256  24.778  33.072  1.00  0.00    -0.206 F 
ATOM     87  C   UNL A   1      45.501  24.681  36.208  1.00  0.00     0.022 A 
BRANCH  84  88
ATOM     88  S   UNL A   1      43.225  25.736  37.344  1.00  0.00     0.124 S 
ATOM     89  O   UNL A   1      42.124  24.844  36.998  1.00  0.00    -0.237 OA
ATOM     90  O   UNL A   1      44.022  25.362  38.507  1.00  0.00    -0.237 OA
ATOM     91  O   UNL A   1      42.888  27.160  37.275  1.00  0.00    -0.744 OA
ENDBRANCH  84  88
ENDBRANCH  57  81
BRANCH  69  92
ATOM     92  C   UNL A   1      45.574  28.227  27.721  1.00  0.00     0.023 A 
ATOM     93  C   UNL A   1      46.045  26.955  27.293  1.00  0.00     0.031 A 
ATOM     94  C   UNL A   1      46.358  29.343  27.385  1.00  0.00     0.131 A 
ATOM     95  C   UNL A   1      47.271  26.851  26.588  1.00  0.00     0.055 A 
ATOM     96  C   UNL A   1      47.537  29.240  26.652  1.00  0.00     0.041 A 
ATOM     97  F   UNL A   1      45.960  30.575  27.736  1.00  0.00    -0.206 F 
ATOM     98  C   UNL A   1      48.006  27.994  26.260  1.00  0.00     0.022 A 
BRANCH  95  99
ATOM     99  S   UNL A   1      47.985  25.224  26.145  1.00  0.00     0.124 S 
ATOM    100  O   UNL A   1      47.868  25.194  24.691  1.00  0.00    -0.237 OA
ATOM    101  O   UNL A   1      49.344  25.312  26.671  1.00  0.00    -0.237 OA
ATOM    102  O   UNL A   1      47.124  24.268  26.845  1.00  0.00    -0.744 OA
ENDBRANCH  95  99
ENDBRANCH  69  92
ENDBRANCH  43  44
ENDBRANCH  35  38
ENDBRANCH  33  34
ENDBRANCH  32  33
ENDBRANCH   1  32
TORSDOF 18
ENDMDL
