MODEL 1
REMARK VINA RESULT:     -11.9      0.000      0.000
REMARK SMILES O=C(Cn1c(=O)n(Cc2cccnc2)c(=O)c2sccc21)NCCCCCCNC(=O)c1ccc(-c2c3nc(c(-c4cc(S(=O)(=O)[O-])ccc4F)c4ccc([nH]4)c(-c4cc(S(=O)(=O)[O-])ccc4F)c4nc(c(-c5cc(S(=O)(=O)[O-])ccc5F)c5ccc2[nH]5)C=C4)C=C3)cc1
REMARK SMILES IDX 25 1 24 2 23 3 22 4 1 5 2 6 3 8 4 9 5 10 21 11 6 12 7 13
REMARK SMILES IDX 17 14 20 15 15 16 18 17 19 18 16 19 8 20 9 21 10 22 14 23
REMARK SMILES IDX 11 24 13 25 12 26 26 27 27 28 28 29 29 30 30 31 31 33 32 34
REMARK SMILES IDX 33 35 94 36 34 37 93 38 35 39 36 40 37 41 87 42 38 43 92 44
REMARK SMILES IDX 86 45 88 46 39 47 91 48 85 49 84 50 40 52 72 53 52 54 71 55
REMARK SMILES IDX 53 56 56 57 70 58 89 59 54 60 55 61 69 63 90 64 57 65 41 66
REMARK SMILES IDX 42 67 50 68 43 69 49 70 51 71 48 72 44 73 45 74 46 75 47 76
REMARK SMILES IDX 73 77 74 78 82 79 75 80 81 81 83 82 80 83 76 84 77 85 78 86
REMARK SMILES IDX 79 87 58 88 59 89 67 90 60 91 66 92 68 93 65 94 61 95 62 96
REMARK SMILES IDX 63 97 64 98
REMARK H PARENT 22 7 29 32 88 51 56 62
REMARK Flexibility Score: inf
ROOT
ATOM      1  C   UNL A   1      41.405  21.538  27.549  1.00  0.00     0.002 C 
ENDROOT
BRANCH   1   2
ATOM      2  C   UNL A   1      40.548  22.189  26.458  1.00  0.00     0.021 C 
BRANCH   2   3
ATOM      3  C   UNL A   1      39.262  21.445  26.118  1.00  0.00     0.116 C 
BRANCH   3   4
ATOM      4  N   UNL A   1      38.069  22.238  26.347  1.00  0.00    -0.355 N 
ATOM      5  O   UNL A   1      37.362  22.279  24.162  1.00  0.00    -0.273 OA
ATOM      6  C   UNL A   1      37.146  22.492  25.353  1.00  0.00     0.240 C 
ATOM      7  H   UNL A   1      37.912  22.610  27.245  1.00  0.00     0.163 HD
BRANCH   6   8
ATOM      8  C   UNL A   1      35.835  23.124  25.828  1.00  0.00     0.227 C 
BRANCH   8   9
ATOM      9  N   UNL A   1      34.608  22.868  25.052  1.00  0.00    -0.283 N 
ATOM     10  C   UNL A   1      33.887  21.707  25.401  1.00  0.00     0.332 A 
ATOM     11  C   UNL A   1      34.073  23.747  24.101  1.00  0.00     0.070 A 
ATOM     12  O   UNL A   1      34.263  20.977  26.323  1.00  0.00    -0.247 OA
ATOM     13  N   UNL A   1      32.744  21.406  24.652  1.00  0.00    -0.254 N 
ATOM     14  C   UNL A   1      33.032  23.327  23.316  1.00  0.00     0.116 A 
ATOM     15  C   UNL A   1      34.434  25.089  23.774  1.00  0.00     0.039 A 
ATOM     16  C   UNL A   1      32.388  22.061  23.476  1.00  0.00     0.274 A 
ATOM     17  S   UNL A   1      32.569  24.453  22.133  1.00  0.00    -0.136 S 
ATOM     18  C   UNL A   1      33.720  25.581  22.700  1.00  0.00     0.068 A 
ATOM     19  O   UNL A   1      31.589  21.586  22.662  1.00  0.00    -0.268 OA
BRANCH  13  20
ATOM     20  C   UNL A   1      31.936  20.251  25.039  1.00  0.00     0.168 C 
BRANCH  20  21
ATOM     21  C   UNL A   1      32.594  18.929  24.698  1.00  0.00    -0.010 A 
ATOM     22  C   UNL A   1      32.968  18.611  23.387  1.00  0.00     0.009 A 
ATOM     23  C   UNL A   1      32.835  17.960  25.671  1.00  0.00     0.116 A 
ATOM     24  C   UNL A   1      33.552  17.375  23.112  1.00  0.00     0.020 A 
ATOM     25  N   UNL A   1      33.414  16.759  25.433  1.00  0.00    -0.264 NA
ATOM     26  C   UNL A   1      33.759  16.495  24.159  1.00  0.00     0.111 A 
ENDBRANCH  20  21
ENDBRANCH  13  20
ENDBRANCH   8   9
ENDBRANCH   6   8
ENDBRANCH   3   4
ENDBRANCH   2   3
ENDBRANCH   1   2
BRANCH   1  27
ATOM     27  C   UNL A   1      41.357  20.005  27.640  1.00  0.00     0.002 C 
BRANCH  27  28
ATOM     28  C   UNL A   1      42.415  19.226  26.847  1.00  0.00     0.021 C 
BRANCH  28  29
ATOM     29  C   UNL A   1      42.613  19.705  25.418  1.00  0.00     0.116 C 
BRANCH  29  30
ATOM     30  N   UNL A   1      43.972  19.498  24.918  1.00  0.00    -0.352 N 
ATOM     31  C   UNL A   1      44.892  20.460  24.534  1.00  0.00     0.251 C 
ATOM     32  H   UNL A   1      44.270  18.562  24.847  1.00  0.00     0.163 HD
ATOM     33  O   UNL A   1      45.807  20.170  23.769  1.00  0.00    -0.269 OA
BRANCH  31  34
ATOM     34  C   UNL A   1      44.747  21.832  25.060  1.00  0.00     0.039 A 
ATOM     35  C   UNL A   1      43.822  22.741  24.541  1.00  0.00     0.014 A 
ATOM     36  C   UNL A   1      45.563  22.195  26.128  1.00  0.00     0.014 A 
ATOM     37  C   UNL A   1      43.687  23.983  25.163  1.00  0.00     0.010 A 
ATOM     38  C   UNL A   1      45.285  23.318  26.859  1.00  0.00     0.010 A 
ATOM     39  C   UNL A   1      44.411  24.256  26.338  1.00  0.00    -0.014 A 
BRANCH  39  40
ATOM     40  C   UNL A   1      44.189  25.469  27.117  1.00  0.00     0.031 A 
ATOM     41  C   UNL A   1      45.258  26.478  26.937  1.00  0.00     0.074 A 
ATOM     42  C   UNL A   1      43.041  25.742  27.781  1.00  0.00     0.049 A 
ATOM     43  N   UNL A   1      46.238  26.713  27.741  1.00  0.00    -0.248 NA
ATOM     44  C   UNL A   1      45.386  27.159  25.638  1.00  0.00     0.031 C 
ATOM     45  C   UNL A   1      41.799  24.957  27.804  1.00  0.00     0.029 A 
ATOM     46  N   UNL A   1      42.710  26.835  28.528  1.00  0.00    -0.354 N 
ATOM     47  C   UNL A   1      46.922  27.788  27.189  1.00  0.00     0.074 A 
ATOM     48  C   UNL A   1      46.520  27.843  25.810  1.00  0.00     0.031 C 
ATOM     49  C   UNL A   1      40.796  25.690  28.340  1.00  0.00     0.029 A 
ATOM     50  C   UNL A   1      41.358  26.919  28.869  1.00  0.00     0.049 A 
ATOM     51  H   UNL A   1      43.370  27.511  28.805  1.00  0.00     0.167 HD
ATOM     52  C   UNL A   1      47.498  28.718  28.002  1.00  0.00     0.034 A 
ATOM     53  C   UNL A   1      40.750  27.891  29.600  1.00  0.00     0.034 A 
ATOM     54  C   UNL A   1      47.501  28.252  29.370  1.00  0.00     0.049 A 
ATOM     55  C   UNL A   1      41.805  28.452  30.475  1.00  0.00     0.074 A 
ATOM     56  C   UNL A   1      48.196  27.319  30.108  1.00  0.00     0.029 A 
ATOM     57  N   UNL A   1      46.333  28.515  30.043  1.00  0.00    -0.354 N 
ATOM     58  N   UNL A   1      42.425  27.744  31.381  1.00  0.00    -0.248 NA
ATOM     59  C   UNL A   1      42.466  29.692  30.091  1.00  0.00     0.031 C 
ATOM     60  C   UNL A   1      47.300  26.875  31.128  1.00  0.00     0.029 A 
ATOM     61  C   UNL A   1      46.107  27.589  31.030  1.00  0.00     0.049 A 
ATOM     62  H   UNL A   1      45.734  29.271  29.843  1.00  0.00     0.167 HD
ATOM     63  C   UNL A   1      43.723  28.211  31.351  1.00  0.00     0.074 A 
ATOM     64  C   UNL A   1      43.649  29.506  30.683  1.00  0.00     0.031 C 
ATOM     65  C   UNL A   1      44.779  27.379  31.583  1.00  0.00     0.034 A 
BRANCH  52  66
ATOM     66  C   UNL A   1      47.623  30.195  27.692  1.00  0.00     0.023 A 
ATOM     67  C   UNL A   1      46.444  30.904  27.379  1.00  0.00     0.031 A 
ATOM     68  C   UNL A   1      48.835  30.869  27.415  1.00  0.00     0.131 A 
ATOM     69  C   UNL A   1      46.501  32.181  26.789  1.00  0.00     0.055 A 
ATOM     70  C   UNL A   1      48.886  32.156  26.874  1.00  0.00     0.041 A 
ATOM     71  F   UNL A   1      50.032  30.289  27.555  1.00  0.00    -0.206 F 
ATOM     72  C   UNL A   1      47.716  32.812  26.538  1.00  0.00     0.022 A 
BRANCH  69  73
ATOM     73  S   UNL A   1      44.960  32.970  26.252  1.00  0.00     0.124 S 
ATOM     74  O   UNL A   1      44.578  33.729  27.436  1.00  0.00    -0.237 OA
ATOM     75  O   UNL A   1      45.406  33.749  25.100  1.00  0.00    -0.237 OA
ATOM     76  O   UNL A   1      44.094  31.836  25.932  1.00  0.00    -0.744 OA
ENDBRANCH  69  73
ENDBRANCH  52  66
BRANCH  53  77
ATOM     77  C   UNL A   1      39.453  28.582  29.342  1.00  0.00     0.023 A 
ATOM     78  C   UNL A   1      38.669  29.123  30.388  1.00  0.00     0.031 A 
ATOM     79  C   UNL A   1      39.112  28.979  28.030  1.00  0.00     0.131 A 
ATOM     80  C   UNL A   1      37.632  30.044  30.107  1.00  0.00     0.055 A 
ATOM     81  C   UNL A   1      38.090  29.895  27.760  1.00  0.00     0.041 A 
ATOM     82  F   UNL A   1      39.822  28.561  26.971  1.00  0.00    -0.206 F 
ATOM     83  C   UNL A   1      37.357  30.446  28.800  1.00  0.00     0.022 A 
BRANCH  80  84
ATOM     84  S   UNL A   1      36.700  30.841  31.460  1.00  0.00     0.124 S 
ATOM     85  O   UNL A   1      36.437  29.718  32.352  1.00  0.00    -0.237 OA
ATOM     86  O   UNL A   1      37.637  31.848  31.944  1.00  0.00    -0.237 OA
ATOM     87  O   UNL A   1      35.519  31.381  30.785  1.00  0.00    -0.744 OA
ENDBRANCH  80  84
ENDBRANCH  53  77
BRANCH  65  88
ATOM     88  C   UNL A   1      44.530  26.127  32.390  1.00  0.00     0.023 A 
ATOM     89  C   UNL A   1      44.248  26.072  33.773  1.00  0.00     0.031 A 
ATOM     90  C   UNL A   1      44.517  24.920  31.668  1.00  0.00     0.131 A 
ATOM     91  C   UNL A   1      43.957  24.829  34.377  1.00  0.00     0.055 A 
ATOM     92  C   UNL A   1      44.210  23.701  32.264  1.00  0.00     0.041 A 
ATOM     93  F   UNL A   1      44.773  24.917  30.349  1.00  0.00    -0.206 F 
ATOM     94  C   UNL A   1      43.929  23.650  33.622  1.00  0.00     0.022 A 
BRANCH  91  95
ATOM     95  S   UNL A   1      43.599  24.718  36.162  1.00  0.00     0.124 S 
ATOM     96  O   UNL A   1      42.233  24.209  36.200  1.00  0.00    -0.237 OA
ATOM     97  O   UNL A   1      44.635  23.808  36.642  1.00  0.00    -0.237 OA
ATOM     98  O   UNL A   1      43.745  26.100  36.628  1.00  0.00    -0.744 OA
ENDBRANCH  91  95
ENDBRANCH  65  88
ENDBRANCH  39  40
ENDBRANCH  31  34
ENDBRANCH  29  30
ENDBRANCH  28  29
ENDBRANCH  27  28
ENDBRANCH   1  27
TORSDOF 19
ENDMDL
MODEL 2
REMARK VINA RESULT:     -11.8      2.846      8.092
REMARK SMILES O=C(Cn1c(=O)n(Cc2cccnc2)c(=O)c2sccc21)NCCCCCCNC(=O)c1ccc(-c2c3nc(c(-c4cc(S(=O)(=O)[O-])ccc4F)c4ccc([nH]4)c(-c4cc(S(=O)(=O)[O-])ccc4F)c4nc(c(-c5cc(S(=O)(=O)[O-])ccc5F)c5ccc2[nH]5)C=C4)C=C3)cc1
REMARK SMILES IDX 25 1 24 2 23 3 22 4 1 5 2 6 3 8 4 9 5 10 21 11 6 12 7 13
REMARK SMILES IDX 17 14 20 15 15 16 18 17 19 18 16 19 8 20 9 21 10 22 14 23
REMARK SMILES IDX 11 24 13 25 12 26 26 27 27 28 28 29 29 30 30 31 31 33 32 34
REMARK SMILES IDX 33 35 94 36 34 37 93 38 35 39 36 40 37 41 87 42 38 43 92 44
REMARK SMILES IDX 86 45 88 46 39 47 91 48 85 49 84 50 40 52 72 53 52 54 71 55
REMARK SMILES IDX 53 56 56 57 70 58 89 59 54 60 55 61 69 63 90 64 57 65 41 66
REMARK SMILES IDX 42 67 50 68 43 69 49 70 51 71 48 72 44 73 45 74 46 75 47 76
REMARK SMILES IDX 73 77 74 78 82 79 75 80 81 81 83 82 80 83 76 84 77 85 78 86
REMARK SMILES IDX 79 87 58 88 59 89 67 90 60 91 66 92 68 93 65 94 61 95 62 96
REMARK SMILES IDX 63 97 64 98
REMARK H PARENT 22 7 29 32 88 51 56 62
REMARK Flexibility Score: inf
ROOT
ATOM      1  C   UNL A   1      32.423  29.882  27.241  1.00  0.00     0.002 C 
ENDROOT
BRANCH   1   2
ATOM      2  C   UNL A   1      32.601  29.090  25.940  1.00  0.00     0.021 C 
BRANCH   2   3
ATOM      3  C   UNL A   1      31.504  29.299  24.902  1.00  0.00     0.116 C 
BRANCH   3   4
ATOM      4  N   UNL A   1      31.142  28.080  24.205  1.00  0.00    -0.355 N 
ATOM      5  O   UNL A   1      32.851  28.142  22.672  1.00  0.00    -0.273 OA
ATOM      6  C   UNL A   1      31.927  27.536  23.208  1.00  0.00     0.240 C 
ATOM      7  H   UNL A   1      30.305  27.624  24.450  1.00  0.00     0.163 HD
BRANCH   6   8
ATOM      8  C   UNL A   1      31.527  26.128  22.761  1.00  0.00     0.227 C 
BRANCH   8   9
ATOM      9  N   UNL A   1      32.125  24.972  23.455  1.00  0.00    -0.283 N 
ATOM     10  C   UNL A   1      33.348  24.502  22.933  1.00  0.00     0.332 A 
ATOM     11  C   UNL A   1      31.623  24.411  24.637  1.00  0.00     0.070 A 
ATOM     12  O   UNL A   1      33.884  25.056  21.969  1.00  0.00    -0.247 OA
ATOM     13  N   UNL A   1      33.918  23.376  23.537  1.00  0.00    -0.254 N 
ATOM     14  C   UNL A   1      32.153  23.233  25.094  1.00  0.00     0.116 A 
ATOM     15  C   UNL A   1      30.591  24.866  25.513  1.00  0.00     0.039 A 
ATOM     16  C   UNL A   1      33.267  22.583  24.479  1.00  0.00     0.274 A 
ATOM     17  S   UNL A   1      31.367  22.615  26.465  1.00  0.00    -0.136 S 
ATOM     18  C   UNL A   1      30.328  23.969  26.528  1.00  0.00     0.068 A 
ATOM     19  O   UNL A   1      33.632  21.434  24.751  1.00  0.00    -0.268 OA
BRANCH  13  20
ATOM     20  C   UNL A   1      35.221  22.911  23.065  1.00  0.00     0.168 C 
BRANCH  20  21
ATOM     21  C   UNL A   1      36.273  22.894  24.155  1.00  0.00    -0.010 A 
ATOM     22  C   UNL A   1      36.442  23.973  25.031  1.00  0.00     0.009 A 
ATOM     23  C   UNL A   1      37.138  21.813  24.319  1.00  0.00     0.116 A 
ATOM     24  C   UNL A   1      37.435  23.926  26.007  1.00  0.00     0.020 A 
ATOM     25  N   UNL A   1      38.101  21.735  25.269  1.00  0.00    -0.264 NA
ATOM     26  C   UNL A   1      38.227  22.794  26.091  1.00  0.00     0.111 A 
ENDBRANCH  20  21
ENDBRANCH  13  20
ENDBRANCH   8   9
ENDBRANCH   6   8
ENDBRANCH   3   4
ENDBRANCH   2   3
ENDBRANCH   1   2
BRANCH   1  27
ATOM     27  C   UNL A   1      33.358  31.084  27.449  1.00  0.00     0.002 C 
BRANCH  27  28
ATOM     28  C   UNL A   1      34.861  30.840  27.258  1.00  0.00     0.021 C 
BRANCH  28  29
ATOM     29  C   UNL A   1      35.415  29.663  28.045  1.00  0.00     0.116 C 
BRANCH  29  30
ATOM     30  N   UNL A   1      35.584  29.946  29.471  1.00  0.00    -0.352 N 
ATOM     31  C   UNL A   1      36.575  29.476  30.318  1.00  0.00     0.251 C 
ATOM     32  H   UNL A   1      34.914  30.542  29.877  1.00  0.00     0.163 HD
ATOM     33  O   UNL A   1      36.386  29.441  31.530  1.00  0.00    -0.269 OA
BRANCH  31  34
ATOM     34  C   UNL A   1      37.853  29.021  29.734  1.00  0.00     0.039 A 
ATOM     35  C   UNL A   1      38.460  29.671  28.657  1.00  0.00     0.014 A 
ATOM     36  C   UNL A   1      38.460  27.911  30.314  1.00  0.00     0.014 A 
ATOM     37  C   UNL A   1      39.713  29.230  28.232  1.00  0.00     0.010 A 
ATOM     38  C   UNL A   1      39.767  27.615  30.039  1.00  0.00     0.010 A 
ATOM     39  C   UNL A   1      40.371  28.211  28.945  1.00  0.00    -0.014 A 
BRANCH  39  40
ATOM     40  C   UNL A   1      41.745  27.822  28.645  1.00  0.00     0.031 A 
ATOM     41  C   UNL A   1      41.835  26.564  27.869  1.00  0.00     0.074 A 
ATOM     42  C   UNL A   1      42.820  28.613  28.870  1.00  0.00     0.049 A 
ATOM     43  N   UNL A   1      42.111  25.392  28.332  1.00  0.00    -0.248 NA
ATOM     44  C   UNL A   1      41.372  26.552  26.472  1.00  0.00     0.031 C 
ATOM     45  C   UNL A   1      42.840  29.996  29.368  1.00  0.00     0.029 A 
ATOM     46  N   UNL A   1      44.141  28.372  28.626  1.00  0.00    -0.354 N 
ATOM     47  C   UNL A   1      42.159  24.557  27.223  1.00  0.00     0.074 A 
ATOM     48  C   UNL A   1      41.459  25.252  26.177  1.00  0.00     0.031 C 
ATOM     49  C   UNL A   1      44.067  30.536  29.190  1.00  0.00     0.029 A 
ATOM     50  C   UNL A   1      44.968  29.491  28.740  1.00  0.00     0.049 A 
ATOM     51  H   UNL A   1      44.484  27.480  28.388  1.00  0.00     0.167 HD
ATOM     52  C   UNL A   1      43.048  23.525  27.187  1.00  0.00     0.034 A 
ATOM     53  C   UNL A   1      46.314  29.545  28.555  1.00  0.00     0.034 A 
ATOM     54  C   UNL A   1      43.642  23.332  28.490  1.00  0.00     0.049 A 
ATOM     55  C   UNL A   1      46.813  28.182  28.844  1.00  0.00     0.074 A 
ATOM     56  C   UNL A   1      43.243  22.816  29.704  1.00  0.00     0.029 A 
ATOM     57  N   UNL A   1      44.725  24.142  28.727  1.00  0.00    -0.354 N 
ATOM     58  N   UNL A   1      46.698  27.620  30.018  1.00  0.00    -0.248 NA
ATOM     59  C   UNL A   1      47.086  27.272  27.740  1.00  0.00     0.031 C 
ATOM     60  C   UNL A   1      43.990  23.522  30.697  1.00  0.00     0.029 A 
ATOM     61  C   UNL A   1      44.869  24.402  30.067  1.00  0.00     0.049 A 
ATOM     62  H   UNL A   1      45.322  24.492  28.027  1.00  0.00     0.167 HD
ATOM     63  C   UNL A   1      46.448  26.292  29.739  1.00  0.00     0.074 A 
ATOM     64  C   UNL A   1      46.870  26.105  28.355  1.00  0.00     0.031 C 
ATOM     65  C   UNL A   1      45.637  25.542  30.540  1.00  0.00     0.034 A 
BRANCH  52  66
ATOM     66  C   UNL A   1      43.740  23.008  25.943  1.00  0.00     0.023 A 
ATOM     67  C   UNL A   1      43.752  21.614  25.727  1.00  0.00     0.031 A 
ATOM     68  C   UNL A   1      44.612  23.763  25.124  1.00  0.00     0.131 A 
ATOM     69  C   UNL A   1      44.619  21.034  24.781  1.00  0.00     0.055 A 
ATOM     70  C   UNL A   1      45.435  23.186  24.153  1.00  0.00     0.041 A 
ATOM     71  F   UNL A   1      44.793  25.078  25.281  1.00  0.00    -0.206 F 
ATOM     72  C   UNL A   1      45.458  21.814  23.990  1.00  0.00     0.022 A 
BRANCH  69  73
ATOM     73  S   UNL A   1      44.715  19.228  24.670  1.00  0.00     0.124 S 
ATOM     74  O   UNL A   1      45.988  18.950  25.324  1.00  0.00    -0.237 OA
ATOM     75  O   UNL A   1      43.514  18.816  25.390  1.00  0.00    -0.237 OA
ATOM     76  O   UNL A   1      44.687  18.976  23.229  1.00  0.00    -0.744 OA
ENDBRANCH  69  73
ENDBRANCH  52  66
BRANCH  53  77
ATOM     77  C   UNL A   1      47.116  30.567  27.821  1.00  0.00     0.023 A 
ATOM     78  C   UNL A   1      46.510  31.646  27.134  1.00  0.00     0.031 A 
ATOM     79  C   UNL A   1      48.509  30.660  28.032  1.00  0.00     0.131 A 
ATOM     80  C   UNL A   1      47.278  32.765  26.732  1.00  0.00     0.055 A 
ATOM     81  C   UNL A   1      49.261  31.771  27.638  1.00  0.00     0.041 A 
ATOM     82  F   UNL A   1      49.172  29.713  28.715  1.00  0.00    -0.206 F 
ATOM     83  C   UNL A   1      48.645  32.838  27.002  1.00  0.00     0.022 A 
BRANCH  80  84
ATOM     84  S   UNL A   1      46.481  34.215  25.959  1.00  0.00     0.124 S 
ATOM     85  O   UNL A   1      46.202  35.061  27.114  1.00  0.00    -0.237 OA
ATOM     86  O   UNL A   1      47.509  34.691  25.039  1.00  0.00    -0.237 OA
ATOM     87  O   UNL A   1      45.299  33.646  25.312  1.00  0.00    -0.744 OA
ENDBRANCH  80  84
ENDBRANCH  53  77
BRANCH  65  88
ATOM     88  C   UNL A   1      45.465  25.974  31.976  1.00  0.00     0.023 A 
ATOM     89  C   UNL A   1      44.301  26.545  32.539  1.00  0.00     0.031 A 
ATOM     90  C   UNL A   1      46.549  25.713  32.833  1.00  0.00     0.131 A 
ATOM     91  C   UNL A   1      44.261  26.825  33.923  1.00  0.00     0.055 A 
ATOM     92  C   UNL A   1      46.497  25.972  34.199  1.00  0.00     0.041 A 
ATOM     93  F   UNL A   1      47.677  25.165  32.351  1.00  0.00    -0.206 F 
ATOM     94  C   UNL A   1      45.351  26.531  34.750  1.00  0.00     0.022 A 
BRANCH  91  95
ATOM     95  S   UNL A   1      42.780  27.574  34.682  1.00  0.00     0.124 S 
ATOM     96  O   UNL A   1      42.040  26.422  35.181  1.00  0.00    -0.237 OA
ATOM     97  O   UNL A   1      43.351  28.458  35.695  1.00  0.00    -0.237 OA
ATOM     98  O   UNL A   1      42.137  28.271  33.565  1.00  0.00    -0.744 OA
ENDBRANCH  91  95
ENDBRANCH  65  88
ENDBRANCH  39  40
ENDBRANCH  31  34
ENDBRANCH  29  30
ENDBRANCH  28  29
ENDBRANCH  27  28
ENDBRANCH   1  27
TORSDOF 19
ENDMDL
MODEL 3
REMARK VINA RESULT:     -11.6      4.271      6.614
REMARK SMILES O=C(Cn1c(=O)n(Cc2cccnc2)c(=O)c2sccc21)NCCCCCCNC(=O)c1ccc(-c2c3nc(c(-c4cc(S(=O)(=O)[O-])ccc4F)c4ccc([nH]4)c(-c4cc(S(=O)(=O)[O-])ccc4F)c4nc(c(-c5cc(S(=O)(=O)[O-])ccc5F)c5ccc2[nH]5)C=C4)C=C3)cc1
REMARK SMILES IDX 25 1 24 2 23 3 22 4 1 5 2 6 3 8 4 9 5 10 21 11 6 12 7 13
REMARK SMILES IDX 17 14 20 15 15 16 18 17 19 18 16 19 8 20 9 21 10 22 14 23
REMARK SMILES IDX 11 24 13 25 12 26 26 27 27 28 28 29 29 30 30 31 31 33 32 34
REMARK SMILES IDX 33 35 94 36 34 37 93 38 35 39 36 40 37 41 87 42 38 43 92 44
REMARK SMILES IDX 86 45 88 46 39 47 91 48 85 49 84 50 40 52 72 53 52 54 71 55
REMARK SMILES IDX 53 56 56 57 70 58 89 59 54 60 55 61 69 63 90 64 57 65 41 66
REMARK SMILES IDX 42 67 50 68 43 69 49 70 51 71 48 72 44 73 45 74 46 75 47 76
REMARK SMILES IDX 73 77 74 78 82 79 75 80 81 81 83 82 80 83 76 84 77 85 78 86
REMARK SMILES IDX 79 87 58 88 59 89 67 90 60 91 66 92 68 93 65 94 61 95 62 96
REMARK SMILES IDX 63 97 64 98
REMARK H PARENT 22 7 29 32 88 51 56 62
REMARK Flexibility Score: inf
ROOT
ATOM      1  C   UNL A   1      34.615  24.382  25.581  1.00  0.00     0.002 C 
ENDROOT
BRANCH   1   2
ATOM      2  C   UNL A   1      33.760  23.210  26.075  1.00  0.00     0.021 C 
BRANCH   2   3
ATOM      3  C   UNL A   1      32.540  22.895  25.218  1.00  0.00     0.116 C 
BRANCH   3   4
ATOM      4  N   UNL A   1      31.572  23.976  25.189  1.00  0.00    -0.355 N 
ATOM      5  O   UNL A   1      30.642  23.545  27.245  1.00  0.00    -0.273 OA
ATOM      6  C   UNL A   1      30.774  24.284  26.272  1.00  0.00     0.240 C 
ATOM      7  H   UNL A   1      31.481  24.509  24.367  1.00  0.00     0.163 HD
BRANCH   6   8
ATOM      8  C   UNL A   1      30.000  25.599  26.156  1.00  0.00     0.227 C 
BRANCH   8   9
ATOM      9  N   UNL A   1      30.616  26.717  25.417  1.00  0.00    -0.283 N 
ATOM     10  C   UNL A   1      30.005  27.060  24.193  1.00  0.00     0.332 A 
ATOM     11  C   UNL A   1      31.666  27.507  25.905  1.00  0.00     0.070 A 
ATOM     12  O   UNL A   1      28.998  26.467  23.795  1.00  0.00    -0.247 OA
ATOM     13  N   UNL A   1      30.594  28.083  23.442  1.00  0.00    -0.254 N 
ATOM     14  C   UNL A   1      32.277  28.398  25.063  1.00  0.00     0.116 A 
ATOM     15  C   UNL A   1      32.260  27.559  27.202  1.00  0.00     0.039 A 
ATOM     16  C   UNL A   1      31.838  28.642  23.725  1.00  0.00     0.274 A 
ATOM     17  S   UNL A   1      33.604  29.196  25.757  1.00  0.00    -0.136 S 
ATOM     18  C   UNL A   1      33.345  28.411  27.251  1.00  0.00     0.068 A 
ATOM     19  O   UNL A   1      32.485  29.287  22.893  1.00  0.00    -0.268 OA
BRANCH  13  20
ATOM     20  C   UNL A   1      29.940  28.510  22.206  1.00  0.00     0.168 C 
BRANCH  20  21
ATOM     21  C   UNL A   1      29.249  29.852  22.335  1.00  0.00    -0.010 A 
ATOM     22  C   UNL A   1      28.647  30.477  21.237  1.00  0.00     0.009 A 
ATOM     23  C   UNL A   1      29.202  30.537  23.549  1.00  0.00     0.116 A 
ATOM     24  C   UNL A   1      28.039  31.722  21.393  1.00  0.00     0.020 A 
ATOM     25  N   UNL A   1      28.604  31.739  23.731  1.00  0.00    -0.264 NA
ATOM     26  C   UNL A   1      28.037  32.303  22.649  1.00  0.00     0.111 A 
ENDBRANCH  20  21
ENDBRANCH  13  20
ENDBRANCH   8   9
ENDBRANCH   6   8
ENDBRANCH   3   4
ENDBRANCH   2   3
ENDBRANCH   1   2
BRANCH   1  27
ATOM     27  C   UNL A   1      36.018  24.039  25.057  1.00  0.00     0.002 C 
BRANCH  27  28
ATOM     28  C   UNL A   1      36.918  23.197  25.972  1.00  0.00     0.021 C 
BRANCH  28  29
ATOM     29  C   UNL A   1      38.360  23.671  26.051  1.00  0.00     0.116 C 
BRANCH  29  30
ATOM     30  N   UNL A   1      39.240  22.741  26.759  1.00  0.00    -0.352 N 
ATOM     31  C   UNL A   1      40.363  23.041  27.514  1.00  0.00     0.251 C 
ATOM     32  H   UNL A   1      39.006  21.786  26.692  1.00  0.00     0.163 HD
ATOM     33  O   UNL A   1      41.226  22.189  27.704  1.00  0.00    -0.269 OA
BRANCH  31  34
ATOM     34  C   UNL A   1      40.496  24.398  28.079  1.00  0.00     0.039 A 
ATOM     35  C   UNL A   1      41.737  24.995  28.314  1.00  0.00     0.014 A 
ATOM     36  C   UNL A   1      39.322  25.091  28.358  1.00  0.00     0.014 A 
ATOM     37  C   UNL A   1      41.768  26.317  28.760  1.00  0.00     0.010 A 
ATOM     38  C   UNL A   1      39.353  26.439  28.591  1.00  0.00     0.010 A 
ATOM     39  C   UNL A   1      40.567  27.040  28.876  1.00  0.00    -0.014 A 
BRANCH  39  40
ATOM     40  C   UNL A   1      40.551  28.467  29.181  1.00  0.00     0.031 A 
ATOM     41  C   UNL A   1      41.629  29.218  28.497  1.00  0.00     0.074 A 
ATOM     42  C   UNL A   1      39.551  29.086  29.852  1.00  0.00     0.049 A 
ATOM     43  N   UNL A   1      42.744  29.607  29.015  1.00  0.00    -0.248 NA
ATOM     44  C   UNL A   1      41.570  29.380  27.035  1.00  0.00     0.031 C 
ATOM     45  C   UNL A   1      38.289  28.507  30.333  1.00  0.00     0.029 A 
ATOM     46  N   UNL A   1      39.415  30.402  30.187  1.00  0.00    -0.354 N 
ATOM     47  C   UNL A   1      43.383  30.333  28.019  1.00  0.00     0.074 A 
ATOM     48  C   UNL A   1      42.754  29.946  26.785  1.00  0.00     0.031 C 
ATOM     49  C   UNL A   1      37.437  29.491  30.699  1.00  0.00     0.029 A 
ATOM     50  C   UNL A   1      38.150  30.755  30.658  1.00  0.00     0.049 A 
ATOM     51  H   UNL A   1      40.151  31.051  30.103  1.00  0.00     0.167 HD
ATOM     52  C   UNL A   1      44.142  31.416  28.346  1.00  0.00     0.034 A 
ATOM     53  C   UNL A   1      37.732  31.985  31.061  1.00  0.00     0.034 A 
ATOM     54  C   UNL A   1      44.352  31.464  29.776  1.00  0.00     0.049 A 
ATOM     55  C   UNL A   1      38.951  32.692  31.514  1.00  0.00     0.074 A 
ATOM     56  C   UNL A   1      45.111  30.776  30.699  1.00  0.00     0.029 A 
ATOM     57  N   UNL A   1      43.334  32.079  30.462  1.00  0.00    -0.354 N 
ATOM     58  N   UNL A   1      39.677  32.281  32.520  1.00  0.00    -0.248 NA
ATOM     59  C   UNL A   1      39.606  33.634  30.616  1.00  0.00     0.031 C 
ATOM     60  C   UNL A   1      44.379  30.825  31.925  1.00  0.00     0.029 A 
ATOM     61  C   UNL A   1      43.229  31.591  31.740  1.00  0.00     0.049 A 
ATOM     62  H   UNL A   1      42.753  32.779  30.085  1.00  0.00     0.167 HD
ATOM     63  C   UNL A   1      40.975  32.556  32.141  1.00  0.00     0.074 A 
ATOM     64  C   UNL A   1      40.861  33.533  31.063  1.00  0.00     0.031 C 
ATOM     65  C   UNL A   1      42.006  31.743  32.511  1.00  0.00     0.034 A 
BRANCH  52  66
ATOM     66  C   UNL A   1      44.295  32.666  27.505  1.00  0.00     0.023 A 
ATOM     67  C   UNL A   1      43.671  33.846  27.959  1.00  0.00     0.031 A 
ATOM     68  C   UNL A   1      44.767  32.696  26.172  1.00  0.00     0.131 A 
ATOM     69  C   UNL A   1      43.503  34.953  27.105  1.00  0.00     0.055 A 
ATOM     70  C   UNL A   1      44.641  33.814  25.344  1.00  0.00     0.041 A 
ATOM     71  F   UNL A   1      45.283  31.622  25.564  1.00  0.00    -0.206 F 
ATOM     72  C   UNL A   1      43.989  34.944  25.800  1.00  0.00     0.022 A 
BRANCH  69  73
ATOM     73  S   UNL A   1      42.542  36.375  27.688  1.00  0.00     0.124 S 
ATOM     74  O   UNL A   1      43.355  36.856  28.798  1.00  0.00    -0.237 OA
ATOM     75  O   UNL A   1      42.505  37.222  26.499  1.00  0.00    -0.237 OA
ATOM     76  O   UNL A   1      41.259  35.784  28.066  1.00  0.00    -0.744 OA
ENDBRANCH  69  73
ENDBRANCH  52  66
BRANCH  53  77
ATOM     77  C   UNL A   1      36.451  32.685  30.752  1.00  0.00     0.023 A 
ATOM     78  C   UNL A   1      35.770  33.465  31.716  1.00  0.00     0.031 A 
ATOM     79  C   UNL A   1      36.033  32.836  29.412  1.00  0.00     0.131 A 
ATOM     80  C   UNL A   1      34.756  34.370  31.323  1.00  0.00     0.055 A 
ATOM     81  C   UNL A   1      35.036  33.739  29.029  1.00  0.00     0.041 A 
ATOM     82  F   UNL A   1      36.646  32.179  28.415  1.00  0.00    -0.206 F 
ATOM     83  C   UNL A   1      34.405  34.523  29.981  1.00  0.00     0.022 A 
BRANCH  80  84
ATOM     84  S   UNL A   1      33.960  35.469  32.545  1.00  0.00     0.124 S 
ATOM     85  O   UNL A   1      33.803  36.705  31.787  1.00  0.00    -0.237 OA
ATOM     86  O   UNL A   1      32.735  34.749  32.872  1.00  0.00    -0.237 OA
ATOM     87  O   UNL A   1      34.940  35.534  33.630  1.00  0.00    -0.744 OA
ENDBRANCH  80  84
ENDBRANCH  53  77
BRANCH  65  88
ATOM     88  C   UNL A   1      41.829  30.892  33.746  1.00  0.00     0.023 A 
ATOM     89  C   UNL A   1      41.734  29.483  33.778  1.00  0.00     0.031 A 
ATOM     90  C   UNL A   1      41.829  31.578  34.973  1.00  0.00     0.131 A 
ATOM     91  C   UNL A   1      41.651  28.817  35.021  1.00  0.00     0.055 A 
ATOM     92  C   UNL A   1      41.767  30.917  36.196  1.00  0.00     0.041 A 
ATOM     93  F   UNL A   1      41.924  32.919  35.000  1.00  0.00    -0.206 F 
ATOM     94  C   UNL A   1      41.677  29.531  36.224  1.00  0.00     0.022 A 
BRANCH  91  95
ATOM     95  S   UNL A   1      41.514  26.999  35.100  1.00  0.00     0.124 S 
ATOM     96  O   UNL A   1      40.402  26.707  34.204  1.00  0.00    -0.237 OA
ATOM     97  O   UNL A   1      42.832  26.559  34.651  1.00  0.00    -0.237 OA
ATOM     98  O   UNL A   1      41.240  26.737  36.515  1.00  0.00    -0.744 OA
ENDBRANCH  91  95
ENDBRANCH  65  88
ENDBRANCH  39  40
ENDBRANCH  31  34
ENDBRANCH  29  30
ENDBRANCH  28  29
ENDBRANCH  27  28
ENDBRANCH   1  27
TORSDOF 19
ENDMDL
