MODEL 1
REMARK VINA RESULT:     -10.4      0.000      0.000
REMARK SMILES C[C@@H](C[N@H+](C)[C@H]1CSCC(C)(C)C1)C(=O)NCCCCCCNC(=O)c1ccc(-c2c3nc(c(-c4cc(S(=O)(=O)[O-])ccc4F)c4ccc([nH]4)c(-c4cc(S(=O)(=O)[O-])ccc4F)c4nc(c(-c5cc(S(=O)(=O)[O-])ccc5F)c5ccc2[nH]5)C=C4)C=C3)cc1
REMARK SMILES IDX 19 1 18 2 17 3 16 4 14 5 15 6 2 8 1 9 3 10 4 11 5 12 6 14
REMARK SMILES IDX 7 15 13 16 8 17 10 18 9 19 11 20 12 21 20 22 21 23 22 24
REMARK SMILES IDX 23 25 24 26 25 28 26 29 27 30 88 31 28 32 87 33 29 34 30 35
REMARK SMILES IDX 31 36 81 37 32 38 86 39 80 40 82 41 33 42 85 43 79 44 78 45
REMARK SMILES IDX 34 47 66 48 46 49 65 50 47 51 50 52 64 53 83 54 48 55 49 56
REMARK SMILES IDX 63 58 84 59 51 60 35 61 36 62 44 63 37 64 43 65 45 66 42 67
REMARK SMILES IDX 38 68 39 69 40 70 41 71 67 72 68 73 76 74 69 75 75 76 77 77
REMARK SMILES IDX 74 78 70 79 71 80 72 81 73 82 52 83 53 84 61 85 54 86 60 87
REMARK SMILES IDX 62 88 59 89 55 90 56 91 57 92 58 93
REMARK H PARENT 16 7 4 13 23 27 82 46 50 57
REMARK Flexibility Score: inf
ROOT
ATOM      1  C   UNL A   1      34.026  26.564  24.480  1.00  0.00     0.002 C 
ENDROOT
BRANCH   1   2
ATOM      2  C   UNL A   1      33.982  25.587  23.298  1.00  0.00     0.021 C 
BRANCH   2   3
ATOM      3  C   UNL A   1      32.859  25.820  22.287  1.00  0.00     0.116 C 
BRANCH   3   4
ATOM      4  N   UNL A   1      31.854  24.778  22.312  1.00  0.00    -0.356 N 
ATOM      5  C   UNL A   1      30.833  24.571  23.185  1.00  0.00     0.228 C 
ATOM      6  O   UNL A   1      30.009  23.699  22.887  1.00  0.00    -0.275 OA
ATOM      7  H   UNL A   1      31.919  24.117  21.585  1.00  0.00     0.163 HD
BRANCH   5   8
ATOM      8  C   UNL A   1      30.696  25.321  24.506  1.00  0.00     0.130 C 
ATOM      9  C   UNL A   1      29.512  26.294  24.456  1.00  0.00     0.024 C 
BRANCH   8  10
ATOM     10  C   UNL A   1      30.804  24.556  25.855  1.00  0.00     0.275 C 
BRANCH  10  11
ATOM     11  N   UNL A   1      30.525  23.107  25.938  1.00  0.00    -0.334 N 
ATOM     12  C   UNL A   1      29.690  22.810  27.106  1.00  0.00     0.333 C 
ATOM     13  H   UNL A   1      29.992  22.850  25.108  1.00  0.00     0.348 HD
BRANCH  11  14
ATOM     14  C   UNL A   1      31.754  22.268  25.865  1.00  0.00     0.194 C 
ATOM     15  C   UNL A   1      31.848  21.248  24.714  1.00  0.00     0.134 C 
ATOM     16  C   UNL A   1      33.024  23.150  25.838  1.00  0.00     0.073 C 
ATOM     17  S   UNL A   1      33.232  20.079  24.964  1.00  0.00    -0.155 SA
ATOM     18  C   UNL A   1      34.314  22.391  26.252  1.00  0.00    -0.021 C 
ATOM     19  C   UNL A   1      34.598  21.258  25.244  1.00  0.00     0.076 C 
ATOM     20  C   UNL A   1      34.231  21.825  27.689  1.00  0.00     0.012 C 
ATOM     21  C   UNL A   1      35.510  23.371  26.212  1.00  0.00     0.012 C 
ENDBRANCH  11  14
ENDBRANCH  10  11
ENDBRANCH   8  10
ENDBRANCH   5   8
ENDBRANCH   3   4
ENDBRANCH   2   3
ENDBRANCH   1   2
BRANCH   1  22
ATOM     22  C   UNL A   1      33.631  28.003  24.163  1.00  0.00     0.002 C 
BRANCH  22  23
ATOM     23  C   UNL A   1      32.997  28.812  25.290  1.00  0.00     0.021 C 
BRANCH  23  24
ATOM     24  C   UNL A   1      33.995  29.289  26.327  1.00  0.00     0.116 C 
BRANCH  24  25
ATOM     25  N   UNL A   1      33.709  30.640  26.787  1.00  0.00    -0.352 N 
ATOM     26  C   UNL A   1      34.363  31.373  27.745  1.00  0.00     0.251 C 
ATOM     27  H   UNL A   1      32.945  31.086  26.355  1.00  0.00     0.163 HD
ATOM     28  O   UNL A   1      33.888  32.436  28.136  1.00  0.00    -0.269 OA
BRANCH  26  29
ATOM     29  C   UNL A   1      35.618  30.847  28.320  1.00  0.00     0.039 A 
ATOM     30  C   UNL A   1      35.554  29.874  29.319  1.00  0.00     0.014 A 
ATOM     31  C   UNL A   1      36.855  31.292  27.845  1.00  0.00     0.014 A 
ATOM     32  C   UNL A   1      36.736  29.315  29.806  1.00  0.00     0.010 A 
ATOM     33  C   UNL A   1      38.019  30.656  28.251  1.00  0.00     0.010 A 
ATOM     34  C   UNL A   1      37.975  29.679  29.255  1.00  0.00    -0.014 A 
BRANCH  34  35
ATOM     35  C   UNL A   1      39.244  29.094  29.754  1.00  0.00     0.031 A 
ATOM     36  C   UNL A   1      39.919  29.707  30.953  1.00  0.00     0.074 A 
ATOM     37  C   UNL A   1      39.802  28.053  29.108  1.00  0.00     0.049 A 
ATOM     38  N   UNL A   1      41.063  29.401  31.506  1.00  0.00    -0.248 NA
ATOM     39  C   UNL A   1      39.230  30.842  31.591  1.00  0.00     0.031 C 
ATOM     40  C   UNL A   1      39.259  27.412  27.908  1.00  0.00     0.029 A 
ATOM     41  N   UNL A   1      40.950  27.349  29.366  1.00  0.00    -0.354 N 
ATOM     42  C   UNL A   1      41.230  30.304  32.551  1.00  0.00     0.074 A 
ATOM     43  C   UNL A   1      40.119  31.228  32.492  1.00  0.00     0.031 C 
ATOM     44  C   UNL A   1      40.054  26.389  27.556  1.00  0.00     0.029 A 
ATOM     45  C   UNL A   1      41.188  26.331  28.472  1.00  0.00     0.049 A 
ATOM     46  H   UNL A   1      41.549  27.554  30.121  1.00  0.00     0.167 HD
ATOM     47  C   UNL A   1      42.199  30.336  33.499  1.00  0.00     0.034 A 
ATOM     48  C   UNL A   1      42.212  25.456  28.398  1.00  0.00     0.034 A 
ATOM     49  C   UNL A   1      43.292  29.399  33.545  1.00  0.00     0.049 A 
ATOM     50  C   UNL A   1      43.294  25.528  29.450  1.00  0.00     0.074 A 
ATOM     51  C   UNL A   1      44.324  29.320  34.463  1.00  0.00     0.029 A 
ATOM     52  N   UNL A   1      43.493  28.370  32.632  1.00  0.00    -0.354 N 
ATOM     53  N   UNL A   1      43.418  26.367  30.454  1.00  0.00    -0.248 NA
ATOM     54  C   UNL A   1      44.361  24.524  29.370  1.00  0.00     0.031 C 
ATOM     55  C   UNL A   1      45.181  28.287  34.071  1.00  0.00     0.029 A 
ATOM     56  C   UNL A   1      44.640  27.664  32.956  1.00  0.00     0.049 A 
ATOM     57  H   UNL A   1      42.907  28.173  31.867  1.00  0.00     0.167 HD
ATOM     58  C   UNL A   1      44.554  25.962  31.148  1.00  0.00     0.074 A 
ATOM     59  C   UNL A   1      45.064  24.794  30.459  1.00  0.00     0.031 C 
ATOM     60  C   UNL A   1      45.127  26.499  32.255  1.00  0.00     0.034 A 
BRANCH  47  61
ATOM     61  C   UNL A   1      42.107  31.421  34.546  1.00  0.00     0.023 A 
ATOM     62  C   UNL A   1      41.093  31.416  35.521  1.00  0.00     0.031 A 
ATOM     63  C   UNL A   1      43.019  32.491  34.555  1.00  0.00     0.131 A 
ATOM     64  C   UNL A   1      40.963  32.495  36.408  1.00  0.00     0.055 A 
ATOM     65  C   UNL A   1      42.939  33.518  35.499  1.00  0.00     0.041 A 
ATOM     66  F   UNL A   1      43.994  32.567  33.637  1.00  0.00    -0.206 F 
ATOM     67  C   UNL A   1      41.897  33.533  36.423  1.00  0.00     0.022 A 
BRANCH  64  68
ATOM     68  S   UNL A   1      39.471  32.598  37.433  1.00  0.00     0.124 S 
ATOM     69  O   UNL A   1      40.041  32.626  38.778  1.00  0.00    -0.237 OA
ATOM     70  O   UNL A   1      38.856  33.837  36.973  1.00  0.00    -0.237 OA
ATOM     71  O   UNL A   1      38.741  31.376  37.099  1.00  0.00    -0.744 OA
ENDBRANCH  64  68
ENDBRANCH  47  61
BRANCH  48  72
ATOM     72  C   UNL A   1      42.277  24.445  27.302  1.00  0.00     0.023 A 
ATOM     73  C   UNL A   1      41.503  23.275  27.347  1.00  0.00     0.031 A 
ATOM     74  C   UNL A   1      43.166  24.601  26.223  1.00  0.00     0.131 A 
ATOM     75  C   UNL A   1      41.684  22.276  26.377  1.00  0.00     0.055 A 
ATOM     76  C   UNL A   1      43.292  23.636  25.222  1.00  0.00     0.041 A 
ATOM     77  F   UNL A   1      43.928  25.703  26.124  1.00  0.00    -0.206 F 
ATOM     78  C   UNL A   1      42.563  22.455  25.307  1.00  0.00     0.022 A 
BRANCH  75  79
ATOM     79  S   UNL A   1      40.846  20.683  26.606  1.00  0.00     0.124 S 
ATOM     80  O   UNL A   1      40.816  20.572  28.060  1.00  0.00    -0.237 OA
ATOM     81  O   UNL A   1      39.562  20.921  25.953  1.00  0.00    -0.237 OA
ATOM     82  O   UNL A   1      41.725  19.737  25.925  1.00  0.00    -0.744 OA
ENDBRANCH  75  79
ENDBRANCH  48  72
BRANCH  60  83
ATOM     83  C   UNL A   1      46.331  25.784  32.820  1.00  0.00     0.023 A 
ATOM     84  C   UNL A   1      46.206  24.745  33.758  1.00  0.00     0.031 A 
ATOM     85  C   UNL A   1      47.626  26.166  32.425  1.00  0.00     0.131 A 
ATOM     86  C   UNL A   1      47.356  24.177  34.327  1.00  0.00     0.055 A 
ATOM     87  C   UNL A   1      48.765  25.546  32.939  1.00  0.00     0.041 A 
ATOM     88  F   UNL A   1      47.806  27.154  31.533  1.00  0.00    -0.206 F 
ATOM     89  C   UNL A   1      48.633  24.557  33.909  1.00  0.00     0.022 A 
BRANCH  86  90
ATOM     90  S   UNL A   1      47.156  23.019  35.708  1.00  0.00     0.124 S 
ATOM     91  O   UNL A   1      47.969  23.642  36.746  1.00  0.00    -0.237 OA
ATOM     92  O   UNL A   1      45.714  23.041  35.928  1.00  0.00    -0.237 OA
ATOM     93  O   UNL A   1      47.683  21.762  35.179  1.00  0.00    -0.744 OA
ENDBRANCH  86  90
ENDBRANCH  60  83
ENDBRANCH  34  35
ENDBRANCH  26  29
ENDBRANCH  24  25
ENDBRANCH  23  24
ENDBRANCH  22  23
ENDBRANCH   1  22
TORSDOF 19
ENDMDL
MODEL 2
REMARK VINA RESULT:     -10.4      2.369      3.391
REMARK SMILES C[C@@H](C[N@H+](C)[C@H]1CSCC(C)(C)C1)C(=O)NCCCCCCNC(=O)c1ccc(-c2c3nc(c(-c4cc(S(=O)(=O)[O-])ccc4F)c4ccc([nH]4)c(-c4cc(S(=O)(=O)[O-])ccc4F)c4nc(c(-c5cc(S(=O)(=O)[O-])ccc5F)c5ccc2[nH]5)C=C4)C=C3)cc1
REMARK SMILES IDX 19 1 18 2 17 3 16 4 14 5 15 6 2 8 1 9 3 10 4 11 5 12 6 14
REMARK SMILES IDX 7 15 13 16 8 17 10 18 9 19 11 20 12 21 20 22 21 23 22 24
REMARK SMILES IDX 23 25 24 26 25 28 26 29 27 30 88 31 28 32 87 33 29 34 30 35
REMARK SMILES IDX 31 36 81 37 32 38 86 39 80 40 82 41 33 42 85 43 79 44 78 45
REMARK SMILES IDX 34 47 66 48 46 49 65 50 47 51 50 52 64 53 83 54 48 55 49 56
REMARK SMILES IDX 63 58 84 59 51 60 35 61 36 62 44 63 37 64 43 65 45 66 42 67
REMARK SMILES IDX 38 68 39 69 40 70 41 71 67 72 68 73 76 74 69 75 75 76 77 77
REMARK SMILES IDX 74 78 70 79 71 80 72 81 73 82 52 83 53 84 61 85 54 86 60 87
REMARK SMILES IDX 62 88 59 89 55 90 56 91 57 92 58 93
REMARK H PARENT 16 7 4 13 23 27 82 46 50 57
REMARK Flexibility Score: inf
ROOT
ATOM      1  C   UNL A   1      32.871  30.053  26.536  1.00  0.00     0.002 C 
ENDROOT
BRANCH   1   2
ATOM      2  C   UNL A   1      33.041  28.646  25.946  1.00  0.00     0.021 C 
BRANCH   2   3
ATOM      3  C   UNL A   1      31.815  28.074  25.235  1.00  0.00     0.116 C 
BRANCH   3   4
ATOM      4  N   UNL A   1      31.090  27.116  26.044  1.00  0.00    -0.356 N 
ATOM      5  C   UNL A   1      30.336  26.050  25.669  1.00  0.00     0.228 C 
ATOM      6  O   UNL A   1      29.958  25.288  26.567  1.00  0.00    -0.275 OA
ATOM      7  H   UNL A   1      31.153  27.260  27.017  1.00  0.00     0.163 HD
BRANCH   5   8
ATOM      8  C   UNL A   1      29.908  25.792  24.228  1.00  0.00     0.130 C 
ATOM      9  C   UNL A   1      29.366  27.075  23.586  1.00  0.00     0.024 C 
BRANCH   8  10
ATOM     10  C   UNL A   1      30.820  24.968  23.276  1.00  0.00     0.275 C 
BRANCH  10  11
ATOM     11  N   UNL A   1      32.280  25.186  23.236  1.00  0.00    -0.334 N 
ATOM     12  C   UNL A   1      32.732  25.397  21.858  1.00  0.00     0.333 C 
ATOM     13  H   UNL A   1      32.477  26.041  23.757  1.00  0.00     0.348 HD
BRANCH  11  14
ATOM     14  C   UNL A   1      33.051  24.131  23.953  1.00  0.00     0.194 C 
ATOM     15  C   UNL A   1      32.313  22.821  24.292  1.00  0.00     0.134 C 
ATOM     16  C   UNL A   1      34.346  23.776  23.185  1.00  0.00     0.073 C 
ATOM     17  S   UNL A   1      33.276  21.790  25.455  1.00  0.00    -0.155 SA
ATOM     18  C   UNL A   1      35.418  23.080  24.068  1.00  0.00    -0.021 C 
ATOM     19  C   UNL A   1      34.877  21.729  24.577  1.00  0.00     0.076 C 
ATOM     20  C   UNL A   1      35.868  23.962  25.256  1.00  0.00     0.012 C 
ATOM     21  C   UNL A   1      36.671  22.795  23.207  1.00  0.00     0.012 C 
ENDBRANCH  11  14
ENDBRANCH  10  11
ENDBRANCH   8  10
ENDBRANCH   5   8
ENDBRANCH   3   4
ENDBRANCH   2   3
ENDBRANCH   1   2
BRANCH   1  22
ATOM     22  C   UNL A   1      31.524  30.720  26.277  1.00  0.00     0.002 C 
BRANCH  22  23
ATOM     23  C   UNL A   1      31.374  32.172  26.719  1.00  0.00     0.021 C 
BRANCH  23  24
ATOM     24  C   UNL A   1      32.697  32.873  26.952  1.00  0.00     0.116 C 
BRANCH  24  25
ATOM     25  N   UNL A   1      32.539  34.123  27.680  1.00  0.00    -0.352 N 
ATOM     26  C   UNL A   1      33.236  34.567  28.776  1.00  0.00     0.251 C 
ATOM     27  H   UNL A   1      31.841  34.729  27.343  1.00  0.00     0.163 HD
ATOM     28  O   UNL A   1      32.863  35.572  29.375  1.00  0.00    -0.269 OA
BRANCH  26  29
ATOM     29  C   UNL A   1      34.410  33.800  29.241  1.00  0.00     0.039 A 
ATOM     30  C   UNL A   1      35.688  34.228  28.881  1.00  0.00     0.014 A 
ATOM     31  C   UNL A   1      34.243  32.681  30.061  1.00  0.00     0.014 A 
ATOM     32  C   UNL A   1      36.802  33.556  29.386  1.00  0.00     0.010 A 
ATOM     33  C   UNL A   1      35.350  32.086  30.650  1.00  0.00     0.010 A 
ATOM     34  C   UNL A   1      36.642  32.499  30.298  1.00  0.00    -0.014 A 
BRANCH  34  35
ATOM     35  C   UNL A   1      37.812  31.774  30.852  1.00  0.00     0.031 A 
ATOM     36  C   UNL A   1      38.292  32.099  32.242  1.00  0.00     0.074 A 
ATOM     37  C   UNL A   1      38.458  30.866  30.095  1.00  0.00     0.049 A 
ATOM     38  N   UNL A   1      39.332  31.640  32.887  1.00  0.00    -0.248 NA
ATOM     39  C   UNL A   1      37.519  33.105  32.990  1.00  0.00     0.031 C 
ATOM     40  C   UNL A   1      38.107  30.509  28.719  1.00  0.00     0.029 A 
ATOM     41  N   UNL A   1      39.546  30.080  30.373  1.00  0.00    -0.354 N 
ATOM     42  C   UNL A   1      39.337  32.302  34.111  1.00  0.00     0.074 A 
ATOM     43  C   UNL A   1      38.256  33.261  34.077  1.00  0.00     0.031 C 
ATOM     44  C   UNL A   1      38.941  29.549  28.287  1.00  0.00     0.029 A 
ATOM     45  C   UNL A   1      39.916  29.258  29.333  1.00  0.00     0.049 A 
ATOM     46  H   UNL A   1      40.019  30.100  31.237  1.00  0.00     0.167 HD
ATOM     47  C   UNL A   1      40.144  32.099  35.182  1.00  0.00     0.034 A 
ATOM     48  C   UNL A   1      40.932  28.377  29.235  1.00  0.00     0.034 A 
ATOM     49  C   UNL A   1      41.209  31.130  35.199  1.00  0.00     0.049 A 
ATOM     50  C   UNL A   1      41.834  28.188  30.432  1.00  0.00     0.074 A 
ATOM     51  C   UNL A   1      42.082  30.822  36.227  1.00  0.00     0.029 A 
ATOM     52  N   UNL A   1      41.546  30.304  34.132  1.00  0.00    -0.354 N 
ATOM     53  N   UNL A   1      41.803  28.796  31.597  1.00  0.00    -0.248 NA
ATOM     54  C   UNL A   1      42.893  27.180  30.308  1.00  0.00     0.031 C 
ATOM     55  C   UNL A   1      42.983  29.858  35.762  1.00  0.00     0.029 A 
ATOM     56  C   UNL A   1      42.622  29.500  34.473  1.00  0.00     0.049 A 
ATOM     57  H   UNL A   1      41.087  30.292  33.261  1.00  0.00     0.167 HD
ATOM     58  C   UNL A   1      42.812  28.212  32.357  1.00  0.00     0.074 A 
ATOM     59  C   UNL A   1      43.416  27.192  31.525  1.00  0.00     0.031 C 
ATOM     60  C   UNL A   1      43.206  28.487  33.627  1.00  0.00     0.034 A 
BRANCH  47  61
ATOM     61  C   UNL A   1      39.895  32.947  36.407  1.00  0.00     0.023 A 
ATOM     62  C   UNL A   1      39.082  32.493  37.462  1.00  0.00     0.031 A 
ATOM     63  C   UNL A   1      40.445  34.237  36.513  1.00  0.00     0.131 A 
ATOM     64  C   UNL A   1      38.775  33.346  38.532  1.00  0.00     0.055 A 
ATOM     65  C   UNL A   1      40.209  35.048  37.625  1.00  0.00     0.041 A 
ATOM     66  F   UNL A   1      41.208  34.737  35.530  1.00  0.00    -0.206 F 
ATOM     67  C   UNL A   1      39.357  34.611  38.636  1.00  0.00     0.022 A 
BRANCH  64  68
ATOM     68  S   UNL A   1      37.487  32.837  39.702  1.00  0.00     0.124 S 
ATOM     69  O   UNL A   1      37.514  33.936  40.664  1.00  0.00    -0.237 OA
ATOM     70  O   UNL A   1      36.303  32.759  38.855  1.00  0.00    -0.237 OA
ATOM     71  O   UNL A   1      37.975  31.558  40.213  1.00  0.00    -0.744 OA
ENDBRANCH  64  68
ENDBRANCH  47  61
BRANCH  48  72
ATOM     72  C   UNL A   1      41.163  27.612  27.975  1.00  0.00     0.023 A 
ATOM     73  C   UNL A   1      40.874  26.241  27.895  1.00  0.00     0.031 A 
ATOM     74  C   UNL A   1      41.741  28.227  26.849  1.00  0.00     0.131 A 
ATOM     75  C   UNL A   1      41.229  25.514  26.747  1.00  0.00     0.055 A 
ATOM     76  C   UNL A   1      42.028  27.514  25.683  1.00  0.00     0.041 A 
ATOM     77  F   UNL A   1      42.033  29.538  26.865  1.00  0.00    -0.206 F 
ATOM     78  C   UNL A   1      41.790  26.145  25.635  1.00  0.00     0.022 A 
BRANCH  75  79
ATOM     79  S   UNL A   1      41.063  23.708  26.778  1.00  0.00     0.124 S 
ATOM     80  O   UNL A   1      41.496  23.395  28.136  1.00  0.00    -0.237 OA
ATOM     81  O   UNL A   1      39.641  23.531  26.501  1.00  0.00    -0.237 OA
ATOM     82  O   UNL A   1      41.964  23.266  25.718  1.00  0.00    -0.744 OA
ENDBRANCH  75  79
ENDBRANCH  48  72
BRANCH  60  83
ATOM     83  C   UNL A   1      44.301  27.623  34.206  1.00  0.00     0.023 A 
ATOM     84  C   UNL A   1      44.031  26.369  34.782  1.00  0.00     0.031 A 
ATOM     85  C   UNL A   1      45.632  28.075  34.200  1.00  0.00     0.131 A 
ATOM     86  C   UNL A   1      45.066  25.647  35.395  1.00  0.00     0.055 A 
ATOM     87  C   UNL A   1      46.669  27.318  34.745  1.00  0.00     0.041 A 
ATOM     88  F   UNL A   1      45.948  29.266  33.665  1.00  0.00    -0.206 F 
ATOM     89  C   UNL A   1      46.385  26.103  35.363  1.00  0.00     0.022 A 
BRANCH  86  90
ATOM     90  S   UNL A   1      44.640  24.158  36.340  1.00  0.00     0.124 S 
ATOM     91  O   UNL A   1      45.878  23.390  36.269  1.00  0.00    -0.237 OA
ATOM     92  O   UNL A   1      44.304  24.707  37.650  1.00  0.00    -0.237 OA
ATOM     93  O   UNL A   1      43.515  23.593  35.598  1.00  0.00    -0.744 OA
ENDBRANCH  86  90
ENDBRANCH  60  83
ENDBRANCH  34  35
ENDBRANCH  26  29
ENDBRANCH  24  25
ENDBRANCH  23  24
ENDBRANCH  22  23
ENDBRANCH   1  22
TORSDOF 19
ENDMDL
MODEL 3
REMARK VINA RESULT:     -10.4      5.851      8.557
REMARK SMILES C[C@@H](C[N@H+](C)[C@H]1CSCC(C)(C)C1)C(=O)NCCCCCCNC(=O)c1ccc(-c2c3nc(c(-c4cc(S(=O)(=O)[O-])ccc4F)c4ccc([nH]4)c(-c4cc(S(=O)(=O)[O-])ccc4F)c4nc(c(-c5cc(S(=O)(=O)[O-])ccc5F)c5ccc2[nH]5)C=C4)C=C3)cc1
REMARK SMILES IDX 19 1 18 2 17 3 16 4 14 5 15 6 2 8 1 9 3 10 4 11 5 12 6 14
REMARK SMILES IDX 7 15 13 16 8 17 10 18 9 19 11 20 12 21 20 22 21 23 22 24
REMARK SMILES IDX 23 25 24 26 25 28 26 29 27 30 88 31 28 32 87 33 29 34 30 35
REMARK SMILES IDX 31 36 81 37 32 38 86 39 80 40 82 41 33 42 85 43 79 44 78 45
REMARK SMILES IDX 34 47 66 48 46 49 65 50 47 51 50 52 64 53 83 54 48 55 49 56
REMARK SMILES IDX 63 58 84 59 51 60 35 61 36 62 44 63 37 64 43 65 45 66 42 67
REMARK SMILES IDX 38 68 39 69 40 70 41 71 67 72 68 73 76 74 69 75 75 76 77 77
REMARK SMILES IDX 74 78 70 79 71 80 72 81 73 82 52 83 53 84 61 85 54 86 60 87
REMARK SMILES IDX 62 88 59 89 55 90 56 91 57 92 58 93
REMARK H PARENT 16 7 4 13 23 27 82 46 50 57
REMARK Flexibility Score: inf
ROOT
ATOM      1  C   UNL A   1      37.606  22.236  24.947  1.00  0.00     0.002 C 
ENDROOT
BRANCH   1   2
ATOM      2  C   UNL A   1      36.916  23.079  23.866  1.00  0.00     0.021 C 
BRANCH   2   3
ATOM      3  C   UNL A   1      35.574  23.693  24.262  1.00  0.00     0.116 C 
BRANCH   3   4
ATOM      4  N   UNL A   1      34.538  23.469  23.274  1.00  0.00    -0.356 N 
ATOM      5  C   UNL A   1      33.200  23.301  23.436  1.00  0.00     0.228 C 
ATOM      6  O   UNL A   1      32.509  23.293  22.411  1.00  0.00    -0.275 OA
ATOM      7  H   UNL A   1      34.853  23.432  22.342  1.00  0.00     0.163 HD
BRANCH   5   8
ATOM      8  C   UNL A   1      32.541  23.081  24.794  1.00  0.00     0.130 C 
ATOM      9  C   UNL A   1      31.771  24.332  25.232  1.00  0.00     0.024 C 
BRANCH   8  10
ATOM     10  C   UNL A   1      31.779  21.758  25.089  1.00  0.00     0.275 C 
BRANCH  10  11
ATOM     11  N   UNL A   1      32.453  20.615  25.739  1.00  0.00    -0.334 N 
ATOM     12  C   UNL A   1      33.736  21.033  26.312  1.00  0.00     0.333 C 
ATOM     13  H   UNL A   1      31.859  20.307  26.509  1.00  0.00     0.348 HD
BRANCH  11  14
ATOM     14  C   UNL A   1      32.564  19.420  24.856  1.00  0.00     0.194 C 
ATOM     15  C   UNL A   1      32.477  19.652  23.335  1.00  0.00     0.134 C 
ATOM     16  C   UNL A   1      33.862  18.633  25.154  1.00  0.00     0.073 C 
ATOM     17  S   UNL A   1      32.285  18.077  22.426  1.00  0.00    -0.155 SA
ATOM     18  C   UNL A   1      33.821  17.162  24.657  1.00  0.00    -0.021 C 
ATOM     19  C   UNL A   1      33.687  17.135  23.120  1.00  0.00     0.076 C 
ATOM     20  C   UNL A   1      32.681  16.348  25.312  1.00  0.00     0.012 C 
ATOM     21  C   UNL A   1      35.153  16.468  25.028  1.00  0.00     0.012 C 
ENDBRANCH  11  14
ENDBRANCH  10  11
ENDBRANCH   8  10
ENDBRANCH   5   8
ENDBRANCH   3   4
ENDBRANCH   2   3
ENDBRANCH   1   2
BRANCH   1  22
ATOM     22  C   UNL A   1      37.185  20.771  25.013  1.00  0.00     0.002 C 
BRANCH  22  23
ATOM     23  C   UNL A   1      38.299  19.734  25.114  1.00  0.00     0.021 C 
BRANCH  23  24
ATOM     24  C   UNL A   1      39.552  20.256  25.789  1.00  0.00     0.116 C 
BRANCH  24  25
ATOM     25  N   UNL A   1      40.521  19.202  26.044  1.00  0.00    -0.352 N 
ATOM     26  C   UNL A   1      41.865  19.319  26.293  1.00  0.00     0.251 C 
ATOM     27  H   UNL A   1      40.166  18.283  26.036  1.00  0.00     0.163 HD
ATOM     28  O   UNL A   1      42.576  18.317  26.319  1.00  0.00    -0.269 OA
BRANCH  26  29
ATOM     29  C   UNL A   1      42.446  20.663  26.491  1.00  0.00     0.039 A 
ATOM     30  C   UNL A   1      42.764  21.438  25.376  1.00  0.00     0.014 A 
ATOM     31  C   UNL A   1      42.640  21.166  27.781  1.00  0.00     0.014 A 
ATOM     32  C   UNL A   1      43.234  22.739  25.558  1.00  0.00     0.010 A 
ATOM     33  C   UNL A   1      43.001  22.495  27.956  1.00  0.00     0.010 A 
ATOM     34  C   UNL A   1      43.327  23.287  26.847  1.00  0.00    -0.014 A 
BRANCH  34  35
ATOM     35  C   UNL A   1      43.820  24.670  27.065  1.00  0.00     0.031 A 
ATOM     36  C   UNL A   1      42.869  25.721  27.575  1.00  0.00     0.074 A 
ATOM     37  C   UNL A   1      45.094  24.983  26.765  1.00  0.00     0.049 A 
ATOM     38  N   UNL A   1      43.070  26.999  27.764  1.00  0.00    -0.248 NA
ATOM     39  C   UNL A   1      41.495  25.281  27.875  1.00  0.00     0.031 C 
ATOM     40  C   UNL A   1      46.088  24.055  26.219  1.00  0.00     0.029 A 
ATOM     41  N   UNL A   1      45.775  26.168  26.872  1.00  0.00    -0.354 N 
ATOM     42  C   UNL A   1      41.853  27.511  28.202  1.00  0.00     0.074 A 
ATOM     43  C   UNL A   1      40.898  26.427  28.156  1.00  0.00     0.031 C 
ATOM     44  C   UNL A   1      47.258  24.697  26.075  1.00  0.00     0.029 A 
ATOM     45  C   UNL A   1      47.088  26.092  26.467  1.00  0.00     0.049 A 
ATOM     46  H   UNL A   1      45.363  26.997  27.208  1.00  0.00     0.167 HD
ATOM     47  C   UNL A   1      41.567  28.761  28.642  1.00  0.00     0.034 A 
ATOM     48  C   UNL A   1      48.042  27.044  26.413  1.00  0.00     0.034 A 
ATOM     49  C   UNL A   1      42.538  29.825  28.690  1.00  0.00     0.049 A 
ATOM     50  C   UNL A   1      47.692  28.436  26.883  1.00  0.00     0.074 A 
ATOM     51  C   UNL A   1      42.373  31.126  29.130  1.00  0.00     0.029 A 
ATOM     52  N   UNL A   1      43.863  29.707  28.286  1.00  0.00    -0.354 N 
ATOM     53  N   UNL A   1      46.544  28.896  27.329  1.00  0.00    -0.248 NA
ATOM     54  C   UNL A   1      48.771  29.431  26.862  1.00  0.00     0.031 C 
ATOM     55  C   UNL A   1      43.577  31.810  28.933  1.00  0.00     0.029 A 
ATOM     56  C   UNL A   1      44.520  30.916  28.451  1.00  0.00     0.049 A 
ATOM     57  H   UNL A   1      44.274  28.886  27.934  1.00  0.00     0.167 HD
ATOM     58  C   UNL A   1      46.778  30.222  27.681  1.00  0.00     0.074 A 
ATOM     59  C   UNL A   1      48.179  30.478  27.415  1.00  0.00     0.031 C 
ATOM     60  C   UNL A   1      45.919  31.147  28.181  1.00  0.00     0.034 A 
BRANCH  47  61
ATOM     61  C   UNL A   1      40.152  29.029  29.097  1.00  0.00     0.023 A 
ATOM     62  C   UNL A   1      39.805  29.021  30.460  1.00  0.00     0.031 A 
ATOM     63  C   UNL A   1      39.128  29.261  28.162  1.00  0.00     0.131 A 
ATOM     64  C   UNL A   1      38.463  29.157  30.846  1.00  0.00     0.055 A 
ATOM     65  C   UNL A   1      37.807  29.487  28.558  1.00  0.00     0.041 A 
ATOM     66  F   UNL A   1      39.389  29.257  26.846  1.00  0.00    -0.206 F 
ATOM     67  C   UNL A   1      37.465  29.420  29.906  1.00  0.00     0.022 A 
BRANCH  64  68
ATOM     68  S   UNL A   1      38.023  28.834  32.575  1.00  0.00     0.124 S 
ATOM     69  O   UNL A   1      38.157  27.381  32.645  1.00  0.00    -0.237 OA
ATOM     70  O   UNL A   1      39.023  29.604  33.306  1.00  0.00    -0.237 OA
ATOM     71  O   UNL A   1      36.653  29.332  32.679  1.00  0.00    -0.744 OA
ENDBRANCH  64  68
ENDBRANCH  47  61
BRANCH  48  72
ATOM     72  C   UNL A   1      49.406  26.731  25.896  1.00  0.00     0.023 A 
ATOM     73  C   UNL A   1      49.817  27.161  24.624  1.00  0.00     0.031 A 
ATOM     74  C   UNL A   1      50.299  25.938  26.639  1.00  0.00     0.131 A 
ATOM     75  C   UNL A   1      51.050  26.737  24.104  1.00  0.00     0.055 A 
ATOM     76  C   UNL A   1      51.554  25.577  26.147  1.00  0.00     0.041 A 
ATOM     77  F   UNL A   1      49.964  25.503  27.865  1.00  0.00    -0.206 F 
ATOM     78  C   UNL A   1      51.928  25.960  24.863  1.00  0.00     0.022 A 
BRANCH  75  79
ATOM     79  S   UNL A   1      51.435  27.110  22.371  1.00  0.00     0.124 S 
ATOM     80  O   UNL A   1      52.606  26.270  22.141  1.00  0.00    -0.237 OA
ATOM     81  O   UNL A   1      50.209  26.702  21.694  1.00  0.00    -0.237 OA
ATOM     82  O   UNL A   1      51.692  28.548  22.383  1.00  0.00    -0.744 OA
ENDBRANCH  75  79
ENDBRANCH  48  72
BRANCH  60  83
ATOM     83  C   UNL A   1      46.496  32.498  28.531  1.00  0.00     0.023 A 
ATOM     84  C   UNL A   1      46.556  33.545  27.595  1.00  0.00     0.031 A 
ATOM     85  C   UNL A   1      47.012  32.731  29.818  1.00  0.00     0.131 A 
ATOM     86  C   UNL A   1      47.189  34.750  27.936  1.00  0.00     0.055 A 
ATOM     87  C   UNL A   1      47.572  33.958  30.175  1.00  0.00     0.041 A 
ATOM     88  F   UNL A   1      46.981  31.767  30.752  1.00  0.00    -0.206 F 
ATOM     89  C   UNL A   1      47.680  34.970  29.225  1.00  0.00     0.022 A 
BRANCH  86  90
ATOM     90  S   UNL A   1      47.468  35.980  26.633  1.00  0.00     0.124 S 
ATOM     91  O   UNL A   1      47.665  35.138  25.458  1.00  0.00    -0.237 OA
ATOM     92  O   UNL A   1      46.231  36.753  26.664  1.00  0.00    -0.237 OA
ATOM     93  O   UNL A   1      48.658  36.696  27.090  1.00  0.00    -0.744 OA
ENDBRANCH  86  90
ENDBRANCH  60  83
ENDBRANCH  34  35
ENDBRANCH  26  29
ENDBRANCH  24  25
ENDBRANCH  23  24
ENDBRANCH  22  23
ENDBRANCH   1  22
TORSDOF 19
ENDMDL
