MODEL 1
REMARK VINA RESULT:     -13.0      0.000      0.000
REMARK SMILES CN1C(=O)C[C@@H](C(=O)NCCCCCCNC(=O)c2ccc(-c3c4nc(c(-c5cc(S(=O)(=O)[O-])ccc5F)c5ccc([nH]5)c(-c5cc(S(=O)(=O)[O-])ccc5F)c5nc(c(-c6cc(S(=O)(=O)[O-])ccc6F)c6ccc3[nH]6)C=C5)C=C4)cc2)C12CCN(S(=O)(=O)c1ccccc1F)CC2
REMARK SMILES IDX 13 1 12 2 11 3 10 4 9 5 7 6 8 7 6 9 1 10 2 11 3 12 82 13
REMARK SMILES IDX 4 14 5 15 83 16 97 17 84 18 96 19 85 20 86 21 87 22 88 23
REMARK SMILES IDX 89 24 90 25 94 26 91 27 93 28 95 29 92 30 14 31 15 32 16 33
REMARK SMILES IDX 17 34 18 36 19 37 20 38 81 39 21 40 80 41 22 42 23 43 24 44
REMARK SMILES IDX 74 45 25 46 79 47 73 48 75 49 26 50 78 51 72 52 71 53 27 55
REMARK SMILES IDX 59 56 39 57 58 58 40 59 43 60 57 61 76 62 41 63 42 64 56 66
REMARK SMILES IDX 77 67 44 68 28 69 29 70 37 71 30 72 36 73 38 74 35 75 31 76
REMARK SMILES IDX 32 77 33 78 34 79 60 80 61 81 69 82 62 83 68 84 70 85 67 86
REMARK SMILES IDX 63 87 64 88 65 89 66 90 45 91 46 92 54 93 47 94 53 95 55 96
REMARK SMILES IDX 52 97 48 98 49 99 50 100 51 101
REMARK H PARENT 9 8 16 35 75 54 43 65
REMARK Flexibility Score: inf
ROOT
ATOM      1  C   UNL A   1      31.781  30.724  26.028  1.00  0.00     0.002 C 
ENDROOT
BRANCH   1   2
ATOM      2  C   UNL A   1      32.634  29.651  26.707  1.00  0.00     0.002 C 
BRANCH   2   3
ATOM      3  C   UNL A   1      33.437  28.763  25.755  1.00  0.00     0.021 C 
BRANCH   3   4
ATOM      4  C   UNL A   1      32.601  27.945  24.764  1.00  0.00     0.116 C 
BRANCH   4   5
ATOM      5  N   UNL A   1      33.378  27.416  23.652  1.00  0.00    -0.356 N 
ATOM      6  C   UNL A   1      33.194  26.391  22.782  1.00  0.00     0.226 C 
ATOM      7  O   UNL A   1      34.108  26.197  21.970  1.00  0.00    -0.275 OA
ATOM      8  H   UNL A   1      34.218  27.907  23.499  1.00  0.00     0.163 HD
BRANCH   6   9
ATOM      9  C   UNL A   1      31.980  25.451  22.744  1.00  0.00     0.113 C 
ATOM     10  C   UNL A   1      30.324  24.573  26.001  1.00  0.00     0.147 C 
ATOM     11  N   UNL A   1      30.762  25.057  24.700  1.00  0.00    -0.339 N 
ATOM     12  C   UNL A   1      30.012  25.989  23.994  1.00  0.00     0.223 C 
ATOM     13  C   UNL A   1      31.802  24.411  23.880  1.00  0.00     0.057 C 
ATOM     14  O   UNL A   1      28.998  26.552  24.373  1.00  0.00    -0.275 OA
ATOM     15  C   UNL A   1      30.659  26.216  22.659  1.00  0.00     0.116 C 
ATOM     16  C   UNL A   1      33.113  24.140  24.636  1.00  0.00     0.046 C 
ATOM     17  C   UNL A   1      31.215  23.068  23.337  1.00  0.00     0.046 C 
ATOM     18  C   UNL A   1      34.054  23.214  23.886  1.00  0.00     0.105 C 
ATOM     19  C   UNL A   1      32.240  22.093  22.750  1.00  0.00     0.105 C 
ATOM     20  N   UNL A   1      33.415  21.907  23.650  1.00  0.00    -0.198 NA
BRANCH  20  21
ATOM     21  S   UNL A   1      33.153  20.849  24.980  1.00  0.00     0.245 S 
ATOM     22  O   UNL A   1      34.090  21.169  26.034  1.00  0.00    -0.207 OA
ATOM     23  O   UNL A   1      31.729  20.905  25.255  1.00  0.00    -0.207 OA
BRANCH  21  24
ATOM     24  C   UNL A   1      33.511  19.214  24.404  1.00  0.00     0.118 A 
ATOM     25  C   UNL A   1      34.663  18.554  24.848  1.00  0.00     0.025 A 
ATOM     26  C   UNL A   1      32.731  18.628  23.411  1.00  0.00     0.143 A 
ATOM     27  C   UNL A   1      34.996  17.302  24.321  1.00  0.00     0.002 A 
ATOM     28  C   UNL A   1      33.045  17.368  22.906  1.00  0.00     0.041 A 
ATOM     29  F   UNL A   1      31.643  19.231  22.919  1.00  0.00    -0.206 F 
ATOM     30  C   UNL A   1      34.182  16.703  23.359  1.00  0.00     0.003 A 
ENDBRANCH  21  24
ENDBRANCH  20  21
ENDBRANCH   6   9
ENDBRANCH   4   5
ENDBRANCH   3   4
ENDBRANCH   2   3
ENDBRANCH   1   2
BRANCH   1  31
ATOM     31  C   UNL A   1      31.564  32.004  26.841  1.00  0.00     0.021 C 
BRANCH  31  32
ATOM     32  C   UNL A   1      32.836  32.704  27.312  1.00  0.00     0.116 C 
BRANCH  32  33
ATOM     33  N   UNL A   1      32.592  34.074  27.726  1.00  0.00    -0.352 N 
ATOM     34  C   UNL A   1      33.174  34.791  28.742  1.00  0.00     0.251 C 
ATOM     35  H   UNL A   1      31.911  34.557  27.204  1.00  0.00     0.163 HD
ATOM     36  O   UNL A   1      32.705  35.880  29.061  1.00  0.00    -0.269 OA
BRANCH  34  37
ATOM     37  C   UNL A   1      34.345  34.242  29.461  1.00  0.00     0.039 A 
ATOM     38  C   UNL A   1      34.130  33.471  30.607  1.00  0.00     0.014 A 
ATOM     39  C   UNL A   1      35.648  34.503  29.024  1.00  0.00     0.014 A 
ATOM     40  C   UNL A   1      35.219  32.920  31.288  1.00  0.00     0.010 A 
ATOM     41  C   UNL A   1      36.729  33.906  29.671  1.00  0.00     0.010 A 
ATOM     42  C   UNL A   1      36.526  33.115  30.813  1.00  0.00    -0.014 A 
BRANCH  42  43
ATOM     43  C   UNL A   1      37.691  32.514  31.511  1.00  0.00     0.031 A 
ATOM     44  C   UNL A   1      38.437  31.371  30.882  1.00  0.00     0.074 A 
ATOM     45  C   UNL A   1      38.036  32.954  32.736  1.00  0.00     0.049 A 
ATOM     46  N   UNL A   1      39.434  30.668  31.358  1.00  0.00    -0.248 NA
ATOM     47  C   UNL A   1      37.977  30.942  29.554  1.00  0.00     0.031 C 
ATOM     48  C   UNL A   1      37.353  34.021  33.473  1.00  0.00     0.029 A 
ATOM     49  N   UNL A   1      39.033  32.549  33.587  1.00  0.00    -0.354 N 
ATOM     50  C   UNL A   1      39.711  29.703  30.394  1.00  0.00     0.074 A 
ATOM     51  C   UNL A   1      38.736  29.878  29.337  1.00  0.00     0.031 C 
ATOM     52  C   UNL A   1      37.953  34.184  34.663  1.00  0.00     0.029 A 
ATOM     53  C   UNL A   1      39.041  33.219  34.787  1.00  0.00     0.049 A 
ATOM     54  H   UNL A   1      39.681  31.844  33.358  1.00  0.00     0.167 HD
ATOM     55  C   UNL A   1      40.700  28.772  30.381  1.00  0.00     0.034 A 
ATOM     56  C   UNL A   1      39.827  33.065  35.871  1.00  0.00     0.034 A 
ATOM     57  C   UNL A   1      41.668  28.618  31.440  1.00  0.00     0.049 A 
ATOM     58  C   UNL A   1      40.925  32.035  35.836  1.00  0.00     0.074 A 
ATOM     59  C   UNL A   1      42.748  27.755  31.506  1.00  0.00     0.029 A 
ATOM     60  N   UNL A   1      41.667  29.339  32.629  1.00  0.00    -0.354 N 
ATOM     61  N   UNL A   1      41.217  31.173  34.890  1.00  0.00    -0.248 NA
ATOM     62  C   UNL A   1      41.810  31.972  37.006  1.00  0.00     0.031 C 
ATOM     63  C   UNL A   1      43.364  27.913  32.754  1.00  0.00     0.029 A 
ATOM     64  C   UNL A   1      42.710  28.922  33.443  1.00  0.00     0.049 A 
ATOM     65  H   UNL A   1      41.020  30.044  32.860  1.00  0.00     0.167 HD
ATOM     66  C   UNL A   1      42.333  30.475  35.344  1.00  0.00     0.074 A 
ATOM     67  C   UNL A   1      42.669  31.031  36.640  1.00  0.00     0.031 C 
ATOM     68  C   UNL A   1      43.020  29.471  34.742  1.00  0.00     0.034 A 
BRANCH  55  69
ATOM     69  C   UNL A   1      40.752  27.840  29.193  1.00  0.00     0.023 A 
ATOM     70  C   UNL A   1      41.697  28.009  28.165  1.00  0.00     0.031 A 
ATOM     71  C   UNL A   1      39.810  26.805  29.056  1.00  0.00     0.131 A 
ATOM     72  C   UNL A   1      41.620  27.223  27.006  1.00  0.00     0.055 A 
ATOM     73  C   UNL A   1      39.795  25.968  27.937  1.00  0.00     0.041 A 
ATOM     74  F   UNL A   1      38.872  26.604  29.994  1.00  0.00    -0.206 F 
ATOM     75  C   UNL A   1      40.690  26.187  26.895  1.00  0.00     0.022 A 
BRANCH  72  76
ATOM     76  S   UNL A   1      42.641  27.686  25.579  1.00  0.00     0.124 S 
ATOM     77  O   UNL A   1      42.558  26.482  24.754  1.00  0.00    -0.237 OA
ATOM     78  O   UNL A   1      41.949  28.862  25.065  1.00  0.00    -0.237 OA
ATOM     79  O   UNL A   1      43.955  27.939  26.165  1.00  0.00    -0.744 OA
ENDBRANCH  72  76
ENDBRANCH  55  69
BRANCH  56  80
ATOM     80  C   UNL A   1      39.595  33.895  37.084  1.00  0.00     0.023 A 
ATOM     81  C   UNL A   1      38.918  33.379  38.200  1.00  0.00     0.031 A 
ATOM     82  C   UNL A   1      40.040  35.228  37.136  1.00  0.00     0.131 A 
ATOM     83  C   UNL A   1      38.676  34.203  39.311  1.00  0.00     0.055 A 
ATOM     84  C   UNL A   1      39.832  36.030  38.258  1.00  0.00     0.041 A 
ATOM     85  F   UNL A   1      40.703  35.762  36.097  1.00  0.00    -0.206 F 
ATOM     86  C   UNL A   1      39.138  35.521  39.351  1.00  0.00     0.022 A 
BRANCH  83  87
ATOM     87  S   UNL A   1      37.703  33.538  40.689  1.00  0.00     0.124 S 
ATOM     88  O   UNL A   1      37.302  34.755  41.386  1.00  0.00    -0.237 OA
ATOM     89  O   UNL A   1      36.642  32.818  39.992  1.00  0.00    -0.237 OA
ATOM     90  O   UNL A   1      38.658  32.695  41.404  1.00  0.00    -0.744 OA
ENDBRANCH  83  87
ENDBRANCH  56  80
BRANCH  68  91
ATOM     91  C   UNL A   1      44.225  28.938  35.476  1.00  0.00     0.023 A 
ATOM     92  C   UNL A   1      44.103  27.989  36.505  1.00  0.00     0.031 A 
ATOM     93  C   UNL A   1      45.511  29.402  35.150  1.00  0.00     0.131 A 
ATOM     94  C   UNL A   1      45.243  27.571  37.208  1.00  0.00     0.055 A 
ATOM     95  C   UNL A   1      46.648  28.943  35.818  1.00  0.00     0.041 A 
ATOM     96  F   UNL A   1      45.684  30.310  34.176  1.00  0.00    -0.206 F 
ATOM     97  C   UNL A   1      46.516  28.032  36.862  1.00  0.00     0.022 A 
BRANCH  94  98
ATOM     98  S   UNL A   1      45.034  26.477  38.640  1.00  0.00     0.124 S 
ATOM     99  O   UNL A   1      45.831  27.154  39.658  1.00  0.00    -0.237 OA
ATOM    100  O   UNL A   1      43.589  26.499  38.842  1.00  0.00    -0.237 OA
ATOM    101  O   UNL A   1      45.574  25.200  38.178  1.00  0.00    -0.744 OA
ENDBRANCH  94  98
ENDBRANCH  68  91
ENDBRANCH  42  43
ENDBRANCH  34  37
ENDBRANCH  32  33
ENDBRANCH  31  32
ENDBRANCH   1  31
TORSDOF 18
ENDMDL
MODEL 2
REMARK VINA RESULT:     -13.0      1.354      1.643
REMARK SMILES CN1C(=O)C[C@@H](C(=O)NCCCCCCNC(=O)c2ccc(-c3c4nc(c(-c5cc(S(=O)(=O)[O-])ccc5F)c5ccc([nH]5)c(-c5cc(S(=O)(=O)[O-])ccc5F)c5nc(c(-c6cc(S(=O)(=O)[O-])ccc6F)c6ccc3[nH]6)C=C5)C=C4)cc2)C12CCN(S(=O)(=O)c1ccccc1F)CC2
REMARK SMILES IDX 13 1 12 2 11 3 10 4 9 5 7 6 8 7 6 9 1 10 2 11 3 12 82 13
REMARK SMILES IDX 4 14 5 15 83 16 97 17 84 18 96 19 85 20 86 21 87 22 88 23
REMARK SMILES IDX 89 24 90 25 94 26 91 27 93 28 95 29 92 30 14 31 15 32 16 33
REMARK SMILES IDX 17 34 18 36 19 37 20 38 81 39 21 40 80 41 22 42 23 43 24 44
REMARK SMILES IDX 74 45 25 46 79 47 73 48 75 49 26 50 78 51 72 52 71 53 27 55
REMARK SMILES IDX 59 56 39 57 58 58 40 59 43 60 57 61 76 62 41 63 42 64 56 66
REMARK SMILES IDX 77 67 44 68 28 69 29 70 37 71 30 72 36 73 38 74 35 75 31 76
REMARK SMILES IDX 32 77 33 78 34 79 60 80 61 81 69 82 62 83 68 84 70 85 67 86
REMARK SMILES IDX 63 87 64 88 65 89 66 90 45 91 46 92 54 93 47 94 53 95 55 96
REMARK SMILES IDX 52 97 48 98 49 99 50 100 51 101
REMARK H PARENT 9 8 16 35 75 54 43 65
REMARK Flexibility Score: inf
ROOT
ATOM      1  C   UNL A   1      31.600  30.491  26.110  1.00  0.00     0.002 C 
ENDROOT
BRANCH   1   2
ATOM      2  C   UNL A   1      32.683  29.587  26.699  1.00  0.00     0.002 C 
BRANCH   2   3
ATOM      3  C   UNL A   1      33.449  28.742  25.679  1.00  0.00     0.021 C 
BRANCH   3   4
ATOM      4  C   UNL A   1      32.574  27.938  24.711  1.00  0.00     0.116 C 
BRANCH   4   5
ATOM      5  N   UNL A   1      33.295  27.470  23.535  1.00  0.00    -0.356 N 
ATOM      6  C   UNL A   1      33.137  26.414  22.697  1.00  0.00     0.226 C 
ATOM      7  O   UNL A   1      33.987  26.299  21.804  1.00  0.00    -0.275 OA
ATOM      8  H   UNL A   1      34.061  28.041  23.298  1.00  0.00     0.163 HD
BRANCH   6   9
ATOM      9  C   UNL A   1      32.029  25.355  22.783  1.00  0.00     0.113 C 
ATOM     10  C   UNL A   1      30.535  24.633  26.155  1.00  0.00     0.147 C 
ATOM     11  N   UNL A   1      30.895  25.030  24.802  1.00  0.00    -0.339 N 
ATOM     12  C   UNL A   1      30.038  25.806  24.032  1.00  0.00     0.223 C 
ATOM     13  C   UNL A   1      31.983  24.418  24.018  1.00  0.00     0.057 C 
ATOM     14  O   UNL A   1      28.978  26.296  24.383  1.00  0.00    -0.275 OA
ATOM     15  C   UNL A   1      30.634  25.967  22.663  1.00  0.00     0.116 C 
ATOM     16  C   UNL A   1      33.329  24.359  24.759  1.00  0.00     0.046 C 
ATOM     17  C   UNL A   1      31.532  22.975  23.623  1.00  0.00     0.046 C 
ATOM     18  C   UNL A   1      34.348  23.467  24.074  1.00  0.00     0.105 C 
ATOM     19  C   UNL A   1      32.643  22.058  23.102  1.00  0.00     0.105 C 
ATOM     20  N   UNL A   1      33.847  22.084  23.983  1.00  0.00    -0.198 NA
BRANCH  20  21
ATOM     21  S   UNL A   1      33.722  21.140  25.414  1.00  0.00     0.245 S 
ATOM     22  O   UNL A   1      34.912  21.330  26.214  1.00  0.00    -0.207 OA
ATOM     23  O   UNL A   1      32.426  21.455  25.984  1.00  0.00    -0.207 OA
BRANCH  21  24
ATOM     24  C   UNL A   1      33.670  19.446  24.900  1.00  0.00     0.118 A 
ATOM     25  C   UNL A   1      32.456  18.750  24.915  1.00  0.00     0.025 A 
ATOM     26  C   UNL A   1      34.846  18.760  24.610  1.00  0.00     0.143 A 
ATOM     27  C   UNL A   1      32.430  17.387  24.601  1.00  0.00     0.002 A 
ATOM     28  C   UNL A   1      34.818  17.409  24.268  1.00  0.00     0.041 A 
ATOM     29  F   UNL A   1      36.038  19.365  24.622  1.00  0.00    -0.206 F 
ATOM     30  C   UNL A   1      33.609  16.719  24.267  1.00  0.00     0.003 A 
ENDBRANCH  21  24
ENDBRANCH  20  21
ENDBRANCH   6   9
ENDBRANCH   4   5
ENDBRANCH   3   4
ENDBRANCH   2   3
ENDBRANCH   1   2
BRANCH   1  31
ATOM     31  C   UNL A   1      31.443  31.858  26.786  1.00  0.00     0.021 C 
BRANCH  31  32
ATOM     32  C   UNL A   1      32.741  32.505  27.263  1.00  0.00     0.116 C 
BRANCH  32  33
ATOM     33  N   UNL A   1      32.563  33.900  27.620  1.00  0.00    -0.352 N 
ATOM     34  C   UNL A   1      33.184  34.631  28.603  1.00  0.00     0.251 C 
ATOM     35  H   UNL A   1      31.901  34.392  27.082  1.00  0.00     0.163 HD
ATOM     36  O   UNL A   1      32.768  35.752  28.880  1.00  0.00    -0.269 OA
BRANCH  34  37
ATOM     37  C   UNL A   1      34.333  34.058  29.339  1.00  0.00     0.039 A 
ATOM     38  C   UNL A   1      34.085  33.150  30.373  1.00  0.00     0.014 A 
ATOM     39  C   UNL A   1      35.646  34.429  29.030  1.00  0.00     0.014 A 
ATOM     40  C   UNL A   1      35.155  32.576  31.064  1.00  0.00     0.010 A 
ATOM     41  C   UNL A   1      36.713  33.812  29.682  1.00  0.00     0.010 A 
ATOM     42  C   UNL A   1      36.478  32.885  30.710  1.00  0.00    -0.014 A 
BRANCH  42  43
ATOM     43  C   UNL A   1      37.626  32.264  31.419  1.00  0.00     0.031 A 
ATOM     44  C   UNL A   1      38.388  31.139  30.775  1.00  0.00     0.074 A 
ATOM     45  C   UNL A   1      37.940  32.667  32.665  1.00  0.00     0.049 A 
ATOM     46  N   UNL A   1      39.373  30.422  31.254  1.00  0.00    -0.248 NA
ATOM     47  C   UNL A   1      37.961  30.751  29.423  1.00  0.00     0.031 C 
ATOM     48  C   UNL A   1      37.238  33.711  33.416  1.00  0.00     0.029 A 
ATOM     49  N   UNL A   1      38.915  32.236  33.527  1.00  0.00    -0.354 N 
ATOM     50  C   UNL A   1      39.674  29.486  30.268  1.00  0.00     0.074 A 
ATOM     51  C   UNL A   1      38.726  29.693  29.194  1.00  0.00     0.031 C 
ATOM     52  C   UNL A   1      37.809  33.838  34.625  1.00  0.00     0.029 A 
ATOM     53  C   UNL A   1      38.893  32.869  34.747  1.00  0.00     0.049 A 
ATOM     54  H   UNL A   1      39.569  31.538  33.294  1.00  0.00     0.167 HD
ATOM     55  C   UNL A   1      40.663  28.556  30.253  1.00  0.00     0.034 A 
ATOM     56  C   UNL A   1      39.652  32.682  35.845  1.00  0.00     0.034 A 
ATOM     57  C   UNL A   1      41.604  28.369  31.331  1.00  0.00     0.049 A 
ATOM     58  C   UNL A   1      40.751  31.653  35.807  1.00  0.00     0.074 A 
ATOM     59  C   UNL A   1      42.683  27.504  31.398  1.00  0.00     0.029 A 
ATOM     60  N   UNL A   1      41.574  29.054  32.540  1.00  0.00    -0.354 N 
ATOM     61  N   UNL A   1      41.066  30.820  34.843  1.00  0.00    -0.248 NA
ATOM     62  C   UNL A   1      41.606  31.555  36.996  1.00  0.00     0.031 C 
ATOM     63  C   UNL A   1      43.267  27.625  32.665  1.00  0.00     0.029 A 
ATOM     64  C   UNL A   1      42.596  28.613  33.367  1.00  0.00     0.049 A 
ATOM     65  H   UNL A   1      40.921  29.753  32.776  1.00  0.00     0.167 HD
ATOM     66  C   UNL A   1      42.171  30.108  35.304  1.00  0.00     0.074 A 
ATOM     67  C   UNL A   1      42.474  30.625  36.624  1.00  0.00     0.031 C 
ATOM     68  C   UNL A   1      42.873  29.122  34.690  1.00  0.00     0.034 A 
BRANCH  55  69
ATOM     69  C   UNL A   1      40.745  27.660  29.039  1.00  0.00     0.023 A 
ATOM     70  C   UNL A   1      41.687  27.884  28.020  1.00  0.00     0.031 A 
ATOM     71  C   UNL A   1      39.834  26.602  28.869  1.00  0.00     0.131 A 
ATOM     72  C   UNL A   1      41.636  27.130  26.838  1.00  0.00     0.055 A 
ATOM     73  C   UNL A   1      39.845  25.797  27.727  1.00  0.00     0.041 A 
ATOM     74  F   UNL A   1      38.899  26.348  29.798  1.00  0.00    -0.206 F 
ATOM     75  C   UNL A   1      40.737  26.072  26.695  1.00  0.00     0.022 A 
BRANCH  72  76
ATOM     76  S   UNL A   1      42.647  27.662  25.429  1.00  0.00     0.124 S 
ATOM     77  O   UNL A   1      43.872  28.101  26.094  1.00  0.00    -0.237 OA
ATOM     78  O   UNL A   1      42.751  26.443  24.637  1.00  0.00    -0.237 OA
ATOM     79  O   UNL A   1      41.858  28.734  24.826  1.00  0.00    -0.744 OA
ENDBRANCH  72  76
ENDBRANCH  55  69
BRANCH  56  80
ATOM     80  C   UNL A   1      39.389  33.476  37.076  1.00  0.00     0.023 A 
ATOM     81  C   UNL A   1      40.097  34.658  37.345  1.00  0.00     0.031 A 
ATOM     82  C   UNL A   1      38.426  33.053  38.009  1.00  0.00     0.131 A 
ATOM     83  C   UNL A   1      39.857  35.359  38.537  1.00  0.00     0.055 A 
ATOM     84  C   UNL A   1      38.162  33.776  39.173  1.00  0.00     0.041 A 
ATOM     85  F   UNL A   1      37.714  31.936  37.789  1.00  0.00    -0.206 F 
ATOM     86  C   UNL A   1      38.886  34.931  39.447  1.00  0.00     0.022 A 
BRANCH  83  87
ATOM     87  S   UNL A   1      40.868  36.818  38.905  1.00  0.00     0.124 S 
ATOM     88  O   UNL A   1      41.643  36.363  40.054  1.00  0.00    -0.237 OA
ATOM     89  O   UNL A   1      41.609  36.996  37.661  1.00  0.00    -0.237 OA
ATOM     90  O   UNL A   1      39.878  37.855  39.191  1.00  0.00    -0.744 OA
ENDBRANCH  83  87
ENDBRANCH  56  80
BRANCH  68  91
ATOM     91  C   UNL A   1      44.060  28.567  35.438  1.00  0.00     0.023 A 
ATOM     92  C   UNL A   1      43.925  27.515  36.360  1.00  0.00     0.031 A 
ATOM     93  C   UNL A   1      45.339  29.113  35.234  1.00  0.00     0.131 A 
ATOM     94  C   UNL A   1      45.043  27.075  37.084  1.00  0.00     0.055 A 
ATOM     95  C   UNL A   1      46.458  28.635  35.919  1.00  0.00     0.041 A 
ATOM     96  F   UNL A   1      45.523  30.119  34.366  1.00  0.00    -0.206 F 
ATOM     97  C   UNL A   1      46.311  27.618  36.859  1.00  0.00     0.022 A 
BRANCH  94  98
ATOM     98  S   UNL A   1      44.806  25.835  38.387  1.00  0.00     0.124 S 
ATOM     99  O   UNL A   1      44.252  26.638  39.472  1.00  0.00    -0.237 OA
ATOM    100  O   UNL A   1      43.889  24.891  37.758  1.00  0.00    -0.237 OA
ATOM    101  O   UNL A   1      46.155  25.322  38.622  1.00  0.00    -0.744 OA
ENDBRANCH  94  98
ENDBRANCH  68  91
ENDBRANCH  42  43
ENDBRANCH  34  37
ENDBRANCH  32  33
ENDBRANCH  31  32
ENDBRANCH   1  31
TORSDOF 18
ENDMDL
MODEL 3
REMARK VINA RESULT:     -12.9      5.701     11.734
REMARK SMILES CN1C(=O)C[C@@H](C(=O)NCCCCCCNC(=O)c2ccc(-c3c4nc(c(-c5cc(S(=O)(=O)[O-])ccc5F)c5ccc([nH]5)c(-c5cc(S(=O)(=O)[O-])ccc5F)c5nc(c(-c6cc(S(=O)(=O)[O-])ccc6F)c6ccc3[nH]6)C=C5)C=C4)cc2)C12CCN(S(=O)(=O)c1ccccc1F)CC2
REMARK SMILES IDX 13 1 12 2 11 3 10 4 9 5 7 6 8 7 6 9 1 10 2 11 3 12 82 13
REMARK SMILES IDX 4 14 5 15 83 16 97 17 84 18 96 19 85 20 86 21 87 22 88 23
REMARK SMILES IDX 89 24 90 25 94 26 91 27 93 28 95 29 92 30 14 31 15 32 16 33
REMARK SMILES IDX 17 34 18 36 19 37 20 38 81 39 21 40 80 41 22 42 23 43 24 44
REMARK SMILES IDX 74 45 25 46 79 47 73 48 75 49 26 50 78 51 72 52 71 53 27 55
REMARK SMILES IDX 59 56 39 57 58 58 40 59 43 60 57 61 76 62 41 63 42 64 56 66
REMARK SMILES IDX 77 67 44 68 28 69 29 70 37 71 30 72 36 73 38 74 35 75 31 76
REMARK SMILES IDX 32 77 33 78 34 79 60 80 61 81 69 82 62 83 68 84 70 85 67 86
REMARK SMILES IDX 63 87 64 88 65 89 66 90 45 91 46 92 54 93 47 94 53 95 55 96
REMARK SMILES IDX 52 97 48 98 49 99 50 100 51 101
REMARK H PARENT 9 8 16 35 75 54 43 65
REMARK Flexibility Score: inf
ROOT
ATOM      1  C   UNL A   1      36.782  20.814  25.012  1.00  0.00     0.002 C 
ENDROOT
BRANCH   1   2
ATOM      2  C   UNL A   1      37.073  22.307  25.163  1.00  0.00     0.002 C 
BRANCH   2   3
ATOM      3  C   UNL A   1      35.946  23.128  25.792  1.00  0.00     0.021 C 
BRANCH   3   4
ATOM      4  C   UNL A   1      34.533  22.582  25.557  1.00  0.00     0.116 C 
BRANCH   4   5
ATOM      5  N   UNL A   1      33.572  23.018  26.561  1.00  0.00    -0.356 N 
ATOM      6  C   UNL A   1      32.261  23.361  26.517  1.00  0.00     0.226 C 
ATOM      7  O   UNL A   1      31.761  23.735  27.587  1.00  0.00    -0.275 OA
ATOM      8  H   UNL A   1      33.958  23.077  27.465  1.00  0.00     0.163 HD
BRANCH   6   9
ATOM      9  C   UNL A   1      31.370  23.353  25.267  1.00  0.00     0.113 C 
ATOM     10  C   UNL A   1      32.969  24.132  21.956  1.00  0.00     0.147 C 
ATOM     11  N   UNL A   1      32.343  23.592  23.154  1.00  0.00    -0.339 N 
ATOM     12  C   UNL A   1      32.102  22.230  23.285  1.00  0.00     0.223 C 
ATOM     13  C   UNL A   1      31.629  24.403  24.156  1.00  0.00     0.057 C 
ATOM     14  O   UNL A   1      32.432  21.350  22.507  1.00  0.00    -0.275 OA
ATOM     15  C   UNL A   1      31.364  21.993  24.570  1.00  0.00     0.116 C 
ATOM     16  C   UNL A   1      32.432  25.611  24.668  1.00  0.00     0.046 C 
ATOM     17  C   UNL A   1      30.292  24.892  23.509  1.00  0.00     0.046 C 
ATOM     18  C   UNL A   1      31.589  26.598  25.456  1.00  0.00     0.105 C 
ATOM     19  C   UNL A   1      29.572  26.017  24.258  1.00  0.00     0.105 C 
ATOM     20  N   UNL A   1      30.499  27.130  24.619  1.00  0.00    -0.198 NA
BRANCH  20  21
ATOM     21  S   UNL A   1      30.875  28.209  23.335  1.00  0.00     0.245 S 
ATOM     22  O   UNL A   1      32.147  28.844  23.605  1.00  0.00    -0.207 OA
ATOM     23  O   UNL A   1      30.709  27.444  22.114  1.00  0.00    -0.207 OA
BRANCH  21  24
ATOM     24  C   UNL A   1      29.624  29.462  23.343  1.00  0.00     0.118 A 
ATOM     25  C   UNL A   1      29.934  30.755  23.780  1.00  0.00     0.025 A 
ATOM     26  C   UNL A   1      28.303  29.141  23.045  1.00  0.00     0.143 A 
ATOM     27  C   UNL A   1      28.925  31.718  23.877  1.00  0.00     0.002 A 
ATOM     28  C   UNL A   1      27.301  30.108  23.112  1.00  0.00     0.041 A 
ATOM     29  F   UNL A   1      27.943  27.912  22.663  1.00  0.00    -0.206 F 
ATOM     30  C   UNL A   1      27.611  31.399  23.532  1.00  0.00     0.003 A 
ENDBRANCH  21  24
ENDBRANCH  20  21
ENDBRANCH   6   9
ENDBRANCH   4   5
ENDBRANCH   3   4
ENDBRANCH   2   3
ENDBRANCH   1   2
BRANCH   1  31
ATOM     31  C   UNL A   1      38.012  19.900  25.007  1.00  0.00     0.021 C 
BRANCH  31  32
ATOM     32  C   UNL A   1      39.222  20.426  25.776  1.00  0.00     0.116 C 
BRANCH  32  33
ATOM     33  N   UNL A   1      40.243  19.411  25.958  1.00  0.00    -0.352 N 
ATOM     34  C   UNL A   1      41.589  19.564  26.184  1.00  0.00     0.251 C 
ATOM     35  H   UNL A   1      39.926  18.480  25.913  1.00  0.00     0.163 HD
ATOM     36  O   UNL A   1      42.328  18.586  26.127  1.00  0.00    -0.269 OA
BRANCH  34  37
ATOM     37  C   UNL A   1      42.145  20.905  26.470  1.00  0.00     0.039 A 
ATOM     38  C   UNL A   1      42.373  21.781  25.405  1.00  0.00     0.014 A 
ATOM     39  C   UNL A   1      42.461  21.292  27.777  1.00  0.00     0.014 A 
ATOM     40  C   UNL A   1      42.872  23.062  25.653  1.00  0.00     0.010 A 
ATOM     41  C   UNL A   1      42.905  22.589  28.028  1.00  0.00     0.010 A 
ATOM     42  C   UNL A   1      43.122  23.484  26.969  1.00  0.00    -0.014 A 
BRANCH  42  43
ATOM     43  C   UNL A   1      43.629  24.852  27.251  1.00  0.00     0.031 A 
ATOM     44  C   UNL A   1      42.696  25.906  27.779  1.00  0.00     0.074 A 
ATOM     45  C   UNL A   1      44.909  25.161  26.970  1.00  0.00     0.049 A 
ATOM     46  N   UNL A   1      42.926  27.171  28.024  1.00  0.00    -0.248 NA
ATOM     47  C   UNL A   1      41.312  25.484  28.034  1.00  0.00     0.031 C 
ATOM     48  C   UNL A   1      45.896  24.238  26.402  1.00  0.00     0.029 A 
ATOM     49  N   UNL A   1      45.597  26.340  27.106  1.00  0.00    -0.354 N 
ATOM     50  C   UNL A   1      41.711  27.701  28.448  1.00  0.00     0.074 A 
ATOM     51  C   UNL A   1      40.739  26.631  28.367  1.00  0.00     0.031 C 
ATOM     52  C   UNL A   1      47.060  24.888  26.240  1.00  0.00     0.029 A 
ATOM     53  C   UNL A   1      46.897  26.275  26.663  1.00  0.00     0.049 A 
ATOM     54  H   UNL A   1      45.196  27.156  27.483  1.00  0.00     0.167 HD
ATOM     55  C   UNL A   1      41.438  28.958  28.885  1.00  0.00     0.034 A 
ATOM     56  C   UNL A   1      47.847  27.229  26.593  1.00  0.00     0.034 A 
ATOM     57  C   UNL A   1      42.422  30.010  28.966  1.00  0.00     0.049 A 
ATOM     58  C   UNL A   1      47.529  28.614  27.091  1.00  0.00     0.074 A 
ATOM     59  C   UNL A   1      42.274  31.298  29.450  1.00  0.00     0.029 A 
ATOM     60  N   UNL A   1      43.741  29.898  28.541  1.00  0.00    -0.354 N 
ATOM     61  N   UNL A   1      46.393  29.084  27.551  1.00  0.00    -0.248 NA
ATOM     62  C   UNL A   1      48.627  29.589  27.078  1.00  0.00     0.031 C 
ATOM     63  C   UNL A   1      43.484  31.980  29.266  1.00  0.00     0.029 A 
ATOM     64  C   UNL A   1      44.408  31.100  28.727  1.00  0.00     0.049 A 
ATOM     65  H   UNL A   1      44.144  29.083  28.162  1.00  0.00     0.167 HD
ATOM     66  C   UNL A   1      46.645  30.408  27.900  1.00  0.00     0.074 A 
ATOM     67  C   UNL A   1      48.045  30.653  27.612  1.00  0.00     0.031 C 
ATOM     68  C   UNL A   1      45.799  31.335  28.416  1.00  0.00     0.034 A 
BRANCH  55  69
ATOM     69  C   UNL A   1      40.008  29.254  29.276  1.00  0.00     0.023 A 
ATOM     70  C   UNL A   1      39.619  29.348  30.625  1.00  0.00     0.031 A 
ATOM     71  C   UNL A   1      39.011  29.386  28.294  1.00  0.00     0.131 A 
ATOM     72  C   UNL A   1      38.261  29.472  30.955  1.00  0.00     0.055 A 
ATOM     73  C   UNL A   1      37.671  29.597  28.629  1.00  0.00     0.041 A 
ATOM     74  F   UNL A   1      39.316  29.288  26.991  1.00  0.00    -0.206 F 
ATOM     75  C   UNL A   1      37.287  29.620  29.966  1.00  0.00     0.022 A 
BRANCH  72  76
ATOM     76  S   UNL A   1      37.772  29.263  32.690  1.00  0.00     0.124 S 
ATOM     77  O   UNL A   1      38.897  29.881  33.389  1.00  0.00    -0.237 OA
ATOM     78  O   UNL A   1      36.506  29.985  32.750  1.00  0.00    -0.237 OA
ATOM     79  O   UNL A   1      37.674  27.813  32.846  1.00  0.00    -0.744 OA
ENDBRANCH  72  76
ENDBRANCH  55  69
BRANCH  56  80
ATOM     80  C   UNL A   1      49.182  26.909  26.017  1.00  0.00     0.023 A 
ATOM     81  C   UNL A   1      49.517  27.283  24.706  1.00  0.00     0.031 A 
ATOM     82  C   UNL A   1      50.140  26.211  26.773  1.00  0.00     0.131 A 
ATOM     83  C   UNL A   1      50.767  26.927  24.178  1.00  0.00     0.055 A 
ATOM     84  C   UNL A   1      51.396  25.895  26.256  1.00  0.00     0.041 A 
ATOM     85  F   UNL A   1      49.870  25.843  28.036  1.00  0.00    -0.206 F 
ATOM     86  C   UNL A   1      51.713  26.245  24.948  1.00  0.00     0.022 A 
BRANCH  83  87
ATOM     87  S   UNL A   1      51.123  27.329  22.445  1.00  0.00     0.124 S 
ATOM     88  O   UNL A   1      51.182  28.786  22.482  1.00  0.00    -0.237 OA
ATOM     89  O   UNL A   1      52.391  26.640  22.229  1.00  0.00    -0.237 OA
ATOM     90  O   UNL A   1      49.982  26.768  21.725  1.00  0.00    -0.744 OA
ENDBRANCH  83  87
ENDBRANCH  56  80
BRANCH  68  91
ATOM     91  C   UNL A   1      46.384  32.689  28.730  1.00  0.00     0.023 A 
ATOM     92  C   UNL A   1      46.371  33.736  27.792  1.00  0.00     0.031 A 
ATOM     93  C   UNL A   1      46.978  32.927  29.982  1.00  0.00     0.131 A 
ATOM     94  C   UNL A   1      46.987  34.957  28.101  1.00  0.00     0.055 A 
ATOM     95  C   UNL A   1      47.544  34.162  30.303  1.00  0.00     0.041 A 
ATOM     96  F   UNL A   1      47.019  31.962  30.914  1.00  0.00    -0.206 F 
ATOM     97  C   UNL A   1      47.561  35.182  29.355  1.00  0.00     0.022 A 
BRANCH  94  98
ATOM     98  S   UNL A   1      47.104  36.227  26.811  1.00  0.00     0.124 S 
ATOM     99  O   UNL A   1      48.546  36.324  26.609  1.00  0.00    -0.237 OA
ATOM    100  O   UNL A   1      46.345  35.632  25.716  1.00  0.00    -0.237 OA
ATOM    101  O   UNL A   1      46.484  37.400  27.426  1.00  0.00    -0.744 OA
ENDBRANCH  94  98
ENDBRANCH  68  91
ENDBRANCH  42  43
ENDBRANCH  34  37
ENDBRANCH  32  33
ENDBRANCH  31  32
ENDBRANCH   1  31
TORSDOF 18
ENDMDL
