MODEL 1
REMARK VINA RESULT:     -11.2      0.000      0.000
REMARK SMILES O=C(NCCCCCCNC(=O)c1cncc(OCCCc2ccccc2)n1)c1ccc(-c2c3nc(c(-c4cc(S(=O)(=O)[O-])ccc4F)c4ccc([nH]4)c(-c4cc(S(=O)(=O)[O-])ccc4F)c4nc(c(-c5cc(S(=O)(=O)[O-])ccc5F)c5ccc2[nH]5)C=C4)C=C3)cc1
REMARK SMILES IDX 7 1 6 2 5 3 4 4 3 5 1 6 2 7 29 9 30 10 91 11 31 12 90 13
REMARK SMILES IDX 32 14 33 15 34 16 84 17 35 18 89 19 83 20 85 21 36 22 88 23
REMARK SMILES IDX 82 24 81 25 37 27 69 28 49 29 68 30 50 31 53 32 67 33 86 34
REMARK SMILES IDX 51 35 52 36 66 38 87 39 54 40 38 41 39 42 47 43 40 44 46 45
REMARK SMILES IDX 48 46 45 47 41 48 42 49 43 50 44 51 70 52 71 53 79 54 72 55
REMARK SMILES IDX 78 56 80 57 77 58 73 59 74 60 75 61 76 62 55 63 56 64 64 65
REMARK SMILES IDX 57 66 63 67 65 68 62 69 58 70 59 71 60 72 61 73 8 74 9 75
REMARK SMILES IDX 10 76 11 77 12 79 13 80 14 81 28 82 15 83 17 84 16 85 18 86
REMARK SMILES IDX 19 87 20 88 21 89 22 90 23 91 27 92 24 93 26 94 25 95
REMARK H PARENT 3 8 85 26 53 37 10 78
REMARK Flexibility Score: inf
ROOT
ATOM      1  C   UNL A   1      34.211  24.960  25.878  1.00  0.00     0.002 C 
ENDROOT
BRANCH   1   2
ATOM      2  C   UNL A   1      34.971  24.539  24.617  1.00  0.00     0.002 C 
BRANCH   2   3
ATOM      3  C   UNL A   1      35.421  23.080  24.563  1.00  0.00     0.021 C 
BRANCH   3   4
ATOM      4  C   UNL A   1      35.953  22.514  25.872  1.00  0.00     0.116 C 
BRANCH   4   5
ATOM      5  N   UNL A   1      36.835  21.376  25.682  1.00  0.00    -0.352 N 
ATOM      6  O   UNL A   1      38.811  20.310  25.457  1.00  0.00    -0.269 OA
ATOM      7  C   UNL A   1      38.209  21.322  25.783  1.00  0.00     0.251 C 
ATOM      8  H   UNL A   1      36.391  20.527  25.450  1.00  0.00     0.163 HD
BRANCH   7   9
ATOM      9  C   UNL A   1      38.950  22.511  26.269  1.00  0.00     0.039 A 
ATOM     10  C   UNL A   1      38.576  23.793  25.862  1.00  0.00     0.014 A 
ATOM     11  C   UNL A   1      40.038  22.340  27.131  1.00  0.00     0.014 A 
ATOM     12  C   UNL A   1      39.374  24.882  26.192  1.00  0.00     0.010 A 
ATOM     13  C   UNL A   1      40.782  23.452  27.543  1.00  0.00     0.010 A 
ATOM     14  C   UNL A   1      40.472  24.732  27.056  1.00  0.00    -0.014 A 
BRANCH  14  15
ATOM     15  C   UNL A   1      41.211  25.948  27.489  1.00  0.00     0.031 A 
ATOM     16  C   UNL A   1      42.609  26.235  27.011  1.00  0.00     0.074 A 
ATOM     17  C   UNL A   1      40.572  26.828  28.286  1.00  0.00     0.049 A 
ATOM     18  N   UNL A   1      43.364  27.275  27.259  1.00  0.00    -0.248 NA
ATOM     19  C   UNL A   1      43.243  25.226  26.151  1.00  0.00     0.031 C 
ATOM     20  C   UNL A   1      39.218  26.645  28.821  1.00  0.00     0.029 A 
ATOM     21  N   UNL A   1      40.948  28.057  28.762  1.00  0.00    -0.354 N 
ATOM     22  C   UNL A   1      44.564  27.049  26.592  1.00  0.00     0.074 A 
ATOM     23  C   UNL A   1      44.446  25.752  25.958  1.00  0.00     0.031 C 
ATOM     24  C   UNL A   1      38.857  27.743  29.497  1.00  0.00     0.029 A 
ATOM     25  C   UNL A   1      39.976  28.677  29.515  1.00  0.00     0.049 A 
ATOM     26  H   UNL A   1      41.829  28.459  28.584  1.00  0.00     0.167 HD
ATOM     27  C   UNL A   1      45.654  27.853  26.513  1.00  0.00     0.034 A 
ATOM     28  C   UNL A   1      39.988  29.856  30.167  1.00  0.00     0.034 A 
ATOM     29  C   UNL A   1      45.755  29.143  27.159  1.00  0.00     0.049 A 
ATOM     30  C   UNL A   1      41.224  30.708  30.086  1.00  0.00     0.074 A 
ATOM     31  C   UNL A   1      46.810  30.040  27.134  1.00  0.00     0.029 A 
ATOM     32  N   UNL A   1      44.769  29.719  27.951  1.00  0.00    -0.354 N 
ATOM     33  N   UNL A   1      42.343  30.480  29.438  1.00  0.00    -0.248 NA
ATOM     34  C   UNL A   1      41.197  31.979  30.818  1.00  0.00     0.031 C 
ATOM     35  C   UNL A   1      46.487  31.125  27.957  1.00  0.00     0.029 A 
ATOM     36  C   UNL A   1      45.202  30.944  28.439  1.00  0.00     0.049 A 
ATOM     37  H   UNL A   1      43.890  29.317  28.138  1.00  0.00     0.167 HD
ATOM     38  C   UNL A   1      43.149  31.587  29.679  1.00  0.00     0.074 A 
ATOM     39  C   UNL A   1      42.371  32.497  30.494  1.00  0.00     0.031 C 
ATOM     40  C   UNL A   1      44.422  31.829  29.271  1.00  0.00     0.034 A 
BRANCH  27  41
ATOM     41  C   UNL A   1      46.842  27.349  25.728  1.00  0.00     0.023 A 
ATOM     42  C   UNL A   1      47.120  27.808  24.428  1.00  0.00     0.031 A 
ATOM     43  C   UNL A   1      47.721  26.407  26.294  1.00  0.00     0.131 A 
ATOM     44  C   UNL A   1      48.216  27.291  23.721  1.00  0.00     0.055 A 
ATOM     45  C   UNL A   1      48.849  25.947  25.610  1.00  0.00     0.041 A 
ATOM     46  F   UNL A   1      47.498  25.918  27.524  1.00  0.00    -0.206 F 
ATOM     47  C   UNL A   1      49.097  26.382  24.311  1.00  0.00     0.022 A 
BRANCH  44  48
ATOM     48  S   UNL A   1      48.418  27.745  21.976  1.00  0.00     0.124 S 
ATOM     49  O   UNL A   1      47.226  28.557  21.742  1.00  0.00    -0.237 OA
ATOM     50  O   UNL A   1      49.687  28.463  21.980  1.00  0.00    -0.237 OA
ATOM     51  O   UNL A   1      48.431  26.458  21.285  1.00  0.00    -0.744 OA
ENDBRANCH  44  48
ENDBRANCH  27  41
BRANCH  28  52
ATOM     52  C   UNL A   1      38.814  30.277  30.986  1.00  0.00     0.023 A 
ATOM     53  C   UNL A   1      37.823  31.117  30.458  1.00  0.00     0.031 A 
ATOM     54  C   UNL A   1      38.696  29.883  32.332  1.00  0.00     0.131 A 
ATOM     55  C   UNL A   1      36.788  31.580  31.284  1.00  0.00     0.055 A 
ATOM     56  C   UNL A   1      37.629  30.293  33.131  1.00  0.00     0.041 A 
ATOM     57  F   UNL A   1      39.616  29.078  32.888  1.00  0.00    -0.206 F 
ATOM     58  C   UNL A   1      36.676  31.162  32.612  1.00  0.00     0.022 A 
BRANCH  55  59
ATOM     59  S   UNL A   1      35.649  32.830  30.629  1.00  0.00     0.124 S 
ATOM     60  O   UNL A   1      34.397  32.465  31.284  1.00  0.00    -0.237 OA
ATOM     61  O   UNL A   1      36.271  34.071  31.083  1.00  0.00    -0.237 OA
ATOM     62  O   UNL A   1      35.689  32.604  29.187  1.00  0.00    -0.744 OA
ENDBRANCH  55  59
ENDBRANCH  28  52
BRANCH  40  63
ATOM     63  C   UNL A   1      45.024  33.145  29.697  1.00  0.00     0.023 A 
ATOM     64  C   UNL A   1      44.863  34.310  28.924  1.00  0.00     0.031 A 
ATOM     65  C   UNL A   1      45.816  33.224  30.856  1.00  0.00     0.131 A 
ATOM     66  C   UNL A   1      45.547  35.482  29.276  1.00  0.00     0.055 A 
ATOM     67  C   UNL A   1      46.438  34.414  31.239  1.00  0.00     0.041 A 
ATOM     68  F   UNL A   1      46.006  32.144  31.629  1.00  0.00    -0.206 F 
ATOM     69  C   UNL A   1      46.321  35.546  30.437  1.00  0.00     0.022 A 
BRANCH  66  70
ATOM     70  S   UNL A   1      45.508  36.887  28.129  1.00  0.00     0.124 S 
ATOM     71  O   UNL A   1      46.926  37.098  27.859  1.00  0.00    -0.237 OA
ATOM     72  O   UNL A   1      44.718  36.362  27.020  1.00  0.00    -0.237 OA
ATOM     73  O   UNL A   1      44.859  37.944  28.904  1.00  0.00    -0.744 OA
ENDBRANCH  66  70
ENDBRANCH  40  63
ENDBRANCH  14  15
ENDBRANCH   7   9
ENDBRANCH   4   5
ENDBRANCH   3   4
ENDBRANCH   2   3
ENDBRANCH   1   2
BRANCH   1  74
ATOM     74  C   UNL A   1      33.984  26.464  26.071  1.00  0.00     0.021 C 
BRANCH  74  75
ATOM     75  C   UNL A   1      32.536  26.921  26.238  1.00  0.00     0.116 C 
BRANCH  75  76
ATOM     76  N   UNL A   1      32.208  28.090  25.448  1.00  0.00    -0.351 N 
ATOM     77  C   UNL A   1      32.028  28.198  24.089  1.00  0.00     0.271 C 
ATOM     78  H   UNL A   1      32.097  28.927  25.956  1.00  0.00     0.163 HD
ATOM     79  O   UNL A   1      31.705  29.280  23.603  1.00  0.00    -0.267 OA
BRANCH  77  80
ATOM     80  C   UNL A   1      32.265  27.031  23.208  1.00  0.00     0.150 A 
ATOM     81  C   UNL A   1      33.249  27.033  22.237  1.00  0.00     0.145 A 
ATOM     82  N   UNL A   1      31.470  25.955  23.436  1.00  0.00    -0.205 NA
ATOM     83  N   UNL A   1      33.467  25.957  21.438  1.00  0.00    -0.257 NA
ATOM     84  C   UNL A   1      31.686  24.885  22.657  1.00  0.00     0.233 A 
ATOM     85  C   UNL A   1      32.672  24.882  21.680  1.00  0.00     0.179 A 
BRANCH  84  86
ATOM     86  O   UNL A   1      30.978  23.736  22.904  1.00  0.00    -0.477 OA
BRANCH  86  87
ATOM     87  C   UNL A   1      31.418  23.019  24.068  1.00  0.00     0.232 C 
BRANCH  87  88
ATOM     88  C   UNL A   1      32.349  21.838  23.754  1.00  0.00     0.046 C 
BRANCH  88  89
ATOM     89  C   UNL A   1      32.280  20.614  24.684  1.00  0.00     0.039 C 
BRANCH  89  90
ATOM     90  C   UNL A   1      32.936  19.354  24.164  1.00  0.00    -0.048 A 
ATOM     91  C   UNL A   1      34.137  18.894  24.719  1.00  0.00     0.004 A 
ATOM     92  C   UNL A   1      32.346  18.596  23.143  1.00  0.00     0.004 A 
ATOM     93  C   UNL A   1      34.726  17.711  24.265  1.00  0.00     0.000 A 
ATOM     94  C   UNL A   1      32.943  17.426  22.673  1.00  0.00     0.000 A 
ATOM     95  C   UNL A   1      34.131  16.979  23.239  1.00  0.00     0.000 A 
ENDBRANCH  89  90
ENDBRANCH  88  89
ENDBRANCH  87  88
ENDBRANCH  86  87
ENDBRANCH  84  86
ENDBRANCH  77  80
ENDBRANCH  75  76
ENDBRANCH  74  75
ENDBRANCH   1  74
TORSDOF 21
ENDMDL
MODEL 2
REMARK VINA RESULT:     -11.0      5.528      8.915
REMARK SMILES O=C(NCCCCCCNC(=O)c1cncc(OCCCc2ccccc2)n1)c1ccc(-c2c3nc(c(-c4cc(S(=O)(=O)[O-])ccc4F)c4ccc([nH]4)c(-c4cc(S(=O)(=O)[O-])ccc4F)c4nc(c(-c5cc(S(=O)(=O)[O-])ccc5F)c5ccc2[nH]5)C=C4)C=C3)cc1
REMARK SMILES IDX 7 1 6 2 5 3 4 4 3 5 1 6 2 7 29 9 30 10 91 11 31 12 90 13
REMARK SMILES IDX 32 14 33 15 34 16 84 17 35 18 89 19 83 20 85 21 36 22 88 23
REMARK SMILES IDX 82 24 81 25 37 27 69 28 49 29 68 30 50 31 53 32 67 33 86 34
REMARK SMILES IDX 51 35 52 36 66 38 87 39 54 40 38 41 39 42 47 43 40 44 46 45
REMARK SMILES IDX 48 46 45 47 41 48 42 49 43 50 44 51 70 52 71 53 79 54 72 55
REMARK SMILES IDX 78 56 80 57 77 58 73 59 74 60 75 61 76 62 55 63 56 64 64 65
REMARK SMILES IDX 57 66 63 67 65 68 62 69 58 70 59 71 60 72 61 73 8 74 9 75
REMARK SMILES IDX 10 76 11 77 12 79 13 80 14 81 28 82 15 83 17 84 16 85 18 86
REMARK SMILES IDX 19 87 20 88 21 89 22 90 23 91 27 92 24 93 26 94 25 95
REMARK H PARENT 3 8 85 26 53 37 10 78
REMARK Flexibility Score: inf
ROOT
ATOM      1  C   UNL A   1      32.502  29.730  26.936  1.00  0.00     0.002 C 
ENDROOT
BRANCH   1   2
ATOM      2  C   UNL A   1      31.541  30.628  26.152  1.00  0.00     0.002 C 
BRANCH   2   3
ATOM      3  C   UNL A   1      31.488  32.091  26.588  1.00  0.00     0.021 C 
BRANCH   3   4
ATOM      4  C   UNL A   1      32.718  32.596  27.328  1.00  0.00     0.116 C 
BRANCH   4   5
ATOM      5  N   UNL A   1      32.631  34.001  27.685  1.00  0.00    -0.352 N 
ATOM      6  O   UNL A   1      33.035  35.847  28.919  1.00  0.00    -0.269 OA
ATOM      7  C   UNL A   1      33.329  34.690  28.655  1.00  0.00     0.251 C 
ATOM      8  H   UNL A   1      31.987  34.534  27.164  1.00  0.00     0.163 HD
BRANCH   7   9
ATOM      9  C   UNL A   1      34.421  34.007  29.389  1.00  0.00     0.039 A 
ATOM     10  C   UNL A   1      35.756  34.242  29.053  1.00  0.00     0.014 A 
ATOM     11  C   UNL A   1      34.106  33.113  30.417  1.00  0.00     0.014 A 
ATOM     12  C   UNL A   1      36.759  33.478  29.634  1.00  0.00     0.010 A 
ATOM     13  C   UNL A   1      35.129  32.415  31.071  1.00  0.00     0.010 A 
ATOM     14  C   UNL A   1      36.464  32.573  30.669  1.00  0.00    -0.014 A 
BRANCH  14  15
ATOM     15  C   UNL A   1      37.588  31.880  31.354  1.00  0.00     0.031 A 
ATOM     16  C   UNL A   1      38.360  30.775  30.684  1.00  0.00     0.074 A 
ATOM     17  C   UNL A   1      37.942  32.308  32.583  1.00  0.00     0.049 A 
ATOM     18  N   UNL A   1      39.395  30.110  31.131  1.00  0.00    -0.248 NA
ATOM     19  C   UNL A   1      37.913  30.359  29.348  1.00  0.00     0.031 C 
ATOM     20  C   UNL A   1      37.253  33.365  33.332  1.00  0.00     0.029 A 
ATOM     21  N   UNL A   1      38.973  31.940  33.408  1.00  0.00    -0.354 N 
ATOM     22  C   UNL A   1      39.724  29.193  30.138  1.00  0.00     0.074 A 
ATOM     23  C   UNL A   1      38.751  29.367  29.078  1.00  0.00     0.031 C 
ATOM     24  C   UNL A   1      37.914  33.599  34.473  1.00  0.00     0.029 A 
ATOM     25  C   UNL A   1      39.024  32.661  34.578  1.00  0.00     0.049 A 
ATOM     26  H   UNL A   1      39.615  31.228  33.184  1.00  0.00     0.167 HD
ATOM     27  C   UNL A   1      40.745  28.300  30.112  1.00  0.00     0.034 A 
ATOM     28  C   UNL A   1      39.859  32.567  35.633  1.00  0.00     0.034 A 
ATOM     29  C   UNL A   1      41.703  28.138  31.184  1.00  0.00     0.049 A 
ATOM     30  C   UNL A   1      40.960  31.544  35.588  1.00  0.00     0.074 A 
ATOM     31  C   UNL A   1      42.780  27.270  31.254  1.00  0.00     0.029 A 
ATOM     32  N   UNL A   1      41.698  28.854  32.374  1.00  0.00    -0.354 N 
ATOM     33  N   UNL A   1      41.259  30.696  34.631  1.00  0.00    -0.248 NA
ATOM     34  C   UNL A   1      41.838  31.470  36.759  1.00  0.00     0.031 C 
ATOM     35  C   UNL A   1      43.386  27.418  32.506  1.00  0.00     0.029 A 
ATOM     36  C   UNL A   1      42.736  28.429  33.193  1.00  0.00     0.049 A 
ATOM     37  H   UNL A   1      41.053  29.562  32.604  1.00  0.00     0.167 HD
ATOM     38  C   UNL A   1      42.370  29.994  35.085  1.00  0.00     0.074 A 
ATOM     39  C   UNL A   1      42.710  30.549  36.380  1.00  0.00     0.031 C 
ATOM     40  C   UNL A   1      43.046  28.976  34.492  1.00  0.00     0.034 A 
BRANCH  27  41
ATOM     41  C   UNL A   1      40.862  27.402  28.903  1.00  0.00     0.023 A 
ATOM     42  C   UNL A   1      41.810  27.640  27.893  1.00  0.00     0.031 A 
ATOM     43  C   UNL A   1      40.024  26.280  28.767  1.00  0.00     0.131 A 
ATOM     44  C   UNL A   1      41.865  26.799  26.770  1.00  0.00     0.055 A 
ATOM     45  C   UNL A   1      40.129  25.408  27.680  1.00  0.00     0.041 A 
ATOM     46  F   UNL A   1      39.087  26.011  29.690  1.00  0.00    -0.206 F 
ATOM     47  C   UNL A   1      41.048  25.671  26.669  1.00  0.00     0.022 A 
BRANCH  44  48
ATOM     48  S   UNL A   1      42.950  27.259  25.391  1.00  0.00     0.124 S 
ATOM     49  O   UNL A   1      43.041  26.000  24.654  1.00  0.00    -0.237 OA
ATOM     50  O   UNL A   1      42.198  28.325  24.740  1.00  0.00    -0.237 OA
ATOM     51  O   UNL A   1      44.185  27.678  26.049  1.00  0.00    -0.744 OA
ENDBRANCH  44  48
ENDBRANCH  27  41
BRANCH  28  52
ATOM     52  C   UNL A   1      39.659  33.431  36.833  1.00  0.00     0.023 A 
ATOM     53  C   UNL A   1      40.458  34.562  37.056  1.00  0.00     0.031 A 
ATOM     54  C   UNL A   1      38.694  33.103  37.803  1.00  0.00     0.131 A 
ATOM     55  C   UNL A   1      40.315  35.293  38.245  1.00  0.00     0.055 A 
ATOM     56  C   UNL A   1      38.511  33.872  38.953  1.00  0.00     0.041 A 
ATOM     57  F   UNL A   1      37.901  32.032  37.640  1.00  0.00    -0.206 F 
ATOM     58  C   UNL A   1      39.337  34.965  39.187  1.00  0.00     0.022 A 
BRANCH  55  59
ATOM     59  S   UNL A   1      41.504  36.616  38.597  1.00  0.00     0.124 S 
ATOM     60  O   UNL A   1      40.637  37.662  39.130  1.00  0.00    -0.237 OA
ATOM     61  O   UNL A   1      42.395  35.972  39.557  1.00  0.00    -0.237 OA
ATOM     62  O   UNL A   1      42.095  36.899  37.291  1.00  0.00    -0.744 OA
ENDBRANCH  55  59
ENDBRANCH  28  52
BRANCH  40  63
ATOM     63  C   UNL A   1      44.230  28.425  35.249  1.00  0.00     0.023 A 
ATOM     64  C   UNL A   1      44.084  27.382  36.182  1.00  0.00     0.031 A 
ATOM     65  C   UNL A   1      45.506  28.988  35.079  1.00  0.00     0.131 A 
ATOM     66  C   UNL A   1      45.178  26.987  36.965  1.00  0.00     0.055 A 
ATOM     67  C   UNL A   1      46.608  28.543  35.813  1.00  0.00     0.041 A 
ATOM     68  F   UNL A   1      45.702  29.988  34.205  1.00  0.00    -0.206 F 
ATOM     69  C   UNL A   1      46.443  27.550  36.775  1.00  0.00     0.022 A 
BRANCH  66  70
ATOM     70  S   UNL A   1      44.898  25.813  38.318  1.00  0.00     0.124 S 
ATOM     71  O   UNL A   1      44.205  24.725  37.637  1.00  0.00    -0.237 OA
ATOM     72  O   UNL A   1      46.256  25.523  38.766  1.00  0.00    -0.237 OA
ATOM     73  O   UNL A   1      44.082  26.571  39.266  1.00  0.00    -0.744 OA
ENDBRANCH  66  70
ENDBRANCH  40  63
ENDBRANCH  14  15
ENDBRANCH   7   9
ENDBRANCH   4   5
ENDBRANCH   3   4
ENDBRANCH   2   3
ENDBRANCH   1   2
BRANCH   1  74
ATOM     74  C   UNL A   1      32.804  28.356  26.328  1.00  0.00     0.021 C 
BRANCH  74  75
ATOM     75  C   UNL A   1      31.627  27.389  26.203  1.00  0.00     0.116 C 
BRANCH  75  76
ATOM     76  N   UNL A   1      31.952  26.034  26.597  1.00  0.00    -0.351 N 
ATOM     77  C   UNL A   1      32.429  24.996  25.831  1.00  0.00     0.271 C 
ATOM     78  H   UNL A   1      31.811  25.824  27.549  1.00  0.00     0.163 HD
ATOM     79  O   UNL A   1      32.690  23.919  26.362  1.00  0.00    -0.267 OA
BRANCH  77  80
ATOM     80  C   UNL A   1      32.587  25.159  24.367  1.00  0.00     0.150 A 
ATOM     81  C   UNL A   1      33.549  24.468  23.653  1.00  0.00     0.145 A 
ATOM     82  N   UNL A   1      31.711  26.008  23.774  1.00  0.00    -0.205 NA
ATOM     83  N   UNL A   1      33.685  24.615  22.310  1.00  0.00    -0.257 NA
ATOM     84  C   UNL A   1      31.832  26.150  22.446  1.00  0.00     0.233 A 
ATOM     85  C   UNL A   1      32.796  25.461  21.724  1.00  0.00     0.179 A 
BRANCH  84  86
ATOM     86  O   UNL A   1      30.915  26.923  21.779  1.00  0.00    -0.477 OA
BRANCH  86  87
ATOM     87  C   UNL A   1      30.465  28.066  22.523  1.00  0.00     0.232 C 
BRANCH  87  88
ATOM     88  C   UNL A   1      29.163  27.826  23.303  1.00  0.00     0.046 C 
BRANCH  88  89
ATOM     89  C   UNL A   1      27.909  28.587  22.840  1.00  0.00     0.039 C 
BRANCH  89  90
ATOM     90  C   UNL A   1      28.104  30.057  22.539  1.00  0.00    -0.048 A 
ATOM     91  C   UNL A   1      28.052  30.528  21.221  1.00  0.00     0.004 A 
ATOM     92  C   UNL A   1      28.304  30.988  23.567  1.00  0.00     0.004 A 
ATOM     93  C   UNL A   1      28.196  31.890  20.945  1.00  0.00     0.000 A 
ATOM     94  C   UNL A   1      28.469  32.347  23.292  1.00  0.00     0.000 A 
ATOM     95  C   UNL A   1      28.408  32.799  21.979  1.00  0.00     0.000 A 
ENDBRANCH  89  90
ENDBRANCH  88  89
ENDBRANCH  87  88
ENDBRANCH  86  87
ENDBRANCH  84  86
ENDBRANCH  77  80
ENDBRANCH  75  76
ENDBRANCH  74  75
ENDBRANCH   1  74
TORSDOF 21
ENDMDL
MODEL 3
REMARK VINA RESULT:     -10.9      5.421      8.805
REMARK SMILES O=C(NCCCCCCNC(=O)c1cncc(OCCCc2ccccc2)n1)c1ccc(-c2c3nc(c(-c4cc(S(=O)(=O)[O-])ccc4F)c4ccc([nH]4)c(-c4cc(S(=O)(=O)[O-])ccc4F)c4nc(c(-c5cc(S(=O)(=O)[O-])ccc5F)c5ccc2[nH]5)C=C4)C=C3)cc1
REMARK SMILES IDX 7 1 6 2 5 3 4 4 3 5 1 6 2 7 29 9 30 10 91 11 31 12 90 13
REMARK SMILES IDX 32 14 33 15 34 16 84 17 35 18 89 19 83 20 85 21 36 22 88 23
REMARK SMILES IDX 82 24 81 25 37 27 69 28 49 29 68 30 50 31 53 32 67 33 86 34
REMARK SMILES IDX 51 35 52 36 66 38 87 39 54 40 38 41 39 42 47 43 40 44 46 45
REMARK SMILES IDX 48 46 45 47 41 48 42 49 43 50 44 51 70 52 71 53 79 54 72 55
REMARK SMILES IDX 78 56 80 57 77 58 73 59 74 60 75 61 76 62 55 63 56 64 64 65
REMARK SMILES IDX 57 66 63 67 65 68 62 69 58 70 59 71 60 72 61 73 8 74 9 75
REMARK SMILES IDX 10 76 11 77 12 79 13 80 14 81 28 82 15 83 17 84 16 85 18 86
REMARK SMILES IDX 19 87 20 88 21 89 22 90 23 91 27 92 24 93 26 94 25 95
REMARK H PARENT 3 8 85 26 53 37 10 78
REMARK Flexibility Score: inf
ROOT
ATOM      1  C   UNL A   1      32.874  29.688  27.245  1.00  0.00     0.002 C 
ENDROOT
BRANCH   1   2
ATOM      2  C   UNL A   1      31.596  30.314  26.682  1.00  0.00     0.002 C 
BRANCH   2   3
ATOM      3  C   UNL A   1      31.509  31.838  26.753  1.00  0.00     0.021 C 
BRANCH   3   4
ATOM      4  C   UNL A   1      32.828  32.554  27.006  1.00  0.00     0.116 C 
BRANCH   4   5
ATOM      5  N   UNL A   1      32.654  33.913  27.489  1.00  0.00    -0.352 N 
ATOM      6  O   UNL A   1      32.931  35.655  28.896  1.00  0.00    -0.269 OA
ATOM      7  C   UNL A   1      33.295  34.546  28.533  1.00  0.00     0.251 C 
ATOM      8  H   UNL A   1      31.988  34.455  27.006  1.00  0.00     0.163 HD
BRANCH   7   9
ATOM      9  C   UNL A   1      34.414  33.860  29.223  1.00  0.00     0.039 A 
ATOM     10  C   UNL A   1      35.732  34.272  29.019  1.00  0.00     0.014 A 
ATOM     11  C   UNL A   1      34.141  32.785  30.076  1.00  0.00     0.014 A 
ATOM     12  C   UNL A   1      36.779  33.522  29.541  1.00  0.00     0.010 A 
ATOM     13  C   UNL A   1      35.196  32.091  30.681  1.00  0.00     0.010 A 
ATOM     14  C   UNL A   1      36.527  32.438  30.399  1.00  0.00    -0.014 A 
BRANCH  14  15
ATOM     15  C   UNL A   1      37.680  31.753  31.042  1.00  0.00     0.031 A 
ATOM     16  C   UNL A   1      38.520  30.752  30.296  1.00  0.00     0.074 A 
ATOM     17  C   UNL A   1      37.996  32.096  32.307  1.00  0.00     0.049 A 
ATOM     18  N   UNL A   1      39.586  30.109  30.702  1.00  0.00    -0.248 NA
ATOM     19  C   UNL A   1      38.111  30.424  28.923  1.00  0.00     0.031 C 
ATOM     20  C   UNL A   1      37.241  33.048  33.130  1.00  0.00     0.029 A 
ATOM     21  N   UNL A   1      39.037  31.718  33.115  1.00  0.00    -0.354 N 
ATOM     22  C   UNL A   1      39.976  29.297  29.642  1.00  0.00     0.074 A 
ATOM     23  C   UNL A   1      39.006  29.505  28.585  1.00  0.00     0.031 C 
ATOM     24  C   UNL A   1      37.876  33.223  34.297  1.00  0.00     0.029 A 
ATOM     25  C   UNL A   1      39.036  32.341  34.341  1.00  0.00     0.049 A 
ATOM     26  H   UNL A   1      39.720  31.063  32.844  1.00  0.00     0.167 HD
ATOM     27  C   UNL A   1      41.045  28.466  29.559  1.00  0.00     0.034 A 
ATOM     28  C   UNL A   1      39.862  32.206  35.397  1.00  0.00     0.034 A 
ATOM     29  C   UNL A   1      41.999  28.269  30.628  1.00  0.00     0.049 A 
ATOM     30  C   UNL A   1      41.019  31.252  35.285  1.00  0.00     0.074 A 
ATOM     31  C   UNL A   1      43.122  27.458  30.643  1.00  0.00     0.029 A 
ATOM     32  N   UNL A   1      41.941  28.882  31.873  1.00  0.00    -0.354 N 
ATOM     33  N   UNL A   1      41.376  30.503  34.266  1.00  0.00    -0.248 NA
ATOM     34  C   UNL A   1      41.887  31.128  36.460  1.00  0.00     0.031 C 
ATOM     35  C   UNL A   1      43.705  27.534  31.912  1.00  0.00     0.029 A 
ATOM     36  C   UNL A   1      42.992  28.448  32.669  1.00  0.00     0.049 A 
ATOM     37  H   UNL A   1      41.255  29.532  32.150  1.00  0.00     0.167 HD
ATOM     38  C   UNL A   1      42.519  29.828  34.678  1.00  0.00     0.074 A 
ATOM     39  C   UNL A   1      42.813  30.291  36.020  1.00  0.00     0.031 C 
ATOM     40  C   UNL A   1      43.257  28.901  34.014  1.00  0.00     0.034 A 
BRANCH  27  41
ATOM     41  C   UNL A   1      41.225  27.680  28.282  1.00  0.00     0.023 A 
ATOM     42  C   UNL A   1      40.903  26.313  28.203  1.00  0.00     0.031 A 
ATOM     43  C   UNL A   1      41.707  28.309  27.120  1.00  0.00     0.131 A 
ATOM     44  C   UNL A   1      41.115  25.611  27.006  1.00  0.00     0.055 A 
ATOM     45  C   UNL A   1      41.851  27.620  25.913  1.00  0.00     0.041 A 
ATOM     46  F   UNL A   1      42.047  29.608  27.138  1.00  0.00    -0.206 F 
ATOM     47  C   UNL A   1      41.563  26.260  25.854  1.00  0.00     0.022 A 
BRANCH  44  48
ATOM     48  S   UNL A   1      40.894  23.810  27.004  1.00  0.00     0.124 S 
ATOM     49  O   UNL A   1      39.466  23.687  26.715  1.00  0.00    -0.237 OA
ATOM     50  O   UNL A   1      41.797  23.382  25.941  1.00  0.00    -0.237 OA
ATOM     51  O   UNL A   1      41.286  23.413  28.354  1.00  0.00    -0.744 OA
ENDBRANCH  44  48
ENDBRANCH  27  41
BRANCH  28  52
ATOM     52  C   UNL A   1      39.601  32.954  36.661  1.00  0.00     0.023 A 
ATOM     53  C   UNL A   1      38.775  32.424  37.662  1.00  0.00     0.031 A 
ATOM     54  C   UNL A   1      40.139  34.240  36.861  1.00  0.00     0.131 A 
ATOM     55  C   UNL A   1      38.465  33.197  38.792  1.00  0.00     0.055 A 
ATOM     56  C   UNL A   1      39.881  34.977  38.016  1.00  0.00     0.041 A 
ATOM     57  F   UNL A   1      40.938  34.795  35.935  1.00  0.00    -0.206 F 
ATOM     58  C   UNL A   1      39.025  34.463  38.983  1.00  0.00     0.022 A 
BRANCH  55  59
ATOM     59  S   UNL A   1      37.228  32.568  39.960  1.00  0.00     0.124 S 
ATOM     60  O   UNL A   1      36.067  32.388  39.095  1.00  0.00    -0.237 OA
ATOM     61  O   UNL A   1      37.863  31.346  40.442  1.00  0.00    -0.237 OA
ATOM     62  O   UNL A   1      37.114  33.641  40.945  1.00  0.00    -0.744 OA
ENDBRANCH  55  59
ENDBRANCH  28  52
BRANCH  40  63
ATOM     63  C   UNL A   1      44.461  28.355  34.741  1.00  0.00     0.023 A 
ATOM     64  C   UNL A   1      44.371  27.210  35.554  1.00  0.00     0.031 A 
ATOM     65  C   UNL A   1      45.698  29.019  34.668  1.00  0.00     0.131 A 
ATOM     66  C   UNL A   1      45.475  26.810  36.321  1.00  0.00     0.055 A 
ATOM     67  C   UNL A   1      46.813  28.575  35.381  1.00  0.00     0.041 A 
ATOM     68  F   UNL A   1      45.840  30.119  33.910  1.00  0.00    -0.206 F 
ATOM     69  C   UNL A   1      46.699  27.475  36.227  1.00  0.00     0.022 A 
BRANCH  66  70
ATOM     70  S   UNL A   1      45.251  25.480  37.534  1.00  0.00     0.124 S 
ATOM     71  O   UNL A   1      45.804  26.078  38.745  1.00  0.00    -0.237 OA
ATOM     72  O   UNL A   1      43.805  25.286  37.521  1.00  0.00    -0.237 OA
ATOM     73  O   UNL A   1      46.029  24.374  36.977  1.00  0.00    -0.744 OA
ENDBRANCH  66  70
ENDBRANCH  40  63
ENDBRANCH  14  15
ENDBRANCH   7   9
ENDBRANCH   4   5
ENDBRANCH   3   4
ENDBRANCH   2   3
ENDBRANCH   1   2
BRANCH   1  74
ATOM     74  C   UNL A   1      33.294  28.338  26.655  1.00  0.00     0.021 C 
BRANCH  74  75
ATOM     75  C   UNL A   1      32.172  27.344  26.357  1.00  0.00     0.116 C 
BRANCH  75  76
ATOM     76  N   UNL A   1      32.596  25.960  26.431  1.00  0.00    -0.351 N 
ATOM     77  C   UNL A   1      32.972  25.111  25.416  1.00  0.00     0.271 C 
ATOM     78  H   UNL A   1      32.619  25.572  27.335  1.00  0.00     0.163 HD
ATOM     79  O   UNL A   1      33.347  23.972  25.686  1.00  0.00    -0.267 OA
BRANCH  77  80
ATOM     80  C   UNL A   1      32.885  25.549  24.004  1.00  0.00     0.150 A 
ATOM     81  C   UNL A   1      33.858  25.226  23.076  1.00  0.00     0.145 A 
ATOM     82  N   UNL A   1      31.778  26.262  23.679  1.00  0.00    -0.205 NA
ATOM     83  N   UNL A   1      33.770  25.622  21.780  1.00  0.00    -0.257 NA
ATOM     84  C   UNL A   1      31.679  26.649  22.398  1.00  0.00     0.233 A 
ATOM     85  C   UNL A   1      32.653  26.329  21.463  1.00  0.00     0.179 A 
BRANCH  84  86
ATOM     86  O   UNL A   1      30.537  27.292  21.990  1.00  0.00    -0.477 OA
BRANCH  86  87
ATOM     87  C   UNL A   1      29.951  28.132  22.996  1.00  0.00     0.232 C 
BRANCH  87  88
ATOM     88  C   UNL A   1      28.532  27.709  23.408  1.00  0.00     0.046 C 
BRANCH  88  89
ATOM     89  C   UNL A   1      27.374  28.646  23.025  1.00  0.00     0.039 C 
BRANCH  89  90
ATOM     90  C   UNL A   1      27.767  30.056  22.640  1.00  0.00    -0.048 A 
ATOM     91  C   UNL A   1      27.988  30.392  21.299  1.00  0.00     0.004 A 
ATOM     92  C   UNL A   1      27.884  31.066  23.604  1.00  0.00     0.004 A 
ATOM     93  C   UNL A   1      28.316  31.702  20.937  1.00  0.00     0.000 A 
ATOM     94  C   UNL A   1      28.231  32.370  23.247  1.00  0.00     0.000 A 
ATOM     95  C   UNL A   1      28.442  32.690  21.912  1.00  0.00     0.000 A 
ENDBRANCH  89  90
ENDBRANCH  88  89
ENDBRANCH  87  88
ENDBRANCH  86  87
ENDBRANCH  84  86
ENDBRANCH  77  80
ENDBRANCH  75  76
ENDBRANCH  74  75
ENDBRANCH   1  74
TORSDOF 21
ENDMDL
