MODEL 1
REMARK VINA RESULT:     -10.7      0.000      0.000
REMARK SMILES O=C(COc1ccc(/C=N/NC(=O)c2cc3cc([N+](=O)[O-])ccc3o2)cc1)NCCCCCCNC(=O)c1ccc(-c2c3nc(c(-c4cc(S(=O)(=O)[O-])ccc4F)c4ccc([nH]4)c(-c4cc(S(=O)(=O)[O-])ccc4F)c4nc(c(-c5cc(S(=O)(=O)[O-])ccc5F)c5ccc2[nH]5)C=C4)C=C3)cc1
REMARK SMILES IDX 30 1 29 2 28 3 1 4 2 5 3 7 4 8 5 9 6 10 27 11 7 12 26 13
REMARK SMILES IDX 8 14 9 15 10 16 11 17 12 18 13 20 14 21 15 22 25 23 16 24
REMARK SMILES IDX 24 25 17 26 23 27 18 28 22 29 19 30 20 31 21 32 31 33 32 34
REMARK SMILES IDX 33 35 34 36 35 37 36 38 37 40 38 41 39 42 100 43 40 44 99 45
REMARK SMILES IDX 41 46 42 47 43 48 93 49 44 50 98 51 92 52 94 53 45 54 97 55
REMARK SMILES IDX 91 56 90 57 46 59 78 60 58 61 77 62 59 63 62 64 76 65 95 66
REMARK SMILES IDX 60 67 61 68 75 70 96 71 63 72 47 73 48 74 56 75 49 76 55 77
REMARK SMILES IDX 57 78 54 79 50 80 51 81 52 82 53 83 79 84 80 85 88 86 81 87
REMARK SMILES IDX 87 88 89 89 86 90 82 91 83 92 84 93 85 94 64 95 65 96 73 97
REMARK SMILES IDX 66 98 72 99 74 100 71 101 67 102 68 103 69 104 70 105
REMARK H PARENT 28 6 11 19 35 39 94 58 62 69
REMARK Flexibility Score: inf
ROOT
ATOM      1  C   UNL A   1      37.309  18.889  24.968  1.00  0.00     0.021 C 
ENDROOT
BRANCH   1   2
ATOM      2  C   UNL A   1      36.703  17.531  25.294  1.00  0.00     0.116 C 
BRANCH   2   3
ATOM      3  N   UNL A   1      35.279  17.484  25.044  1.00  0.00    -0.353 N 
ATOM      4  O   UNL A   1      35.030  15.215  25.336  1.00  0.00    -0.271 OA
ATOM      5  C   UNL A   1      34.538  16.328  25.178  1.00  0.00     0.257 C 
ATOM      6  H   UNL A   1      34.820  18.309  24.765  1.00  0.00     0.163 HD
BRANCH   5   7
ATOM      7  C   UNL A   1      33.024  16.552  25.150  1.00  0.00     0.329 C 
BRANCH   7   8
ATOM      8  O   UNL A   1      32.559  17.824  25.595  1.00  0.00    -0.484 OA
BRANCH   8   9
ATOM      9  C   UNL A   1      32.588  18.827  24.662  1.00  0.00     0.120 A 
ATOM     10  C   UNL A   1      32.677  20.126  25.163  1.00  0.00     0.047 A 
ATOM     11  C   UNL A   1      32.402  18.631  23.291  1.00  0.00     0.047 A 
ATOM     12  C   UNL A   1      32.577  21.220  24.298  1.00  0.00     0.013 A 
ATOM     13  C   UNL A   1      32.269  19.719  22.426  1.00  0.00     0.013 A 
ATOM     14  C   UNL A   1      32.351  21.012  22.931  1.00  0.00    -0.005 A 
BRANCH  14  15
ATOM     15  C   UNL A   1      32.068  22.147  22.027  1.00  0.00     0.141 C 
ATOM     16  N   UNL A   1      33.042  22.775  21.469  1.00  0.00    -0.180 NA
BRANCH  16  17
ATOM     17  N   UNL A   1      32.860  23.939  20.803  1.00  0.00    -0.240 N 
ATOM     18  C   UNL A   1      32.885  25.274  21.133  1.00  0.00     0.307 C 
ATOM     19  H   UNL A   1      32.660  23.796  19.850  1.00  0.00     0.194 HD
ATOM     20  O   UNL A   1      33.139  26.054  20.208  1.00  0.00    -0.264 OA
BRANCH  18  21
ATOM     21  C   UNL A   1      32.512  25.796  22.431  1.00  0.00     0.194 A 
ATOM     22  C   UNL A   1      31.353  25.568  23.163  1.00  0.00     0.065 A 
ATOM     23  O   UNL A   1      33.558  25.977  23.305  1.00  0.00    -0.451 OA
ATOM     24  C   UNL A   1      31.796  25.196  24.469  1.00  0.00     0.028 A 
ATOM     25  C   UNL A   1      33.157  25.472  24.501  1.00  0.00     0.135 A 
ATOM     26  C   UNL A   1      31.217  24.514  25.556  1.00  0.00     0.097 A 
ATOM     27  C   UNL A   1      34.009  25.136  25.550  1.00  0.00     0.055 A 
ATOM     28  C   UNL A   1      32.083  24.044  26.564  1.00  0.00     0.270 A 
ATOM     29  C   UNL A   1      33.452  24.363  26.574  1.00  0.00     0.089 A 
BRANCH  28  30
ATOM     30  N   UNL A   1      31.563  23.099  27.564  1.00  0.00     0.062 N 
ATOM     31  O   UNL A   1      32.384  22.501  28.273  1.00  0.00    -0.258 OA
ATOM     32  O   UNL A   1      30.332  22.981  27.656  1.00  0.00    -0.258 OA
ENDBRANCH  28  30
ENDBRANCH  18  21
ENDBRANCH  16  17
ENDBRANCH  14  15
ENDBRANCH   8   9
ENDBRANCH   7   8
ENDBRANCH   5   7
ENDBRANCH   2   3
ENDBRANCH   1   2
BRANCH   1  33
ATOM     33  C   UNL A   1      36.287  20.024  24.837  1.00  0.00     0.002 C 
BRANCH  33  34
ATOM     34  C   UNL A   1      36.866  21.402  24.497  1.00  0.00     0.002 C 
BRANCH  34  35
ATOM     35  C   UNL A   1      36.505  22.527  25.471  1.00  0.00     0.021 C 
BRANCH  35  36
ATOM     36  C   UNL A   1      37.675  23.395  25.920  1.00  0.00     0.116 C 
BRANCH  36  37
ATOM     37  N   UNL A   1      38.944  22.685  25.884  1.00  0.00    -0.352 N 
ATOM     38  C   UNL A   1      40.200  23.137  26.215  1.00  0.00     0.251 C 
ATOM     39  H   UNL A   1      38.897  21.750  25.580  1.00  0.00     0.163 HD
ATOM     40  O   UNL A   1      41.182  22.445  25.964  1.00  0.00    -0.269 OA
BRANCH  38  41
ATOM     41  C   UNL A   1      40.362  24.468  26.843  1.00  0.00     0.039 A 
ATOM     42  C   UNL A   1      40.241  24.583  28.231  1.00  0.00     0.014 A 
ATOM     43  C   UNL A   1      40.640  25.597  26.069  1.00  0.00     0.014 A 
ATOM     44  C   UNL A   1      40.465  25.818  28.847  1.00  0.00     0.010 A 
ATOM     45  C   UNL A   1      40.929  26.810  26.690  1.00  0.00     0.010 A 
ATOM     46  C   UNL A   1      40.845  26.935  28.086  1.00  0.00    -0.014 A 
BRANCH  46  47
ATOM     47  C   UNL A   1      41.147  28.247  28.722  1.00  0.00     0.031 A 
ATOM     48  C   UNL A   1      42.579  28.637  28.983  1.00  0.00     0.074 A 
ATOM     49  C   UNL A   1      40.142  29.047  29.131  1.00  0.00     0.049 A 
ATOM     50  N   UNL A   1      43.050  29.667  29.636  1.00  0.00    -0.248 NA
ATOM     51  C   UNL A   1      43.615  27.730  28.463  1.00  0.00     0.031 C 
ATOM     52  C   UNL A   1      38.714  28.768  28.957  1.00  0.00     0.029 A 
ATOM     53  N   UNL A   1      40.163  30.250  29.793  1.00  0.00    -0.354 N 
ATOM     54  C   UNL A   1      44.434  29.523  29.627  1.00  0.00     0.074 A 
ATOM     55  C   UNL A   1      44.721  28.280  28.943  1.00  0.00     0.031 C 
ATOM     56  C   UNL A   1      38.001  29.776  29.485  1.00  0.00     0.029 A 
ATOM     57  C   UNL A   1      38.912  30.747  30.083  1.00  0.00     0.049 A 
ATOM     58  H   UNL A   1      40.995  30.715  30.038  1.00  0.00     0.167 HD
ATOM     59  C   UNL A   1      45.377  30.358  30.128  1.00  0.00     0.034 A 
ATOM     60  C   UNL A   1      38.541  31.848  30.771  1.00  0.00     0.034 A 
ATOM     61  C   UNL A   1      45.077  31.608  30.782  1.00  0.00     0.049 A 
ATOM     62  C   UNL A   1      39.613  32.748  31.337  1.00  0.00     0.074 A 
ATOM     63  C   UNL A   1      45.959  32.555  31.273  1.00  0.00     0.029 A 
ATOM     64  N   UNL A   1      43.798  32.083  31.043  1.00  0.00    -0.354 N 
ATOM     65  N   UNL A   1      40.918  32.618  31.281  1.00  0.00    -0.248 NA
ATOM     66  C   UNL A   1      39.163  33.951  32.053  1.00  0.00     0.031 C 
ATOM     67  C   UNL A   1      45.217  33.568  31.888  1.00  0.00     0.029 A 
ATOM     68  C   UNL A   1      43.871  33.296  31.711  1.00  0.00     0.049 A 
ATOM     69  H   UNL A   1      42.964  31.627  30.790  1.00  0.00     0.167 HD
ATOM     70  C   UNL A   1      41.441  33.745  31.910  1.00  0.00     0.074 A 
ATOM     71  C   UNL A   1      40.312  34.546  32.333  1.00  0.00     0.031 C 
ATOM     72  C   UNL A   1      42.737  34.091  32.115  1.00  0.00     0.034 A 
BRANCH  59  73
ATOM     73  C   UNL A   1      46.822  29.938  30.011  1.00  0.00     0.023 A 
ATOM     74  C   UNL A   1      47.631  30.353  28.941  1.00  0.00     0.031 A 
ATOM     75  C   UNL A   1      47.401  29.114  30.993  1.00  0.00     0.131 A 
ATOM     76  C   UNL A   1      48.955  29.898  28.845  1.00  0.00     0.055 A 
ATOM     77  C   UNL A   1      48.741  28.727  30.934  1.00  0.00     0.041 A 
ATOM     78  F   UNL A   1      46.672  28.668  32.028  1.00  0.00    -0.206 F 
ATOM     79  C   UNL A   1      49.524  29.111  29.849  1.00  0.00     0.022 A 
BRANCH  76  80
ATOM     80  S   UNL A   1      49.889  30.256  27.332  1.00  0.00     0.124 S 
ATOM     81  O   UNL A   1      51.022  31.013  27.859  1.00  0.00    -0.237 OA
ATOM     82  O   UNL A   1      50.192  28.922  26.825  1.00  0.00    -0.237 OA
ATOM     83  O   UNL A   1      48.950  31.033  26.525  1.00  0.00    -0.744 OA
ENDBRANCH  76  80
ENDBRANCH  59  73
BRANCH  60  84
ATOM     84  C   UNL A   1      37.098  32.163  30.989  1.00  0.00     0.023 A 
ATOM     85  C   UNL A   1      36.347  32.824  30.004  1.00  0.00     0.031 A 
ATOM     86  C   UNL A   1      36.468  31.883  32.215  1.00  0.00     0.131 A 
ATOM     87  C   UNL A   1      35.037  33.244  30.282  1.00  0.00     0.055 A 
ATOM     88  C   UNL A   1      35.142  32.245  32.464  1.00  0.00     0.041 A 
ATOM     89  F   UNL A   1      37.136  31.251  33.194  1.00  0.00    -0.206 F 
ATOM     90  C   UNL A   1      34.425  32.946  31.501  1.00  0.00     0.022 A 
BRANCH  87  91
ATOM     91  S   UNL A   1      34.190  34.298  29.072  1.00  0.00     0.124 S 
ATOM     92  O   UNL A   1      33.508  33.309  28.246  1.00  0.00    -0.237 OA
ATOM     93  O   UNL A   1      33.339  35.115  29.929  1.00  0.00    -0.237 OA
ATOM     94  O   UNL A   1      35.285  35.011  28.419  1.00  0.00    -0.744 OA
ENDBRANCH  87  91
ENDBRANCH  60  84
BRANCH  72  95
ATOM     95  C   UNL A   1      43.003  35.429  32.760  1.00  0.00     0.023 A 
ATOM     96  C   UNL A   1      43.376  36.558  32.012  1.00  0.00     0.031 A 
ATOM     97  C   UNL A   1      42.872  35.571  34.154  1.00  0.00     0.131 A 
ATOM     98  C   UNL A   1      43.652  37.768  32.666  1.00  0.00     0.055 A 
ATOM     99  C   UNL A   1      43.090  36.792  34.791  1.00  0.00     0.041 A 
ATOM    100  F   UNL A   1      42.520  34.524  34.917  1.00  0.00    -0.206 F 
ATOM    101  C   UNL A   1      43.493  37.897  34.048  1.00  0.00     0.022 A 
BRANCH  98 102
ATOM    102  S   UNL A   1      44.295  39.159  31.694  1.00  0.00     0.124 S 
ATOM    103  O   UNL A   1      43.831  40.308  32.465  1.00  0.00    -0.237 OA
ATOM    104  O   UNL A   1      45.733  38.917  31.714  1.00  0.00    -0.237 OA
ATOM    105  O   UNL A   1      43.657  38.989  30.389  1.00  0.00    -0.744 OA
ENDBRANCH  98 102
ENDBRANCH  72  95
ENDBRANCH  46  47
ENDBRANCH  38  41
ENDBRANCH  36  37
ENDBRANCH  35  36
ENDBRANCH  34  35
ENDBRANCH  33  34
ENDBRANCH   1  33
TORSDOF 22
ENDMDL
MODEL 2
REMARK VINA RESULT:     -10.3      1.980      3.438
REMARK SMILES O=C(COc1ccc(/C=N/NC(=O)c2cc3cc([N+](=O)[O-])ccc3o2)cc1)NCCCCCCNC(=O)c1ccc(-c2c3nc(c(-c4cc(S(=O)(=O)[O-])ccc4F)c4ccc([nH]4)c(-c4cc(S(=O)(=O)[O-])ccc4F)c4nc(c(-c5cc(S(=O)(=O)[O-])ccc5F)c5ccc2[nH]5)C=C4)C=C3)cc1
REMARK SMILES IDX 30 1 29 2 28 3 1 4 2 5 3 7 4 8 5 9 6 10 27 11 7 12 26 13
REMARK SMILES IDX 8 14 9 15 10 16 11 17 12 18 13 20 14 21 15 22 25 23 16 24
REMARK SMILES IDX 24 25 17 26 23 27 18 28 22 29 19 30 20 31 21 32 31 33 32 34
REMARK SMILES IDX 33 35 34 36 35 37 36 38 37 40 38 41 39 42 100 43 40 44 99 45
REMARK SMILES IDX 41 46 42 47 43 48 93 49 44 50 98 51 92 52 94 53 45 54 97 55
REMARK SMILES IDX 91 56 90 57 46 59 78 60 58 61 77 62 59 63 62 64 76 65 95 66
REMARK SMILES IDX 60 67 61 68 75 70 96 71 63 72 47 73 48 74 56 75 49 76 55 77
REMARK SMILES IDX 57 78 54 79 50 80 51 81 52 82 53 83 79 84 80 85 88 86 81 87
REMARK SMILES IDX 87 88 89 89 86 90 82 91 83 92 84 93 85 94 64 95 65 96 73 97
REMARK SMILES IDX 66 98 72 99 74 100 71 101 67 102 68 103 69 104 70 105
REMARK H PARENT 28 6 11 19 35 39 94 58 62 69
REMARK Flexibility Score: inf
ROOT
ATOM      1  C   UNL A   1      35.697  22.267  26.172  1.00  0.00     0.021 C 
ENDROOT
BRANCH   1   2
ATOM      2  C   UNL A   1      35.614  21.206  25.082  1.00  0.00     0.116 C 
BRANCH   2   3
ATOM      3  N   UNL A   1      34.277  21.062  24.549  1.00  0.00    -0.353 N 
ATOM      4  O   UNL A   1      33.639  19.307  25.892  1.00  0.00    -0.271 OA
ATOM      5  C   UNL A   1      33.360  20.173  25.069  1.00  0.00     0.257 C 
ATOM      6  H   UNL A   1      34.011  21.621  23.782  1.00  0.00     0.163 HD
BRANCH   5   7
ATOM      7  C   UNL A   1      31.932  20.379  24.556  1.00  0.00     0.329 C 
BRANCH   7   8
ATOM      8  O   UNL A   1      31.114  21.281  25.296  1.00  0.00    -0.484 OA
BRANCH   8   9
ATOM      9  C   UNL A   1      31.637  22.530  25.499  1.00  0.00     0.120 A 
ATOM     10  C   UNL A   1      32.095  22.800  26.788  1.00  0.00     0.047 A 
ATOM     11  C   UNL A   1      31.612  23.556  24.551  1.00  0.00     0.047 A 
ATOM     12  C   UNL A   1      32.521  24.088  27.128  1.00  0.00     0.013 A 
ATOM     13  C   UNL A   1      32.006  24.852  24.891  1.00  0.00     0.013 A 
ATOM     14  C   UNL A   1      32.455  25.118  26.180  1.00  0.00    -0.005 A 
BRANCH  14  15
ATOM     15  C   UNL A   1      32.731  26.519  26.561  1.00  0.00     0.141 C 
ATOM     16  N   UNL A   1      31.823  27.208  27.157  1.00  0.00    -0.180 NA
BRANCH  16  17
ATOM     17  N   UNL A   1      31.939  28.544  27.343  1.00  0.00    -0.240 N 
ATOM     18  C   UNL A   1      31.780  29.662  26.560  1.00  0.00     0.307 C 
ATOM     19  H   UNL A   1      32.203  28.769  28.265  1.00  0.00     0.194 HD
ATOM     20  O   UNL A   1      31.510  30.708  27.161  1.00  0.00    -0.264 OA
BRANCH  18  21
ATOM     21  C   UNL A   1      32.033  29.697  25.135  1.00  0.00     0.194 A 
ATOM     22  C   UNL A   1      33.184  29.334  24.444  1.00  0.00     0.065 A 
ATOM     23  O   UNL A   1      30.941  29.429  24.344  1.00  0.00    -0.451 OA
ATOM     24  C   UNL A   1      32.742  28.458  23.407  1.00  0.00     0.028 A 
ATOM     25  C   UNL A   1      31.357  28.559  23.388  1.00  0.00     0.135 A 
ATOM     26  C   UNL A   1      33.361  27.483  22.601  1.00  0.00     0.097 A 
ATOM     27  C   UNL A   1      30.515  27.769  22.609  1.00  0.00     0.055 A 
ATOM     28  C   UNL A   1      32.524  26.583  21.910  1.00  0.00     0.270 A 
ATOM     29  C   UNL A   1      31.126  26.732  21.897  1.00  0.00     0.089 A 
BRANCH  28  30
ATOM     30  N   UNL A   1      33.121  25.392  21.286  1.00  0.00     0.062 N 
ATOM     31  O   UNL A   1      33.780  24.633  22.009  1.00  0.00    -0.258 OA
ATOM     32  O   UNL A   1      32.903  25.207  20.080  1.00  0.00    -0.258 OA
ENDBRANCH  28  30
ENDBRANCH  18  21
ENDBRANCH  16  17
ENDBRANCH  14  15
ENDBRANCH   8   9
ENDBRANCH   7   8
ENDBRANCH   5   7
ENDBRANCH   2   3
ENDBRANCH   1   2
BRANCH   1  33
ATOM     33  C   UNL A   1      36.861  23.251  26.009  1.00  0.00     0.002 C 
BRANCH  33  34
ATOM     34  C   UNL A   1      38.089  22.709  25.269  1.00  0.00     0.002 C 
BRANCH  34  35
ATOM     35  C   UNL A   1      39.104  21.960  26.137  1.00  0.00     0.021 C 
BRANCH  35  36
ATOM     36  C   UNL A   1      40.346  22.758  26.518  1.00  0.00     0.116 C 
BRANCH  36  37
ATOM     37  N   UNL A   1      41.504  22.406  25.712  1.00  0.00    -0.352 N 
ATOM     38  C   UNL A   1      42.599  23.172  25.388  1.00  0.00     0.251 C 
ATOM     39  H   UNL A   1      41.504  21.493  25.346  1.00  0.00     0.163 HD
ATOM     40  O   UNL A   1      43.404  22.763  24.556  1.00  0.00    -0.269 OA
BRANCH  38  41
ATOM     41  C   UNL A   1      42.785  24.498  26.021  1.00  0.00     0.039 A 
ATOM     42  C   UNL A   1      42.562  25.650  25.262  1.00  0.00     0.014 A 
ATOM     43  C   UNL A   1      43.171  24.605  27.359  1.00  0.00     0.014 A 
ATOM     44  C   UNL A   1      42.662  26.908  25.864  1.00  0.00     0.010 A 
ATOM     45  C   UNL A   1      43.204  25.855  27.974  1.00  0.00     0.010 A 
ATOM     46  C   UNL A   1      42.950  27.021  27.234  1.00  0.00    -0.014 A 
BRANCH  46  47
ATOM     47  C   UNL A   1      43.003  28.344  27.914  1.00  0.00     0.031 A 
ATOM     48  C   UNL A   1      44.331  29.022  28.124  1.00  0.00     0.074 A 
ATOM     49  C   UNL A   1      41.875  28.895  28.408  1.00  0.00     0.049 A 
ATOM     50  N   UNL A   1      44.610  30.106  28.800  1.00  0.00    -0.248 NA
ATOM     51  C   UNL A   1      45.505  28.377  27.514  1.00  0.00     0.031 C 
ATOM     52  C   UNL A   1      40.532  28.324  28.290  1.00  0.00     0.029 A 
ATOM     53  N   UNL A   1      41.679  30.051  29.123  1.00  0.00    -0.354 N 
ATOM     54  C   UNL A   1      45.990  30.261  28.719  1.00  0.00     0.074 A 
ATOM     55  C   UNL A   1      46.495  29.133  27.966  1.00  0.00     0.031 C 
ATOM     56  C   UNL A   1      39.652  29.136  28.897  1.00  0.00     0.029 A 
ATOM     57  C   UNL A   1      40.369  30.259  29.494  1.00  0.00     0.049 A 
ATOM     58  H   UNL A   1      42.406  30.675  29.348  1.00  0.00     0.167 HD
ATOM     59  C   UNL A   1      46.762  31.261  29.212  1.00  0.00     0.034 A 
ATOM     60  C   UNL A   1      39.813  31.230  30.249  1.00  0.00     0.034 A 
ATOM     61  C   UNL A   1      46.241  32.395  29.936  1.00  0.00     0.049 A 
ATOM     62  C   UNL A   1      40.700  32.319  30.804  1.00  0.00     0.074 A 
ATOM     63  C   UNL A   1      46.928  33.492  30.427  1.00  0.00     0.029 A 
ATOM     64  N   UNL A   1      44.907  32.576  30.279  1.00  0.00    -0.354 N 
ATOM     65  N   UNL A   1      41.998  32.473  30.679  1.00  0.00    -0.248 NA
ATOM     66  C   UNL A   1      40.046  33.372  31.595  1.00  0.00     0.031 C 
ATOM     67  C   UNL A   1      46.025  34.299  31.123  1.00  0.00     0.029 A 
ATOM     68  C   UNL A   1      44.759  33.752  30.998  1.00  0.00     0.049 A 
ATOM     69  H   UNL A   1      44.175  31.961  30.046  1.00  0.00     0.167 HD
ATOM     70  C   UNL A   1      42.304  33.664  31.334  1.00  0.00     0.074 A 
ATOM     71  C   UNL A   1      41.057  34.189  31.847  1.00  0.00     0.031 C 
ATOM     72  C   UNL A   1      43.507  34.271  31.492  1.00  0.00     0.034 A 
BRANCH  59  73
ATOM     73  C   UNL A   1      48.253  31.165  29.007  1.00  0.00     0.023 A 
ATOM     74  C   UNL A   1      48.886  31.723  27.883  1.00  0.00     0.031 A 
ATOM     75  C   UNL A   1      49.057  30.509  29.956  1.00  0.00     0.131 A 
ATOM     76  C   UNL A   1      50.269  31.567  27.707  1.00  0.00     0.055 A 
ATOM     77  C   UNL A   1      50.443  30.423  29.815  1.00  0.00     0.041 A 
ATOM     78  F   UNL A   1      48.508  29.938  31.039  1.00  0.00    -0.206 F 
ATOM     79  C   UNL A   1      51.056  30.945  28.679  1.00  0.00     0.022 A 
BRANCH  76  80
ATOM     80  S   UNL A   1      51.009  32.086  26.135  1.00  0.00     0.124 S 
ATOM     81  O   UNL A   1      52.302  32.603  26.577  1.00  0.00    -0.237 OA
ATOM     82  O   UNL A   1      51.044  30.842  25.376  1.00  0.00    -0.237 OA
ATOM     83  O   UNL A   1      50.079  33.098  25.636  1.00  0.00    -0.744 OA
ENDBRANCH  76  80
ENDBRANCH  59  73
BRANCH  60  84
ATOM     84  C   UNL A   1      38.350  31.221  30.551  1.00  0.00     0.023 A 
ATOM     85  C   UNL A   1      37.444  31.926  29.743  1.00  0.00     0.031 A 
ATOM     86  C   UNL A   1      37.846  30.577  31.694  1.00  0.00     0.131 A 
ATOM     87  C   UNL A   1      36.097  32.030  30.125  1.00  0.00     0.055 A 
ATOM     88  C   UNL A   1      36.492  30.628  32.035  1.00  0.00     0.041 A 
ATOM     89  F   UNL A   1      38.666  29.886  32.502  1.00  0.00    -0.206 F 
ATOM     90  C   UNL A   1      35.612  31.373  31.257  1.00  0.00     0.022 A 
BRANCH  87  91
ATOM     91  S   UNL A   1      35.014  33.142  29.185  1.00  0.00     0.124 S 
ATOM     92  O   UNL A   1      35.952  34.171  28.752  1.00  0.00    -0.237 OA
ATOM     93  O   UNL A   1      34.505  32.257  28.143  1.00  0.00    -0.237 OA
ATOM     94  O   UNL A   1      34.028  33.571  30.175  1.00  0.00    -0.744 OA
ENDBRANCH  87  91
ENDBRANCH  60  84
BRANCH  72  95
ATOM     95  C   UNL A   1      43.520  35.612  32.184  1.00  0.00     0.023 A 
ATOM     96  C   UNL A   1      43.538  36.822  31.470  1.00  0.00     0.031 A 
ATOM     97  C   UNL A   1      43.506  35.673  33.590  1.00  0.00     0.131 A 
ATOM     98  C   UNL A   1      43.591  38.041  32.163  1.00  0.00     0.055 A 
ATOM     99  C   UNL A   1      43.498  36.889  34.273  1.00  0.00     0.041 A 
ATOM    100  F   UNL A   1      43.490  34.547  34.322  1.00  0.00    -0.206 F 
ATOM    101  C   UNL A   1      43.552  38.082  33.560  1.00  0.00     0.022 A 
BRANCH  98 102
ATOM    102  S   UNL A   1      43.786  39.576  31.216  1.00  0.00     0.124 S 
ATOM    103  O   UNL A   1      42.760  40.429  31.807  1.00  0.00    -0.237 OA
ATOM    104  O   UNL A   1      45.167  39.947  31.504  1.00  0.00    -0.237 OA
ATOM    105  O   UNL A   1      43.531  39.162  29.837  1.00  0.00    -0.744 OA
ENDBRANCH  98 102
ENDBRANCH  72  95
ENDBRANCH  46  47
ENDBRANCH  38  41
ENDBRANCH  36  37
ENDBRANCH  35  36
ENDBRANCH  34  35
ENDBRANCH  33  34
ENDBRANCH   1  33
TORSDOF 22
ENDMDL
MODEL 3
REMARK VINA RESULT:     -10.3      2.260      3.611
REMARK SMILES O=C(COc1ccc(/C=N/NC(=O)c2cc3cc([N+](=O)[O-])ccc3o2)cc1)NCCCCCCNC(=O)c1ccc(-c2c3nc(c(-c4cc(S(=O)(=O)[O-])ccc4F)c4ccc([nH]4)c(-c4cc(S(=O)(=O)[O-])ccc4F)c4nc(c(-c5cc(S(=O)(=O)[O-])ccc5F)c5ccc2[nH]5)C=C4)C=C3)cc1
REMARK SMILES IDX 30 1 29 2 28 3 1 4 2 5 3 7 4 8 5 9 6 10 27 11 7 12 26 13
REMARK SMILES IDX 8 14 9 15 10 16 11 17 12 18 13 20 14 21 15 22 25 23 16 24
REMARK SMILES IDX 24 25 17 26 23 27 18 28 22 29 19 30 20 31 21 32 31 33 32 34
REMARK SMILES IDX 33 35 34 36 35 37 36 38 37 40 38 41 39 42 100 43 40 44 99 45
REMARK SMILES IDX 41 46 42 47 43 48 93 49 44 50 98 51 92 52 94 53 45 54 97 55
REMARK SMILES IDX 91 56 90 57 46 59 78 60 58 61 77 62 59 63 62 64 76 65 95 66
REMARK SMILES IDX 60 67 61 68 75 70 96 71 63 72 47 73 48 74 56 75 49 76 55 77
REMARK SMILES IDX 57 78 54 79 50 80 51 81 52 82 53 83 79 84 80 85 88 86 81 87
REMARK SMILES IDX 87 88 89 89 86 90 82 91 83 92 84 93 85 94 64 95 65 96 73 97
REMARK SMILES IDX 66 98 72 99 74 100 71 101 67 102 68 103 69 104 70 105
REMARK H PARENT 28 6 11 19 35 39 94 58 62 69
REMARK Flexibility Score: inf
ROOT
ATOM      1  C   UNL A   1      36.557  21.513  25.855  1.00  0.00     0.021 C 
ENDROOT
BRANCH   1   2
ATOM      2  C   UNL A   1      35.822  20.449  25.051  1.00  0.00     0.116 C 
BRANCH   2   3
ATOM      3  N   UNL A   1      34.547  20.913  24.550  1.00  0.00    -0.353 N 
ATOM      4  O   UNL A   1      33.618  18.835  24.215  1.00  0.00    -0.271 OA
ATOM      5  C   UNL A   1      33.507  20.056  24.258  1.00  0.00     0.257 C 
ATOM      6  H   UNL A   1      34.416  21.879  24.412  1.00  0.00     0.163 HD
BRANCH   5   7
ATOM      7  C   UNL A   1      32.167  20.760  24.022  1.00  0.00     0.329 C 
BRANCH   7   8
ATOM      8  O   UNL A   1      31.396  21.067  25.180  1.00  0.00    -0.484 OA
BRANCH   8   9
ATOM      9  C   UNL A   1      31.529  22.342  25.662  1.00  0.00     0.120 A 
ATOM     10  C   UNL A   1      31.073  23.363  24.829  1.00  0.00     0.047 A 
ATOM     11  C   UNL A   1      32.198  22.669  26.845  1.00  0.00     0.047 A 
ATOM     12  C   UNL A   1      31.288  24.701  25.175  1.00  0.00     0.013 A 
ATOM     13  C   UNL A   1      32.445  24.001  27.181  1.00  0.00     0.013 A 
ATOM     14  C   UNL A   1      31.995  25.015  26.343  1.00  0.00    -0.005 A 
BRANCH  14  15
ATOM     15  C   UNL A   1      32.387  26.409  26.641  1.00  0.00     0.141 C 
ATOM     16  N   UNL A   1      31.512  27.233  27.101  1.00  0.00    -0.180 NA
BRANCH  16  17
ATOM     17  N   UNL A   1      31.754  28.561  27.197  1.00  0.00    -0.240 N 
ATOM     18  C   UNL A   1      31.788  29.619  26.319  1.00  0.00     0.307 C 
ATOM     19  H   UNL A   1      31.957  28.837  28.120  1.00  0.00     0.194 HD
ATOM     20  O   UNL A   1      31.579  30.734  26.810  1.00  0.00    -0.264 OA
BRANCH  18  21
ATOM     21  C   UNL A   1      32.171  29.507  24.928  1.00  0.00     0.194 A 
ATOM     22  C   UNL A   1      33.352  29.013  24.384  1.00  0.00     0.065 A 
ATOM     23  O   UNL A   1      31.138  29.234  24.062  1.00  0.00    -0.451 OA
ATOM     24  C   UNL A   1      32.946  28.072  23.389  1.00  0.00     0.028 A 
ATOM     25  C   UNL A   1      31.579  28.255  23.229  1.00  0.00     0.135 A 
ATOM     26  C   UNL A   1      33.566  26.992  22.734  1.00  0.00     0.097 A 
ATOM     27  C   UNL A   1      30.758  27.449  22.443  1.00  0.00     0.055 A 
ATOM     28  C   UNL A   1      32.735  26.084  22.046  1.00  0.00     0.270 A 
ATOM     29  C   UNL A   1      31.358  26.316  21.885  1.00  0.00     0.089 A 
BRANCH  28  30
ATOM     30  N   UNL A   1      33.303  24.807  21.587  1.00  0.00     0.062 N 
ATOM     31  O   UNL A   1      33.277  24.568  20.373  1.00  0.00    -0.258 OA
ATOM     32  O   UNL A   1      33.801  24.061  22.444  1.00  0.00    -0.258 OA
ENDBRANCH  28  30
ENDBRANCH  18  21
ENDBRANCH  16  17
ENDBRANCH  14  15
ENDBRANCH   8   9
ENDBRANCH   7   8
ENDBRANCH   5   7
ENDBRANCH   2   3
ENDBRANCH   1   2
BRANCH   1  33
ATOM     33  C   UNL A   1      36.663  22.874  25.156  1.00  0.00     0.002 C 
BRANCH  33  34
ATOM     34  C   UNL A   1      38.076  23.457  25.052  1.00  0.00     0.002 C 
BRANCH  34  35
ATOM     35  C   UNL A   1      38.802  23.668  26.383  1.00  0.00     0.021 C 
BRANCH  35  36
ATOM     36  C   UNL A   1      39.574  22.459  26.899  1.00  0.00     0.116 C 
BRANCH  36  37
ATOM     37  N   UNL A   1      40.772  22.188  26.121  1.00  0.00    -0.352 N 
ATOM     38  C   UNL A   1      41.811  23.033  25.806  1.00  0.00     0.251 C 
ATOM     39  H   UNL A   1      40.851  21.272  25.770  1.00  0.00     0.163 HD
ATOM     40  O   UNL A   1      42.663  22.676  24.997  1.00  0.00    -0.269 OA
BRANCH  38  41
ATOM     41  C   UNL A   1      41.880  24.378  26.421  1.00  0.00     0.039 A 
ATOM     42  C   UNL A   1      42.219  24.490  27.772  1.00  0.00     0.014 A 
ATOM     43  C   UNL A   1      41.618  25.524  25.668  1.00  0.00     0.014 A 
ATOM     44  C   UNL A   1      42.360  25.755  28.350  1.00  0.00     0.010 A 
ATOM     45  C   UNL A   1      41.825  26.784  26.226  1.00  0.00     0.010 A 
ATOM     46  C   UNL A   1      42.199  26.914  27.573  1.00  0.00    -0.014 A 
BRANCH  46  47
ATOM     47  C   UNL A   1      42.402  28.273  28.147  1.00  0.00     0.031 A 
ATOM     48  C   UNL A   1      43.785  28.869  28.181  1.00  0.00     0.074 A 
ATOM     49  C   UNL A   1      41.365  28.934  28.701  1.00  0.00     0.049 A 
ATOM     50  N   UNL A   1      44.196  29.974  28.748  1.00  0.00    -0.248 NA
ATOM     51  C   UNL A   1      44.850  28.104  27.513  1.00  0.00     0.031 C 
ATOM     52  C   UNL A   1      39.983  28.451  28.751  1.00  0.00     0.029 A 
ATOM     53  N   UNL A   1      41.313  30.146  29.345  1.00  0.00    -0.354 N 
ATOM     54  C   UNL A   1      45.569  30.026  28.526  1.00  0.00     0.074 A 
ATOM     55  C   UNL A   1      45.925  28.817  27.814  1.00  0.00     0.031 C 
ATOM     56  C   UNL A   1      39.220  29.362  29.376  1.00  0.00     0.029 A 
ATOM     57  C   UNL A   1      40.062  30.469  29.820  1.00  0.00     0.049 A 
ATOM     58  H   UNL A   1      42.097  30.731  29.455  1.00  0.00     0.167 HD
ATOM     59  C   UNL A   1      46.447  31.000  28.871  1.00  0.00     0.034 A 
ATOM     60  C   UNL A   1      39.645  31.525  30.551  1.00  0.00     0.034 A 
ATOM     61  C   UNL A   1      46.072  32.213  29.556  1.00  0.00     0.049 A 
ATOM     62  C   UNL A   1      40.649  32.584  30.940  1.00  0.00     0.074 A 
ATOM     63  C   UNL A   1      46.873  33.290  29.898  1.00  0.00     0.029 A 
ATOM     64  N   UNL A   1      44.793  32.510  30.007  1.00  0.00    -0.354 N 
ATOM     65  N   UNL A   1      41.936  32.638  30.683  1.00  0.00    -0.248 NA
ATOM     66  C   UNL A   1      40.144  33.731  31.709  1.00  0.00     0.031 C 
ATOM     67  C   UNL A   1      46.095  34.203  30.615  1.00  0.00     0.029 A 
ATOM     68  C   UNL A   1      44.791  33.739  30.649  1.00  0.00     0.049 A 
ATOM     69  H   UNL A   1      44.004  31.934  29.889  1.00  0.00     0.167 HD
ATOM     70  C   UNL A   1      42.380  33.845  31.217  1.00  0.00     0.074 A 
ATOM     71  C   UNL A   1      41.225  34.490  31.805  1.00  0.00     0.031 C 
ATOM     72  C   UNL A   1      43.628  34.376  31.218  1.00  0.00     0.034 A 
BRANCH  59  73
ATOM     73  C   UNL A   1      47.902  30.786  28.536  1.00  0.00     0.023 A 
ATOM     74  C   UNL A   1      48.761  30.068  29.385  1.00  0.00     0.031 A 
ATOM     75  C   UNL A   1      48.438  31.302  27.342  1.00  0.00     0.131 A 
ATOM     76  C   UNL A   1      50.119  29.935  29.058  1.00  0.00     0.055 A 
ATOM     77  C   UNL A   1      49.772  31.101  26.984  1.00  0.00     0.041 A 
ATOM     78  F   UNL A   1      47.671  32.014  26.501  1.00  0.00    -0.206 F 
ATOM     79  C   UNL A   1      50.625  30.423  27.851  1.00  0.00     0.022 A 
BRANCH  76  80
ATOM     80  S   UNL A   1      51.242  29.216  30.288  1.00  0.00     0.124 S 
ATOM     81  O   UNL A   1      52.541  29.409  29.647  1.00  0.00    -0.237 OA
ATOM     82  O   UNL A   1      50.984  30.033  31.468  1.00  0.00    -0.237 OA
ATOM     83  O   UNL A   1      50.802  27.825  30.382  1.00  0.00    -0.744 OA
ENDBRANCH  76  80
ENDBRANCH  59  73
BRANCH  60  84
ATOM     84  C   UNL A   1      38.221  31.639  30.987  1.00  0.00     0.023 A 
ATOM     85  C   UNL A   1      37.244  32.165  30.127  1.00  0.00     0.031 A 
ATOM     86  C   UNL A   1      37.831  31.301  32.295  1.00  0.00     0.131 A 
ATOM     87  C   UNL A   1      35.945  32.403  30.603  1.00  0.00     0.055 A 
ATOM     88  C   UNL A   1      36.520  31.479  32.744  1.00  0.00     0.041 A 
ATOM     89  F   UNL A   1      38.723  30.793  33.161  1.00  0.00    -0.206 F 
ATOM     90  C   UNL A   1      35.573  32.050  31.901  1.00  0.00     0.022 A 
BRANCH  87  91
ATOM     91  S   UNL A   1      34.783  33.298  29.535  1.00  0.00     0.124 S 
ATOM     92  O   UNL A   1      33.897  33.914  30.515  1.00  0.00    -0.237 OA
ATOM     93  O   UNL A   1      35.672  34.203  28.815  1.00  0.00    -0.237 OA
ATOM     94  O   UNL A   1      34.182  32.241  28.726  1.00  0.00    -0.744 OA
ENDBRANCH  87  91
ENDBRANCH  60  84
BRANCH  72  95
ATOM     95  C   UNL A   1      43.794  35.756  31.806  1.00  0.00     0.023 A 
ATOM     96  C   UNL A   1      43.990  35.964  33.182  1.00  0.00     0.031 A 
ATOM     97  C   UNL A   1      43.762  36.884  30.964  1.00  0.00     0.131 A 
ATOM     98  C   UNL A   1      44.098  37.270  33.682  1.00  0.00     0.055 A 
ATOM     99  C   UNL A   1      43.930  38.176  31.460  1.00  0.00     0.041 A 
ATOM    100  F   UNL A   1      43.576  36.743  29.642  1.00  0.00    -0.206 F 
ATOM    101  C   UNL A   1      44.088  38.376  32.828  1.00  0.00     0.022 A 
BRANCH  98 102
ATOM    102  S   UNL A   1      44.178  37.513  35.479  1.00  0.00     0.124 S 
ATOM    103  O   UNL A   1      43.998  38.956  35.598  1.00  0.00    -0.237 OA
ATOM    104  O   UNL A   1      43.071  36.691  35.955  1.00  0.00    -0.237 OA
ATOM    105  O   UNL A   1      45.510  37.022  35.832  1.00  0.00    -0.744 OA
ENDBRANCH  98 102
ENDBRANCH  72  95
ENDBRANCH  46  47
ENDBRANCH  38  41
ENDBRANCH  36  37
ENDBRANCH  35  36
ENDBRANCH  34  35
ENDBRANCH  33  34
ENDBRANCH   1  33
TORSDOF 22
ENDMDL
