MODEL 1
REMARK VINA RESULT:     -11.3      0.000      0.000
REMARK SMILES O=C(NCCCCCCNC(=O)c1ccc(-c2c3nc(c(-c4cc(S(=O)(=O)[O-])ccc4F)c4ccc([nH]4)c(-c4cc(S(=O)(=O)[O-])ccc4F)c4nc(c(-c5cc(S(=O)(=O)[O-])ccc5F)c5ccc2[nH]5)C=C4)C=C3)cc1)C1=C[C@H]2C(=N1)C=CC(Cl)=C2Cl
REMARK SMILES IDX 8 1 7 2 6 3 5 4 4 5 3 6 1 7 2 8 76 10 77 11 80 12 78 13
REMARK SMILES IDX 79 14 85 15 81 16 83 17 86 18 82 19 84 20 9 21 10 22 11 23
REMARK SMILES IDX 12 25 13 26 14 27 75 28 15 29 74 30 16 31 17 32 18 33 68 34
REMARK SMILES IDX 19 35 73 36 67 37 69 38 20 39 72 40 66 41 65 42 21 44 53 45
REMARK SMILES IDX 33 46 52 47 34 48 37 49 51 50 70 51 35 52 36 53 50 55 71 56
REMARK SMILES IDX 38 57 22 58 23 59 31 60 24 61 30 62 32 63 29 64 25 65 26 66
REMARK SMILES IDX 27 67 28 68 54 69 55 70 63 71 56 72 62 73 64 74 61 75 57 76
REMARK SMILES IDX 58 77 59 78 60 79 39 80 40 81 48 82 41 83 47 84 49 85 46 86
REMARK SMILES IDX 42 87 43 88 44 89 45 90
REMARK H PARENT 3 9 10 24 69 43 37 54
REMARK Flexibility Score: inf
ROOT
ATOM      1  C   UNL A   1      33.384  28.154  26.907  1.00  0.00     0.021 C 
ENDROOT
BRANCH   1   2
ATOM      2  C   UNL A   1      32.880  26.982  26.062  1.00  0.00     0.002 C 
BRANCH   2   3
ATOM      3  C   UNL A   1      31.582  27.226  25.286  1.00  0.00     0.002 C 
BRANCH   3   4
ATOM      4  C   UNL A   1      31.726  27.543  23.790  1.00  0.00     0.021 C 
BRANCH   4   5
ATOM      5  C   UNL A   1      30.971  26.617  22.832  1.00  0.00     0.116 C 
BRANCH   5   6
ATOM      6  N   UNL A   1      31.648  26.464  21.559  1.00  0.00    -0.351 N 
ATOM      7  O   UNL A   1      32.989  25.553  20.011  1.00  0.00    -0.268 OA
ATOM      8  C   UNL A   1      32.608  25.578  21.181  1.00  0.00     0.269 C 
ATOM      9  H   UNL A   1      31.370  27.100  20.862  1.00  0.00     0.163 HD
BRANCH   8  10
ATOM     10  C   UNL A   1      33.259  24.710  22.195  1.00  0.00     0.125 C 
ATOM     11  C   UNL A   1      32.560  23.680  22.689  1.00  0.00     0.023 C 
ATOM     12  N   UNL A   1      34.370  25.059  22.938  1.00  0.00    -0.247 NA
ATOM     13  C   UNL A   1      33.251  23.186  23.899  1.00  0.00     0.106 C 
ATOM     14  C   UNL A   1      34.328  24.254  23.955  1.00  0.00     0.054 C 
ATOM     15  C   UNL A   1      32.572  23.182  25.228  1.00  0.00     0.050 C 
ATOM     16  C   UNL A   1      35.193  24.300  25.159  1.00  0.00     0.026 C 
ATOM     17  C   UNL A   1      33.354  23.171  26.322  1.00  0.00     0.056 C 
ATOM     18  Cl  UNL A   1      30.955  23.798  25.365  1.00  0.00    -0.086 Cl
ATOM     19  C   UNL A   1      34.706  23.707  26.265  1.00  0.00     0.023 C 
ATOM     20  Cl  UNL A   1      32.932  22.175  27.669  1.00  0.00    -0.083 Cl
ENDBRANCH   8  10
ENDBRANCH   5   6
ENDBRANCH   4   5
ENDBRANCH   3   4
ENDBRANCH   2   3
ENDBRANCH   1   2
BRANCH   1  21
ATOM     21  C   UNL A   1      34.105  29.258  26.139  1.00  0.00     0.116 C 
BRANCH  21  22
ATOM     22  N   UNL A   1      33.796  30.589  26.640  1.00  0.00    -0.352 N 
ATOM     23  C   UNL A   1      34.404  31.310  27.637  1.00  0.00     0.251 C 
ATOM     24  H   UNL A   1      33.039  31.038  26.200  1.00  0.00     0.163 HD
ATOM     25  O   UNL A   1      33.881  32.365  28.024  1.00  0.00    -0.269 OA
BRANCH  23  26
ATOM     26  C   UNL A   1      35.651  30.831  28.273  1.00  0.00     0.039 A 
ATOM     27  C   UNL A   1      35.574  29.841  29.258  1.00  0.00     0.014 A 
ATOM     28  C   UNL A   1      36.897  31.352  27.912  1.00  0.00     0.014 A 
ATOM     29  C   UNL A   1      36.744  29.324  29.823  1.00  0.00     0.010 A 
ATOM     30  C   UNL A   1      38.065  30.783  28.419  1.00  0.00     0.010 A 
ATOM     31  C   UNL A   1      38.004  29.760  29.378  1.00  0.00    -0.014 A 
BRANCH  31  32
ATOM     32  C   UNL A   1      39.261  29.150  29.897  1.00  0.00     0.031 A 
ATOM     33  C   UNL A   1      39.947  29.732  31.105  1.00  0.00     0.074 A 
ATOM     34  C   UNL A   1      39.819  28.111  29.244  1.00  0.00     0.049 A 
ATOM     35  N   UNL A   1      41.079  29.386  31.662  1.00  0.00    -0.248 NA
ATOM     36  C   UNL A   1      39.283  30.872  31.755  1.00  0.00     0.031 C 
ATOM     37  C   UNL A   1      39.271  27.475  28.044  1.00  0.00     0.029 A 
ATOM     38  N   UNL A   1      40.972  27.406  29.491  1.00  0.00    -0.354 N 
ATOM     39  C   UNL A   1      41.272  30.272  32.717  1.00  0.00     0.074 A 
ATOM     40  C   UNL A   1      40.168  31.207  32.681  1.00  0.00     0.031 C 
ATOM     41  C   UNL A   1      40.066  26.457  27.681  1.00  0.00     0.029 A 
ATOM     42  C   UNL A   1      41.211  26.398  28.584  1.00  0.00     0.049 A 
ATOM     43  H   UNL A   1      41.572  27.605  30.246  1.00  0.00     0.167 HD
ATOM     44  C   UNL A   1      42.267  30.292  33.640  1.00  0.00     0.034 A 
ATOM     45  C   UNL A   1      42.241  25.533  28.482  1.00  0.00     0.034 A 
ATOM     46  C   UNL A   1      43.358  29.344  33.668  1.00  0.00     0.049 A 
ATOM     47  C   UNL A   1      43.358  25.604  29.494  1.00  0.00     0.074 A 
ATOM     48  C   UNL A   1      44.380  29.236  34.595  1.00  0.00     0.029 A 
ATOM     49  N   UNL A   1      43.578  28.352  32.721  1.00  0.00    -0.354 N 
ATOM     50  N   UNL A   1      43.497  26.414  30.518  1.00  0.00    -0.248 NA
ATOM     51  C   UNL A   1      44.455  24.639  29.338  1.00  0.00     0.031 C 
ATOM     52  C   UNL A   1      45.261  28.240  34.164  1.00  0.00     0.029 A 
ATOM     53  C   UNL A   1      44.743  27.660  33.017  1.00  0.00     0.049 A 
ATOM     54  H   UNL A   1      42.993  28.168  31.950  1.00  0.00     0.167 HD
ATOM     55  C   UNL A   1      44.676  26.028  31.149  1.00  0.00     0.074 A 
ATOM     56  C   UNL A   1      45.202  24.908  30.398  1.00  0.00     0.031 C 
ATOM     57  C   UNL A   1      45.267  26.548  32.255  1.00  0.00     0.034 A 
BRANCH  44  58
ATOM     58  C   UNL A   1      42.240  31.395  34.674  1.00  0.00     0.023 A 
ATOM     59  C   UNL A   1      41.286  31.423  35.707  1.00  0.00     0.031 A 
ATOM     60  C   UNL A   1      43.169  32.449  34.614  1.00  0.00     0.131 A 
ATOM     61  C   UNL A   1      41.230  32.518  36.582  1.00  0.00     0.055 A 
ATOM     62  C   UNL A   1      43.165  33.492  35.543  1.00  0.00     0.041 A 
ATOM     63  F   UNL A   1      44.092  32.493  33.640  1.00  0.00    -0.206 F 
ATOM     64  C   UNL A   1      42.180  33.539  36.525  1.00  0.00     0.022 A 
BRANCH  61  65
ATOM     65  S   UNL A   1      39.802  32.667  37.691  1.00  0.00     0.124 S 
ATOM     66  O   UNL A   1      38.955  31.570  37.229  1.00  0.00    -0.237 OA
ATOM     67  O   UNL A   1      40.406  32.499  39.006  1.00  0.00    -0.237 OA
ATOM     68  O   UNL A   1      39.285  34.005  37.405  1.00  0.00    -0.744 OA
ENDBRANCH  61  65
ENDBRANCH  44  58
BRANCH  45  69
ATOM     69  C   UNL A   1      42.280  24.526  27.381  1.00  0.00     0.023 A 
ATOM     70  C   UNL A   1      41.517  23.348  27.454  1.00  0.00     0.031 A 
ATOM     71  C   UNL A   1      43.118  24.697  26.265  1.00  0.00     0.131 A 
ATOM     72  C   UNL A   1      41.646  22.367  26.460  1.00  0.00     0.055 A 
ATOM     73  C   UNL A   1      43.196  23.745  25.247  1.00  0.00     0.041 A 
ATOM     74  F   UNL A   1      43.870  25.803  26.144  1.00  0.00    -0.206 F 
ATOM     75  C   UNL A   1      42.468  22.564  25.349  1.00  0.00     0.022 A 
BRANCH  72  76
ATOM     76  S   UNL A   1      40.795  20.781  26.690  1.00  0.00     0.124 S 
ATOM     77  O   UNL A   1      41.665  19.870  25.957  1.00  0.00    -0.237 OA
ATOM     78  O   UNL A   1      40.798  20.644  28.143  1.00  0.00    -0.237 OA
ATOM     79  O   UNL A   1      39.482  21.011  26.091  1.00  0.00    -0.744 OA
ENDBRANCH  72  76
ENDBRANCH  45  69
BRANCH  57  80
ATOM     80  C   UNL A   1      46.526  25.873  32.748  1.00  0.00     0.023 A 
ATOM     81  C   UNL A   1      47.770  26.067  32.123  1.00  0.00     0.031 A 
ATOM     82  C   UNL A   1      46.474  25.009  33.858  1.00  0.00     0.131 A 
ATOM     83  C   UNL A   1      48.897  25.363  32.572  1.00  0.00     0.055 A 
ATOM     84  C   UNL A   1      47.613  24.365  34.343  1.00  0.00     0.041 A 
ATOM     85  F   UNL A   1      45.314  24.780  34.493  1.00  0.00    -0.206 F 
ATOM     86  C   UNL A   1      48.831  24.528  33.691  1.00  0.00     0.022 A 
BRANCH  83  87
ATOM     87  S   UNL A   1      50.434  25.472  31.614  1.00  0.00     0.124 S 
ATOM     88  O   UNL A   1      51.246  26.359  32.442  1.00  0.00    -0.237 OA
ATOM     89  O   UNL A   1      50.866  24.079  31.559  1.00  0.00    -0.237 OA
ATOM     90  O   UNL A   1      50.004  26.038  30.337  1.00  0.00    -0.744 OA
ENDBRANCH  83  87
ENDBRANCH  57  80
ENDBRANCH  31  32
ENDBRANCH  23  26
ENDBRANCH  21  22
ENDBRANCH   1  21
TORSDOF 16
ENDMDL
MODEL 2
REMARK VINA RESULT:     -11.3      1.809      2.116
REMARK SMILES O=C(NCCCCCCNC(=O)c1ccc(-c2c3nc(c(-c4cc(S(=O)(=O)[O-])ccc4F)c4ccc([nH]4)c(-c4cc(S(=O)(=O)[O-])ccc4F)c4nc(c(-c5cc(S(=O)(=O)[O-])ccc5F)c5ccc2[nH]5)C=C4)C=C3)cc1)C1=C[C@H]2C(=N1)C=CC(Cl)=C2Cl
REMARK SMILES IDX 8 1 7 2 6 3 5 4 4 5 3 6 1 7 2 8 76 10 77 11 80 12 78 13
REMARK SMILES IDX 79 14 85 15 81 16 83 17 86 18 82 19 84 20 9 21 10 22 11 23
REMARK SMILES IDX 12 25 13 26 14 27 75 28 15 29 74 30 16 31 17 32 18 33 68 34
REMARK SMILES IDX 19 35 73 36 67 37 69 38 20 39 72 40 66 41 65 42 21 44 53 45
REMARK SMILES IDX 33 46 52 47 34 48 37 49 51 50 70 51 35 52 36 53 50 55 71 56
REMARK SMILES IDX 38 57 22 58 23 59 31 60 24 61 30 62 32 63 29 64 25 65 26 66
REMARK SMILES IDX 27 67 28 68 54 69 55 70 63 71 56 72 62 73 64 74 61 75 57 76
REMARK SMILES IDX 58 77 59 78 60 79 39 80 40 81 48 82 41 83 47 84 49 85 46 86
REMARK SMILES IDX 42 87 43 88 44 89 45 90
REMARK H PARENT 3 9 10 24 69 43 37 54
REMARK Flexibility Score: inf
ROOT
ATOM      1  C   UNL A   1      32.026  28.866  26.793  1.00  0.00     0.021 C 
ENDROOT
BRANCH   1   2
ATOM      2  C   UNL A   1      31.686  27.637  25.948  1.00  0.00     0.002 C 
BRANCH   2   3
ATOM      3  C   UNL A   1      32.473  27.485  24.642  1.00  0.00     0.002 C 
BRANCH   3   4
ATOM      4  C   UNL A   1      31.760  27.932  23.356  1.00  0.00     0.021 C 
BRANCH   4   5
ATOM      5  C   UNL A   1      31.052  26.830  22.563  1.00  0.00     0.116 C 
BRANCH   5   6
ATOM      6  N   UNL A   1      31.710  26.543  21.303  1.00  0.00    -0.351 N 
ATOM      7  O   UNL A   1      32.972  25.435  19.819  1.00  0.00    -0.268 OA
ATOM      8  C   UNL A   1      32.599  25.565  20.984  1.00  0.00     0.269 C 
ATOM      9  H   UNL A   1      31.476  27.151  20.565  1.00  0.00     0.163 HD
BRANCH   8  10
ATOM     10  C   UNL A   1      33.189  24.719  22.054  1.00  0.00     0.125 C 
ATOM     11  C   UNL A   1      32.422  23.769  22.604  1.00  0.00     0.023 C 
ATOM     12  N   UNL A   1      34.318  25.040  22.782  1.00  0.00    -0.247 NA
ATOM     13  C   UNL A   1      33.076  23.306  23.847  1.00  0.00     0.106 C 
ATOM     14  C   UNL A   1      34.220  24.303  23.846  1.00  0.00     0.054 C 
ATOM     15  C   UNL A   1      32.394  23.427  25.169  1.00  0.00     0.050 C 
ATOM     16  C   UNL A   1      35.083  24.366  25.051  1.00  0.00     0.026 C 
ATOM     17  C   UNL A   1      33.170  23.431  26.267  1.00  0.00     0.056 C 
ATOM     18  Cl  UNL A   1      30.820  24.154  25.256  1.00  0.00    -0.086 Cl
ATOM     19  C   UNL A   1      34.554  23.874  26.187  1.00  0.00     0.023 C 
ATOM     20  Cl  UNL A   1      32.679  22.548  27.669  1.00  0.00    -0.083 Cl
ENDBRANCH   8  10
ENDBRANCH   5   6
ENDBRANCH   4   5
ENDBRANCH   3   4
ENDBRANCH   2   3
ENDBRANCH   1   2
BRANCH   1  21
ATOM     21  C   UNL A   1      33.123  29.768  26.233  1.00  0.00     0.116 C 
BRANCH  21  22
ATOM     22  N   UNL A   1      33.027  31.139  26.713  1.00  0.00    -0.352 N 
ATOM     23  C   UNL A   1      33.836  31.815  27.591  1.00  0.00     0.251 C 
ATOM     24  H   UNL A   1      32.271  31.657  26.355  1.00  0.00     0.163 HD
ATOM     25  O   UNL A   1      33.486  32.932  27.997  1.00  0.00    -0.269 OA
BRANCH  23  26
ATOM     26  C   UNL A   1      35.098  31.217  28.081  1.00  0.00     0.039 A 
ATOM     27  C   UNL A   1      36.267  31.983  28.056  1.00  0.00     0.014 A 
ATOM     28  C   UNL A   1      35.141  29.904  28.560  1.00  0.00     0.014 A 
ATOM     29  C   UNL A   1      37.456  31.462  28.578  1.00  0.00     0.010 A 
ATOM     30  C   UNL A   1      36.306  29.415  29.150  1.00  0.00     0.010 A 
ATOM     31  C   UNL A   1      37.477  30.188  29.169  1.00  0.00    -0.014 A 
BRANCH  31  32
ATOM     32  C   UNL A   1      38.709  29.657  29.819  1.00  0.00     0.031 A 
ATOM     33  C   UNL A   1      39.136  30.166  31.171  1.00  0.00     0.074 A 
ATOM     34  C   UNL A   1      39.477  28.762  29.166  1.00  0.00     0.049 A 
ATOM     35  N   UNL A   1      40.208  29.878  31.864  1.00  0.00    -0.248 NA
ATOM     36  C   UNL A   1      38.253  31.150  31.814  1.00  0.00     0.031 C 
ATOM     37  C   UNL A   1      39.190  28.212  27.839  1.00  0.00     0.029 A 
ATOM     38  N   UNL A   1      40.657  28.157  29.523  1.00  0.00    -0.354 N 
ATOM     39  C   UNL A   1      40.138  30.654  33.017  1.00  0.00     0.074 A 
ATOM     40  C   UNL A   1      38.946  31.468  32.897  1.00  0.00     0.031 C 
ATOM     41  C   UNL A   1      40.146  27.330  27.510  1.00  0.00     0.029 A 
ATOM     42  C   UNL A   1      41.145  27.288  28.573  1.00  0.00     0.049 A 
ATOM     43  H   UNL A   1      41.112  28.329  30.379  1.00  0.00     0.167 HD
ATOM     44  C   UNL A   1      40.977  30.673  34.083  1.00  0.00     0.034 A 
ATOM     45  C   UNL A   1      42.275  26.552  28.553  1.00  0.00     0.034 A 
ATOM     46  C   UNL A   1      42.157  29.846  34.191  1.00  0.00     0.049 A 
ATOM     47  C   UNL A   1      43.215  26.623  29.730  1.00  0.00     0.074 A 
ATOM     48  C   UNL A   1      43.038  29.740  35.253  1.00  0.00     0.029 A 
ATOM     49  N   UNL A   1      42.631  28.995  33.200  1.00  0.00    -0.354 N 
ATOM     50  N   UNL A   1      43.105  27.322  30.836  1.00  0.00    -0.248 NA
ATOM     51  C   UNL A   1      44.430  25.801  29.658  1.00  0.00     0.031 C 
ATOM     52  C   UNL A   1      44.086  28.895  34.873  1.00  0.00     0.029 A 
ATOM     53  C   UNL A   1      43.814  28.398  33.609  1.00  0.00     0.049 A 
ATOM     54  H   UNL A   1      42.191  28.840  32.333  1.00  0.00     0.167 HD
ATOM     55  C   UNL A   1      44.217  26.990  31.606  1.00  0.00     0.074 A 
ATOM     56  C   UNL A   1      44.977  26.023  30.844  1.00  0.00     0.031 C 
ATOM     57  C   UNL A   1      44.573  27.441  32.837  1.00  0.00     0.034 A 
BRANCH  44  58
ATOM     58  C   UNL A   1      40.667  31.643  35.201  1.00  0.00     0.023 A 
ATOM     59  C   UNL A   1      39.591  31.441  36.083  1.00  0.00     0.031 A 
ATOM     60  C   UNL A   1      41.446  32.801  35.373  1.00  0.00     0.131 A 
ATOM     61  C   UNL A   1      39.275  32.417  37.040  1.00  0.00     0.055 A 
ATOM     62  C   UNL A   1      41.181  33.726  36.386  1.00  0.00     0.041 A 
ATOM     63  F   UNL A   1      42.473  33.063  34.550  1.00  0.00    -0.206 F 
ATOM     64  C   UNL A   1      40.079  33.545  37.216  1.00  0.00     0.022 A 
BRANCH  61  65
ATOM     65  S   UNL A   1      37.708  32.270  37.941  1.00  0.00     0.124 S 
ATOM     66  O   UNL A   1      37.442  30.837  37.837  1.00  0.00    -0.237 OA
ATOM     67  O   UNL A   1      38.060  32.761  39.267  1.00  0.00    -0.237 OA
ATOM     68  O   UNL A   1      36.794  33.120  37.180  1.00  0.00    -0.744 OA
ENDBRANCH  61  65
ENDBRANCH  44  58
BRANCH  45  69
ATOM     69  C   UNL A   1      42.594  25.685  27.380  1.00  0.00     0.023 A 
ATOM     70  C   UNL A   1      42.131  24.360  27.315  1.00  0.00     0.031 A 
ATOM     71  C   UNL A   1      43.411  26.147  26.332  1.00  0.00     0.131 A 
ATOM     72  C   UNL A   1      42.528  23.530  26.256  1.00  0.00     0.055 A 
ATOM     73  C   UNL A   1      43.752  25.335  25.249  1.00  0.00     0.041 A 
ATOM     74  F   UNL A   1      43.882  27.404  26.343  1.00  0.00    -0.206 F 
ATOM     75  C   UNL A   1      43.322  24.013  25.214  1.00  0.00     0.022 A 
BRANCH  72  76
ATOM     76  S   UNL A   1      42.069  21.775  26.310  1.00  0.00     0.124 S 
ATOM     77  O   UNL A   1      40.640  21.834  26.029  1.00  0.00    -0.237 OA
ATOM     78  O   UNL A   1      42.909  21.210  25.259  1.00  0.00    -0.237 OA
ATOM     79  O   UNL A   1      42.423  21.375  27.671  1.00  0.00    -0.744 OA
ENDBRANCH  72  76
ENDBRANCH  45  69
BRANCH  57  80
ATOM     80  C   UNL A   1      45.818  26.848  33.455  1.00  0.00     0.023 A 
ATOM     81  C   UNL A   1      45.790  25.645  34.181  1.00  0.00     0.031 A 
ATOM     82  C   UNL A   1      47.054  27.509  33.323  1.00  0.00     0.131 A 
ATOM     83  C   UNL A   1      46.958  25.171  34.797  1.00  0.00     0.055 A 
ATOM     84  C   UNL A   1      48.226  26.996  33.880  1.00  0.00     0.041 A 
ATOM     85  F   UNL A   1      47.143  28.664  32.645  1.00  0.00    -0.206 F 
ATOM     86  C   UNL A   1      48.181  25.828  34.634  1.00  0.00     0.022 A 
BRANCH  83  87
ATOM     87  S   UNL A   1      46.842  23.736  35.901  1.00  0.00     0.124 S 
ATOM     88  O   UNL A   1      47.681  24.149  37.023  1.00  0.00    -0.237 OA
ATOM     89  O   UNL A   1      45.409  23.665  36.171  1.00  0.00    -0.237 OA
ATOM     90  O   UNL A   1      47.377  22.639  35.098  1.00  0.00    -0.744 OA
ENDBRANCH  83  87
ENDBRANCH  57  80
ENDBRANCH  31  32
ENDBRANCH  23  26
ENDBRANCH  21  22
ENDBRANCH   1  21
TORSDOF 16
ENDMDL
MODEL 3
REMARK VINA RESULT:     -11.2      3.568      8.848
REMARK SMILES O=C(NCCCCCCNC(=O)c1ccc(-c2c3nc(c(-c4cc(S(=O)(=O)[O-])ccc4F)c4ccc([nH]4)c(-c4cc(S(=O)(=O)[O-])ccc4F)c4nc(c(-c5cc(S(=O)(=O)[O-])ccc5F)c5ccc2[nH]5)C=C4)C=C3)cc1)C1=C[C@H]2C(=N1)C=CC(Cl)=C2Cl
REMARK SMILES IDX 8 1 7 2 6 3 5 4 4 5 3 6 1 7 2 8 76 10 77 11 80 12 78 13
REMARK SMILES IDX 79 14 85 15 81 16 83 17 86 18 82 19 84 20 9 21 10 22 11 23
REMARK SMILES IDX 12 25 13 26 14 27 75 28 15 29 74 30 16 31 17 32 18 33 68 34
REMARK SMILES IDX 19 35 73 36 67 37 69 38 20 39 72 40 66 41 65 42 21 44 53 45
REMARK SMILES IDX 33 46 52 47 34 48 37 49 51 50 70 51 35 52 36 53 50 55 71 56
REMARK SMILES IDX 38 57 22 58 23 59 31 60 24 61 30 62 32 63 29 64 25 65 26 66
REMARK SMILES IDX 27 67 28 68 54 69 55 70 63 71 56 72 62 73 64 74 61 75 57 76
REMARK SMILES IDX 58 77 59 78 60 79 39 80 40 81 48 82 41 83 47 84 49 85 46 86
REMARK SMILES IDX 42 87 43 88 44 89 45 90
REMARK H PARENT 3 9 10 24 69 43 37 54
REMARK Flexibility Score: inf
ROOT
ATOM      1  C   UNL A   1      31.548  31.692  26.774  1.00  0.00     0.021 C 
ENDROOT
BRANCH   1   2
ATOM      2  C   UNL A   1      31.823  30.492  25.866  1.00  0.00     0.002 C 
BRANCH   2   3
ATOM      3  C   UNL A   1      33.076  29.675  26.198  1.00  0.00     0.002 C 
BRANCH   3   4
ATOM      4  C   UNL A   1      33.556  28.689  25.122  1.00  0.00     0.021 C 
BRANCH   4   5
ATOM      5  C   UNL A   1      32.467  28.084  24.231  1.00  0.00     0.116 C 
BRANCH   5   6
ATOM      6  N   UNL A   1      32.973  27.677  22.935  1.00  0.00    -0.351 N 
ATOM      7  O   UNL A   1      33.615  26.293  21.292  1.00  0.00    -0.268 OA
ATOM      8  C   UNL A   1      33.286  26.438  22.469  1.00  0.00     0.269 C 
ATOM      9  H   UNL A   1      33.111  28.411  22.294  1.00  0.00     0.163 HD
BRANCH   8  10
ATOM     10  C   UNL A   1      33.321  25.281  23.400  1.00  0.00     0.125 C 
ATOM     11  C   UNL A   1      34.454  25.047  24.076  1.00  0.00     0.023 C 
ATOM     12  N   UNL A   1      32.437  24.220  23.376  1.00  0.00    -0.247 NA
ATOM     13  C   UNL A   1      34.380  23.687  24.650  1.00  0.00     0.106 C 
ATOM     14  C   UNL A   1      33.066  23.280  24.012  1.00  0.00     0.054 C 
ATOM     15  C   UNL A   1      35.383  22.642  24.289  1.00  0.00     0.050 C 
ATOM     16  C   UNL A   1      32.645  21.863  24.141  1.00  0.00     0.026 C 
ATOM     17  C   UNL A   1      35.023  21.357  24.455  1.00  0.00     0.056 C 
ATOM     18  Cl  UNL A   1      36.638  23.017  23.150  1.00  0.00    -0.086 Cl
ATOM     19  C   UNL A   1      33.619  20.976  24.419  1.00  0.00     0.023 C 
ATOM     20  Cl  UNL A   1      36.155  20.226  25.107  1.00  0.00    -0.083 Cl
ENDBRANCH   8  10
ENDBRANCH   5   6
ENDBRANCH   4   5
ENDBRANCH   3   4
ENDBRANCH   2   3
ENDBRANCH   1   2
BRANCH   1  21
ATOM     21  C   UNL A   1      32.784  32.434  27.276  1.00  0.00     0.116 C 
BRANCH  21  22
ATOM     22  N   UNL A   1      32.516  33.830  27.588  1.00  0.00    -0.352 N 
ATOM     23  C   UNL A   1      33.094  34.640  28.532  1.00  0.00     0.251 C 
ATOM     24  H   UNL A   1      31.817  34.256  27.042  1.00  0.00     0.163 HD
ATOM     25  O   UNL A   1      32.607  35.759  28.749  1.00  0.00    -0.269 OA
BRANCH  23  26
ATOM     26  C   UNL A   1      34.266  34.186  29.313  1.00  0.00     0.039 A 
ATOM     27  C   UNL A   1      34.059  33.528  30.529  1.00  0.00     0.014 A 
ATOM     28  C   UNL A   1      35.570  34.406  28.860  1.00  0.00     0.014 A 
ATOM     29  C   UNL A   1      35.148  33.028  31.250  1.00  0.00     0.010 A 
ATOM     30  C   UNL A   1      36.650  33.842  29.539  1.00  0.00     0.010 A 
ATOM     31  C   UNL A   1      36.453  33.143  30.740  1.00  0.00    -0.014 A 
BRANCH  31  32
ATOM     32  C   UNL A   1      37.615  32.531  31.444  1.00  0.00     0.031 A 
ATOM     33  C   UNL A   1      38.366  31.385  30.819  1.00  0.00     0.074 A 
ATOM     34  C   UNL A   1      37.956  32.965  32.674  1.00  0.00     0.049 A 
ATOM     35  N   UNL A   1      39.355  30.679  31.304  1.00  0.00    -0.248 NA
ATOM     36  C   UNL A   1      37.927  30.961  29.481  1.00  0.00     0.031 C 
ATOM     37  C   UNL A   1      37.290  34.046  33.403  1.00  0.00     0.029 A 
ATOM     38  N   UNL A   1      38.944  32.550  33.534  1.00  0.00    -0.354 N 
ATOM     39  C   UNL A   1      39.648  29.719  30.340  1.00  0.00     0.074 A 
ATOM     40  C   UNL A   1      38.689  29.899  29.270  1.00  0.00     0.031 C 
ATOM     41  C   UNL A   1      37.907  34.231  34.581  1.00  0.00     0.029 A 
ATOM     42  C   UNL A   1      38.977  33.249  34.720  1.00  0.00     0.049 A 
ATOM     43  H   UNL A   1      39.571  31.821  33.321  1.00  0.00     0.167 HD
ATOM     44  C   UNL A   1      40.635  28.787  30.340  1.00  0.00     0.034 A 
ATOM     45  C   UNL A   1      39.768  33.106  35.803  1.00  0.00     0.034 A 
ATOM     46  C   UNL A   1      41.591  28.628  31.412  1.00  0.00     0.049 A 
ATOM     47  C   UNL A   1      40.830  32.034  35.796  1.00  0.00     0.074 A 
ATOM     48  C   UNL A   1      42.667  27.761  31.482  1.00  0.00     0.029 A 
ATOM     49  N   UNL A   1      41.578  29.338  32.606  1.00  0.00    -0.354 N 
ATOM     50  N   UNL A   1      41.127  31.170  34.854  1.00  0.00    -0.248 NA
ATOM     51  C   UNL A   1      41.665  31.922  37.000  1.00  0.00     0.031 C 
ATOM     52  C   UNL A   1      43.251  27.885  32.747  1.00  0.00     0.029 A 
ATOM     53  C   UNL A   1      42.599  28.896  33.434  1.00  0.00     0.049 A 
ATOM     54  H   UNL A   1      40.937  30.051  32.831  1.00  0.00     0.167 HD
ATOM     55  C   UNL A   1      42.211  30.440  35.337  1.00  0.00     0.074 A 
ATOM     56  C   UNL A   1      42.519  30.973  36.647  1.00  0.00     0.031 C 
ATOM     57  C   UNL A   1      42.893  29.426  34.747  1.00  0.00     0.034 A 
BRANCH  44  58
ATOM     58  C   UNL A   1      40.707  27.846  29.158  1.00  0.00     0.023 A 
ATOM     59  C   UNL A   1      41.641  28.024  28.122  1.00  0.00     0.031 A 
ATOM     60  C   UNL A   1      39.814  26.765  29.055  1.00  0.00     0.131 A 
ATOM     61  C   UNL A   1      41.606  27.191  26.994  1.00  0.00     0.055 A 
ATOM     62  C   UNL A   1      39.843  25.884  27.972  1.00  0.00     0.041 A 
ATOM     63  F   UNL A   1      38.885  26.553  30.000  1.00  0.00    -0.206 F 
ATOM     64  C   UNL A   1      40.732  26.105  26.924  1.00  0.00     0.022 A 
BRANCH  61  65
ATOM     65  S   UNL A   1      42.608  27.644  25.552  1.00  0.00     0.124 S 
ATOM     66  O   UNL A   1      43.907  27.906  26.166  1.00  0.00    -0.237 OA
ATOM     67  O   UNL A   1      42.522  26.450  24.721  1.00  0.00    -0.237 OA
ATOM     68  O   UNL A   1      41.931  28.826  25.021  1.00  0.00    -0.744 OA
ENDBRANCH  61  65
ENDBRANCH  44  58
BRANCH  45  69
ATOM     69  C   UNL A   1      39.593  33.991  36.992  1.00  0.00     0.023 A 
ATOM     70  C   UNL A   1      39.013  33.503  38.175  1.00  0.00     0.031 A 
ATOM     71  C   UNL A   1      39.954  35.350  36.949  1.00  0.00     0.131 A 
ATOM     72  C   UNL A   1      38.763  34.377  39.244  1.00  0.00     0.055 A 
ATOM     73  C   UNL A   1      39.759  36.200  38.039  1.00  0.00     0.041 A 
ATOM     74  F   UNL A   1      40.512  35.870  35.844  1.00  0.00    -0.206 F 
ATOM     75  C   UNL A   1      39.146  35.718  39.191  1.00  0.00     0.022 A 
BRANCH  72  76
ATOM     76  S   UNL A   1      37.836  33.753  40.674  1.00  0.00     0.124 S 
ATOM     77  O   UNL A   1      37.503  34.990  41.372  1.00  0.00    -0.237 OA
ATOM     78  O   UNL A   1      36.724  33.057  40.035  1.00  0.00    -0.237 OA
ATOM     79  O   UNL A   1      38.801  32.891  41.354  1.00  0.00    -0.744 OA
ENDBRANCH  72  76
ENDBRANCH  45  69
BRANCH  57  80
ATOM     80  C   UNL A   1      44.077  28.861  35.498  1.00  0.00     0.023 A 
ATOM     81  C   UNL A   1      43.956  27.757  36.359  1.00  0.00     0.031 A 
ATOM     82  C   UNL A   1      45.347  29.451  35.356  1.00  0.00     0.131 A 
ATOM     83  C   UNL A   1      45.068  27.313  37.090  1.00  0.00     0.055 A 
ATOM     84  C   UNL A   1      46.465  28.961  36.033  1.00  0.00     0.041 A 
ATOM     85  F   UNL A   1      45.524  30.511  34.553  1.00  0.00    -0.206 F 
ATOM     86  C   UNL A   1      46.327  27.895  36.917  1.00  0.00     0.022 A 
BRANCH  83  87
ATOM     87  S   UNL A   1      44.831  26.028  38.348  1.00  0.00     0.124 S 
ATOM     88  O   UNL A   1      46.131  25.365  38.353  1.00  0.00    -0.237 OA
ATOM     89  O   UNL A   1      44.511  26.812  39.537  1.00  0.00    -0.237 OA
ATOM     90  O   UNL A   1      43.729  25.228  37.819  1.00  0.00    -0.744 OA
ENDBRANCH  83  87
ENDBRANCH  57  80
ENDBRANCH  31  32
ENDBRANCH  23  26
ENDBRANCH  21  22
ENDBRANCH   1  21
TORSDOF 16
ENDMDL
