MODEL 1
REMARK VINA RESULT:     -12.1      0.000      0.000
REMARK SMILES CC(C)Cc1cc2c(cc1Cl)C=C(C(=O)NCCCCCCNC(=O)c1ccc(-c3c4nc(c(-c5cc(S(=O)(=O)[O-])ccc5F)c5ccc([nH]5)c(-c5cc(S(=O)(=O)[O-])ccc5F)c5nc(c(-c6cc(S(=O)(=O)[O-])ccc6F)c6ccc3[nH]6)C=C5)C=C4)cc1)[C@@H](C(F)(F)F)O2
REMARK SMILES IDX 20 1 19 2 18 3 17 4 16 5 14 6 15 7 13 9 5 10 6 11 10 12 7 13
REMARK SMILES IDX 9 14 11 15 8 16 94 17 12 18 89 19 4 20 2 21 1 22 3 23 90 24
REMARK SMILES IDX 91 25 92 26 93 27 21 28 22 29 23 30 24 31 25 33 26 34 27 35
REMARK SMILES IDX 88 36 28 37 87 38 29 39 30 40 31 41 81 42 32 43 86 44 80 45
REMARK SMILES IDX 82 46 33 47 85 48 79 49 78 50 34 52 66 53 46 54 65 55 47 56
REMARK SMILES IDX 50 57 64 58 83 59 48 60 49 61 63 63 84 64 51 65 35 66 36 67
REMARK SMILES IDX 44 68 37 69 43 70 45 71 42 72 38 73 39 74 40 75 41 76 67 77
REMARK SMILES IDX 68 78 76 79 69 80 75 81 77 82 74 83 70 84 71 85 72 86 73 87
REMARK SMILES IDX 52 88 53 89 61 90 54 91 60 92 62 93 59 94 55 95 56 96 57 97
REMARK SMILES IDX 58 98
REMARK H PARENT 16 8 23 32 82 51 50 62
REMARK Flexibility Score: inf
ROOT
ATOM      1  C   UNL A   1      31.122  30.909  25.892  1.00  0.00     0.002 C 
ENDROOT
BRANCH   1   2
ATOM      2  C   UNL A   1      32.327  29.983  26.091  1.00  0.00     0.002 C 
BRANCH   2   3
ATOM      3  C   UNL A   1      32.170  28.896  27.158  1.00  0.00     0.021 C 
BRANCH   3   4
ATOM      4  C   UNL A   1      32.724  27.530  26.771  1.00  0.00     0.116 C 
BRANCH   4   5
ATOM      5  N   UNL A   1      33.228  27.503  25.412  1.00  0.00    -0.352 N 
ATOM      6  C   UNL A   1      33.391  26.561  24.453  1.00  0.00     0.251 C 
ATOM      7  O   UNL A   1      33.855  26.967  23.382  1.00  0.00    -0.270 OA
ATOM      8  H   UNL A   1      33.528  28.391  25.111  1.00  0.00     0.163 HD
BRANCH   6   9
ATOM      9  C   UNL A   1      33.058  25.113  24.608  1.00  0.00     0.067 C 
ATOM     10  C   UNL A   1      33.525  20.077  24.861  1.00  0.00    -0.025 A 
ATOM     11  C   UNL A   1      32.442  20.972  24.870  1.00  0.00     0.052 A 
ATOM     12  C   UNL A   1      34.824  20.608  24.842  1.00  0.00     0.045 A 
ATOM     13  C   UNL A   1      32.651  22.350  24.824  1.00  0.00     0.128 A 
ATOM     14  C   UNL A   1      35.027  21.993  24.785  1.00  0.00     0.032 A 
ATOM     15  Cl  UNL A   1      36.232  19.607  24.884  1.00  0.00    -0.084 Cl
ATOM     16  C   UNL A   1      33.939  22.867  24.766  1.00  0.00     0.019 A 
ATOM     17  O   UNL A   1      31.532  23.121  24.857  1.00  0.00    -0.475 OA
ATOM     18  C   UNL A   1      34.132  24.306  24.687  1.00  0.00     0.025 C 
ATOM     19  C   UNL A   1      31.659  24.547  24.601  1.00  0.00     0.314 C 
BRANCH  10  20
ATOM     20  C   UNL A   1      33.221  18.595  24.824  1.00  0.00     0.040 C 
BRANCH  20  21
ATOM     21  C   UNL A   1      33.565  17.937  23.470  1.00  0.00    -0.013 C 
ATOM     22  C   UNL A   1      33.857  16.440  23.600  1.00  0.00     0.008 C 
ATOM     23  C   UNL A   1      32.415  18.149  22.482  1.00  0.00     0.008 C 
ENDBRANCH  20  21
ENDBRANCH  10  20
BRANCH  19  24
ATOM     24  C   UNL A   1      30.868  24.853  23.319  1.00  0.00     0.429 C 
ATOM     25  F   UNL A   1      30.004  23.844  23.046  1.00  0.00    -0.167 F 
ATOM     26  F   UNL A   1      30.123  25.977  23.410  1.00  0.00    -0.167 F 
ATOM     27  F   UNL A   1      31.676  25.000  22.244  1.00  0.00    -0.167 F 
ENDBRANCH  19  24
ENDBRANCH   6   9
ENDBRANCH   4   5
ENDBRANCH   3   4
ENDBRANCH   2   3
ENDBRANCH   1   2
BRANCH   1  28
ATOM     28  C   UNL A   1      31.310  32.363  26.326  1.00  0.00     0.021 C 
BRANCH  28  29
ATOM     29  C   UNL A   1      32.579  32.649  27.118  1.00  0.00     0.116 C 
BRANCH  29  30
ATOM     30  N   UNL A   1      32.586  33.974  27.714  1.00  0.00    -0.352 N 
ATOM     31  C   UNL A   1      33.440  34.493  28.659  1.00  0.00     0.251 C 
ATOM     32  H   UNL A   1      31.881  34.585  27.397  1.00  0.00     0.163 HD
ATOM     33  O   UNL A   1      33.209  35.591  29.155  1.00  0.00    -0.269 OA
BRANCH  31  34
ATOM     34  C   UNL A   1      34.611  33.701  29.098  1.00  0.00     0.039 A 
ATOM     35  C   UNL A   1      34.446  32.570  29.902  1.00  0.00     0.014 A 
ATOM     36  C   UNL A   1      35.892  34.116  28.726  1.00  0.00     0.014 A 
ATOM     37  C   UNL A   1      35.559  31.956  30.465  1.00  0.00     0.010 A 
ATOM     38  C   UNL A   1      37.012  33.445  29.227  1.00  0.00     0.010 A 
ATOM     39  C   UNL A   1      36.856  32.390  30.139  1.00  0.00    -0.014 A 
BRANCH  39  40
ATOM     40  C   UNL A   1      38.030  31.717  30.756  1.00  0.00     0.031 A 
ATOM     41  C   UNL A   1      38.446  32.027  32.169  1.00  0.00     0.074 A 
ATOM     42  C   UNL A   1      38.696  30.784  30.047  1.00  0.00     0.049 A 
ATOM     43  N   UNL A   1      39.421  31.510  32.871  1.00  0.00    -0.248 NA
ATOM     44  C   UNL A   1      37.670  33.050  32.888  1.00  0.00     0.031 C 
ATOM     45  C   UNL A   1      38.379  30.402  28.670  1.00  0.00     0.029 A 
ATOM     46  N   UNL A   1      39.753  29.976  30.382  1.00  0.00    -0.354 N 
ATOM     47  C   UNL A   1      39.388  32.151  34.105  1.00  0.00     0.074 A 
ATOM     48  C   UNL A   1      38.317  33.120  34.044  1.00  0.00     0.031 C 
ATOM     49  C   UNL A   1      39.184  29.400  28.297  1.00  0.00     0.029 A 
ATOM     50  C   UNL A   1      40.125  29.113  29.377  1.00  0.00     0.049 A 
ATOM     51  H   UNL A   1      40.203  30.011  31.257  1.00  0.00     0.167 HD
ATOM     52  C   UNL A   1      40.167  31.935  35.191  1.00  0.00     0.034 A 
ATOM     53  C   UNL A   1      41.116  28.199  29.321  1.00  0.00     0.034 A 
ATOM     54  C   UNL A   1      41.219  30.950  35.241  1.00  0.00     0.049 A 
ATOM     55  C   UNL A   1      41.990  28.001  30.531  1.00  0.00     0.074 A 
ATOM     56  C   UNL A   1      42.044  30.636  36.307  1.00  0.00     0.029 A 
ATOM     57  N   UNL A   1      41.592  30.121  34.192  1.00  0.00    -0.354 N 
ATOM     58  N   UNL A   1      41.913  28.583  31.706  1.00  0.00    -0.248 NA
ATOM     59  C   UNL A   1      43.086  27.030  30.416  1.00  0.00     0.031 C 
ATOM     60  C   UNL A   1      42.952  29.663  35.887  1.00  0.00     0.029 A 
ATOM     61  C   UNL A   1      42.652  29.317  34.579  1.00  0.00     0.049 A 
ATOM     62  H   UNL A   1      41.166  30.107  33.305  1.00  0.00     0.167 HD
ATOM     63  C   UNL A   1      42.941  28.039  32.471  1.00  0.00     0.074 A 
ATOM     64  C   UNL A   1      43.604  27.059  31.638  1.00  0.00     0.031 C 
ATOM     65  C   UNL A   1      43.305  28.335  33.745  1.00  0.00     0.034 A 
BRANCH  52  66
ATOM     66  C   UNL A   1      39.924  32.756  36.433  1.00  0.00     0.023 A 
ATOM     67  C   UNL A   1      38.994  32.322  37.396  1.00  0.00     0.031 A 
ATOM     68  C   UNL A   1      40.509  34.025  36.600  1.00  0.00     0.131 A 
ATOM     69  C   UNL A   1      38.651  33.162  38.463  1.00  0.00     0.055 A 
ATOM     70  C   UNL A   1      40.192  34.841  37.686  1.00  0.00     0.041 A 
ATOM     71  F   UNL A   1      41.402  34.485  35.709  1.00  0.00    -0.206 F 
ATOM     72  C   UNL A   1      39.250  34.416  38.616  1.00  0.00     0.022 A 
BRANCH  69  73
ATOM     73  S   UNL A   1      37.370  32.689  39.658  1.00  0.00     0.124 S 
ATOM     74  O   UNL A   1      36.160  32.758  38.841  1.00  0.00    -0.237 OA
ATOM     75  O   UNL A   1      37.789  31.343  40.038  1.00  0.00    -0.237 OA
ATOM     76  O   UNL A   1      37.473  33.701  40.702  1.00  0.00    -0.744 OA
ENDBRANCH  69  73
ENDBRANCH  52  66
BRANCH  53  77
ATOM     77  C   UNL A   1      41.283  27.387  28.080  1.00  0.00     0.023 A 
ATOM     78  C   UNL A   1      40.913  26.030  28.050  1.00  0.00     0.031 A 
ATOM     79  C   UNL A   1      41.927  27.921  26.952  1.00  0.00     0.131 A 
ATOM     80  C   UNL A   1      41.265  25.235  26.953  1.00  0.00     0.055 A 
ATOM     81  C   UNL A   1      42.206  27.142  25.827  1.00  0.00     0.041 A 
ATOM     82  F   UNL A   1      42.310  29.207  26.937  1.00  0.00    -0.206 F 
ATOM     83  C   UNL A   1      41.893  25.787  25.832  1.00  0.00     0.022 A 
BRANCH  80  84
ATOM     84  S   UNL A   1      41.059  23.433  27.008  1.00  0.00     0.124 S 
ATOM     85  O   UNL A   1      41.767  23.008  25.805  1.00  0.00    -0.237 OA
ATOM     86  O   UNL A   1      41.706  23.098  28.275  1.00  0.00    -0.237 OA
ATOM     87  O   UNL A   1      39.611  23.251  26.986  1.00  0.00    -0.744 OA
ENDBRANCH  80  84
ENDBRANCH  53  77
BRANCH  65  88
ATOM     88  C   UNL A   1      44.484  27.607  34.343  1.00  0.00     0.023 A 
ATOM     89  C   UNL A   1      44.321  26.311  34.870  1.00  0.00     0.031 A 
ATOM     90  C   UNL A   1      45.720  28.250  34.531  1.00  0.00     0.131 A 
ATOM     91  C   UNL A   1      45.361  25.717  35.595  1.00  0.00     0.055 A 
ATOM     92  C   UNL A   1      46.769  27.634  35.213  1.00  0.00     0.041 A 
ATOM     93  F   UNL A   1      45.921  29.489  34.055  1.00  0.00    -0.206 F 
ATOM     94  C   UNL A   1      46.587  26.369  35.762  1.00  0.00     0.022 A 
BRANCH  91  95
ATOM     95  S   UNL A   1      45.132  24.120  36.424  1.00  0.00     0.124 S 
ATOM     96  O   UNL A   1      45.136  24.508  37.833  1.00  0.00    -0.237 OA
ATOM     97  O   UNL A   1      43.841  23.684  35.901  1.00  0.00    -0.237 OA
ATOM     98  O   UNL A   1      46.282  23.331  35.995  1.00  0.00    -0.744 OA
ENDBRANCH  91  95
ENDBRANCH  65  88
ENDBRANCH  39  40
ENDBRANCH  31  34
ENDBRANCH  29  30
ENDBRANCH  28  29
ENDBRANCH   1  28
TORSDOF 19
ENDMDL
MODEL 2
REMARK VINA RESULT:     -11.8      2.012      2.345
REMARK SMILES CC(C)Cc1cc2c(cc1Cl)C=C(C(=O)NCCCCCCNC(=O)c1ccc(-c3c4nc(c(-c5cc(S(=O)(=O)[O-])ccc5F)c5ccc([nH]5)c(-c5cc(S(=O)(=O)[O-])ccc5F)c5nc(c(-c6cc(S(=O)(=O)[O-])ccc6F)c6ccc3[nH]6)C=C5)C=C4)cc1)[C@@H](C(F)(F)F)O2
REMARK SMILES IDX 20 1 19 2 18 3 17 4 16 5 14 6 15 7 13 9 5 10 6 11 10 12 7 13
REMARK SMILES IDX 9 14 11 15 8 16 94 17 12 18 89 19 4 20 2 21 1 22 3 23 90 24
REMARK SMILES IDX 91 25 92 26 93 27 21 28 22 29 23 30 24 31 25 33 26 34 27 35
REMARK SMILES IDX 88 36 28 37 87 38 29 39 30 40 31 41 81 42 32 43 86 44 80 45
REMARK SMILES IDX 82 46 33 47 85 48 79 49 78 50 34 52 66 53 46 54 65 55 47 56
REMARK SMILES IDX 50 57 64 58 83 59 48 60 49 61 63 63 84 64 51 65 35 66 36 67
REMARK SMILES IDX 44 68 37 69 43 70 45 71 42 72 38 73 39 74 40 75 41 76 67 77
REMARK SMILES IDX 68 78 76 79 69 80 75 81 77 82 74 83 70 84 71 85 72 86 73 87
REMARK SMILES IDX 52 88 53 89 61 90 54 91 60 92 62 93 59 94 55 95 56 96 57 97
REMARK SMILES IDX 58 98
REMARK H PARENT 16 8 23 32 82 51 50 62
REMARK Flexibility Score: inf
ROOT
ATOM      1  C   UNL A   1      31.053  31.106  26.380  1.00  0.00     0.002 C 
ENDROOT
BRANCH   1   2
ATOM      2  C   UNL A   1      32.161  30.111  26.018  1.00  0.00     0.002 C 
BRANCH   2   3
ATOM      3  C   UNL A   1      32.527  29.090  27.099  1.00  0.00     0.021 C 
BRANCH   3   4
ATOM      4  C   UNL A   1      33.407  27.939  26.626  1.00  0.00     0.116 C 
BRANCH   4   5
ATOM      5  N   UNL A   1      33.638  27.972  25.195  1.00  0.00    -0.352 N 
ATOM      6  C   UNL A   1      33.689  27.060  24.196  1.00  0.00     0.251 C 
ATOM      7  O   UNL A   1      33.902  27.518  23.068  1.00  0.00    -0.270 OA
ATOM      8  H   UNL A   1      33.799  28.887  24.868  1.00  0.00     0.163 HD
BRANCH   6   9
ATOM      9  C   UNL A   1      33.515  25.586  24.370  1.00  0.00     0.067 C 
ATOM     10  C   UNL A   1      34.528  20.637  24.721  1.00  0.00    -0.025 A 
ATOM     11  C   UNL A   1      33.353  21.407  24.695  1.00  0.00     0.052 A 
ATOM     12  C   UNL A   1      35.760  21.308  24.716  1.00  0.00     0.045 A 
ATOM     13  C   UNL A   1      33.410  22.799  24.629  1.00  0.00     0.128 A 
ATOM     14  C   UNL A   1      35.811  22.705  24.639  1.00  0.00     0.032 A 
ATOM     15  Cl  UNL A   1      37.269  20.469  24.803  1.00  0.00    -0.084 Cl
ATOM     16  C   UNL A   1      34.634  23.454  24.585  1.00  0.00     0.019 A 
ATOM     17  O   UNL A   1      32.212  23.442  24.627  1.00  0.00    -0.475 OA
ATOM     18  C   UNL A   1      34.669  24.904  24.484  1.00  0.00     0.025 C 
ATOM     19  C   UNL A   1      32.188  24.870  24.348  1.00  0.00     0.314 C 
BRANCH  10  20
ATOM     20  C   UNL A   1      34.390  19.131  24.705  1.00  0.00     0.040 C 
BRANCH  20  21
ATOM     21  C   UNL A   1      32.923  18.655  24.610  1.00  0.00    -0.013 C 
ATOM     22  C   UNL A   1      32.553  18.166  23.207  1.00  0.00     0.008 C 
ATOM     23  C   UNL A   1      32.672  17.536  25.623  1.00  0.00     0.008 C 
ENDBRANCH  20  21
ENDBRANCH  10  20
BRANCH  19  24
ATOM     24  C   UNL A   1      31.393  25.066  23.047  1.00  0.00     0.429 C 
ATOM     25  F   UNL A   1      32.179  24.813  21.971  1.00  0.00    -0.167 F 
ATOM     26  F   UNL A   1      30.330  24.238  22.943  1.00  0.00    -0.167 F 
ATOM     27  F   UNL A   1      30.926  26.329  22.921  1.00  0.00    -0.167 F 
ENDBRANCH  19  24
ENDBRANCH   6   9
ENDBRANCH   4   5
ENDBRANCH   3   4
ENDBRANCH   2   3
ENDBRANCH   1   2
BRANCH   1  28
ATOM     28  C   UNL A   1      31.466  32.576  26.452  1.00  0.00     0.021 C 
BRANCH  28  29
ATOM     29  C   UNL A   1      32.657  32.878  27.352  1.00  0.00     0.116 C 
BRANCH  29  30
ATOM     30  N   UNL A   1      32.657  34.241  27.851  1.00  0.00    -0.352 N 
ATOM     31  C   UNL A   1      33.489  34.823  28.779  1.00  0.00     0.251 C 
ATOM     32  H   UNL A   1      31.964  34.831  27.474  1.00  0.00     0.163 HD
ATOM     33  O   UNL A   1      33.252  35.955  29.189  1.00  0.00    -0.269 OA
BRANCH  31  34
ATOM     34  C   UNL A   1      34.643  34.059  29.304  1.00  0.00     0.039 A 
ATOM     35  C   UNL A   1      34.449  32.974  30.163  1.00  0.00     0.014 A 
ATOM     36  C   UNL A   1      35.937  34.457  28.956  1.00  0.00     0.014 A 
ATOM     37  C   UNL A   1      35.541  32.396  30.800  1.00  0.00     0.010 A 
ATOM     38  C   UNL A   1      37.038  33.817  29.535  1.00  0.00     0.010 A 
ATOM     39  C   UNL A   1      36.849  32.814  30.498  1.00  0.00    -0.014 A 
BRANCH  39  40
ATOM     40  C   UNL A   1      38.000  32.179  31.194  1.00  0.00     0.031 A 
ATOM     41  C   UNL A   1      38.402  32.612  32.578  1.00  0.00     0.074 A 
ATOM     42  C   UNL A   1      38.656  31.171  30.586  1.00  0.00     0.049 A 
ATOM     43  N   UNL A   1      39.356  32.144  33.341  1.00  0.00    -0.248 NA
ATOM     44  C   UNL A   1      37.637  33.713  33.186  1.00  0.00     0.031 C 
ATOM     45  C   UNL A   1      38.351  30.668  29.247  1.00  0.00     0.029 A 
ATOM     46  N   UNL A   1      39.692  30.378  31.012  1.00  0.00    -0.354 N 
ATOM     47  C   UNL A   1      39.318  32.898  34.510  1.00  0.00     0.074 A 
ATOM     48  C   UNL A   1      38.269  33.879  34.341  1.00  0.00     0.031 C 
ATOM     49  C   UNL A   1      39.141  29.620  28.982  1.00  0.00     0.029 A 
ATOM     50  C   UNL A   1      40.060  29.417  30.099  1.00  0.00     0.049 A 
ATOM     51  H   UNL A   1      40.130  30.486  31.888  1.00  0.00     0.167 HD
ATOM     52  C   UNL A   1      40.077  32.770  35.624  1.00  0.00     0.034 A 
ATOM     53  C   UNL A   1      41.033  28.483  30.145  1.00  0.00     0.034 A 
ATOM     54  C   UNL A   1      41.108  31.775  35.783  1.00  0.00     0.049 A 
ATOM     55  C   UNL A   1      41.885  28.383  31.382  1.00  0.00     0.074 A 
ATOM     56  C   UNL A   1      41.910  31.546  36.887  1.00  0.00     0.029 A 
ATOM     57  N   UNL A   1      41.478  30.844  34.822  1.00  0.00    -0.354 N 
ATOM     58  N   UNL A   1      41.803  29.073  32.496  1.00  0.00    -0.248 NA
ATOM     59  C   UNL A   1      42.961  27.383  31.376  1.00  0.00     0.031 C 
ATOM     60  C   UNL A   1      42.804  30.520  36.574  1.00  0.00     0.029 A 
ATOM     61  C   UNL A   1      42.516  30.059  35.299  1.00  0.00     0.049 A 
ATOM     62  H   UNL A   1      41.065  30.755  33.933  1.00  0.00     0.167 HD
ATOM     63  C   UNL A   1      42.808  28.584  33.325  1.00  0.00     0.074 A 
ATOM     64  C   UNL A   1      43.462  27.517  32.598  1.00  0.00     0.031 C 
ATOM     65  C   UNL A   1      43.160  28.990  34.571  1.00  0.00     0.034 A 
BRANCH  52  66
ATOM     66  C   UNL A   1      39.834  33.709  36.779  1.00  0.00     0.023 A 
ATOM     67  C   UNL A   1      40.759  34.731  37.066  1.00  0.00     0.031 A 
ATOM     68  C   UNL A   1      38.765  33.513  37.671  1.00  0.00     0.131 A 
ATOM     69  C   UNL A   1      40.616  35.494  38.231  1.00  0.00     0.055 A 
ATOM     70  C   UNL A   1      38.605  34.302  38.811  1.00  0.00     0.041 A 
ATOM     71  F   UNL A   1      37.855  32.552  37.443  1.00  0.00    -0.206 F 
ATOM     72  C   UNL A   1      39.541  35.290  39.102  1.00  0.00     0.022 A 
BRANCH  69  73
ATOM     73  S   UNL A   1      41.852  36.739  38.698  1.00  0.00     0.124 S 
ATOM     74  O   UNL A   1      42.463  37.052  37.408  1.00  0.00    -0.237 OA
ATOM     75  O   UNL A   1      41.020  37.796  39.267  1.00  0.00    -0.237 OA
ATOM     76  O   UNL A   1      42.716  36.039  39.641  1.00  0.00    -0.744 OA
ENDBRANCH  69  73
ENDBRANCH  52  66
BRANCH  53  77
ATOM     77  C   UNL A   1      41.201  27.555  28.988  1.00  0.00     0.023 A 
ATOM     78  C   UNL A   1      42.200  27.777  28.023  1.00  0.00     0.031 A 
ATOM     79  C   UNL A   1      40.290  26.509  28.767  1.00  0.00     0.131 A 
ATOM     80  C   UNL A   1      42.211  27.022  26.844  1.00  0.00     0.055 A 
ATOM     81  C   UNL A   1      40.353  25.707  27.626  1.00  0.00     0.041 A 
ATOM     82  F   UNL A   1      39.312  26.265  29.652  1.00  0.00    -0.206 F 
ATOM     83  C   UNL A   1      41.305  25.976  26.647  1.00  0.00     0.022 A 
BRANCH  80  84
ATOM     84  S   UNL A   1      43.300  27.472  25.464  1.00  0.00     0.124 S 
ATOM     85  O   UNL A   1      43.763  26.167  25.003  1.00  0.00    -0.237 OA
ATOM     86  O   UNL A   1      42.376  28.167  24.570  1.00  0.00    -0.237 OA
ATOM     87  O   UNL A   1      44.312  28.319  26.086  1.00  0.00    -0.744 OA
ENDBRANCH  80  84
ENDBRANCH  53  77
BRANCH  65  88
ATOM     88  C   UNL A   1      44.315  28.300  35.254  1.00  0.00     0.023 A 
ATOM     89  C   UNL A   1      44.071  27.300  36.216  1.00  0.00     0.031 A 
ATOM     90  C   UNL A   1      45.639  28.734  35.069  1.00  0.00     0.131 A 
ATOM     91  C   UNL A   1      45.129  26.799  36.985  1.00  0.00     0.055 A 
ATOM     92  C   UNL A   1      46.695  28.198  35.805  1.00  0.00     0.041 A 
ATOM     93  F   UNL A   1      45.920  29.692  34.170  1.00  0.00    -0.206 F 
ATOM     94  C   UNL A   1      46.440  27.237  36.779  1.00  0.00     0.022 A 
BRANCH  91  95
ATOM     95  S   UNL A   1      44.830  25.631  38.341  1.00  0.00     0.124 S 
ATOM     96  O   UNL A   1      44.196  26.486  39.341  1.00  0.00    -0.237 OA
ATOM     97  O   UNL A   1      43.952  24.649  37.712  1.00  0.00    -0.237 OA
ATOM     98  O   UNL A   1      46.162  25.149  38.691  1.00  0.00    -0.744 OA
ENDBRANCH  91  95
ENDBRANCH  65  88
ENDBRANCH  39  40
ENDBRANCH  31  34
ENDBRANCH  29  30
ENDBRANCH  28  29
ENDBRANCH   1  28
TORSDOF 19
ENDMDL
MODEL 3
REMARK VINA RESULT:     -11.5      5.798      9.789
REMARK SMILES CC(C)Cc1cc2c(cc1Cl)C=C(C(=O)NCCCCCCNC(=O)c1ccc(-c3c4nc(c(-c5cc(S(=O)(=O)[O-])ccc5F)c5ccc([nH]5)c(-c5cc(S(=O)(=O)[O-])ccc5F)c5nc(c(-c6cc(S(=O)(=O)[O-])ccc6F)c6ccc3[nH]6)C=C5)C=C4)cc1)[C@@H](C(F)(F)F)O2
REMARK SMILES IDX 20 1 19 2 18 3 17 4 16 5 14 6 15 7 13 9 5 10 6 11 10 12 7 13
REMARK SMILES IDX 9 14 11 15 8 16 94 17 12 18 89 19 4 20 2 21 1 22 3 23 90 24
REMARK SMILES IDX 91 25 92 26 93 27 21 28 22 29 23 30 24 31 25 33 26 34 27 35
REMARK SMILES IDX 88 36 28 37 87 38 29 39 30 40 31 41 81 42 32 43 86 44 80 45
REMARK SMILES IDX 82 46 33 47 85 48 79 49 78 50 34 52 66 53 46 54 65 55 47 56
REMARK SMILES IDX 50 57 64 58 83 59 48 60 49 61 63 63 84 64 51 65 35 66 36 67
REMARK SMILES IDX 44 68 37 69 43 70 45 71 42 72 38 73 39 74 40 75 41 76 67 77
REMARK SMILES IDX 68 78 76 79 69 80 75 81 77 82 74 83 70 84 71 85 72 86 73 87
REMARK SMILES IDX 52 88 53 89 61 90 54 91 60 92 62 93 59 94 55 95 56 96 57 97
REMARK SMILES IDX 58 98
REMARK H PARENT 16 8 23 32 82 51 50 62
REMARK Flexibility Score: inf
ROOT
ATOM      1  C   UNL A   1      39.629  23.056  26.729  1.00  0.00     0.002 C 
ENDROOT
BRANCH   1   2
ATOM      2  C   UNL A   1      38.391  23.902  26.411  1.00  0.00     0.002 C 
BRANCH   2   3
ATOM      3  C   UNL A   1      37.278  23.197  25.631  1.00  0.00     0.021 C 
BRANCH   3   4
ATOM      4  C   UNL A   1      36.043  24.048  25.362  1.00  0.00     0.116 C 
BRANCH   4   5
ATOM      5  N   UNL A   1      34.914  23.660  26.186  1.00  0.00    -0.352 N 
ATOM      6  C   UNL A   1      33.592  23.948  26.225  1.00  0.00     0.251 C 
ATOM      7  O   UNL A   1      32.947  23.370  27.105  1.00  0.00    -0.270 OA
ATOM      8  H   UNL A   1      35.174  23.028  26.895  1.00  0.00     0.163 HD
BRANCH   6   9
ATOM      9  C   UNL A   1      32.893  24.894  25.302  1.00  0.00     0.067 C 
ATOM     10  C   UNL A   1      30.586  29.028  23.503  1.00  0.00    -0.025 A 
ATOM     11  C   UNL A   1      30.821  27.732  23.012  1.00  0.00     0.052 A 
ATOM     12  C   UNL A   1      31.133  29.373  24.749  1.00  0.00     0.045 A 
ATOM     13  C   UNL A   1      31.546  26.803  23.758  1.00  0.00     0.128 A 
ATOM     14  C   UNL A   1      31.850  28.432  25.498  1.00  0.00     0.032 A 
ATOM     15  Cl  UNL A   1      30.957  30.952  25.429  1.00  0.00    -0.084 Cl
ATOM     16  C   UNL A   1      32.051  27.140  25.007  1.00  0.00     0.019 A 
ATOM     17  O   UNL A   1      31.727  25.588  23.177  1.00  0.00    -0.475 OA
ATOM     18  C   UNL A   1      32.776  26.146  25.781  1.00  0.00     0.025 C 
ATOM     19  C   UNL A   1      32.286  24.508  23.976  1.00  0.00     0.314 C 
BRANCH  10  20
ATOM     20  C   UNL A   1      29.719  29.953  22.680  1.00  0.00     0.040 C 
BRANCH  20  21
ATOM     21  C   UNL A   1      28.346  30.238  23.328  1.00  0.00    -0.013 C 
ATOM     22  C   UNL A   1      27.713  31.535  22.820  1.00  0.00     0.008 C 
ATOM     23  C   UNL A   1      27.394  29.069  23.065  1.00  0.00     0.008 C 
ENDBRANCH  20  21
ENDBRANCH  10  20
BRANCH  19  24
ATOM     24  C   UNL A   1      31.213  23.412  24.076  1.00  0.00     0.429 C 
ATOM     25  F   UNL A   1      30.556  23.500  25.259  1.00  0.00    -0.167 F 
ATOM     26  F   UNL A   1      30.270  23.503  23.111  1.00  0.00    -0.167 F 
ATOM     27  F   UNL A   1      31.744  22.171  23.995  1.00  0.00    -0.167 F 
ENDBRANCH  19  24
ENDBRANCH   6   9
ENDBRANCH   4   5
ENDBRANCH   3   4
ENDBRANCH   2   3
ENDBRANCH   1   2
BRANCH   1  28
ATOM     28  C   UNL A   1      39.650  21.645  26.139  1.00  0.00     0.021 C 
BRANCH  28  29
ATOM     29  C   UNL A   1      40.409  20.606  26.954  1.00  0.00     0.116 C 
BRANCH  29  30
ATOM     30  N   UNL A   1      41.465  19.956  26.198  1.00  0.00    -0.352 N 
ATOM     31  C   UNL A   1      42.651  20.481  25.741  1.00  0.00     0.251 C 
ATOM     32  H   UNL A   1      41.309  19.008  25.981  1.00  0.00     0.163 HD
ATOM     33  O   UNL A   1      43.364  19.822  24.991  1.00  0.00    -0.269 OA
BRANCH  31  34
ATOM     34  C   UNL A   1      43.038  21.856  26.130  1.00  0.00     0.039 A 
ATOM     35  C   UNL A   1      43.378  22.155  27.452  1.00  0.00     0.014 A 
ATOM     36  C   UNL A   1      43.028  22.865  25.162  1.00  0.00     0.014 A 
ATOM     37  C   UNL A   1      43.546  23.480  27.837  1.00  0.00     0.010 A 
ATOM     38  C   UNL A   1      43.281  24.188  25.538  1.00  0.00     0.010 A 
ATOM     39  C   UNL A   1      43.493  24.514  26.887  1.00  0.00    -0.014 A 
BRANCH  39  40
ATOM     40  C   UNL A   1      43.675  25.923  27.326  1.00  0.00     0.031 A 
ATOM     41  C   UNL A   1      42.523  26.714  27.886  1.00  0.00     0.074 A 
ATOM     42  C   UNL A   1      44.902  26.475  27.260  1.00  0.00     0.049 A 
ATOM     43  N   UNL A   1      42.513  27.938  28.345  1.00  0.00    -0.248 NA
ATOM     44  C   UNL A   1      41.212  26.047  27.936  1.00  0.00     0.031 C 
ATOM     45  C   UNL A   1      46.091  25.800  26.738  1.00  0.00     0.029 A 
ATOM     46  N   UNL A   1      45.363  27.708  27.649  1.00  0.00    -0.354 N 
ATOM     47  C   UNL A   1      41.200  28.196  28.725  1.00  0.00     0.074 A 
ATOM     48  C   UNL A   1      40.434  27.012  28.410  1.00  0.00     0.031 C 
ATOM     49  C   UNL A   1      47.152  26.603  26.887  1.00  0.00     0.029 A 
ATOM     50  C   UNL A   1      46.714  27.878  27.449  1.00  0.00     0.049 A 
ATOM     51  H   UNL A   1      44.782  28.404  28.034  1.00  0.00     0.167 HD
ATOM     52  C   UNL A   1      40.689  29.311  29.299  1.00  0.00     0.034 A 
ATOM     53  C   UNL A   1      47.512  28.942  27.679  1.00  0.00     0.034 A 
ATOM     54  C   UNL A   1      41.472  30.477  29.625  1.00  0.00     0.049 A 
ATOM     55  C   UNL A   1      46.913  30.181  28.288  1.00  0.00     0.074 A 
ATOM     56  C   UNL A   1      41.050  31.644  30.236  1.00  0.00     0.029 A 
ATOM     57  N   UNL A   1      42.828  30.628  29.372  1.00  0.00    -0.354 N 
ATOM     58  N   UNL A   1      45.678  30.389  28.685  1.00  0.00    -0.248 NA
ATOM     59  C   UNL A   1      47.805  31.332  28.482  1.00  0.00     0.031 C 
ATOM     60  C   UNL A   1      42.133  32.522  30.300  1.00  0.00     0.029 A 
ATOM     61  C   UNL A   1      43.251  31.880  29.791  1.00  0.00     0.049 A 
ATOM     62  H   UNL A   1      43.405  29.947  28.957  1.00  0.00     0.167 HD
ATOM     63  C   UNL A   1      45.649  31.688  29.184  1.00  0.00     0.074 A 
ATOM     64  C   UNL A   1      46.997  32.205  29.071  1.00  0.00     0.031 C 
ATOM     65  C   UNL A   1      44.599  32.388  29.682  1.00  0.00     0.034 A 
BRANCH  52  66
ATOM     66  C   UNL A   1      39.219  29.344  29.636  1.00  0.00     0.023 A 
ATOM     67  C   UNL A   1      38.324  30.066  28.822  1.00  0.00     0.031 A 
ATOM     68  C   UNL A   1      38.725  28.779  30.825  1.00  0.00     0.131 A 
ATOM     69  C   UNL A   1      36.994  30.231  29.225  1.00  0.00     0.055 A 
ATOM     70  C   UNL A   1      37.389  28.914  31.203  1.00  0.00     0.041 A 
ATOM     71  F   UNL A   1      39.538  28.081  31.636  1.00  0.00    -0.206 F 
ATOM     72  C   UNL A   1      36.519  29.654  30.407  1.00  0.00     0.022 A 
BRANCH  69  73
ATOM     73  S   UNL A   1      35.841  31.253  28.267  1.00  0.00     0.124 S 
ATOM     74  O   UNL A   1      36.711  32.332  27.804  1.00  0.00    -0.237 OA
ATOM     75  O   UNL A   1      35.397  30.323  27.231  1.00  0.00    -0.237 OA
ATOM     76  O   UNL A   1      34.827  31.645  29.239  1.00  0.00    -0.744 OA
ENDBRANCH  69  73
ENDBRANCH  52  66
BRANCH  53  77
ATOM     77  C   UNL A   1      48.967  28.836  27.363  1.00  0.00     0.023 A 
ATOM     78  C   UNL A   1      49.437  29.021  26.050  1.00  0.00     0.031 A 
ATOM     79  C   UNL A   1      49.888  28.429  28.342  1.00  0.00     0.131 A 
ATOM     80  C   UNL A   1      50.767  28.717  25.735  1.00  0.00     0.055 A 
ATOM     81  C   UNL A   1      51.232  28.203  28.040  1.00  0.00     0.041 A 
ATOM     82  F   UNL A   1      49.486  28.228  29.607  1.00  0.00    -0.206 F 
ATOM     83  C   UNL A   1      51.672  28.326  26.726  1.00  0.00     0.022 A 
BRANCH  80  84
ATOM     84  S   UNL A   1      51.324  28.669  24.009  1.00  0.00     0.124 S 
ATOM     85  O   UNL A   1      51.683  30.063  23.767  1.00  0.00    -0.237 OA
ATOM     86  O   UNL A   1      52.443  27.732  24.083  1.00  0.00    -0.237 OA
ATOM     87  O   UNL A   1      50.156  28.182  23.283  1.00  0.00    -0.744 OA
ENDBRANCH  80  84
ENDBRANCH  53  77
BRANCH  65  88
ATOM     88  C   UNL A   1      44.833  33.805  30.144  1.00  0.00     0.023 A 
ATOM     89  C   UNL A   1      44.579  34.883  29.273  1.00  0.00     0.031 A 
ATOM     90  C   UNL A   1      45.446  34.079  31.379  1.00  0.00     0.131 A 
ATOM     91  C   UNL A   1      44.977  36.177  29.631  1.00  0.00     0.055 A 
ATOM     92  C   UNL A   1      45.797  35.377  31.751  1.00  0.00     0.041 A 
ATOM     93  F   UNL A   1      45.716  33.084  32.239  1.00  0.00    -0.206 F 
ATOM     94  C   UNL A   1      45.577  36.430  30.869  1.00  0.00     0.022 A 
BRANCH  91  95
ATOM     95  S   UNL A   1      44.815  37.562  28.470  1.00  0.00     0.124 S 
ATOM     96  O   UNL A   1      44.262  36.902  27.289  1.00  0.00    -0.237 OA
ATOM     97  O   UNL A   1      43.895  38.449  29.176  1.00  0.00    -0.237 OA
ATOM     98  O   UNL A   1      46.178  38.060  28.322  1.00  0.00    -0.744 OA
ENDBRANCH  91  95
ENDBRANCH  65  88
ENDBRANCH  39  40
ENDBRANCH  31  34
ENDBRANCH  29  30
ENDBRANCH  28  29
ENDBRANCH   1  28
TORSDOF 19
ENDMDL
