MODEL 1
REMARK VINA RESULT:     -12.6      0.000      0.000
REMARK SMILES Cc1cc(C)c2c(c1)C=C(C(=O)NCCCCCCNC(=O)c1ccc(-c3c4nc(c(-c5cc(S(=O)(=O)[O-])ccc5F)c5ccc([nH]5)c(-c5cc(S(=O)(=O)[O-])ccc5F)c5nc(c(-c6cc(S(=O)(=O)[O-])ccc6F)c6ccc3[nH]6)C=C5)C=C4)cc1)[C@@H](C(F)(F)F)O2
REMARK SMILES IDX 17 1 16 2 15 3 14 4 13 5 11 6 12 7 10 9 1 10 2 11 3 12 8 13
REMARK SMILES IDX 4 14 7 15 5 16 6 17 9 18 91 19 86 20 87 21 88 22 89 23 90 24
REMARK SMILES IDX 18 25 19 26 20 27 21 28 22 30 23 31 24 32 85 33 25 34 84 35
REMARK SMILES IDX 26 36 27 37 28 38 78 39 29 40 83 41 77 42 79 43 30 44 82 45
REMARK SMILES IDX 76 46 75 47 31 49 63 50 43 51 62 52 44 53 47 54 61 55 80 56
REMARK SMILES IDX 45 57 46 58 60 60 81 61 48 62 32 63 33 64 41 65 34 66 40 67
REMARK SMILES IDX 42 68 39 69 35 70 36 71 37 72 38 73 64 74 65 75 73 76 66 77
REMARK SMILES IDX 72 78 74 79 71 80 67 81 68 82 69 83 70 84 49 85 50 86 58 87
REMARK SMILES IDX 51 88 57 89 59 90 56 91 52 92 53 93 54 94 55 95
REMARK H PARENT 13 8 20 29 79 48 47 59
REMARK Flexibility Score: inf
ROOT
ATOM      1  C   UNL A   1      34.453  22.002  24.073  1.00  0.00     0.002 C 
ENDROOT
BRANCH   1   2
ATOM      2  C   UNL A   1      33.884  20.659  24.549  1.00  0.00     0.002 C 
BRANCH   2   3
ATOM      3  C   UNL A   1      32.368  20.640  24.757  1.00  0.00     0.021 C 
BRANCH   3   4
ATOM      4  C   UNL A   1      31.733  22.024  24.679  1.00  0.00     0.116 C 
BRANCH   4   5
ATOM      5  N   UNL A   1      30.985  22.345  25.883  1.00  0.00    -0.352 N 
ATOM      6  C   UNL A   1      30.563  23.462  26.519  1.00  0.00     0.251 C 
ATOM      7  O   UNL A   1      29.898  23.271  27.542  1.00  0.00    -0.270 OA
ATOM      8  H   UNL A   1      30.712  21.531  26.365  1.00  0.00     0.163 HD
BRANCH   6   9
ATOM      9  C   UNL A   1      30.850  24.860  26.075  1.00  0.00     0.067 C 
ATOM     10  C   UNL A   1      28.757  29.230  22.218  1.00  0.00     0.044 C 
ATOM     11  C   UNL A   1      29.590  28.640  23.317  1.00  0.00    -0.050 A 
ATOM     12  C   UNL A   1      30.599  29.406  23.919  1.00  0.00     0.010 A 
ATOM     13  C   UNL A   1      29.402  27.310  23.720  1.00  0.00     0.015 A 
ATOM     14  C   UNL A   1      31.398  28.868  24.930  1.00  0.00    -0.008 A 
ATOM     15  C   UNL A   1      30.194  26.757  24.729  1.00  0.00     0.018 A 
ATOM     16  C   UNL A   1      32.468  29.691  25.591  1.00  0.00     0.048 C 
ATOM     17  C   UNL A   1      31.187  27.540  25.321  1.00  0.00     0.130 A 
ATOM     18  C   UNL A   1      29.975  25.395  25.205  1.00  0.00     0.025 C 
ATOM     19  O   UNL A   1      31.970  27.080  26.338  1.00  0.00    -0.475 OA
ATOM     20  C   UNL A   1      32.048  25.647  26.520  1.00  0.00     0.314 C 
BRANCH  20  21
ATOM     21  C   UNL A   1      33.360  25.134  25.901  1.00  0.00     0.429 C 
ATOM     22  F   UNL A   1      34.338  26.065  26.018  1.00  0.00    -0.167 F 
ATOM     23  F   UNL A   1      33.823  24.016  26.510  1.00  0.00    -0.167 F 
ATOM     24  F   UNL A   1      33.233  24.840  24.587  1.00  0.00    -0.167 F 
ENDBRANCH  20  21
ENDBRANCH   6   9
ENDBRANCH   4   5
ENDBRANCH   3   4
ENDBRANCH   2   3
ENDBRANCH   1   2
BRANCH   1  25
ATOM     25  C   UNL A   1      35.979  22.123  24.137  1.00  0.00     0.021 C 
BRANCH  25  26
ATOM     26  C   UNL A   1      36.552  22.105  25.550  1.00  0.00     0.116 C 
BRANCH  26  27
ATOM     27  N   UNL A   1      37.478  21.000  25.737  1.00  0.00    -0.352 N 
ATOM     28  C   UNL A   1      38.820  21.034  26.012  1.00  0.00     0.251 C 
ATOM     29  H   UNL A   1      37.085  20.101  25.655  1.00  0.00     0.163 HD
ATOM     30  O   UNL A   1      39.494  20.014  25.897  1.00  0.00    -0.269 OA
BRANCH  28  31
ATOM     31  C   UNL A   1      39.443  22.304  26.432  1.00  0.00     0.039 A 
ATOM     32  C   UNL A   1      40.553  22.268  27.278  1.00  0.00     0.014 A 
ATOM     33  C   UNL A   1      38.929  23.527  25.989  1.00  0.00     0.014 A 
ATOM     34  C   UNL A   1      41.180  23.461  27.638  1.00  0.00     0.010 A 
ATOM     35  C   UNL A   1      39.597  24.709  26.293  1.00  0.00     0.010 A 
ATOM     36  C   UNL A   1      40.727  24.687  27.123  1.00  0.00    -0.014 A 
BRANCH  36  37
ATOM     37  C   UNL A   1      41.417  25.958  27.454  1.00  0.00     0.031 A 
ATOM     38  C   UNL A   1      40.715  27.001  28.279  1.00  0.00     0.074 A 
ATOM     39  C   UNL A   1      42.659  26.183  26.980  1.00  0.00     0.049 A 
ATOM     40  N   UNL A   1      41.123  28.196  28.615  1.00  0.00    -0.248 NA
ATOM     41  C   UNL A   1      39.371  26.663  28.777  1.00  0.00     0.031 C 
ATOM     42  C   UNL A   1      43.431  25.249  26.158  1.00  0.00     0.029 A 
ATOM     43  N   UNL A   1      43.493  27.264  27.124  1.00  0.00    -0.354 N 
ATOM     44  C   UNL A   1      40.092  28.751  29.364  1.00  0.00     0.074 A 
ATOM     45  C   UNL A   1      39.015  27.786  29.384  1.00  0.00     0.031 C 
ATOM     46  C   UNL A   1      44.637  25.781  25.903  1.00  0.00     0.029 A 
ATOM     47  C   UNL A   1      44.709  27.112  26.497  1.00  0.00     0.049 A 
ATOM     48  H   UNL A   1      43.244  28.072  27.629  1.00  0.00     0.167 HD
ATOM     49  C   UNL A   1      40.058  29.947  29.998  1.00  0.00     0.034 A 
ATOM     50  C   UNL A   1      45.759  27.952  26.406  1.00  0.00     0.034 A 
ATOM     51  C   UNL A   1      41.143  30.894  29.984  1.00  0.00     0.049 A 
ATOM     52  C   UNL A   1      45.675  29.298  27.079  1.00  0.00     0.074 A 
ATOM     53  C   UNL A   1      41.218  32.124  30.614  1.00  0.00     0.029 A 
ATOM     54  N   UNL A   1      42.345  30.719  29.310  1.00  0.00    -0.354 N 
ATOM     55  N   UNL A   1      44.689  29.807  27.780  1.00  0.00    -0.248 NA
ATOM     56  C   UNL A   1      46.842  30.180  26.951  1.00  0.00     0.031 C 
ATOM     57  C   UNL A   1      42.435  32.718  30.272  1.00  0.00     0.029 A 
ATOM     58  C   UNL A   1      43.154  31.828  29.490  1.00  0.00     0.049 A 
ATOM     59  H   UNL A   1      42.585  29.923  28.781  1.00  0.00     0.167 HD
ATOM     60  C   UNL A   1      45.130  31.057  28.202  1.00  0.00     0.074 A 
ATOM     61  C   UNL A   1      46.471  31.224  27.680  1.00  0.00     0.031 C 
ATOM     62  C   UNL A   1      44.487  31.980  28.960  1.00  0.00     0.034 A 
BRANCH  49  63
ATOM     63  C   UNL A   1      38.809  30.306  30.759  1.00  0.00     0.023 A 
ATOM     64  C   UNL A   1      37.768  31.032  30.157  1.00  0.00     0.031 A 
ATOM     65  C   UNL A   1      38.636  29.875  32.087  1.00  0.00     0.131 A 
ATOM     66  C   UNL A   1      36.611  31.332  30.890  1.00  0.00     0.055 A 
ATOM     67  C   UNL A   1      37.457  30.125  32.791  1.00  0.00     0.041 A 
ATOM     68  F   UNL A   1      39.608  29.195  32.715  1.00  0.00    -0.206 F 
ATOM     69  C   UNL A   1      36.438  30.860  32.194  1.00  0.00     0.022 A 
BRANCH  66  70
ATOM     70  S   UNL A   1      35.356  32.401  30.136  1.00  0.00     0.124 S 
ATOM     71  O   UNL A   1      34.403  32.554  31.232  1.00  0.00    -0.237 OA
ATOM     72  O   UNL A   1      36.122  33.592  29.785  1.00  0.00    -0.237 OA
ATOM     73  O   UNL A   1      34.873  31.615  29.002  1.00  0.00    -0.744 OA
ENDBRANCH  66  70
ENDBRANCH  49  63
BRANCH  50  74
ATOM     74  C   UNL A   1      46.977  27.549  25.650  1.00  0.00     0.023 A 
ATOM     75  C   UNL A   1      47.115  27.857  24.288  1.00  0.00     0.031 A 
ATOM     76  C   UNL A   1      48.019  26.843  26.276  1.00  0.00     0.131 A 
ATOM     77  C   UNL A   1      48.254  27.433  23.587  1.00  0.00     0.055 A 
ATOM     78  C   UNL A   1      49.171  26.462  25.586  1.00  0.00     0.041 A 
ATOM     79  F   UNL A   1      47.940  26.530  27.580  1.00  0.00    -0.206 F 
ATOM     80  C   UNL A   1      49.289  26.751  24.230  1.00  0.00     0.022 A 
BRANCH  77  81
ATOM     81  S   UNL A   1      48.345  27.747  21.803  1.00  0.00     0.124 S 
ATOM     82  O   UNL A   1      48.586  26.408  21.278  1.00  0.00    -0.237 OA
ATOM     83  O   UNL A   1      47.032  28.319  21.527  1.00  0.00    -0.237 OA
ATOM     84  O   UNL A   1      49.465  28.677  21.678  1.00  0.00    -0.744 OA
ENDBRANCH  77  81
ENDBRANCH  50  74
BRANCH  62  85
ATOM     85  C   UNL A   1      45.236  33.240  29.308  1.00  0.00     0.023 A 
ATOM     86  C   UNL A   1      45.214  34.366  28.470  1.00  0.00     0.031 A 
ATOM     87  C   UNL A   1      45.942  33.326  30.522  1.00  0.00     0.131 A 
ATOM     88  C   UNL A   1      45.912  35.524  28.842  1.00  0.00     0.055 A 
ATOM     89  C   UNL A   1      46.591  34.497  30.910  1.00  0.00     0.041 A 
ATOM     90  F   UNL A   1      45.991  32.277  31.359  1.00  0.00    -0.206 F 
ATOM     91  C   UNL A   1      46.585  35.602  30.065  1.00  0.00     0.022 A 
BRANCH  88  92
ATOM     92  S   UNL A   1      45.968  36.917  27.684  1.00  0.00     0.124 S 
ATOM     93  O   UNL A   1      44.733  37.626  28.002  1.00  0.00    -0.237 OA
ATOM     94  O   UNL A   1      47.205  37.591  28.063  1.00  0.00    -0.237 OA
ATOM     95  O   UNL A   1      45.994  36.273  26.372  1.00  0.00    -0.744 OA
ENDBRANCH  88  92
ENDBRANCH  62  85
ENDBRANCH  36  37
ENDBRANCH  28  31
ENDBRANCH  26  27
ENDBRANCH  25  26
ENDBRANCH   1  25
TORSDOF 17
ENDMDL
MODEL 2
REMARK VINA RESULT:     -12.4      0.275      7.421
REMARK SMILES Cc1cc(C)c2c(c1)C=C(C(=O)NCCCCCCNC(=O)c1ccc(-c3c4nc(c(-c5cc(S(=O)(=O)[O-])ccc5F)c5ccc([nH]5)c(-c5cc(S(=O)(=O)[O-])ccc5F)c5nc(c(-c6cc(S(=O)(=O)[O-])ccc6F)c6ccc3[nH]6)C=C5)C=C4)cc1)[C@@H](C(F)(F)F)O2
REMARK SMILES IDX 17 1 16 2 15 3 14 4 13 5 11 6 12 7 10 9 1 10 2 11 3 12 8 13
REMARK SMILES IDX 4 14 7 15 5 16 6 17 9 18 91 19 86 20 87 21 88 22 89 23 90 24
REMARK SMILES IDX 18 25 19 26 20 27 21 28 22 30 23 31 24 32 85 33 25 34 84 35
REMARK SMILES IDX 26 36 27 37 28 38 78 39 29 40 83 41 77 42 79 43 30 44 82 45
REMARK SMILES IDX 76 46 75 47 31 49 63 50 43 51 62 52 44 53 47 54 61 55 80 56
REMARK SMILES IDX 45 57 46 58 60 60 81 61 48 62 32 63 33 64 41 65 34 66 40 67
REMARK SMILES IDX 42 68 39 69 35 70 36 71 37 72 38 73 64 74 65 75 73 76 66 77
REMARK SMILES IDX 72 78 74 79 71 80 67 81 68 82 69 83 70 84 49 85 50 86 58 87
REMARK SMILES IDX 51 88 57 89 59 90 56 91 52 92 53 93 54 94 55 95
REMARK H PARENT 13 8 20 29 79 48 47 59
REMARK Flexibility Score: inf
ROOT
ATOM      1  C   UNL A   1      34.429  21.996  24.197  1.00  0.00     0.002 C 
ENDROOT
BRANCH   1   2
ATOM      2  C   UNL A   1      33.777  20.620  24.383  1.00  0.00     0.002 C 
BRANCH   2   3
ATOM      3  C   UNL A   1      32.282  20.655  24.710  1.00  0.00     0.021 C 
BRANCH   3   4
ATOM      4  C   UNL A   1      31.688  22.058  24.661  1.00  0.00     0.116 C 
BRANCH   4   5
ATOM      5  N   UNL A   1      30.960  22.380  25.876  1.00  0.00    -0.352 N 
ATOM      6  C   UNL A   1      30.551  23.498  26.520  1.00  0.00     0.251 C 
ATOM      7  O   UNL A   1      29.900  23.308  27.553  1.00  0.00    -0.270 OA
ATOM      8  H   UNL A   1      30.691  21.567  26.362  1.00  0.00     0.163 HD
BRANCH   6   9
ATOM      9  C   UNL A   1      30.836  24.896  26.074  1.00  0.00     0.067 C 
ATOM     10  C   UNL A   1      28.750  29.246  22.190  1.00  0.00     0.044 C 
ATOM     11  C   UNL A   1      29.578  28.662  23.296  1.00  0.00    -0.050 A 
ATOM     12  C   UNL A   1      30.581  29.434  23.901  1.00  0.00     0.010 A 
ATOM     13  C   UNL A   1      29.393  27.333  23.702  1.00  0.00     0.015 A 
ATOM     14  C   UNL A   1      31.376  28.901  24.919  1.00  0.00    -0.008 A 
ATOM     15  C   UNL A   1      30.181  26.786  24.718  1.00  0.00     0.018 A 
ATOM     16  C   UNL A   1      32.440  29.730  25.583  1.00  0.00     0.048 C 
ATOM     17  C   UNL A   1      31.167  27.575  25.313  1.00  0.00     0.130 A 
ATOM     18  C   UNL A   1      29.963  25.425  25.196  1.00  0.00     0.025 C 
ATOM     19  O   UNL A   1      31.946  27.120  26.335  1.00  0.00    -0.475 OA
ATOM     20  C   UNL A   1      32.028  25.689  26.523  1.00  0.00     0.314 C 
BRANCH  20  21
ATOM     21  C   UNL A   1      33.345  25.178  25.913  1.00  0.00     0.429 C 
ATOM     22  F   UNL A   1      33.753  24.047  26.539  1.00  0.00    -0.167 F 
ATOM     23  F   UNL A   1      33.227  24.864  24.600  1.00  0.00    -0.167 F 
ATOM     24  F   UNL A   1      34.347  26.082  26.011  1.00  0.00    -0.167 F 
ENDBRANCH  20  21
ENDBRANCH   6   9
ENDBRANCH   4   5
ENDBRANCH   3   4
ENDBRANCH   2   3
ENDBRANCH   1   2
BRANCH   1  25
ATOM     25  C   UNL A   1      35.961  21.999  24.207  1.00  0.00     0.021 C 
BRANCH  25  26
ATOM     26  C   UNL A   1      36.580  22.019  25.601  1.00  0.00     0.116 C 
BRANCH  26  27
ATOM     27  N   UNL A   1      37.557  20.956  25.766  1.00  0.00    -0.352 N 
ATOM     28  C   UNL A   1      38.898  21.049  26.035  1.00  0.00     0.251 C 
ATOM     29  H   UNL A   1      37.207  20.040  25.671  1.00  0.00     0.163 HD
ATOM     30  O   UNL A   1      39.619  20.064  25.900  1.00  0.00    -0.269 OA
BRANCH  28  31
ATOM     31  C   UNL A   1      39.463  22.341  26.471  1.00  0.00     0.039 A 
ATOM     32  C   UNL A   1      40.498  22.347  27.407  1.00  0.00     0.014 A 
ATOM     33  C   UNL A   1      38.967  23.543  25.956  1.00  0.00     0.014 A 
ATOM     34  C   UNL A   1      41.073  23.560  27.786  1.00  0.00     0.010 A 
ATOM     35  C   UNL A   1      39.587  24.744  26.283  1.00  0.00     0.010 A 
ATOM     36  C   UNL A   1      40.644  24.764  27.204  1.00  0.00    -0.014 A 
BRANCH  36  37
ATOM     37  C   UNL A   1      41.283  26.056  27.557  1.00  0.00     0.031 A 
ATOM     38  C   UNL A   1      42.681  26.354  27.090  1.00  0.00     0.074 A 
ATOM     39  C   UNL A   1      40.615  26.940  28.325  1.00  0.00     0.049 A 
ATOM     40  N   UNL A   1      43.432  27.392  27.350  1.00  0.00    -0.248 NA
ATOM     41  C   UNL A   1      43.328  25.345  26.235  1.00  0.00     0.031 C 
ATOM     42  C   UNL A   1      39.260  26.751  28.846  1.00  0.00     0.029 A 
ATOM     43  N   UNL A   1      40.982  28.175  28.798  1.00  0.00    -0.354 N 
ATOM     44  C   UNL A   1      44.634  27.165  26.690  1.00  0.00     0.074 A 
ATOM     45  C   UNL A   1      44.535  25.863  26.066  1.00  0.00     0.031 C 
ATOM     46  C   UNL A   1      38.896  27.845  29.533  1.00  0.00     0.029 A 
ATOM     47  C   UNL A   1      40.006  28.793  29.547  1.00  0.00     0.049 A 
ATOM     48  H   UNL A   1      41.861  28.581  28.618  1.00  0.00     0.167 HD
ATOM     49  C   UNL A   1      45.710  27.980  26.593  1.00  0.00     0.034 A 
ATOM     50  C   UNL A   1      40.009  29.984  30.179  1.00  0.00     0.034 A 
ATOM     51  C   UNL A   1      45.790  29.280  27.206  1.00  0.00     0.049 A 
ATOM     52  C   UNL A   1      41.240  30.848  30.097  1.00  0.00     0.074 A 
ATOM     53  C   UNL A   1      46.828  30.195  27.148  1.00  0.00     0.029 A 
ATOM     54  N   UNL A   1      44.796  29.857  27.985  1.00  0.00    -0.354 N 
ATOM     55  N   UNL A   1      42.370  30.614  29.471  1.00  0.00    -0.248 NA
ATOM     56  C   UNL A   1      41.197  32.136  30.802  1.00  0.00     0.031 C 
ATOM     57  C   UNL A   1      46.488  31.293  27.940  1.00  0.00     0.029 A 
ATOM     58  C   UNL A   1      45.207  31.101  28.432  1.00  0.00     0.049 A 
ATOM     59  H   UNL A   1      43.927  29.441  28.190  1.00  0.00     0.167 HD
ATOM     60  C   UNL A   1      43.160  31.739  29.682  1.00  0.00     0.074 A 
ATOM     61  C   UNL A   1      42.378  32.653  30.490  1.00  0.00     0.031 C 
ATOM     62  C   UNL A   1      44.417  31.997  29.240  1.00  0.00     0.034 A 
BRANCH  49  63
ATOM     63  C   UNL A   1      46.894  27.492  25.799  1.00  0.00     0.023 A 
ATOM     64  C   UNL A   1      47.068  27.847  24.452  1.00  0.00     0.031 A 
ATOM     65  C   UNL A   1      47.885  26.705  26.412  1.00  0.00     0.131 A 
ATOM     66  C   UNL A   1      48.193  27.391  23.749  1.00  0.00     0.055 A 
ATOM     67  C   UNL A   1      49.032  26.305  25.724  1.00  0.00     0.041 A 
ATOM     68  F   UNL A   1      47.758  26.322  27.692  1.00  0.00    -0.206 F 
ATOM     69  C   UNL A   1      49.188  26.644  24.385  1.00  0.00     0.022 A 
BRANCH  66  70
ATOM     70  S   UNL A   1      48.309  27.735  21.973  1.00  0.00     0.124 S 
ATOM     71  O   UNL A   1      48.528  26.398  21.428  1.00  0.00    -0.237 OA
ATOM     72  O   UNL A   1      47.013  28.339  21.681  1.00  0.00    -0.237 OA
ATOM     73  O   UNL A   1      49.453  28.639  21.874  1.00  0.00    -0.744 OA
ENDBRANCH  66  70
ENDBRANCH  49  63
BRANCH  50  74
ATOM     74  C   UNL A   1      38.811  30.428  30.945  1.00  0.00     0.023 A 
ATOM     75  C   UNL A   1      37.755  31.096  30.306  1.00  0.00     0.031 A 
ATOM     76  C   UNL A   1      38.709  30.201  32.328  1.00  0.00     0.131 A 
ATOM     77  C   UNL A   1      36.654  31.540  31.054  1.00  0.00     0.055 A 
ATOM     78  C   UNL A   1      37.591  30.604  33.061  1.00  0.00     0.041 A 
ATOM     79  F   UNL A   1      39.688  29.560  32.986  1.00  0.00    -0.206 F 
ATOM     80  C   UNL A   1      36.559  31.286  32.424  1.00  0.00     0.022 A 
BRANCH  77  81
ATOM     81  S   UNL A   1      35.363  32.499  30.217  1.00  0.00     0.124 S 
ATOM     82  O   UNL A   1      35.019  31.623  29.102  1.00  0.00    -0.237 OA
ATOM     83  O   UNL A   1      34.355  32.634  31.263  1.00  0.00    -0.237 OA
ATOM     84  O   UNL A   1      36.044  33.738  29.849  1.00  0.00    -0.744 OA
ENDBRANCH  77  81
ENDBRANCH  50  74
BRANCH  62  85
ATOM     85  C   UNL A   1      45.015  33.337  29.585  1.00  0.00     0.023 A 
ATOM     86  C   UNL A   1      44.885  34.443  28.730  1.00  0.00     0.031 A 
ATOM     87  C   UNL A   1      45.681  33.515  30.810  1.00  0.00     0.131 A 
ATOM     88  C   UNL A   1      45.443  35.676  29.098  1.00  0.00     0.055 A 
ATOM     89  C   UNL A   1      46.189  34.756  31.194  1.00  0.00     0.041 A 
ATOM     90  F   UNL A   1      45.829  32.489  31.663  1.00  0.00    -0.206 F 
ATOM     91  C   UNL A   1      46.078  35.843  30.333  1.00  0.00     0.022 A 
BRANCH  88  92
ATOM     92  S   UNL A   1      45.369  37.052  27.921  1.00  0.00     0.124 S 
ATOM     93  O   UNL A   1      46.727  37.582  27.989  1.00  0.00    -0.237 OA
ATOM     94  O   UNL A   1      45.009  36.382  26.676  1.00  0.00    -0.237 OA
ATOM     95  O   UNL A   1      44.335  37.923  28.475  1.00  0.00    -0.744 OA
ENDBRANCH  88  92
ENDBRANCH  62  85
ENDBRANCH  36  37
ENDBRANCH  28  31
ENDBRANCH  26  27
ENDBRANCH  25  26
ENDBRANCH   1  25
TORSDOF 17
ENDMDL
MODEL 3
REMARK VINA RESULT:     -12.4      1.239      1.545
REMARK SMILES Cc1cc(C)c2c(c1)C=C(C(=O)NCCCCCCNC(=O)c1ccc(-c3c4nc(c(-c5cc(S(=O)(=O)[O-])ccc5F)c5ccc([nH]5)c(-c5cc(S(=O)(=O)[O-])ccc5F)c5nc(c(-c6cc(S(=O)(=O)[O-])ccc6F)c6ccc3[nH]6)C=C5)C=C4)cc1)[C@@H](C(F)(F)F)O2
REMARK SMILES IDX 17 1 16 2 15 3 14 4 13 5 11 6 12 7 10 9 1 10 2 11 3 12 8 13
REMARK SMILES IDX 4 14 7 15 5 16 6 17 9 18 91 19 86 20 87 21 88 22 89 23 90 24
REMARK SMILES IDX 18 25 19 26 20 27 21 28 22 30 23 31 24 32 85 33 25 34 84 35
REMARK SMILES IDX 26 36 27 37 28 38 78 39 29 40 83 41 77 42 79 43 30 44 82 45
REMARK SMILES IDX 76 46 75 47 31 49 63 50 43 51 62 52 44 53 47 54 61 55 80 56
REMARK SMILES IDX 45 57 46 58 60 60 81 61 48 62 32 63 33 64 41 65 34 66 40 67
REMARK SMILES IDX 42 68 39 69 35 70 36 71 37 72 38 73 64 74 65 75 73 76 66 77
REMARK SMILES IDX 72 78 74 79 71 80 67 81 68 82 69 83 70 84 49 85 50 86 58 87
REMARK SMILES IDX 51 88 57 89 59 90 56 91 52 92 53 93 54 94 55 95
REMARK H PARENT 13 8 20 29 79 48 47 59
REMARK Flexibility Score: inf
ROOT
ATOM      1  C   UNL A   1      34.397  22.730  23.920  1.00  0.00     0.002 C 
ENDROOT
BRANCH   1   2
ATOM      2  C   UNL A   1      33.278  21.686  23.808  1.00  0.00     0.002 C 
BRANCH   2   3
ATOM      3  C   UNL A   1      32.838  21.070  25.137  1.00  0.00     0.021 C 
BRANCH   3   4
ATOM      4  C   UNL A   1      32.964  22.028  26.316  1.00  0.00     0.116 C 
BRANCH   4   5
ATOM      5  N   UNL A   1      31.670  22.524  26.752  1.00  0.00    -0.352 N 
ATOM      6  C   UNL A   1      30.956  23.668  26.637  1.00  0.00     0.251 C 
ATOM      7  O   UNL A   1      29.834  23.648  27.155  1.00  0.00    -0.270 OA
ATOM      8  H   UNL A   1      31.180  21.845  27.271  1.00  0.00     0.163 HD
BRANCH   6   9
ATOM      9  C   UNL A   1      31.431  24.907  25.950  1.00  0.00     0.067 C 
ATOM     10  C   UNL A   1      31.971  31.013  26.832  1.00  0.00     0.044 C 
ATOM     11  C   UNL A   1      32.161  29.694  26.145  1.00  0.00    -0.050 A 
ATOM     12  C   UNL A   1      32.792  29.641  24.894  1.00  0.00     0.010 A 
ATOM     13  C   UNL A   1      31.672  28.513  26.720  1.00  0.00     0.015 A 
ATOM     14  C   UNL A   1      32.961  28.424  24.229  1.00  0.00    -0.008 A 
ATOM     15  C   UNL A   1      31.831  27.288  26.067  1.00  0.00     0.018 A 
ATOM     16  C   UNL A   1      33.653  28.360  22.897  1.00  0.00     0.048 C 
ATOM     17  C   UNL A   1      32.471  27.257  24.827  1.00  0.00     0.130 A 
ATOM     18  C   UNL A   1      31.384  26.040  26.676  1.00  0.00     0.025 C 
ATOM     19  O   UNL A   1      32.697  26.094  24.151  1.00  0.00    -0.475 OA
ATOM     20  C   UNL A   1      31.908  24.943  24.528  1.00  0.00     0.314 C 
BRANCH  20  21
ATOM     21  C   UNL A   1      30.765  24.764  23.513  1.00  0.00     0.429 C 
ATOM     22  F   UNL A   1      29.659  25.437  23.918  1.00  0.00    -0.167 F 
ATOM     23  F   UNL A   1      31.075  25.246  22.286  1.00  0.00    -0.167 F 
ATOM     24  F   UNL A   1      30.416  23.468  23.348  1.00  0.00    -0.167 F 
ENDBRANCH  20  21
ENDBRANCH   6   9
ENDBRANCH   4   5
ENDBRANCH   3   4
ENDBRANCH   2   3
ENDBRANCH   1   2
BRANCH   1  25
ATOM     25  C   UNL A   1      35.816  22.159  24.008  1.00  0.00     0.021 C 
BRANCH  25  26
ATOM     26  C   UNL A   1      36.401  22.144  25.416  1.00  0.00     0.116 C 
BRANCH  26  27
ATOM     27  N   UNL A   1      37.309  21.026  25.605  1.00  0.00    -0.352 N 
ATOM     28  C   UNL A   1      38.650  21.040  25.890  1.00  0.00     0.251 C 
ATOM     29  H   UNL A   1      36.905  20.132  25.516  1.00  0.00     0.163 HD
ATOM     30  O   UNL A   1      39.311  20.012  25.775  1.00  0.00    -0.269 OA
BRANCH  28  31
ATOM     31  C   UNL A   1      39.288  22.301  26.319  1.00  0.00     0.039 A 
ATOM     32  C   UNL A   1      40.383  22.247  27.182  1.00  0.00     0.014 A 
ATOM     33  C   UNL A   1      38.801  23.532  25.867  1.00  0.00     0.014 A 
ATOM     34  C   UNL A   1      41.024  23.429  27.552  1.00  0.00     0.010 A 
ATOM     35  C   UNL A   1      39.483  24.702  26.181  1.00  0.00     0.010 A 
ATOM     36  C   UNL A   1      40.599  24.662  27.029  1.00  0.00    -0.014 A 
BRANCH  36  37
ATOM     37  C   UNL A   1      41.305  25.922  27.370  1.00  0.00     0.031 A 
ATOM     38  C   UNL A   1      40.618  26.965  28.208  1.00  0.00     0.074 A 
ATOM     39  C   UNL A   1      42.549  26.137  26.895  1.00  0.00     0.049 A 
ATOM     40  N   UNL A   1      41.040  28.152  28.554  1.00  0.00    -0.248 NA
ATOM     41  C   UNL A   1      39.271  26.638  28.706  1.00  0.00     0.031 C 
ATOM     42  C   UNL A   1      43.308  25.202  26.062  1.00  0.00     0.029 A 
ATOM     43  N   UNL A   1      43.395  27.207  27.048  1.00  0.00    -0.354 N 
ATOM     44  C   UNL A   1      40.018  28.712  29.311  1.00  0.00     0.074 A 
ATOM     45  C   UNL A   1      38.930  27.758  29.325  1.00  0.00     0.031 C 
ATOM     46  C   UNL A   1      44.519  25.722  25.809  1.00  0.00     0.029 A 
ATOM     47  C   UNL A   1      44.608  27.046  26.416  1.00  0.00     0.049 A 
ATOM     48  H   UNL A   1      43.158  28.013  27.561  1.00  0.00     0.167 HD
ATOM     49  C   UNL A   1      40.000  29.901  29.957  1.00  0.00     0.034 A 
ATOM     50  C   UNL A   1      45.667  27.876  26.330  1.00  0.00     0.034 A 
ATOM     51  C   UNL A   1      41.096  30.836  29.949  1.00  0.00     0.049 A 
ATOM     52  C   UNL A   1      45.600  29.216  27.016  1.00  0.00     0.074 A 
ATOM     53  C   UNL A   1      41.186  32.059  30.591  1.00  0.00     0.029 A 
ATOM     54  N   UNL A   1      42.293  30.654  29.270  1.00  0.00    -0.354 N 
ATOM     55  N   UNL A   1      44.622  29.729  27.725  1.00  0.00    -0.248 NA
ATOM     56  C   UNL A   1      46.778  30.085  26.893  1.00  0.00     0.031 C 
ATOM     57  C   UNL A   1      42.409  32.642  30.251  1.00  0.00     0.029 A 
ATOM     58  C   UNL A   1      43.116  31.751  29.459  1.00  0.00     0.049 A 
ATOM     59  H   UNL A   1      42.522  29.860  28.733  1.00  0.00     0.167 HD
ATOM     60  C   UNL A   1      45.079  30.970  28.157  1.00  0.00     0.074 A 
ATOM     61  C   UNL A   1      46.421  31.126  27.634  1.00  0.00     0.031 C 
ATOM     62  C   UNL A   1      44.449  31.893  28.926  1.00  0.00     0.034 A 
BRANCH  49  63
ATOM     63  C   UNL A   1      38.757  30.268  30.725  1.00  0.00     0.023 A 
ATOM     64  C   UNL A   1      37.721  31.006  30.131  1.00  0.00     0.031 A 
ATOM     65  C   UNL A   1      38.585  29.831  32.051  1.00  0.00     0.131 A 
ATOM     66  C   UNL A   1      36.569  31.313  30.870  1.00  0.00     0.055 A 
ATOM     67  C   UNL A   1      37.411  30.087  32.761  1.00  0.00     0.041 A 
ATOM     68  F   UNL A   1      39.553  29.138  32.671  1.00  0.00    -0.206 F 
ATOM     69  C   UNL A   1      36.397  30.835  32.172  1.00  0.00     0.022 A 
BRANCH  66  70
ATOM     70  S   UNL A   1      35.321  32.397  30.127  1.00  0.00     0.124 S 
ATOM     71  O   UNL A   1      34.367  32.543  31.224  1.00  0.00    -0.237 OA
ATOM     72  O   UNL A   1      36.094  33.588  29.792  1.00  0.00    -0.237 OA
ATOM     73  O   UNL A   1      34.835  31.627  28.983  1.00  0.00    -0.744 OA
ENDBRANCH  66  70
ENDBRANCH  49  63
BRANCH  50  74
ATOM     74  C   UNL A   1      46.879  27.466  25.567  1.00  0.00     0.023 A 
ATOM     75  C   UNL A   1      47.030  27.811  24.215  1.00  0.00     0.031 A 
ATOM     76  C   UNL A   1      47.900  26.715  26.175  1.00  0.00     0.131 A 
ATOM     77  C   UNL A   1      48.162  27.381  23.506  1.00  0.00     0.055 A 
ATOM     78  C   UNL A   1      49.046  26.328  25.478  1.00  0.00     0.041 A 
ATOM     79  F   UNL A   1      47.808  26.366  27.468  1.00  0.00    -0.206 F 
ATOM     80  C   UNL A   1      49.177  26.654  24.132  1.00  0.00     0.022 A 
BRANCH  77  81
ATOM     81  S   UNL A   1      48.269  27.746  21.733  1.00  0.00     0.124 S 
ATOM     82  O   UNL A   1      46.972  28.365  21.479  1.00  0.00    -0.237 OA
ATOM     83  O   UNL A   1      49.426  28.633  21.673  1.00  0.00    -0.237 OA
ATOM     84  O   UNL A   1      48.462  26.432  21.125  1.00  0.00    -0.744 OA
ENDBRANCH  77  81
ENDBRANCH  50  74
BRANCH  62  85
ATOM     85  C   UNL A   1      45.214  33.141  29.285  1.00  0.00     0.023 A 
ATOM     86  C   UNL A   1      45.121  34.309  28.512  1.00  0.00     0.031 A 
ATOM     87  C   UNL A   1      46.008  33.170  30.446  1.00  0.00     0.131 A 
ATOM     88  C   UNL A   1      45.838  35.453  28.892  1.00  0.00     0.055 A 
ATOM     89  C   UNL A   1      46.676  34.325  30.847  1.00  0.00     0.041 A 
ATOM     90  F   UNL A   1      46.126  32.079  31.220  1.00  0.00    -0.206 F 
ATOM     91  C   UNL A   1      46.600  35.474  30.065  1.00  0.00     0.022 A 
BRANCH  88  92
ATOM     92  S   UNL A   1      45.799  36.905  27.809  1.00  0.00     0.124 S 
ATOM     93  O   UNL A   1      44.381  36.997  27.475  1.00  0.00    -0.237 OA
ATOM     94  O   UNL A   1      46.317  37.958  28.676  1.00  0.00    -0.237 OA
ATOM     95  O   UNL A   1      46.674  36.532  26.700  1.00  0.00    -0.744 OA
ENDBRANCH  88  92
ENDBRANCH  62  85
ENDBRANCH  36  37
ENDBRANCH  28  31
ENDBRANCH  26  27
ENDBRANCH  25  26
ENDBRANCH   1  25
TORSDOF 17
ENDMDL
