MODEL 1
REMARK VINA RESULT:     -12.4      0.000      0.000
REMARK SMILES CCC(=O)Nc1cc(NC(=O)/C=C/C(=O)NCCCCCCNC(=O)c2ccc(-c3c4nc(c(-c5cc(S(=O)(=O)[O-])ccc5F)c5ccc([nH]5)c(-c5cc(S(=O)(=O)[O-])ccc5F)c5nc(c(-c6cc(S(=O)(=O)[O-])ccc6F)c6ccc3[nH]6)C=C5)C=C4)cc2)ccc1C
REMARK SMILES IDX 19 1 18 2 17 3 16 4 14 5 15 6 13 8 12 9 10 10 9 11 11 13
REMARK SMILES IDX 8 14 6 15 7 16 91 17 90 18 92 19 89 20 5 21 3 22 4 23 2 25
REMARK SMILES IDX 1 26 20 27 21 28 22 29 23 30 24 31 25 33 26 34 27 35 88 36
REMARK SMILES IDX 28 37 87 38 29 39 30 40 31 41 81 42 32 43 86 44 80 45 82 46
REMARK SMILES IDX 33 47 85 48 79 49 78 50 34 52 66 53 46 54 65 55 47 56 50 57
REMARK SMILES IDX 64 58 83 59 48 60 49 61 63 63 84 64 51 65 35 66 36 67 44 68
REMARK SMILES IDX 37 69 43 70 45 71 42 72 38 73 39 74 40 75 41 76 67 77 68 78
REMARK SMILES IDX 76 79 69 80 75 81 77 82 74 83 70 84 71 85 72 86 73 87 52 88
REMARK SMILES IDX 53 89 61 90 54 91 60 92 62 93 59 94 55 95 56 96 57 97 58 98
REMARK H PARENT 16 7 9 12 5 24 23 32 82 51 50 62
REMARK Flexibility Score: inf
ROOT
ATOM      1  C   UNL A   1      35.749  23.099  23.768  1.00  0.00     0.002 C 
ENDROOT
BRANCH   1   2
ATOM      2  C   UNL A   1      34.240  23.351  23.679  1.00  0.00     0.021 C 
BRANCH   2   3
ATOM      3  C   UNL A   1      33.417  22.168  23.179  1.00  0.00     0.116 C 
BRANCH   3   4
ATOM      4  N   UNL A   1      33.316  21.129  24.186  1.00  0.00    -0.353 N 
ATOM      5  C   UNL A   1      33.011  21.238  25.501  1.00  0.00     0.244 C 
ATOM      6  O   UNL A   1      33.131  20.281  26.263  1.00  0.00    -0.270 OA
ATOM      7  H   UNL A   1      33.493  20.215  23.868  1.00  0.00     0.163 HD
BRANCH   5   8
ATOM      8  C   UNL A   1      32.453  22.501  26.025  1.00  0.00     0.077 C 
ATOM      9  C   UNL A   1      31.164  22.774  25.771  1.00  0.00     0.077 C 
BRANCH   9  10
ATOM     10  C   UNL A   1      30.425  23.750  26.590  1.00  0.00     0.248 C 
ATOM     11  N   UNL A   1      30.584  25.094  26.366  1.00  0.00    -0.322 N 
ATOM     12  H   UNL A   1      30.011  25.666  26.927  1.00  0.00     0.170 HD
ATOM     13  O   UNL A   1      29.677  23.351  27.479  1.00  0.00    -0.270 OA
BRANCH  11  14
ATOM     14  C   UNL A   1      31.419  25.806  25.481  1.00  0.00     0.043 A 
ATOM     15  C   UNL A   1      31.784  27.202  23.519  1.00  0.00     0.046 A 
ATOM     16  C   UNL A   1      31.018  26.277  24.232  1.00  0.00     0.052 A 
ATOM     17  C   UNL A   1      33.015  27.627  24.030  1.00  0.00    -0.027 A 
ATOM     18  C   UNL A   1      33.498  27.018  25.201  1.00  0.00     0.008 A 
ATOM     19  C   UNL A   1      33.775  28.805  23.485  1.00  0.00     0.046 C 
ATOM     20  C   UNL A   1      32.707  26.115  25.919  1.00  0.00     0.026 A 
BRANCH  15  21
ATOM     21  N   UNL A   1      31.149  27.856  22.456  1.00  0.00    -0.326 N 
ATOM     22  C   UNL A   1      30.303  28.929  22.498  1.00  0.00     0.224 C 
ATOM     23  O   UNL A   1      29.735  29.308  21.472  1.00  0.00    -0.275 OA
ATOM     24  H   UNL A   1      31.337  27.496  21.560  1.00  0.00     0.169 HD
BRANCH  22  25
ATOM     25  C   UNL A   1      30.139  29.706  23.789  1.00  0.00     0.097 C 
ATOM     26  C   UNL A   1      29.163  30.858  23.707  1.00  0.00     0.014 C 
ENDBRANCH  22  25
ENDBRANCH  15  21
ENDBRANCH  11  14
ENDBRANCH   9  10
ENDBRANCH   5   8
ENDBRANCH   3   4
ENDBRANCH   2   3
ENDBRANCH   1   2
BRANCH   1  27
ATOM     27  C   UNL A   1      36.433  23.474  25.091  1.00  0.00     0.002 C 
BRANCH  27  28
ATOM     28  C   UNL A   1      37.962  23.482  25.094  1.00  0.00     0.021 C 
BRANCH  28  29
ATOM     29  C   UNL A   1      38.597  23.076  26.419  1.00  0.00     0.116 C 
BRANCH  29  30
ATOM     30  N   UNL A   1      40.050  23.168  26.436  1.00  0.00    -0.352 N 
ATOM     31  C   UNL A   1      40.827  24.290  26.671  1.00  0.00     0.251 C 
ATOM     32  H   UNL A   1      40.539  22.332  26.259  1.00  0.00     0.163 HD
ATOM     33  O   UNL A   1      42.047  24.252  26.639  1.00  0.00    -0.269 OA
BRANCH  31  34
ATOM     34  C   UNL A   1      40.138  25.530  27.101  1.00  0.00     0.039 A 
ATOM     35  C   UNL A   1      40.468  26.706  26.420  1.00  0.00     0.014 A 
ATOM     36  C   UNL A   1      39.401  25.574  28.283  1.00  0.00     0.014 A 
ATOM     37  C   UNL A   1      40.259  27.933  27.041  1.00  0.00     0.010 A 
ATOM     38  C   UNL A   1      39.259  26.790  28.933  1.00  0.00     0.010 A 
ATOM     39  C   UNL A   1      39.756  27.958  28.343  1.00  0.00    -0.014 A 
BRANCH  39  40
ATOM     40  C   UNL A   1      39.879  29.134  29.200  1.00  0.00     0.031 A 
ATOM     41  C   UNL A   1      38.909  30.245  29.121  1.00  0.00     0.074 A 
ATOM     42  C   UNL A   1      40.916  29.226  30.064  1.00  0.00     0.049 A 
ATOM     43  N   UNL A   1      39.145  31.439  29.554  1.00  0.00    -0.248 NA
ATOM     44  C   UNL A   1      37.617  30.123  28.452  1.00  0.00     0.031 C 
ATOM     45  C   UNL A   1      41.101  30.201  31.137  1.00  0.00     0.029 A 
ATOM     46  N   UNL A   1      42.170  28.634  29.913  1.00  0.00    -0.354 N 
ATOM     47  C   UNL A   1      37.960  32.128  29.525  1.00  0.00     0.074 A 
ATOM     48  C   UNL A   1      37.098  31.333  28.688  1.00  0.00     0.031 C 
ATOM     49  C   UNL A   1      42.416  30.356  31.352  1.00  0.00     0.029 A 
ATOM     50  C   UNL A   1      43.118  29.584  30.344  1.00  0.00     0.049 A 
ATOM     51  H   UNL A   1      42.356  27.729  29.572  1.00  0.00     0.167 HD
ATOM     52  C   UNL A   1      37.803  33.207  30.340  1.00  0.00     0.034 A 
ATOM     53  C   UNL A   1      44.066  30.062  29.487  1.00  0.00     0.034 A 
ATOM     54  C   UNL A   1      39.094  33.730  30.804  1.00  0.00     0.049 A 
ATOM     55  C   UNL A   1      44.006  31.561  29.258  1.00  0.00     0.074 A 
ATOM     56  C   UNL A   1      39.749  33.815  32.019  1.00  0.00     0.029 A 
ATOM     57  N   UNL A   1      40.026  34.114  29.848  1.00  0.00    -0.354 N 
ATOM     58  N   UNL A   1      43.122  32.360  29.794  1.00  0.00    -0.248 NA
ATOM     59  C   UNL A   1      44.888  32.259  28.320  1.00  0.00     0.031 C 
ATOM     60  C   UNL A   1      41.112  34.173  31.762  1.00  0.00     0.029 A 
ATOM     61  C   UNL A   1      41.270  34.345  30.399  1.00  0.00     0.049 A 
ATOM     62  H   UNL A   1      39.822  34.210  28.889  1.00  0.00     0.167 HD
ATOM     63  C   UNL A   1      43.244  33.606  29.238  1.00  0.00     0.074 A 
ATOM     64  C   UNL A   1      44.371  33.498  28.327  1.00  0.00     0.031 C 
ATOM     65  C   UNL A   1      42.388  34.634  29.510  1.00  0.00     0.034 A 
BRANCH  52  66
ATOM     66  C   UNL A   1      36.462  33.705  30.853  1.00  0.00     0.023 A 
ATOM     67  C   UNL A   1      35.527  34.231  29.935  1.00  0.00     0.031 A 
ATOM     68  C   UNL A   1      36.094  33.835  32.214  1.00  0.00     0.131 A 
ATOM     69  C   UNL A   1      34.328  34.836  30.370  1.00  0.00     0.055 A 
ATOM     70  C   UNL A   1      34.873  34.369  32.640  1.00  0.00     0.041 A 
ATOM     71  F   UNL A   1      36.918  33.530  33.222  1.00  0.00    -0.206 F 
ATOM     72  C   UNL A   1      33.984  34.883  31.717  1.00  0.00     0.022 A 
BRANCH  69  73
ATOM     73  S   UNL A   1      33.257  35.666  29.164  1.00  0.00     0.124 S 
ATOM     74  O   UNL A   1      32.413  36.490  30.022  1.00  0.00    -0.237 OA
ATOM     75  O   UNL A   1      34.219  36.371  28.326  1.00  0.00    -0.237 OA
ATOM     76  O   UNL A   1      32.564  34.557  28.507  1.00  0.00    -0.744 OA
ENDBRANCH  69  73
ENDBRANCH  52  66
BRANCH  53  77
ATOM     77  C   UNL A   1      44.512  29.045  28.488  1.00  0.00     0.023 A 
ATOM     78  C   UNL A   1      45.356  28.012  28.953  1.00  0.00     0.031 A 
ATOM     79  C   UNL A   1      43.864  28.857  27.261  1.00  0.00     0.131 A 
ATOM     80  C   UNL A   1      45.395  26.779  28.290  1.00  0.00     0.055 A 
ATOM     81  C   UNL A   1      43.972  27.652  26.557  1.00  0.00     0.041 A 
ATOM     82  F   UNL A   1      43.016  29.781  26.782  1.00  0.00    -0.206 F 
ATOM     83  C   UNL A   1      44.701  26.590  27.094  1.00  0.00     0.022 A 
BRANCH  80  84
ATOM     84  S   UNL A   1      46.118  25.339  29.134  1.00  0.00     0.124 S 
ATOM     85  O   UNL A   1      45.667  24.235  28.295  1.00  0.00    -0.237 OA
ATOM     86  O   UNL A   1      47.551  25.619  29.099  1.00  0.00    -0.237 OA
ATOM     87  O   UNL A   1      45.527  25.405  30.469  1.00  0.00    -0.744 OA
ENDBRANCH  80  84
ENDBRANCH  53  77
BRANCH  65  88
ATOM     88  C   UNL A   1      42.552  35.993  28.885  1.00  0.00     0.023 A 
ATOM     89  C   UNL A   1      43.296  37.007  29.514  1.00  0.00     0.031 A 
ATOM     90  C   UNL A   1      41.926  36.332  27.668  1.00  0.00     0.131 A 
ATOM     91  C   UNL A   1      43.454  38.264  28.905  1.00  0.00     0.055 A 
ATOM     92  C   UNL A   1      42.015  37.610  27.107  1.00  0.00     0.041 A 
ATOM     93  F   UNL A   1      41.245  35.423  26.954  1.00  0.00    -0.206 F 
ATOM     94  C   UNL A   1      42.793  38.582  27.720  1.00  0.00     0.022 A 
BRANCH  91  95
ATOM     95  S   UNL A   1      44.608  39.447  29.647  1.00  0.00     0.124 S 
ATOM     96  O   UNL A   1      45.809  38.644  29.847  1.00  0.00    -0.237 OA
ATOM     97  O   UNL A   1      44.693  40.468  28.606  1.00  0.00    -0.237 OA
ATOM     98  O   UNL A   1      43.930  39.869  30.872  1.00  0.00    -0.744 OA
ENDBRANCH  91  95
ENDBRANCH  65  88
ENDBRANCH  39  40
ENDBRANCH  31  34
ENDBRANCH  29  30
ENDBRANCH  28  29
ENDBRANCH  27  28
ENDBRANCH   1  27
TORSDOF 20
ENDMDL
MODEL 2
REMARK VINA RESULT:     -12.3      1.344      3.541
REMARK SMILES CCC(=O)Nc1cc(NC(=O)/C=C/C(=O)NCCCCCCNC(=O)c2ccc(-c3c4nc(c(-c5cc(S(=O)(=O)[O-])ccc5F)c5ccc([nH]5)c(-c5cc(S(=O)(=O)[O-])ccc5F)c5nc(c(-c6cc(S(=O)(=O)[O-])ccc6F)c6ccc3[nH]6)C=C5)C=C4)cc2)ccc1C
REMARK SMILES IDX 19 1 18 2 17 3 16 4 14 5 15 6 13 8 12 9 10 10 9 11 11 13
REMARK SMILES IDX 8 14 6 15 7 16 91 17 90 18 92 19 89 20 5 21 3 22 4 23 2 25
REMARK SMILES IDX 1 26 20 27 21 28 22 29 23 30 24 31 25 33 26 34 27 35 88 36
REMARK SMILES IDX 28 37 87 38 29 39 30 40 31 41 81 42 32 43 86 44 80 45 82 46
REMARK SMILES IDX 33 47 85 48 79 49 78 50 34 52 66 53 46 54 65 55 47 56 50 57
REMARK SMILES IDX 64 58 83 59 48 60 49 61 63 63 84 64 51 65 35 66 36 67 44 68
REMARK SMILES IDX 37 69 43 70 45 71 42 72 38 73 39 74 40 75 41 76 67 77 68 78
REMARK SMILES IDX 76 79 69 80 75 81 77 82 74 83 70 84 71 85 72 86 73 87 52 88
REMARK SMILES IDX 53 89 61 90 54 91 60 92 62 93 59 94 55 95 56 96 57 97 58 98
REMARK H PARENT 16 7 9 12 5 24 23 32 82 51 50 62
REMARK Flexibility Score: inf
ROOT
ATOM      1  C   UNL A   1      35.969  23.263  23.616  1.00  0.00     0.002 C 
ENDROOT
BRANCH   1   2
ATOM      2  C   UNL A   1      34.595  23.846  23.271  1.00  0.00     0.021 C 
BRANCH   2   3
ATOM      3  C   UNL A   1      34.372  25.285  23.721  1.00  0.00     0.116 C 
BRANCH   3   4
ATOM      4  N   UNL A   1      33.363  25.943  22.914  1.00  0.00    -0.353 N 
ATOM      5  C   UNL A   1      32.038  25.679  22.818  1.00  0.00     0.244 C 
ATOM      6  O   UNL A   1      31.343  26.219  21.959  1.00  0.00    -0.270 OA
ATOM      7  H   UNL A   1      33.687  26.688  22.358  1.00  0.00     0.163 HD
BRANCH   5   8
ATOM      8  C   UNL A   1      31.392  24.788  23.802  1.00  0.00     0.077 C 
ATOM      9  C   UNL A   1      31.569  25.054  25.105  1.00  0.00     0.077 C 
BRANCH   9  10
ATOM     10  C   UNL A   1      30.645  24.514  26.117  1.00  0.00     0.248 C 
ATOM     11  N   UNL A   1      30.849  23.261  26.634  1.00  0.00    -0.322 N 
ATOM     12  H   UNL A   1      30.211  23.008  27.340  1.00  0.00     0.170 HD
ATOM     13  O   UNL A   1      29.685  25.190  26.482  1.00  0.00    -0.270 OA
BRANCH  11  14
ATOM     14  C   UNL A   1      31.806  22.268  26.339  1.00  0.00     0.043 A 
ATOM     15  C   UNL A   1      32.737  20.532  24.908  1.00  0.00     0.046 A 
ATOM     16  C   UNL A   1      31.660  21.309  25.338  1.00  0.00     0.052 A 
ATOM     17  C   UNL A   1      33.984  20.664  25.530  1.00  0.00    -0.027 A 
ATOM     18  C   UNL A   1      34.083  21.502  26.654  1.00  0.00     0.008 A 
ATOM     19  C   UNL A   1      35.253  20.084  24.971  1.00  0.00     0.046 C 
ATOM     20  C   UNL A   1      33.003  22.296  27.056  1.00  0.00     0.026 A 
BRANCH  15  21
ATOM     21  N   UNL A   1      32.575  19.852  23.693  1.00  0.00    -0.326 N 
ATOM     22  C   UNL A   1      32.496  18.507  23.473  1.00  0.00     0.224 C 
ATOM     23  O   UNL A   1      32.472  18.069  22.321  1.00  0.00    -0.275 OA
ATOM     24  H   UNL A   1      32.509  20.420  22.893  1.00  0.00     0.169 HD
BRANCH  22  25
ATOM     25  C   UNL A   1      32.343  17.561  24.649  1.00  0.00     0.097 C 
ATOM     26  C   UNL A   1      33.242  16.346  24.595  1.00  0.00     0.014 C 
ENDBRANCH  22  25
ENDBRANCH  15  21
ENDBRANCH  11  14
ENDBRANCH   9  10
ENDBRANCH   5   8
ENDBRANCH   3   4
ENDBRANCH   2   3
ENDBRANCH   1   2
BRANCH   1  27
ATOM     27  C   UNL A   1      36.532  23.600  25.005  1.00  0.00     0.002 C 
BRANCH  27  28
ATOM     28  C   UNL A   1      38.054  23.704  25.121  1.00  0.00     0.021 C 
BRANCH  28  29
ATOM     29  C   UNL A   1      38.640  23.055  26.370  1.00  0.00     0.116 C 
BRANCH  29  30
ATOM     30  N   UNL A   1      40.091  23.134  26.455  1.00  0.00    -0.352 N 
ATOM     31  C   UNL A   1      40.866  24.246  26.744  1.00  0.00     0.251 C 
ATOM     32  H   UNL A   1      40.581  22.297  26.288  1.00  0.00     0.163 HD
ATOM     33  O   UNL A   1      42.086  24.197  26.768  1.00  0.00    -0.269 OA
BRANCH  31  34
ATOM     34  C   UNL A   1      40.168  25.485  27.162  1.00  0.00     0.039 A 
ATOM     35  C   UNL A   1      40.493  26.657  26.473  1.00  0.00     0.014 A 
ATOM     36  C   UNL A   1      39.426  25.534  28.341  1.00  0.00     0.014 A 
ATOM     37  C   UNL A   1      40.274  27.888  27.083  1.00  0.00     0.010 A 
ATOM     38  C   UNL A   1      39.274  26.754  28.981  1.00  0.00     0.010 A 
ATOM     39  C   UNL A   1      39.766  27.920  28.383  1.00  0.00    -0.014 A 
BRANCH  39  40
ATOM     40  C   UNL A   1      39.879  29.104  29.232  1.00  0.00     0.031 A 
ATOM     41  C   UNL A   1      38.905  30.210  29.136  1.00  0.00     0.074 A 
ATOM     42  C   UNL A   1      40.909  29.207  30.102  1.00  0.00     0.049 A 
ATOM     43  N   UNL A   1      39.133  31.409  29.561  1.00  0.00    -0.248 NA
ATOM     44  C   UNL A   1      37.618  30.078  28.459  1.00  0.00     0.031 C 
ATOM     45  C   UNL A   1      41.083  30.191  31.168  1.00  0.00     0.029 A 
ATOM     46  N   UNL A   1      42.166  28.618  29.964  1.00  0.00    -0.354 N 
ATOM     47  C   UNL A   1      37.946  32.093  29.518  1.00  0.00     0.074 A 
ATOM     48  C   UNL A   1      37.093  31.288  28.681  1.00  0.00     0.031 C 
ATOM     49  C   UNL A   1      42.395  30.353  31.392  1.00  0.00     0.029 A 
ATOM     50  C   UNL A   1      43.108  29.575  30.395  1.00  0.00     0.049 A 
ATOM     51  H   UNL A   1      42.358  27.711  29.633  1.00  0.00     0.167 HD
ATOM     52  C   UNL A   1      37.780  33.178  30.323  1.00  0.00     0.034 A 
ATOM     53  C   UNL A   1      44.060  30.050  29.541  1.00  0.00     0.034 A 
ATOM     54  C   UNL A   1      39.065  33.709  30.791  1.00  0.00     0.049 A 
ATOM     55  C   UNL A   1      43.996  31.546  29.299  1.00  0.00     0.074 A 
ATOM     56  C   UNL A   1      39.711  33.808  32.011  1.00  0.00     0.029 A 
ATOM     57  N   UNL A   1      40.002  34.089  29.839  1.00  0.00    -0.354 N 
ATOM     58  N   UNL A   1      43.105  32.347  29.821  1.00  0.00    -0.248 NA
ATOM     59  C   UNL A   1      44.882  32.240  28.362  1.00  0.00     0.031 C 
ATOM     60  C   UNL A   1      41.074  34.168  31.761  1.00  0.00     0.029 A 
ATOM     61  C   UNL A   1      41.242  34.330  30.397  1.00  0.00     0.049 A 
ATOM     62  H   UNL A   1      39.805  34.176  28.878  1.00  0.00     0.167 HD
ATOM     63  C   UNL A   1      43.227  33.588  29.256  1.00  0.00     0.074 A 
ATOM     64  C   UNL A   1      44.360  33.477  28.355  1.00  0.00     0.031 C 
ATOM     65  C   UNL A   1      42.365  34.616  29.513  1.00  0.00     0.034 A 
BRANCH  52  66
ATOM     66  C   UNL A   1      36.433  33.675  30.822  1.00  0.00     0.023 A 
ATOM     67  C   UNL A   1      35.498  34.178  29.891  1.00  0.00     0.031 A 
ATOM     68  C   UNL A   1      36.059  33.826  32.179  1.00  0.00     0.131 A 
ATOM     69  C   UNL A   1      34.293  34.783  30.312  1.00  0.00     0.055 A 
ATOM     70  C   UNL A   1      34.833  34.359  32.592  1.00  0.00     0.041 A 
ATOM     71  F   UNL A   1      36.881  33.545  33.196  1.00  0.00    -0.206 F 
ATOM     72  C   UNL A   1      33.943  34.851  31.657  1.00  0.00     0.022 A 
BRANCH  69  73
ATOM     73  S   UNL A   1      33.221  35.583  29.087  1.00  0.00     0.124 S 
ATOM     74  O   UNL A   1      32.650  34.439  28.386  1.00  0.00    -0.237 OA
ATOM     75  O   UNL A   1      32.310  36.352  29.927  1.00  0.00    -0.237 OA
ATOM     76  O   UNL A   1      34.152  36.386  28.294  1.00  0.00    -0.744 OA
ENDBRANCH  69  73
ENDBRANCH  52  66
BRANCH  53  77
ATOM     77  C   UNL A   1      44.517  29.026  28.553  1.00  0.00     0.023 A 
ATOM     78  C   UNL A   1      45.356  27.996  29.034  1.00  0.00     0.031 A 
ATOM     79  C   UNL A   1      43.882  28.830  27.321  1.00  0.00     0.131 A 
ATOM     80  C   UNL A   1      45.402  26.759  28.380  1.00  0.00     0.055 A 
ATOM     81  C   UNL A   1      43.998  27.620  26.626  1.00  0.00     0.041 A 
ATOM     82  F   UNL A   1      43.040  29.750  26.827  1.00  0.00    -0.206 F 
ATOM     83  C   UNL A   1      44.721  26.562  27.178  1.00  0.00     0.022 A 
BRANCH  80  84
ATOM     84  S   UNL A   1      46.116  25.325  29.241  1.00  0.00     0.124 S 
ATOM     85  O   UNL A   1      45.575  24.208  28.475  1.00  0.00    -0.237 OA
ATOM     86  O   UNL A   1      47.555  25.544  29.115  1.00  0.00    -0.237 OA
ATOM     87  O   UNL A   1      45.605  25.467  30.603  1.00  0.00    -0.744 OA
ENDBRANCH  80  84
ENDBRANCH  53  77
BRANCH  65  88
ATOM     88  C   UNL A   1      42.529  35.970  28.879  1.00  0.00     0.023 A 
ATOM     89  C   UNL A   1      43.247  36.998  29.515  1.00  0.00     0.031 A 
ATOM     90  C   UNL A   1      41.928  36.289  27.644  1.00  0.00     0.131 A 
ATOM     91  C   UNL A   1      43.405  38.251  28.896  1.00  0.00     0.055 A 
ATOM     92  C   UNL A   1      42.016  37.563  27.072  1.00  0.00     0.041 A 
ATOM     93  F   UNL A   1      41.273  35.366  26.924  1.00  0.00    -0.206 F 
ATOM     94  C   UNL A   1      42.768  38.550  27.693  1.00  0.00     0.022 A 
BRANCH  91  95
ATOM     95  S   UNL A   1      44.528  39.455  29.653  1.00  0.00     0.124 S 
ATOM     96  O   UNL A   1      44.267  40.666  28.884  1.00  0.00    -0.237 OA
ATOM     97  O   UNL A   1      44.058  39.467  31.036  1.00  0.00    -0.237 OA
ATOM     98  O   UNL A   1      45.850  38.864  29.454  1.00  0.00    -0.744 OA
ENDBRANCH  91  95
ENDBRANCH  65  88
ENDBRANCH  39  40
ENDBRANCH  31  34
ENDBRANCH  29  30
ENDBRANCH  28  29
ENDBRANCH  27  28
ENDBRANCH   1  27
TORSDOF 20
ENDMDL
MODEL 3
REMARK VINA RESULT:     -11.9      2.497      3.633
REMARK SMILES CCC(=O)Nc1cc(NC(=O)/C=C/C(=O)NCCCCCCNC(=O)c2ccc(-c3c4nc(c(-c5cc(S(=O)(=O)[O-])ccc5F)c5ccc([nH]5)c(-c5cc(S(=O)(=O)[O-])ccc5F)c5nc(c(-c6cc(S(=O)(=O)[O-])ccc6F)c6ccc3[nH]6)C=C5)C=C4)cc2)ccc1C
REMARK SMILES IDX 19 1 18 2 17 3 16 4 14 5 15 6 13 8 12 9 10 10 9 11 11 13
REMARK SMILES IDX 8 14 6 15 7 16 91 17 90 18 92 19 89 20 5 21 3 22 4 23 2 25
REMARK SMILES IDX 1 26 20 27 21 28 22 29 23 30 24 31 25 33 26 34 27 35 88 36
REMARK SMILES IDX 28 37 87 38 29 39 30 40 31 41 81 42 32 43 86 44 80 45 82 46
REMARK SMILES IDX 33 47 85 48 79 49 78 50 34 52 66 53 46 54 65 55 47 56 50 57
REMARK SMILES IDX 64 58 83 59 48 60 49 61 63 63 84 64 51 65 35 66 36 67 44 68
REMARK SMILES IDX 37 69 43 70 45 71 42 72 38 73 39 74 40 75 41 76 67 77 68 78
REMARK SMILES IDX 76 79 69 80 75 81 77 82 74 83 70 84 71 85 72 86 73 87 52 88
REMARK SMILES IDX 53 89 61 90 54 91 60 92 62 93 59 94 55 95 56 96 57 97 58 98
REMARK H PARENT 16 7 9 12 5 24 23 32 82 51 50 62
REMARK Flexibility Score: inf
ROOT
ATOM      1  C   UNL A   1      36.051  23.891  24.978  1.00  0.00     0.002 C 
ENDROOT
BRANCH   1   2
ATOM      2  C   UNL A   1      35.434  22.645  24.333  1.00  0.00     0.021 C 
BRANCH   2   3
ATOM      3  C   UNL A   1      35.241  21.460  25.273  1.00  0.00     0.116 C 
BRANCH   3   4
ATOM      4  N   UNL A   1      34.062  20.692  24.922  1.00  0.00    -0.353 N 
ATOM      5  C   UNL A   1      32.773  20.887  25.287  1.00  0.00     0.244 C 
ATOM      6  O   UNL A   1      31.908  20.048  25.043  1.00  0.00    -0.270 OA
ATOM      7  H   UNL A   1      34.222  19.919  24.334  1.00  0.00     0.163 HD
BRANCH   5   8
ATOM      8  C   UNL A   1      32.372  22.159  25.922  1.00  0.00     0.077 C 
ATOM      9  C   UNL A   1      31.135  22.620  25.683  1.00  0.00     0.077 C 
BRANCH   9  10
ATOM     10  C   UNL A   1      30.511  23.606  26.583  1.00  0.00     0.248 C 
ATOM     11  N   UNL A   1      30.731  24.946  26.391  1.00  0.00    -0.322 N 
ATOM     12  H   UNL A   1      30.231  25.528  27.009  1.00  0.00     0.170 HD
ATOM     13  O   UNL A   1      29.806  23.217  27.511  1.00  0.00    -0.270 OA
BRANCH  11  14
ATOM     14  C   UNL A   1      31.540  25.643  25.470  1.00  0.00     0.043 A 
ATOM     15  C   UNL A   1      31.848  27.033  23.495  1.00  0.00     0.046 A 
ATOM     16  C   UNL A   1      31.095  26.123  24.239  1.00  0.00     0.052 A 
ATOM     17  C   UNL A   1      33.108  27.433  23.952  1.00  0.00    -0.027 A 
ATOM     18  C   UNL A   1      33.629  26.813  25.101  1.00  0.00     0.008 A 
ATOM     19  C   UNL A   1      33.867  28.596  23.375  1.00  0.00     0.046 C 
ATOM     20  C   UNL A   1      32.852  25.925  25.853  1.00  0.00     0.026 A 
BRANCH  15  21
ATOM     21  N   UNL A   1      31.180  27.701  22.460  1.00  0.00    -0.326 N 
ATOM     22  C   UNL A   1      30.360  28.790  22.538  1.00  0.00     0.224 C 
ATOM     23  O   UNL A   1      29.756  29.182  21.538  1.00  0.00    -0.275 OA
ATOM     24  H   UNL A   1      31.321  27.337  21.557  1.00  0.00     0.169 HD
BRANCH  22  25
ATOM     25  C   UNL A   1      30.270  29.571  23.835  1.00  0.00     0.097 C 
ATOM     26  C   UNL A   1      29.416  30.816  23.758  1.00  0.00     0.014 C 
ENDBRANCH  22  25
ENDBRANCH  15  21
ENDBRANCH  11  14
ENDBRANCH   9  10
ENDBRANCH   5   8
ENDBRANCH   3   4
ENDBRANCH   2   3
ENDBRANCH   1   2
BRANCH   1  27
ATOM     27  C   UNL A   1      37.049  23.653  26.121  1.00  0.00     0.002 C 
BRANCH  27  28
ATOM     28  C   UNL A   1      38.492  23.345  25.719  1.00  0.00     0.021 C 
BRANCH  28  29
ATOM     29  C   UNL A   1      39.278  22.536  26.745  1.00  0.00     0.116 C 
BRANCH  29  30
ATOM     30  N   UNL A   1      40.070  21.457  26.171  1.00  0.00    -0.352 N 
ATOM     31  C   UNL A   1      41.449  21.336  26.146  1.00  0.00     0.251 C 
ATOM     32  H   UNL A   1      39.564  20.725  25.749  1.00  0.00     0.163 HD
ATOM     33  O   UNL A   1      42.008  20.390  25.615  1.00  0.00    -0.269 OA
BRANCH  31  34
ATOM     34  C   UNL A   1      42.243  22.329  26.909  1.00  0.00     0.039 A 
ATOM     35  C   UNL A   1      42.248  22.199  28.301  1.00  0.00     0.014 A 
ATOM     36  C   UNL A   1      42.742  23.478  26.299  1.00  0.00     0.014 A 
ATOM     37  C   UNL A   1      42.541  23.309  29.088  1.00  0.00     0.010 A 
ATOM     38  C   UNL A   1      42.962  24.603  27.079  1.00  0.00     0.010 A 
ATOM     39  C   UNL A   1      42.787  24.534  28.466  1.00  0.00    -0.014 A 
BRANCH  39  40
ATOM     40  C   UNL A   1      42.705  25.802  29.187  1.00  0.00     0.031 A 
ATOM     41  C   UNL A   1      41.587  26.741  28.961  1.00  0.00     0.074 A 
ATOM     42  C   UNL A   1      43.683  26.141  30.057  1.00  0.00     0.049 A 
ATOM     43  N   UNL A   1      41.630  27.997  29.261  1.00  0.00    -0.248 NA
ATOM     44  C   UNL A   1      40.353  26.355  28.282  1.00  0.00     0.031 C 
ATOM     45  C   UNL A   1      43.683  27.244  31.016  1.00  0.00     0.029 A 
ATOM     46  N   UNL A   1      45.015  25.729  30.001  1.00  0.00    -0.354 N 
ATOM     47  C   UNL A   1      40.359  28.494  29.128  1.00  0.00     0.074 A 
ATOM     48  C   UNL A   1      39.655  27.493  28.368  1.00  0.00     0.031 C 
ATOM     49  C   UNL A   1      44.952  27.615  31.241  1.00  0.00     0.029 A 
ATOM     50  C   UNL A   1      45.797  26.851  30.343  1.00  0.00     0.049 A 
ATOM     51  H   UNL A   1      45.344  24.831  29.770  1.00  0.00     0.167 HD
ATOM     52  C   UNL A   1      40.016  29.620  29.811  1.00  0.00     0.034 A 
ATOM     53  C   UNL A   1      46.698  27.369  29.458  1.00  0.00     0.034 A 
ATOM     54  C   UNL A   1      41.198  30.377  30.241  1.00  0.00     0.049 A 
ATOM     55  C   UNL A   1      46.429  28.808  29.059  1.00  0.00     0.074 A 
ATOM     56  C   UNL A   1      41.787  30.691  31.453  1.00  0.00     0.029 A 
ATOM     57  N   UNL A   1      42.100  30.788  29.268  1.00  0.00    -0.354 N 
ATOM     58  N   UNL A   1      45.418  29.520  29.481  1.00  0.00    -0.248 NA
ATOM     59  C   UNL A   1      47.235  29.523  28.067  1.00  0.00     0.031 C 
ATOM     60  C   UNL A   1      43.092  31.217  31.187  1.00  0.00     0.029 A 
ATOM     61  C   UNL A   1      43.275  31.262  29.816  1.00  0.00     0.049 A 
ATOM     62  H   UNL A   1      41.921  30.748  28.301  1.00  0.00     0.167 HD
ATOM     63  C   UNL A   1      45.379  30.702  28.790  1.00  0.00     0.074 A 
ATOM     64  C   UNL A   1      46.543  30.665  27.922  1.00  0.00     0.031 C 
ATOM     65  C   UNL A   1      44.373  31.615  28.925  1.00  0.00     0.034 A 
BRANCH  52  66
ATOM     66  C   UNL A   1      38.597  29.965  30.236  1.00  0.00     0.023 A 
ATOM     67  C   UNL A   1      37.715  30.528  29.288  1.00  0.00     0.031 A 
ATOM     68  C   UNL A   1      38.095  29.916  31.558  1.00  0.00     0.131 A 
ATOM     69  C   UNL A   1      36.437  30.999  29.661  1.00  0.00     0.055 A 
ATOM     70  C   UNL A   1      36.802  30.316  31.912  1.00  0.00     0.041 A 
ATOM     71  F   UNL A   1      38.842  29.555  32.607  1.00  0.00    -0.206 F 
ATOM     72  C   UNL A   1      35.966  30.870  30.963  1.00  0.00     0.022 A 
BRANCH  69  73
ATOM     73  S   UNL A   1      35.422  31.886  28.447  1.00  0.00     0.124 S 
ATOM     74  O   UNL A   1      34.259  32.265  29.241  1.00  0.00    -0.237 OA
ATOM     75  O   UNL A   1      36.308  32.967  28.031  1.00  0.00    -0.237 OA
ATOM     76  O   UNL A   1      35.160  30.875  27.421  1.00  0.00    -0.744 OA
ENDBRANCH  69  73
ENDBRANCH  52  66
BRANCH  53  77
ATOM     77  C   UNL A   1      47.325  26.327  28.590  1.00  0.00     0.023 A 
ATOM     78  C   UNL A   1      46.709  26.068  27.346  1.00  0.00     0.031 A 
ATOM     79  C   UNL A   1      48.641  25.884  28.773  1.00  0.00     0.131 A 
ATOM     80  C   UNL A   1      47.456  25.548  26.281  1.00  0.00     0.055 A 
ATOM     81  C   UNL A   1      49.359  25.286  27.731  1.00  0.00     0.041 A 
ATOM     82  F   UNL A   1      49.298  26.134  29.916  1.00  0.00    -0.206 F 
ATOM     83  C   UNL A   1      48.784  25.159  26.465  1.00  0.00     0.022 A 
BRANCH  80  84
ATOM     84  S   UNL A   1      46.785  25.642  24.594  1.00  0.00     0.124 S 
ATOM     85  O   UNL A   1      47.926  25.227  23.787  1.00  0.00    -0.237 OA
ATOM     86  O   UNL A   1      45.660  24.710  24.631  1.00  0.00    -0.237 OA
ATOM     87  O   UNL A   1      46.395  27.045  24.470  1.00  0.00    -0.744 OA
ENDBRANCH  80  84
ENDBRANCH  53  77
BRANCH  65  88
ATOM     88  C   UNL A   1      44.361  32.907  28.154  1.00  0.00     0.023 A 
ATOM     89  C   UNL A   1      44.592  34.142  28.785  1.00  0.00     0.031 A 
ATOM     90  C   UNL A   1      44.068  32.947  26.775  1.00  0.00     0.131 A 
ATOM     91  C   UNL A   1      44.596  35.336  28.043  1.00  0.00     0.055 A 
ATOM     92  C   UNL A   1      43.989  34.145  26.058  1.00  0.00     0.041 A 
ATOM     93  F   UNL A   1      43.893  31.823  26.064  1.00  0.00    -0.206 F 
ATOM     94  C   UNL A   1      44.266  35.349  26.689  1.00  0.00     0.022 A 
BRANCH  91  95
ATOM     95  S   UNL A   1      45.125  36.863  28.863  1.00  0.00     0.124 S 
ATOM     96  O   UNL A   1      46.493  37.027  28.387  1.00  0.00    -0.237 OA
ATOM     97  O   UNL A   1      44.154  37.826  28.348  1.00  0.00    -0.237 OA
ATOM     98  O   UNL A   1      44.994  36.554  30.286  1.00  0.00    -0.744 OA
ENDBRANCH  91  95
ENDBRANCH  65  88
ENDBRANCH  39  40
ENDBRANCH  31  34
ENDBRANCH  29  30
ENDBRANCH  28  29
ENDBRANCH  27  28
ENDBRANCH   1  27
TORSDOF 20
ENDMDL
