MODEL 1
REMARK VINA RESULT:      -9.1      0.000      0.000
REMARK SMILES CC[NH+](CC)CCS[C@H](F)C(=O)NCCCCCCNC(=O)c1ccc(-c2c3nc(c(-c4cc(S(=O)(=O)[O-])ccc4F)c4ccc([nH]4)c(-c4cc(S(=O)(=O)[O-])ccc4F)c4nc(c(-c5cc(S(=O)(=O)[O-])ccc5F)c5ccc2[nH]5)C=C4)C=C3)cc1
REMARK SMILES IDX 15 1 14 2 13 3 11 4 12 5 9 7 10 8 8 9 7 10 6 11 3 12 2 14
REMARK SMILES IDX 1 15 4 16 5 17 16 18 17 19 18 20 19 21 20 22 21 23 22 25
REMARK SMILES IDX 23 26 24 27 85 28 25 29 84 30 26 31 27 32 28 33 78 34 29 35
REMARK SMILES IDX 83 36 77 37 79 38 30 39 82 40 76 41 75 42 31 44 63 45 43 46
REMARK SMILES IDX 62 47 44 48 47 49 61 50 80 51 45 52 46 53 60 55 81 56 48 57
REMARK SMILES IDX 32 58 33 59 41 60 34 61 40 62 42 63 39 64 35 65 36 66 37 67
REMARK SMILES IDX 38 68 64 69 65 70 73 71 66 72 72 73 74 74 71 75 67 76 68 77
REMARK SMILES IDX 69 78 70 79 49 80 50 81 58 82 51 83 57 84 59 85 56 86 52 87
REMARK SMILES IDX 53 88 54 89 55 90
REMARK H PARENT 13 6 3 13 20 24 79 43 47 54
REMARK Flexibility Score: inf
ROOT
ATOM      1  C   UNL A   1      30.415  26.112  25.350  1.00  0.00     0.021 C 
ENDROOT
BRANCH   1   2
ATOM      2  C   UNL A   1      30.966  24.850  24.698  1.00  0.00     0.116 C 
BRANCH   2   3
ATOM      3  N   UNL A   1      32.409  24.754  24.770  1.00  0.00    -0.353 N 
ATOM      4  C   UNL A   1      33.344  25.185  23.868  1.00  0.00     0.265 C 
ATOM      5  O   UNL A   1      34.531  24.990  24.155  1.00  0.00    -0.271 OA
ATOM      6  H   UNL A   1      32.766  24.319  25.577  1.00  0.00     0.163 HD
BRANCH   4   7
ATOM      7  C   UNL A   1      32.944  25.900  22.572  1.00  0.00     0.313 C 
ATOM      8  F   UNL A   1      31.861  25.375  21.936  1.00  0.00    -0.225 F 
BRANCH   7   9
ATOM      9  S   UNL A   1      32.694  27.686  22.810  1.00  0.00    -0.110 SA
BRANCH   9  10
ATOM     10  C   UNL A   1      30.992  27.898  22.178  1.00  0.00     0.134 C 
BRANCH  10  11
ATOM     11  C   UNL A   1      29.949  28.546  23.123  1.00  0.00     0.273 C 
BRANCH  11  12
ATOM     12  N   UNL A   1      29.170  29.731  22.737  1.00  0.00    -0.335 N 
ATOM     13  H   UNL A   1      29.648  29.985  21.874  1.00  0.00     0.348 HD
BRANCH  12  14
ATOM     14  C   UNL A   1      27.795  29.505  22.295  1.00  0.00     0.258 C 
ATOM     15  C   UNL A   1      26.999  28.624  23.254  1.00  0.00     0.071 C 
ENDBRANCH  12  14
BRANCH  12  16
ATOM     16  C   UNL A   1      29.318  30.898  23.611  1.00  0.00     0.258 C 
ATOM     17  C   UNL A   1      28.311  32.025  23.440  1.00  0.00     0.071 C 
ENDBRANCH  12  16
ENDBRANCH  11  12
ENDBRANCH  10  11
ENDBRANCH   9  10
ENDBRANCH   7   9
ENDBRANCH   4   7
ENDBRANCH   2   3
ENDBRANCH   1   2
BRANCH   1  18
ATOM     18  C   UNL A   1      31.093  26.551  26.651  1.00  0.00     0.002 C 
BRANCH  18  19
ATOM     19  C   UNL A   1      31.818  27.899  26.639  1.00  0.00     0.002 C 
BRANCH  19  20
ATOM     20  C   UNL A   1      33.340  27.864  26.784  1.00  0.00     0.021 C 
BRANCH  20  21
ATOM     21  C   UNL A   1      34.102  29.027  26.159  1.00  0.00     0.116 C 
BRANCH  21  22
ATOM     22  N   UNL A   1      33.701  30.327  26.663  1.00  0.00    -0.352 N 
ATOM     23  C   UNL A   1      34.316  31.117  27.604  1.00  0.00     0.251 C 
ATOM     24  H   UNL A   1      32.872  30.693  26.277  1.00  0.00     0.163 HD
ATOM     25  O   UNL A   1      33.776  32.159  27.966  1.00  0.00    -0.269 OA
BRANCH  23  26
ATOM     26  C   UNL A   1      35.597  30.689  28.215  1.00  0.00     0.039 A 
ATOM     27  C   UNL A   1      35.562  29.761  29.259  1.00  0.00     0.014 A 
ATOM     28  C   UNL A   1      36.825  31.182  27.764  1.00  0.00     0.014 A 
ATOM     29  C   UNL A   1      36.756  29.277  29.802  1.00  0.00     0.010 A 
ATOM     30  C   UNL A   1      38.014  30.643  28.253  1.00  0.00     0.010 A 
ATOM     31  C   UNL A   1      37.994  29.683  29.277  1.00  0.00    -0.014 A 
BRANCH  31  32
ATOM     32  C   UNL A   1      39.269  29.113  29.788  1.00  0.00     0.031 A 
ATOM     33  C   UNL A   1      39.964  29.743  30.965  1.00  0.00     0.074 A 
ATOM     34  C   UNL A   1      39.827  28.057  29.160  1.00  0.00     0.049 A 
ATOM     35  N   UNL A   1      41.107  29.429  31.518  1.00  0.00    -0.248 NA
ATOM     36  C   UNL A   1      39.296  30.897  31.586  1.00  0.00     0.031 C 
ATOM     37  C   UNL A   1      39.270  27.383  27.986  1.00  0.00     0.029 A 
ATOM     38  N   UNL A   1      40.987  27.369  29.415  1.00  0.00    -0.354 N 
ATOM     39  C   UNL A   1      41.301  30.349  32.543  1.00  0.00     0.074 A 
ATOM     40  C   UNL A   1      40.187  31.272  32.491  1.00  0.00     0.031 C 
ATOM     41  C   UNL A   1      40.073  26.363  27.642  1.00  0.00     0.029 A 
ATOM     42  C   UNL A   1      41.227  26.339  28.533  1.00  0.00     0.049 A 
ATOM     43  H   UNL A   1      41.593  27.592  30.159  1.00  0.00     0.167 HD
ATOM     44  C   UNL A   1      42.303  30.406  33.455  1.00  0.00     0.034 A 
ATOM     45  C   UNL A   1      42.264  25.482  28.444  1.00  0.00     0.034 A 
ATOM     46  C   UNL A   1      43.403  29.472  33.499  1.00  0.00     0.049 A 
ATOM     47  C   UNL A   1      43.382  25.585  29.452  1.00  0.00     0.074 A 
ATOM     48  C   UNL A   1      44.441  29.406  34.412  1.00  0.00     0.029 A 
ATOM     49  N   UNL A   1      43.614  28.446  32.586  1.00  0.00    -0.354 N 
ATOM     50  N   UNL A   1      43.523  26.430  30.447  1.00  0.00    -0.248 NA
ATOM     51  C   UNL A   1      44.475  24.612  29.331  1.00  0.00     0.031 C 
ATOM     52  C   UNL A   1      45.319  28.395  34.009  1.00  0.00     0.029 A 
ATOM     53  C   UNL A   1      44.785  27.768  32.894  1.00  0.00     0.049 A 
ATOM     54  H   UNL A   1      43.021  28.233  31.830  1.00  0.00     0.167 HD
ATOM     55  C   UNL A   1      44.703  26.065  31.090  1.00  0.00     0.074 A 
ATOM     56  C   UNL A   1      45.224  24.916  30.380  1.00  0.00     0.031 C 
ATOM     57  C   UNL A   1      45.301  26.628  32.172  1.00  0.00     0.034 A 
BRANCH  44  58
ATOM     58  C   UNL A   1      42.267  31.532  34.463  1.00  0.00     0.023 A 
ATOM     59  C   UNL A   1      41.376  31.523  35.551  1.00  0.00     0.031 A 
ATOM     60  C   UNL A   1      43.123  32.639  34.327  1.00  0.00     0.131 A 
ATOM     61  C   UNL A   1      41.309  32.629  36.413  1.00  0.00     0.055 A 
ATOM     62  C   UNL A   1      43.112  33.696  35.238  1.00  0.00     0.041 A 
ATOM     63  F   UNL A   1      43.980  32.716  33.297  1.00  0.00    -0.206 F 
ATOM     64  C   UNL A   1      42.191  33.703  36.281  1.00  0.00     0.022 A 
BRANCH  61  65
ATOM     65  S   UNL A   1      39.957  32.706  37.620  1.00  0.00     0.124 S 
ATOM     66  O   UNL A   1      40.671  32.483  38.876  1.00  0.00    -0.237 OA
ATOM     67  O   UNL A   1      39.426  34.048  37.415  1.00  0.00    -0.237 OA
ATOM     68  O   UNL A   1      39.073  31.615  37.213  1.00  0.00    -0.744 OA
ENDBRANCH  61  65
ENDBRANCH  44  58
BRANCH  45  69
ATOM     69  C   UNL A   1      42.311  24.458  27.358  1.00  0.00     0.023 A 
ATOM     70  C   UNL A   1      41.592  23.257  27.462  1.00  0.00     0.031 A 
ATOM     71  C   UNL A   1      43.118  24.645  26.221  1.00  0.00     0.131 A 
ATOM     72  C   UNL A   1      41.736  22.267  26.477  1.00  0.00     0.055 A 
ATOM     73  C   UNL A   1      43.210  23.683  25.215  1.00  0.00     0.041 A 
ATOM     74  F   UNL A   1      43.825  25.776  26.069  1.00  0.00    -0.206 F 
ATOM     75  C   UNL A   1      42.529  22.478  25.347  1.00  0.00     0.022 A 
BRANCH  72  76
ATOM     76  S   UNL A   1      40.949  20.654  26.745  1.00  0.00     0.124 S 
ATOM     77  O   UNL A   1      41.933  19.746  26.166  1.00  0.00    -0.237 OA
ATOM     78  O   UNL A   1      40.819  20.618  28.197  1.00  0.00    -0.237 OA
ATOM     79  O   UNL A   1      39.691  20.764  26.010  1.00  0.00    -0.744 OA
ENDBRANCH  72  76
ENDBRANCH  45  69
BRANCH  57  80
ATOM     80  C   UNL A   1      46.561  25.970  32.681  1.00  0.00     0.023 A 
ATOM     81  C   UNL A   1      46.526  24.929  33.626  1.00  0.00     0.031 A 
ATOM     82  C   UNL A   1      47.818  26.399  32.219  1.00  0.00     0.131 A 
ATOM     83  C   UNL A   1      47.725  24.396  34.124  1.00  0.00     0.055 A 
ATOM     84  C   UNL A   1      49.005  25.818  32.668  1.00  0.00     0.041 A 
ATOM     85  F   UNL A   1      47.913  27.391  31.319  1.00  0.00    -0.206 F 
ATOM     86  C   UNL A   1      48.963  24.821  33.636  1.00  0.00     0.022 A 
BRANCH  83  87
ATOM     87  S   UNL A   1      47.648  23.210  35.493  1.00  0.00     0.124 S 
ATOM     88  O   UNL A   1      48.413  23.894  36.531  1.00  0.00    -0.237 OA
ATOM     89  O   UNL A   1      46.212  23.098  35.730  1.00  0.00    -0.237 OA
ATOM     90  O   UNL A   1      48.279  22.010  34.946  1.00  0.00    -0.744 OA
ENDBRANCH  83  87
ENDBRANCH  57  80
ENDBRANCH  31  32
ENDBRANCH  23  26
ENDBRANCH  21  22
ENDBRANCH  20  21
ENDBRANCH  19  20
ENDBRANCH  18  19
ENDBRANCH   1  18
TORSDOF 22
ENDMDL
MODEL 2
REMARK VINA RESULT:      -9.0      1.486      3.252
REMARK SMILES CC[NH+](CC)CCS[C@H](F)C(=O)NCCCCCCNC(=O)c1ccc(-c2c3nc(c(-c4cc(S(=O)(=O)[O-])ccc4F)c4ccc([nH]4)c(-c4cc(S(=O)(=O)[O-])ccc4F)c4nc(c(-c5cc(S(=O)(=O)[O-])ccc5F)c5ccc2[nH]5)C=C4)C=C3)cc1
REMARK SMILES IDX 15 1 14 2 13 3 11 4 12 5 9 7 10 8 8 9 7 10 6 11 3 12 2 14
REMARK SMILES IDX 1 15 4 16 5 17 16 18 17 19 18 20 19 21 20 22 21 23 22 25
REMARK SMILES IDX 23 26 24 27 85 28 25 29 84 30 26 31 27 32 28 33 78 34 29 35
REMARK SMILES IDX 83 36 77 37 79 38 30 39 82 40 76 41 75 42 31 44 63 45 43 46
REMARK SMILES IDX 62 47 44 48 47 49 61 50 80 51 45 52 46 53 60 55 81 56 48 57
REMARK SMILES IDX 32 58 33 59 41 60 34 61 40 62 42 63 39 64 35 65 36 66 37 67
REMARK SMILES IDX 38 68 64 69 65 70 73 71 66 72 72 73 74 74 71 75 67 76 68 77
REMARK SMILES IDX 69 78 70 79 49 80 50 81 58 82 51 83 57 84 59 85 56 86 52 87
REMARK SMILES IDX 53 88 54 89 55 90
REMARK H PARENT 13 6 3 13 20 24 79 43 47 54
REMARK Flexibility Score: inf
ROOT
ATOM      1  C   UNL A   1      30.098  26.693  24.864  1.00  0.00     0.021 C 
ENDROOT
BRANCH   1   2
ATOM      2  C   UNL A   1      30.715  25.981  23.667  1.00  0.00     0.116 C 
BRANCH   2   3
ATOM      3  N   UNL A   1      31.622  26.818  22.910  1.00  0.00    -0.353 N 
ATOM      4  C   UNL A   1      32.980  26.708  22.773  1.00  0.00     0.265 C 
ATOM      5  O   UNL A   1      33.542  27.552  22.064  1.00  0.00    -0.271 OA
ATOM      6  H   UNL A   1      31.206  27.569  22.429  1.00  0.00     0.163 HD
BRANCH   4   7
ATOM      7  C   UNL A   1      33.769  25.578  23.445  1.00  0.00     0.313 C 
ATOM      8  F   UNL A   1      33.595  25.476  24.791  1.00  0.00    -0.225 F 
BRANCH   7   9
ATOM      9  S   UNL A   1      33.460  23.959  22.675  1.00  0.00    -0.110 SA
BRANCH   9  10
ATOM     10  C   UNL A   1      32.779  23.015  24.084  1.00  0.00     0.134 C 
BRANCH  10  11
ATOM     11  C   UNL A   1      33.338  21.591  24.333  1.00  0.00     0.273 C 
BRANCH  11  12
ATOM     12  N   UNL A   1      34.726  21.356  24.755  1.00  0.00    -0.335 N 
ATOM     13  H   UNL A   1      35.223  21.730  23.947  1.00  0.00     0.348 HD
BRANCH  12  14
ATOM     14  C   UNL A   1      35.231  22.172  25.857  1.00  0.00     0.258 C 
ATOM     15  C   UNL A   1      36.140  23.306  25.391  1.00  0.00     0.071 C 
ENDBRANCH  12  14
BRANCH  12  16
ATOM     16  C   UNL A   1      35.133  19.950  24.834  1.00  0.00     0.258 C 
ATOM     17  C   UNL A   1      36.626  19.662  24.891  1.00  0.00     0.071 C 
ENDBRANCH  12  16
ENDBRANCH  11  12
ENDBRANCH  10  11
ENDBRANCH   9  10
ENDBRANCH   7   9
ENDBRANCH   4   7
ENDBRANCH   2   3
ENDBRANCH   1   2
BRANCH   1  18
ATOM     18  C   UNL A   1      30.910  26.657  26.162  1.00  0.00     0.002 C 
BRANCH  18  19
ATOM     19  C   UNL A   1      31.657  27.935  26.552  1.00  0.00     0.002 C 
BRANCH  19  20
ATOM     20  C   UNL A   1      33.164  27.810  26.778  1.00  0.00     0.021 C 
BRANCH  20  21
ATOM     21  C   UNL A   1      34.026  28.929  26.203  1.00  0.00     0.116 C 
BRANCH  21  22
ATOM     22  N   UNL A   1      33.648  30.252  26.663  1.00  0.00    -0.352 N 
ATOM     23  C   UNL A   1      34.286  31.068  27.566  1.00  0.00     0.251 C 
ATOM     24  H   UNL A   1      32.820  30.615  26.272  1.00  0.00     0.163 HD
ATOM     25  O   UNL A   1      33.764  32.131  27.895  1.00  0.00    -0.269 OA
BRANCH  23  26
ATOM     26  C   UNL A   1      35.567  30.646  28.179  1.00  0.00     0.039 A 
ATOM     27  C   UNL A   1      35.529  29.840  29.319  1.00  0.00     0.014 A 
ATOM     28  C   UNL A   1      36.799  31.024  27.635  1.00  0.00     0.014 A 
ATOM     29  C   UNL A   1      36.719  29.359  29.872  1.00  0.00     0.010 A 
ATOM     30  C   UNL A   1      37.979  30.482  28.142  1.00  0.00     0.010 A 
ATOM     31  C   UNL A   1      37.953  29.642  29.265  1.00  0.00    -0.014 A 
BRANCH  31  32
ATOM     32  C   UNL A   1      39.219  29.067  29.795  1.00  0.00     0.031 A 
ATOM     33  C   UNL A   1      39.891  29.685  30.993  1.00  0.00     0.074 A 
ATOM     34  C   UNL A   1      39.791  28.019  29.166  1.00  0.00     0.049 A 
ATOM     35  N   UNL A   1      41.024  29.365  31.564  1.00  0.00    -0.248 NA
ATOM     36  C   UNL A   1      39.209  30.831  31.613  1.00  0.00     0.031 C 
ATOM     37  C   UNL A   1      39.258  27.358  27.974  1.00  0.00     0.029 A 
ATOM     38  N   UNL A   1      40.947  27.330  29.435  1.00  0.00    -0.354 N 
ATOM     39  C   UNL A   1      41.197  30.274  32.602  1.00  0.00     0.074 A 
ATOM     40  C   UNL A   1      40.082  31.196  32.540  1.00  0.00     0.031 C 
ATOM     41  C   UNL A   1      40.068  26.343  27.633  1.00  0.00     0.029 A 
ATOM     42  C   UNL A   1      41.205  26.310  28.547  1.00  0.00     0.049 A 
ATOM     43  H   UNL A   1      41.538  27.544  30.193  1.00  0.00     0.167 HD
ATOM     44  C   UNL A   1      42.181  30.322  33.535  1.00  0.00     0.034 A 
ATOM     45  C   UNL A   1      42.244  25.455  28.468  1.00  0.00     0.034 A 
ATOM     46  C   UNL A   1      43.280  29.388  33.589  1.00  0.00     0.049 A 
ATOM     47  C   UNL A   1      43.343  25.547  29.498  1.00  0.00     0.074 A 
ATOM     48  C   UNL A   1      44.301  29.313  34.521  1.00  0.00     0.029 A 
ATOM     49  N   UNL A   1      43.511  28.373  32.668  1.00  0.00    -0.354 N 
ATOM     50  N   UNL A   1      43.464  26.382  30.505  1.00  0.00    -0.248 NA
ATOM     51  C   UNL A   1      44.439  24.577  29.387  1.00  0.00     0.031 C 
ATOM     52  C   UNL A   1      45.187  28.308  34.123  1.00  0.00     0.029 A 
ATOM     53  C   UNL A   1      44.677  27.693  32.991  1.00  0.00     0.049 A 
ATOM     54  H   UNL A   1      42.932  28.168  31.899  1.00  0.00     0.167 HD
ATOM     55  C   UNL A   1      44.631  26.011  31.166  1.00  0.00     0.074 A 
ATOM     56  C   UNL A   1      45.167  24.870  30.453  1.00  0.00     0.031 C 
ATOM     57  C   UNL A   1      45.207  26.562  32.266  1.00  0.00     0.034 A 
BRANCH  44  58
ATOM     58  C   UNL A   1      42.123  31.436  34.554  1.00  0.00     0.023 A 
ATOM     59  C   UNL A   1      41.159  31.454  35.577  1.00  0.00     0.031 A 
ATOM     60  C   UNL A   1      43.036  32.505  34.495  1.00  0.00     0.131 A 
ATOM     61  C   UNL A   1      41.080  32.552  36.449  1.00  0.00     0.055 A 
ATOM     62  C   UNL A   1      43.007  33.550  35.419  1.00  0.00     0.041 A 
ATOM     63  F   UNL A   1      43.966  32.555  33.529  1.00  0.00    -0.206 F 
ATOM     64  C   UNL A   1      42.016  33.587  36.395  1.00  0.00     0.022 A 
BRANCH  61  65
ATOM     65  S   UNL A   1      39.651  32.676  37.559  1.00  0.00     0.124 S 
ATOM     66  O   UNL A   1      38.834  31.550  37.112  1.00  0.00    -0.237 OA
ATOM     67  O   UNL A   1      40.261  32.541  38.876  1.00  0.00    -0.237 OA
ATOM     68  O   UNL A   1      39.098  33.995  37.258  1.00  0.00    -0.744 OA
ENDBRANCH  61  65
ENDBRANCH  44  58
BRANCH  45  69
ATOM     69  C   UNL A   1      42.314  24.444  27.371  1.00  0.00     0.023 A 
ATOM     70  C   UNL A   1      41.553  23.265  27.422  1.00  0.00     0.031 A 
ATOM     71  C   UNL A   1      43.182  24.619  26.279  1.00  0.00     0.131 A 
ATOM     72  C   UNL A   1      41.716  22.283  26.432  1.00  0.00     0.055 A 
ATOM     73  C   UNL A   1      43.295  23.667  25.264  1.00  0.00     0.041 A 
ATOM     74  F   UNL A   1      43.932  25.728  26.177  1.00  0.00    -0.206 F 
ATOM     75  C   UNL A   1      42.570  22.482  25.346  1.00  0.00     0.022 A 
BRANCH  72  76
ATOM     76  S   UNL A   1      40.866  20.693  26.638  1.00  0.00     0.124 S 
ATOM     77  O   UNL A   1      41.745  19.792  25.902  1.00  0.00    -0.237 OA
ATOM     78  O   UNL A   1      40.858  20.540  28.089  1.00  0.00    -0.237 OA
ATOM     79  O   UNL A   1      39.558  20.926  26.030  1.00  0.00    -0.744 OA
ENDBRANCH  72  76
ENDBRANCH  45  69
BRANCH  57  80
ATOM     80  C   UNL A   1      46.458  25.899  32.791  1.00  0.00     0.023 A 
ATOM     81  C   UNL A   1      46.407  24.852  33.729  1.00  0.00     0.031 A 
ATOM     82  C   UNL A   1      47.724  26.331  32.354  1.00  0.00     0.131 A 
ATOM     83  C   UNL A   1      47.597  24.315  34.243  1.00  0.00     0.055 A 
ATOM     84  C   UNL A   1      48.903  25.746  32.818  1.00  0.00     0.041 A 
ATOM     85  F   UNL A   1      47.834  27.328  31.463  1.00  0.00    -0.206 F 
ATOM     86  C   UNL A   1      48.844  24.742  33.780  1.00  0.00     0.022 A 
BRANCH  83  87
ATOM     87  S   UNL A   1      47.496  23.120  35.604  1.00  0.00     0.124 S 
ATOM     88  O   UNL A   1      48.778  22.430  35.497  1.00  0.00    -0.237 OA
ATOM     89  O   UNL A   1      47.332  23.984  36.768  1.00  0.00    -0.237 OA
ATOM     90  O   UNL A   1      46.326  22.311  35.265  1.00  0.00    -0.744 OA
ENDBRANCH  83  87
ENDBRANCH  57  80
ENDBRANCH  31  32
ENDBRANCH  23  26
ENDBRANCH  21  22
ENDBRANCH  20  21
ENDBRANCH  19  20
ENDBRANCH  18  19
ENDBRANCH   1  18
TORSDOF 22
ENDMDL
MODEL 3
REMARK VINA RESULT:      -8.9      2.759      4.184
REMARK SMILES CC[NH+](CC)CCS[C@H](F)C(=O)NCCCCCCNC(=O)c1ccc(-c2c3nc(c(-c4cc(S(=O)(=O)[O-])ccc4F)c4ccc([nH]4)c(-c4cc(S(=O)(=O)[O-])ccc4F)c4nc(c(-c5cc(S(=O)(=O)[O-])ccc5F)c5ccc2[nH]5)C=C4)C=C3)cc1
REMARK SMILES IDX 15 1 14 2 13 3 11 4 12 5 9 7 10 8 8 9 7 10 6 11 3 12 2 14
REMARK SMILES IDX 1 15 4 16 5 17 16 18 17 19 18 20 19 21 20 22 21 23 22 25
REMARK SMILES IDX 23 26 24 27 85 28 25 29 84 30 26 31 27 32 28 33 78 34 29 35
REMARK SMILES IDX 83 36 77 37 79 38 30 39 82 40 76 41 75 42 31 44 63 45 43 46
REMARK SMILES IDX 62 47 44 48 47 49 61 50 80 51 45 52 46 53 60 55 81 56 48 57
REMARK SMILES IDX 32 58 33 59 41 60 34 61 40 62 42 63 39 64 35 65 36 66 37 67
REMARK SMILES IDX 38 68 64 69 65 70 73 71 66 72 72 73 74 74 71 75 67 76 68 77
REMARK SMILES IDX 69 78 70 79 49 80 50 81 58 82 51 83 57 84 59 85 56 86 52 87
REMARK SMILES IDX 53 88 54 89 55 90
REMARK H PARENT 13 6 3 13 20 24 79 43 47 54
REMARK Flexibility Score: inf
ROOT
ATOM      1  C   UNL A   1      31.012  26.406  26.018  1.00  0.00     0.021 C 
ENDROOT
BRANCH   1   2
ATOM      2  C   UNL A   1      30.691  24.928  25.839  1.00  0.00     0.116 C 
BRANCH   2   3
ATOM      3  N   UNL A   1      31.131  24.110  26.950  1.00  0.00    -0.353 N 
ATOM      4  C   UNL A   1      32.113  23.157  26.978  1.00  0.00     0.265 C 
ATOM      5  O   UNL A   1      32.310  22.586  28.058  1.00  0.00    -0.271 OA
ATOM      6  H   UNL A   1      30.658  24.258  27.799  1.00  0.00     0.163 HD
BRANCH   4   7
ATOM      7  C   UNL A   1      32.953  22.828  25.738  1.00  0.00     0.313 C 
ATOM      8  F   UNL A   1      33.683  23.866  25.245  1.00  0.00    -0.225 F 
BRANCH   7   9
ATOM      9  S   UNL A   1      34.044  21.395  25.995  1.00  0.00    -0.110 SA
BRANCH   9  10
ATOM     10  C   UNL A   1      32.964  20.021  25.459  1.00  0.00     0.134 C 
BRANCH  10  11
ATOM     11  C   UNL A   1      33.623  18.844  24.697  1.00  0.00     0.273 C 
BRANCH  11  12
ATOM     12  N   UNL A   1      32.853  17.684  24.226  1.00  0.00    -0.335 N 
ATOM     13  H   UNL A   1      32.004  17.798  24.780  1.00  0.00     0.348 HD
BRANCH  12  14
ATOM     14  C   UNL A   1      32.356  17.731  22.852  1.00  0.00     0.258 C 
ATOM     15  C   UNL A   1      32.360  19.140  22.266  1.00  0.00     0.071 C 
ENDBRANCH  12  14
BRANCH  12  16
ATOM     16  C   UNL A   1      33.384  16.374  24.611  1.00  0.00     0.258 C 
ATOM     17  C   UNL A   1      34.853  16.309  25.002  1.00  0.00     0.071 C 
ENDBRANCH  12  16
ENDBRANCH  11  12
ENDBRANCH  10  11
ENDBRANCH   9  10
ENDBRANCH   7   9
ENDBRANCH   4   7
ENDBRANCH   2   3
ENDBRANCH   1   2
BRANCH   1  18
ATOM     18  C   UNL A   1      32.496  26.783  25.987  1.00  0.00     0.002 C 
BRANCH  18  19
ATOM     19  C   UNL A   1      33.007  27.505  24.738  1.00  0.00     0.002 C 
BRANCH  19  20
ATOM     20  C   UNL A   1      33.578  28.908  24.938  1.00  0.00     0.021 C 
BRANCH  20  21
ATOM     21  C   UNL A   1      34.137  29.217  26.323  1.00  0.00     0.116 C 
BRANCH  21  22
ATOM     22  N   UNL A   1      33.797  30.541  26.808  1.00  0.00    -0.352 N 
ATOM     23  C   UNL A   1      34.447  31.314  27.740  1.00  0.00     0.251 C 
ATOM     24  H   UNL A   1      32.988  30.941  26.414  1.00  0.00     0.163 HD
ATOM     25  O   UNL A   1      33.956  32.386  28.086  1.00  0.00    -0.269 OA
BRANCH  23  26
ATOM     26  C   UNL A   1      35.703  30.834  28.362  1.00  0.00     0.039 A 
ATOM     27  C   UNL A   1      35.630  29.821  29.321  1.00  0.00     0.014 A 
ATOM     28  C   UNL A   1      36.947  31.361  28.001  1.00  0.00     0.014 A 
ATOM     29  C   UNL A   1      36.803  29.290  29.866  1.00  0.00     0.010 A 
ATOM     30  C   UNL A   1      38.117  30.781  28.489  1.00  0.00     0.010 A 
ATOM     31  C   UNL A   1      38.059  29.738  29.426  1.00  0.00    -0.014 A 
BRANCH  31  32
ATOM     32  C   UNL A   1      39.315  29.124  29.936  1.00  0.00     0.031 A 
ATOM     33  C   UNL A   1      39.995  29.688  31.155  1.00  0.00     0.074 A 
ATOM     34  C   UNL A   1      39.870  28.089  29.271  1.00  0.00     0.049 A 
ATOM     35  N   UNL A   1      41.122  29.330  31.715  1.00  0.00    -0.248 NA
ATOM     36  C   UNL A   1      39.331  30.823  31.814  1.00  0.00     0.031 C 
ATOM     37  C   UNL A   1      39.327  27.478  28.056  1.00  0.00     0.029 A 
ATOM     38  N   UNL A   1      41.014  27.372  29.516  1.00  0.00    -0.354 N 
ATOM     39  C   UNL A   1      41.308  30.200  32.785  1.00  0.00     0.074 A 
ATOM     40  C   UNL A   1      40.209  31.141  32.754  1.00  0.00     0.031 C 
ATOM     41  C   UNL A   1      40.121  26.463  27.681  1.00  0.00     0.029 A 
ATOM     42  C   UNL A   1      41.256  26.379  28.593  1.00  0.00     0.049 A 
ATOM     43  H   UNL A   1      41.608  27.550  30.282  1.00  0.00     0.167 HD
ATOM     44  C   UNL A   1      42.291  30.199  33.719  1.00  0.00     0.034 A 
ATOM     45  C   UNL A   1      42.281  25.511  28.486  1.00  0.00     0.034 A 
ATOM     46  C   UNL A   1      43.376  29.245  33.742  1.00  0.00     0.049 A 
ATOM     47  C   UNL A   1      43.380  25.549  29.519  1.00  0.00     0.074 A 
ATOM     48  C   UNL A   1      44.393  29.121  34.671  1.00  0.00     0.029 A 
ATOM     49  N   UNL A   1      43.591  28.259  32.786  1.00  0.00    -0.354 N 
ATOM     50  N   UNL A   1      43.513  26.346  30.554  1.00  0.00    -0.248 NA
ATOM     51  C   UNL A   1      44.460  24.565  29.375  1.00  0.00     0.031 C 
ATOM     52  C   UNL A   1      45.264  28.116  34.239  1.00  0.00     0.029 A 
ATOM     53  C   UNL A   1      44.745  27.549  33.086  1.00  0.00     0.049 A 
ATOM     54  H   UNL A   1      43.010  28.091  32.009  1.00  0.00     0.167 HD
ATOM     55  C   UNL A   1      44.674  25.933  31.203  1.00  0.00     0.074 A 
ATOM     56  C   UNL A   1      45.192  24.809  30.451  1.00  0.00     0.031 C 
ATOM     57  C   UNL A   1      45.257  26.436  32.322  1.00  0.00     0.034 A 
BRANCH  44  58
ATOM     58  C   UNL A   1      42.251  31.277  34.777  1.00  0.00     0.023 A 
ATOM     59  C   UNL A   1      42.912  32.507  34.605  1.00  0.00     0.031 A 
ATOM     60  C   UNL A   1      41.556  31.069  35.981  1.00  0.00     0.131 A 
ATOM     61  C   UNL A   1      42.927  33.447  35.648  1.00  0.00     0.055 A 
ATOM     62  C   UNL A   1      41.502  32.043  36.979  1.00  0.00     0.041 A 
ATOM     63  F   UNL A   1      40.924  29.908  36.213  1.00  0.00    -0.206 F 
ATOM     64  C   UNL A   1      42.203  33.236  36.823  1.00  0.00     0.022 A 
BRANCH  61  65
ATOM     65  S   UNL A   1      44.024  34.884  35.502  1.00  0.00     0.124 S 
ATOM     66  O   UNL A   1      43.683  35.381  34.171  1.00  0.00    -0.237 OA
ATOM     67  O   UNL A   1      43.605  35.717  36.623  1.00  0.00    -0.237 OA
ATOM     68  O   UNL A   1      45.362  34.306  35.618  1.00  0.00    -0.744 OA
ENDBRANCH  61  65
ENDBRANCH  44  58
BRANCH  45  69
ATOM     69  C   UNL A   1      42.336  24.538  27.354  1.00  0.00     0.023 A 
ATOM     70  C   UNL A   1      41.572  23.360  27.373  1.00  0.00     0.031 A 
ATOM     71  C   UNL A   1      43.193  24.747  26.259  1.00  0.00     0.131 A 
ATOM     72  C   UNL A   1      41.720  22.411  26.349  1.00  0.00     0.055 A 
ATOM     73  C   UNL A   1      43.291  23.829  25.212  1.00  0.00     0.041 A 
ATOM     74  F   UNL A   1      43.945  25.856  26.187  1.00  0.00    -0.206 F 
ATOM     75  C   UNL A   1      42.564  22.645  25.261  1.00  0.00     0.022 A 
BRANCH  72  76
ATOM     76  S   UNL A   1      40.867  20.818  26.510  1.00  0.00     0.124 S 
ATOM     77  O   UNL A   1      41.752  19.933  25.761  1.00  0.00    -0.237 OA
ATOM     78  O   UNL A   1      40.845  20.632  27.956  1.00  0.00    -0.237 OA
ATOM     79  O   UNL A   1      39.565  21.067  25.894  1.00  0.00    -0.744 OA
ENDBRANCH  72  76
ENDBRANCH  45  69
BRANCH  57  80
ATOM     80  C   UNL A   1      46.497  25.734  32.825  1.00  0.00     0.023 A 
ATOM     81  C   UNL A   1      46.428  24.666  33.737  1.00  0.00     0.031 A 
ATOM     82  C   UNL A   1      47.769  26.150  32.392  1.00  0.00     0.131 A 
ATOM     83  C   UNL A   1      47.608  24.091  34.232  1.00  0.00     0.055 A 
ATOM     84  C   UNL A   1      48.938  25.530  32.836  1.00  0.00     0.041 A 
ATOM     85  F   UNL A   1      47.896  27.167  31.525  1.00  0.00    -0.206 F 
ATOM     86  C   UNL A   1      48.862  24.504  33.773  1.00  0.00     0.022 A 
BRANCH  83  87
ATOM     87  S   UNL A   1      47.489  22.865  35.563  1.00  0.00     0.124 S 
ATOM     88  O   UNL A   1      48.230  23.514  36.641  1.00  0.00    -0.237 OA
ATOM     89  O   UNL A   1      46.046  22.755  35.758  1.00  0.00    -0.237 OA
ATOM     90  O   UNL A   1      48.128  21.679  34.997  1.00  0.00    -0.744 OA
ENDBRANCH  83  87
ENDBRANCH  57  80
ENDBRANCH  31  32
ENDBRANCH  23  26
ENDBRANCH  21  22
ENDBRANCH  20  21
ENDBRANCH  19  20
ENDBRANCH  18  19
ENDBRANCH   1  18
TORSDOF 22
ENDMDL
