MODEL 1
REMARK VINA RESULT:      -9.9      0.000      0.000
REMARK SMILES CCOC(=O)COc1ccc(/C=C/C(=O)NCCCCCCNC(=O)c2ccc(-c3c4nc(c(-c5cc(S(=O)(=O)[O-])ccc5F)c5ccc([nH]5)c(-c5cc(S(=O)(=O)[O-])ccc5F)c5nc(c(-c6cc(S(=O)(=O)[O-])ccc6F)c6ccc3[nH]6)C=C5)C=C4)cc2)cc1
REMARK SMILES IDX 18 1 17 2 16 3 14 4 15 5 13 7 12 8 11 9 8 10 9 11 90 12
REMARK SMILES IDX 10 13 89 14 7 15 6 16 4 17 5 18 3 19 2 20 1 21 19 22 20 23
REMARK SMILES IDX 21 24 22 25 23 26 24 27 25 29 26 30 27 31 88 32 28 33 87 34
REMARK SMILES IDX 29 35 30 36 31 37 81 38 32 39 86 40 80 41 82 42 33 43 85 44
REMARK SMILES IDX 79 45 78 46 34 48 66 49 46 50 65 51 47 52 50 53 64 54 83 55
REMARK SMILES IDX 48 56 49 57 63 59 84 60 51 61 35 62 36 63 44 64 37 65 43 66
REMARK SMILES IDX 45 67 42 68 38 69 39 70 40 71 41 72 67 73 68 74 76 75 69 76
REMARK SMILES IDX 75 77 77 78 74 79 70 80 71 81 72 82 73 83 52 84 53 85 61 86
REMARK SMILES IDX 54 87 60 88 62 89 59 90 55 91 56 92 57 93 58 94
REMARK H PARENT 16 6 23 28 82 47 50 58
REMARK Flexibility Score: inf
ROOT
ATOM      1  C   UNL A   1      33.179  25.172  22.720  1.00  0.00     0.021 C 
ENDROOT
BRANCH   1   2
ATOM      2  C   UNL A   1      31.684  25.484  22.647  1.00  0.00     0.116 C 
BRANCH   2   3
ATOM      3  N   UNL A   1      30.989  24.933  23.800  1.00  0.00    -0.353 N 
ATOM      4  C   UNL A   1      30.767  25.449  25.038  1.00  0.00     0.243 C 
ATOM      5  O   UNL A   1      30.073  24.834  25.844  1.00  0.00    -0.270 OA
ATOM      6  H   UNL A   1      30.615  24.034  23.659  1.00  0.00     0.163 HD
BRANCH   4   7
ATOM      7  C   UNL A   1      31.269  26.794  25.392  1.00  0.00     0.072 C 
ATOM      8  C   UNL A   1      32.217  27.010  26.313  1.00  0.00     0.014 C 
BRANCH   8   9
ATOM      9  C   UNL A   1      32.750  28.342  26.609  1.00  0.00    -0.025 A 
ATOM     10  C   UNL A   1      33.854  30.831  27.312  1.00  0.00     0.120 A 
ATOM     11  C   UNL A   1      32.494  30.719  27.021  1.00  0.00     0.047 A 
ATOM     12  C   UNL A   1      34.661  29.698  27.244  1.00  0.00     0.047 A 
ATOM     13  C   UNL A   1      31.944  29.484  26.657  1.00  0.00     0.012 A 
ATOM     14  C   UNL A   1      34.110  28.460  26.904  1.00  0.00     0.012 A 
BRANCH  10  15
ATOM     15  O   UNL A   1      34.283  32.050  27.762  1.00  0.00    -0.482 OA
BRANCH  15  16
ATOM     16  C   UNL A   1      33.278  33.046  27.905  1.00  0.00     0.351 C 
BRANCH  16  17
ATOM     17  C   UNL A   1      33.633  34.399  28.517  1.00  0.00     0.344 C 
ATOM     18  O   UNL A   1      34.680  34.988  28.275  1.00  0.00    -0.248 OA
BRANCH  17  19
ATOM     19  O   UNL A   1      32.655  34.853  29.347  1.00  0.00    -0.463 OA
BRANCH  19  20
ATOM     20  C   UNL A   1      33.002  35.979  30.171  1.00  0.00     0.229 C 
ATOM     21  C   UNL A   1      33.430  35.511  31.551  1.00  0.00     0.049 C 
ENDBRANCH  19  20
ENDBRANCH  17  19
ENDBRANCH  16  17
ENDBRANCH  15  16
ENDBRANCH  10  15
ENDBRANCH   8   9
ENDBRANCH   4   7
ENDBRANCH   2   3
ENDBRANCH   1   2
BRANCH   1  22
ATOM     22  C   UNL A   1      33.492  23.787  23.303  1.00  0.00     0.002 C 
BRANCH  22  23
ATOM     23  C   UNL A   1      34.087  23.798  24.716  1.00  0.00     0.002 C 
BRANCH  23  24
ATOM     24  C   UNL A   1      35.594  23.537  24.791  1.00  0.00     0.021 C 
BRANCH  24  25
ATOM     25  C   UNL A   1      36.071  22.941  26.113  1.00  0.00     0.116 C 
BRANCH  25  26
ATOM     26  N   UNL A   1      36.927  21.785  25.905  1.00  0.00    -0.352 N 
ATOM     27  C   UNL A   1      38.297  21.696  25.932  1.00  0.00     0.251 C 
ATOM     28  H   UNL A   1      36.455  20.941  25.718  1.00  0.00     0.163 HD
ATOM     29  O   UNL A   1      38.845  20.687  25.500  1.00  0.00    -0.269 OA
BRANCH  27  30
ATOM     30  C   UNL A   1      39.106  22.816  26.465  1.00  0.00     0.039 A 
ATOM     31  C   UNL A   1      40.112  22.538  27.394  1.00  0.00     0.014 A 
ATOM     32  C   UNL A   1      38.852  24.136  26.082  1.00  0.00     0.014 A 
ATOM     33  C   UNL A   1      40.894  23.579  27.902  1.00  0.00     0.010 A 
ATOM     34  C   UNL A   1      39.676  25.163  26.537  1.00  0.00     0.010 A 
ATOM     35  C   UNL A   1      40.700  24.897  27.458  1.00  0.00    -0.014 A 
BRANCH  35  36
ATOM     36  C   UNL A   1      41.552  26.007  27.961  1.00  0.00     0.031 A 
ATOM     37  C   UNL A   1      40.980  27.031  28.905  1.00  0.00     0.074 A 
ATOM     38  C   UNL A   1      42.824  26.117  27.532  1.00  0.00     0.049 A 
ATOM     39  N   UNL A   1      41.545  28.096  29.414  1.00  0.00    -0.248 NA
ATOM     40  C   UNL A   1      39.577  26.847  29.306  1.00  0.00     0.031 C 
ATOM     41  C   UNL A   1      43.477  25.210  26.585  1.00  0.00     0.029 A 
ATOM     42  N   UNL A   1      43.796  27.041  27.827  1.00  0.00    -0.354 N 
ATOM     43  C   UNL A   1      40.567  28.716  30.184  1.00  0.00     0.074 A 
ATOM     44  C   UNL A   1      39.356  27.938  30.024  1.00  0.00     0.031 C 
ATOM     45  C   UNL A   1      44.745  25.606  26.398  1.00  0.00     0.029 A 
ATOM     46  C   UNL A   1      44.987  26.819  27.175  1.00  0.00     0.049 A 
ATOM     47  H   UNL A   1      43.653  27.791  28.447  1.00  0.00     0.167 HD
ATOM     48  C   UNL A   1      40.674  29.815  30.972  1.00  0.00     0.034 A 
ATOM     49  C   UNL A   1      46.139  27.517  27.193  1.00  0.00     0.034 A 
ATOM     50  C   UNL A   1      41.894  30.571  31.130  1.00  0.00     0.049 A 
ATOM     51  C   UNL A   1      46.232  28.743  28.064  1.00  0.00     0.074 A 
ATOM     52  C   UNL A   1      42.131  31.667  31.941  1.00  0.00     0.029 A 
ATOM     53  N   UNL A   1      43.082  30.314  30.457  1.00  0.00    -0.354 N 
ATOM     54  N   UNL A   1      45.312  29.285  28.830  1.00  0.00    -0.248 NA
ATOM     55  C   UNL A   1      47.523  29.444  28.085  1.00  0.00     0.031 C 
ATOM     56  C   UNL A   1      43.438  32.111  31.709  1.00  0.00     0.029 A 
ATOM     57  C   UNL A   1      44.045  31.248  30.812  1.00  0.00     0.049 A 
ATOM     58  H   UNL A   1      43.222  29.575  29.820  1.00  0.00     0.167 HD
ATOM     59  C   UNL A   1      45.925  30.373  29.446  1.00  0.00     0.074 A 
ATOM     60  C   UNL A   1      47.295  30.397  28.977  1.00  0.00     0.031 C 
ATOM     61  C   UNL A   1      45.404  31.268  30.325  1.00  0.00     0.034 A 
BRANCH  48  62
ATOM     62  C   UNL A   1      39.431  30.278  31.696  1.00  0.00     0.023 A 
ATOM     63  C   UNL A   1      38.531  31.189  31.116  1.00  0.00     0.031 A 
ATOM     64  C   UNL A   1      39.153  29.821  32.997  1.00  0.00     0.131 A 
ATOM     65  C   UNL A   1      37.444  31.673  31.859  1.00  0.00     0.055 A 
ATOM     66  C   UNL A   1      38.022  30.241  33.701  1.00  0.00     0.041 A 
ATOM     67  F   UNL A   1      39.984  28.966  33.615  1.00  0.00    -0.206 F 
ATOM     68  C   UNL A   1      37.168  31.186  33.138  1.00  0.00     0.022 A 
BRANCH  65  69
ATOM     69  S   UNL A   1      36.482  33.056  31.186  1.00  0.00     0.124 S 
ATOM     70  O   UNL A   1      36.542  34.017  32.284  1.00  0.00    -0.237 OA
ATOM     71  O   UNL A   1      37.233  33.408  29.986  1.00  0.00    -0.237 OA
ATOM     72  O   UNL A   1      35.164  32.473  30.950  1.00  0.00    -0.744 OA
ENDBRANCH  65  69
ENDBRANCH  48  62
BRANCH  49  73
ATOM     73  C   UNL A   1      47.298  27.084  26.360  1.00  0.00     0.023 A 
ATOM     74  C   UNL A   1      47.484  27.583  25.061  1.00  0.00     0.031 A 
ATOM     75  C   UNL A   1      48.219  26.134  26.838  1.00  0.00     0.131 A 
ATOM     76  C   UNL A   1      48.532  27.094  24.266  1.00  0.00     0.055 A 
ATOM     77  C   UNL A   1      49.291  25.691  26.064  1.00  0.00     0.041 A 
ATOM     78  F   UNL A   1      48.092  25.630  28.077  1.00  0.00    -0.206 F 
ATOM     79  C   UNL A   1      49.444  26.161  24.763  1.00  0.00     0.022 A 
BRANCH  76  80
ATOM     80  S   UNL A   1      48.633  27.632  22.537  1.00  0.00     0.124 S 
ATOM     81  O   UNL A   1      49.858  28.422  22.543  1.00  0.00    -0.237 OA
ATOM     82  O   UNL A   1      48.694  26.358  21.827  1.00  0.00    -0.237 OA
ATOM     83  O   UNL A   1      47.400  28.393  22.345  1.00  0.00    -0.744 OA
ENDBRANCH  76  80
ENDBRANCH  49  73
BRANCH  61  84
ATOM     84  C   UNL A   1      46.342  32.321  30.862  1.00  0.00     0.023 A 
ATOM     85  C   UNL A   1      47.093  32.118  32.033  1.00  0.00     0.031 A 
ATOM     86  C   UNL A   1      46.472  33.557  30.200  1.00  0.00     0.131 A 
ATOM     87  C   UNL A   1      47.890  33.155  32.541  1.00  0.00     0.055 A 
ATOM     88  C   UNL A   1      47.315  34.561  30.675  1.00  0.00     0.041 A 
ATOM     89  F   UNL A   1      45.777  33.806  29.078  1.00  0.00    -0.206 F 
ATOM     90  C   UNL A   1      48.019  34.369  31.861  1.00  0.00     0.022 A 
BRANCH  87  91
ATOM     91  S   UNL A   1      48.678  32.933  34.159  1.00  0.00     0.124 S 
ATOM     92  O   UNL A   1      49.835  32.111  33.823  1.00  0.00    -0.237 OA
ATOM     93  O   UNL A   1      48.967  34.308  34.557  1.00  0.00    -0.237 OA
ATOM     94  O   UNL A   1      47.650  32.263  34.954  1.00  0.00    -0.744 OA
ENDBRANCH  87  91
ENDBRANCH  61  84
ENDBRANCH  35  36
ENDBRANCH  27  30
ENDBRANCH  25  26
ENDBRANCH  24  25
ENDBRANCH  23  24
ENDBRANCH  22  23
ENDBRANCH   1  22
TORSDOF 22
ENDMDL
MODEL 2
REMARK VINA RESULT:      -9.8      4.989      9.240
REMARK SMILES CCOC(=O)COc1ccc(/C=C/C(=O)NCCCCCCNC(=O)c2ccc(-c3c4nc(c(-c5cc(S(=O)(=O)[O-])ccc5F)c5ccc([nH]5)c(-c5cc(S(=O)(=O)[O-])ccc5F)c5nc(c(-c6cc(S(=O)(=O)[O-])ccc6F)c6ccc3[nH]6)C=C5)C=C4)cc2)cc1
REMARK SMILES IDX 18 1 17 2 16 3 14 4 15 5 13 7 12 8 11 9 8 10 9 11 90 12
REMARK SMILES IDX 10 13 89 14 7 15 6 16 4 17 5 18 3 19 2 20 1 21 19 22 20 23
REMARK SMILES IDX 21 24 22 25 23 26 24 27 25 29 26 30 27 31 88 32 28 33 87 34
REMARK SMILES IDX 29 35 30 36 31 37 81 38 32 39 86 40 80 41 82 42 33 43 85 44
REMARK SMILES IDX 79 45 78 46 34 48 66 49 46 50 65 51 47 52 50 53 64 54 83 55
REMARK SMILES IDX 48 56 49 57 63 59 84 60 51 61 35 62 36 63 44 64 37 65 43 66
REMARK SMILES IDX 45 67 42 68 38 69 39 70 40 71 41 72 67 73 68 74 76 75 69 76
REMARK SMILES IDX 75 77 77 78 74 79 70 80 71 81 72 82 73 83 52 84 53 85 61 86
REMARK SMILES IDX 54 87 60 88 62 89 59 90 55 91 56 92 57 93 58 94
REMARK H PARENT 16 6 23 28 82 47 50 58
REMARK Flexibility Score: inf
ROOT
ATOM      1  C   UNL A   1      34.786  30.909  28.262  1.00  0.00     0.021 C 
ENDROOT
BRANCH   1   2
ATOM      2  C   UNL A   1      34.209  29.918  27.250  1.00  0.00     0.116 C 
BRANCH   2   3
ATOM      3  N   UNL A   1      32.836  29.579  27.592  1.00  0.00    -0.353 N 
ATOM      4  C   UNL A   1      32.131  28.430  27.413  1.00  0.00     0.243 C 
ATOM      5  O   UNL A   1      30.990  28.336  27.860  1.00  0.00    -0.270 OA
ATOM      6  H   UNL A   1      32.333  30.304  28.026  1.00  0.00     0.163 HD
BRANCH   4   7
ATOM      7  C   UNL A   1      32.758  27.254  26.775  1.00  0.00     0.072 C 
ATOM      8  C   UNL A   1      32.093  26.129  26.483  1.00  0.00     0.014 C 
BRANCH   8   9
ATOM      9  C   UNL A   1      32.712  24.995  25.793  1.00  0.00    -0.025 A 
ATOM     10  C   UNL A   1      33.751  22.734  24.481  1.00  0.00     0.120 A 
ATOM     11  C   UNL A   1      34.460  23.336  25.521  1.00  0.00     0.047 A 
ATOM     12  C   UNL A   1      32.525  23.271  24.094  1.00  0.00     0.047 A 
ATOM     13  C   UNL A   1      33.952  24.469  26.167  1.00  0.00     0.012 A 
ATOM     14  C   UNL A   1      32.004  24.388  24.753  1.00  0.00     0.012 A 
BRANCH  10  15
ATOM     15  O   UNL A   1      34.269  21.571  23.982  1.00  0.00    -0.482 OA
BRANCH  15  16
ATOM     16  C   UNL A   1      34.476  20.530  24.927  1.00  0.00     0.351 C 
BRANCH  16  17
ATOM     17  C   UNL A   1      33.478  19.377  25.017  1.00  0.00     0.344 C 
ATOM     18  O   UNL A   1      32.281  19.545  25.222  1.00  0.00    -0.248 OA
BRANCH  17  19
ATOM     19  O   UNL A   1      34.079  18.169  24.840  1.00  0.00    -0.463 OA
BRANCH  19  20
ATOM     20  C   UNL A   1      33.323  17.191  24.107  1.00  0.00     0.229 C 
ATOM     21  C   UNL A   1      33.974  16.923  22.761  1.00  0.00     0.049 C 
ENDBRANCH  19  20
ENDBRANCH  17  19
ENDBRANCH  16  17
ENDBRANCH  15  16
ENDBRANCH  10  15
ENDBRANCH   8   9
ENDBRANCH   4   7
ENDBRANCH   2   3
ENDBRANCH   1   2
BRANCH   1  22
ATOM     22  C   UNL A   1      35.913  31.783  27.695  1.00  0.00     0.002 C 
BRANCH  22  23
ATOM     23  C   UNL A   1      35.827  33.269  28.063  1.00  0.00     0.002 C 
BRANCH  23  24
ATOM     24  C   UNL A   1      34.412  33.856  28.081  1.00  0.00     0.021 C 
BRANCH  24  25
ATOM     25  C   UNL A   1      34.336  35.320  28.505  1.00  0.00     0.116 C 
BRANCH  25  26
ATOM     26  N   UNL A   1      33.459  35.505  29.648  1.00  0.00    -0.352 N 
ATOM     27  C   UNL A   1      33.515  34.932  30.895  1.00  0.00     0.251 C 
ATOM     28  H   UNL A   1      32.714  36.134  29.509  1.00  0.00     0.163 HD
ATOM     29  O   UNL A   1      32.552  35.029  31.648  1.00  0.00    -0.269 OA
BRANCH  27  30
ATOM     30  C   UNL A   1      34.723  34.188  31.319  1.00  0.00     0.039 A 
ATOM     31  C   UNL A   1      34.593  32.849  31.696  1.00  0.00     0.014 A 
ATOM     32  C   UNL A   1      35.971  34.814  31.380  1.00  0.00     0.014 A 
ATOM     33  C   UNL A   1      35.722  32.126  32.089  1.00  0.00     0.010 A 
ATOM     34  C   UNL A   1      37.106  34.074  31.707  1.00  0.00     0.010 A 
ATOM     35  C   UNL A   1      36.992  32.724  32.073  1.00  0.00    -0.014 A 
BRANCH  35  36
ATOM     36  C   UNL A   1      38.206  31.953  32.451  1.00  0.00     0.031 A 
ATOM     37  C   UNL A   1      38.940  32.276  33.726  1.00  0.00     0.074 A 
ATOM     38  C   UNL A   1      38.671  30.997  31.625  1.00  0.00     0.049 A 
ATOM     39  N   UNL A   1      40.041  31.753  34.203  1.00  0.00    -0.248 NA
ATOM     40  C   UNL A   1      38.376  33.349  34.559  1.00  0.00     0.031 C 
ATOM     41  C   UNL A   1      38.070  30.624  30.342  1.00  0.00     0.029 A 
ATOM     42  N   UNL A   1      39.760  30.167  31.732  1.00  0.00    -0.354 N 
ATOM     43  C   UNL A   1      40.308  32.438  35.383  1.00  0.00     0.074 A 
ATOM     44  C   UNL A   1      39.286  33.456  35.514  1.00  0.00     0.031 C 
ATOM     45  C   UNL A   1      38.780  29.625  29.796  1.00  0.00     0.029 A 
ATOM     46  C   UNL A   1      39.913  29.313  30.664  1.00  0.00     0.049 A 
ATOM     47  H   UNL A   1      40.373  30.182  32.502  1.00  0.00     0.167 HD
ATOM     48  C   UNL A   1      41.298  32.224  36.286  1.00  0.00     0.034 A 
ATOM     49  C   UNL A   1      40.861  28.391  30.409  1.00  0.00     0.034 A 
ATOM     50  C   UNL A   1      42.301  31.195  36.145  1.00  0.00     0.049 A 
ATOM     51  C   UNL A   1      41.959  28.179  31.419  1.00  0.00     0.074 A 
ATOM     52  C   UNL A   1      43.315  30.854  37.022  1.00  0.00     0.029 A 
ATOM     53  N   UNL A   1      42.422  30.346  35.052  1.00  0.00    -0.354 N 
ATOM     54  N   UNL A   1      42.166  28.800  32.558  1.00  0.00    -0.248 NA
ATOM     55  C   UNL A   1      42.943  27.131  31.116  1.00  0.00     0.031 C 
ATOM     56  C   UNL A   1      44.087  29.847  36.431  1.00  0.00     0.029 A 
ATOM     57  C   UNL A   1      43.511  29.503  35.219  1.00  0.00     0.049 A 
ATOM     58  H   UNL A   1      41.821  30.342  34.271  1.00  0.00     0.167 HD
ATOM     59  C   UNL A   1      43.287  28.195  33.120  1.00  0.00     0.074 A 
ATOM     60  C   UNL A   1      43.698  27.151  32.205  1.00  0.00     0.031 C 
ATOM     61  C   UNL A   1      43.917  28.475  34.290  1.00  0.00     0.034 A 
BRANCH  48  62
ATOM     62  C   UNL A   1      41.355  33.138  37.488  1.00  0.00     0.023 A 
ATOM     63  C   UNL A   1      40.701  32.820  38.692  1.00  0.00     0.031 A 
ATOM     64  C   UNL A   1      42.051  34.359  37.423  1.00  0.00     0.131 A 
ATOM     65  C   UNL A   1      40.691  33.742  39.750  1.00  0.00     0.055 A 
ATOM     66  C   UNL A   1      42.109  35.234  38.509  1.00  0.00     0.041 A 
ATOM     67  F   UNL A   1      42.678  34.730  36.295  1.00  0.00    -0.206 F 
ATOM     68  C   UNL A   1      41.413  34.935  39.678  1.00  0.00     0.022 A 
BRANCH  65  69
ATOM     69  S   UNL A   1      39.602  33.423  41.165  1.00  0.00     0.124 S 
ATOM     70  O   UNL A   1      39.342  31.993  41.019  1.00  0.00    -0.237 OA
ATOM     71  O   UNL A   1      40.435  33.810  42.298  1.00  0.00    -0.237 OA
ATOM     72  O   UNL A   1      38.450  34.287  40.912  1.00  0.00    -0.744 OA
ENDBRANCH  65  69
ENDBRANCH  48  62
BRANCH  49  73
ATOM     73  C   UNL A   1      40.825  27.600  29.145  1.00  0.00     0.023 A 
ATOM     74  C   UNL A   1      41.721  27.867  28.097  1.00  0.00     0.031 A 
ATOM     75  C   UNL A   1      39.867  26.589  28.950  1.00  0.00     0.131 A 
ATOM     76  C   UNL A   1      41.610  27.168  26.885  1.00  0.00     0.055 A 
ATOM     77  C   UNL A   1      39.794  25.859  27.763  1.00  0.00     0.041 A 
ATOM     78  F   UNL A   1      38.990  26.288  29.923  1.00  0.00    -0.206 F 
ATOM     79  C   UNL A   1      40.661  26.157  26.716  1.00  0.00     0.022 A 
BRANCH  76  80
ATOM     80  S   UNL A   1      42.669  27.661  25.498  1.00  0.00     0.124 S 
ATOM     81  O   UNL A   1      43.943  27.896  26.166  1.00  0.00    -0.237 OA
ATOM     82  O   UNL A   1      42.603  26.486  24.635  1.00  0.00    -0.237 OA
ATOM     83  O   UNL A   1      42.009  28.855  24.974  1.00  0.00    -0.744 OA
ENDBRANCH  76  80
ENDBRANCH  49  73
BRANCH  61  84
ATOM     84  C   UNL A   1      45.093  27.603  34.657  1.00  0.00     0.023 A 
ATOM     85  C   UNL A   1      44.923  26.334  35.238  1.00  0.00     0.031 A 
ATOM     86  C   UNL A   1      46.407  28.059  34.438  1.00  0.00     0.131 A 
ATOM     87  C   UNL A   1      46.046  25.592  35.638  1.00  0.00     0.055 A 
ATOM     88  C   UNL A   1      47.519  27.289  34.779  1.00  0.00     0.041 A 
ATOM     89  F   UNL A   1      46.628  29.264  33.888  1.00  0.00    -0.206 F 
ATOM     90  C   UNL A   1      47.342  26.053  35.397  1.00  0.00     0.022 A 
BRANCH  87  91
ATOM     91  S   UNL A   1      45.787  24.058  36.570  1.00  0.00     0.124 S 
ATOM     92  O   UNL A   1      44.396  23.746  36.262  1.00  0.00    -0.237 OA
ATOM     93  O   UNL A   1      46.784  23.166  35.986  1.00  0.00    -0.237 OA
ATOM     94  O   UNL A   1      46.044  24.450  37.955  1.00  0.00    -0.744 OA
ENDBRANCH  87  91
ENDBRANCH  61  84
ENDBRANCH  35  36
ENDBRANCH  27  30
ENDBRANCH  25  26
ENDBRANCH  24  25
ENDBRANCH  23  24
ENDBRANCH  22  23
ENDBRANCH   1  22
TORSDOF 22
ENDMDL
MODEL 3
REMARK VINA RESULT:      -9.6      4.515      8.617
REMARK SMILES CCOC(=O)COc1ccc(/C=C/C(=O)NCCCCCCNC(=O)c2ccc(-c3c4nc(c(-c5cc(S(=O)(=O)[O-])ccc5F)c5ccc([nH]5)c(-c5cc(S(=O)(=O)[O-])ccc5F)c5nc(c(-c6cc(S(=O)(=O)[O-])ccc6F)c6ccc3[nH]6)C=C5)C=C4)cc2)cc1
REMARK SMILES IDX 18 1 17 2 16 3 14 4 15 5 13 7 12 8 11 9 8 10 9 11 90 12
REMARK SMILES IDX 10 13 89 14 7 15 6 16 4 17 5 18 3 19 2 20 1 21 19 22 20 23
REMARK SMILES IDX 21 24 22 25 23 26 24 27 25 29 26 30 27 31 88 32 28 33 87 34
REMARK SMILES IDX 29 35 30 36 31 37 81 38 32 39 86 40 80 41 82 42 33 43 85 44
REMARK SMILES IDX 79 45 78 46 34 48 66 49 46 50 65 51 47 52 50 53 64 54 83 55
REMARK SMILES IDX 48 56 49 57 63 59 84 60 51 61 35 62 36 63 44 64 37 65 43 66
REMARK SMILES IDX 45 67 42 68 38 69 39 70 40 71 41 72 67 73 68 74 76 75 69 76
REMARK SMILES IDX 75 77 77 78 74 79 70 80 71 81 72 82 73 83 52 84 53 85 61 86
REMARK SMILES IDX 54 87 60 88 62 89 59 90 55 91 56 92 57 93 58 94
REMARK H PARENT 16 6 23 28 82 47 50 58
REMARK Flexibility Score: inf
ROOT
ATOM      1  C   UNL A   1      33.841  26.400  24.905  1.00  0.00     0.021 C 
ENDROOT
BRANCH   1   2
ATOM      2  C   UNL A   1      33.125  26.105  26.223  1.00  0.00     0.116 C 
BRANCH   2   3
ATOM      3  N   UNL A   1      31.690  26.295  26.080  1.00  0.00    -0.353 N 
ATOM      4  C   UNL A   1      30.701  25.416  25.769  1.00  0.00     0.243 C 
ATOM      5  O   UNL A   1      29.528  25.782  25.783  1.00  0.00    -0.270 OA
ATOM      6  H   UNL A   1      31.383  27.218  26.235  1.00  0.00     0.163 HD
BRANCH   4   7
ATOM      7  C   UNL A   1      31.012  23.994  25.512  1.00  0.00     0.072 C 
ATOM      8  C   UNL A   1      31.560  23.552  24.372  1.00  0.00     0.014 C 
BRANCH   8   9
ATOM      9  C   UNL A   1      31.923  22.149  24.156  1.00  0.00    -0.025 A 
ATOM     10  C   UNL A   1      32.477  19.440  23.645  1.00  0.00     0.120 A 
ATOM     11  C   UNL A   1      32.537  19.940  24.946  1.00  0.00     0.047 A 
ATOM     12  C   UNL A   1      32.146  20.300  22.600  1.00  0.00     0.047 A 
ATOM     13  C   UNL A   1      32.275  21.291  25.202  1.00  0.00     0.012 A 
ATOM     14  C   UNL A   1      31.861  21.643  22.855  1.00  0.00     0.012 A 
BRANCH  10  15
ATOM     15  O   UNL A   1      32.640  18.089  23.502  1.00  0.00    -0.482 OA
BRANCH  15  16
ATOM     16  C   UNL A   1      32.214  17.295  24.601  1.00  0.00     0.351 C 
BRANCH  16  17
ATOM     17  C   UNL A   1      32.924  15.977  24.904  1.00  0.00     0.344 C 
ATOM     18  O   UNL A   1      32.511  15.170  25.730  1.00  0.00    -0.248 OA
BRANCH  17  19
ATOM     19  O   UNL A   1      34.047  15.821  24.152  1.00  0.00    -0.463 OA
BRANCH  19  20
ATOM     20  C   UNL A   1      35.201  16.561  24.585  1.00  0.00     0.229 C 
ATOM     21  C   UNL A   1      35.873  15.856  25.751  1.00  0.00     0.049 C 
ENDBRANCH  19  20
ENDBRANCH  17  19
ENDBRANCH  16  17
ENDBRANCH  15  16
ENDBRANCH  10  15
ENDBRANCH   8   9
ENDBRANCH   4   7
ENDBRANCH   2   3
ENDBRANCH   1   2
BRANCH   1  22
ATOM     22  C   UNL A   1      33.135  27.455  24.042  1.00  0.00     0.002 C 
BRANCH  22  23
ATOM     23  C   UNL A   1      33.584  28.900  24.288  1.00  0.00     0.002 C 
BRANCH  23  24
ATOM     24  C   UNL A   1      32.856  29.625  25.424  1.00  0.00     0.021 C 
BRANCH  24  25
ATOM     25  C   UNL A   1      33.674  29.788  26.702  1.00  0.00     0.116 C 
BRANCH  25  26
ATOM     26  N   UNL A   1      33.606  31.145  27.216  1.00  0.00    -0.352 N 
ATOM     27  C   UNL A   1      34.398  31.767  28.150  1.00  0.00     0.251 C 
ATOM     28  H   UNL A   1      32.886  31.701  26.839  1.00  0.00     0.163 HD
ATOM     29  O   UNL A   1      34.039  32.838  28.627  1.00  0.00    -0.269 OA
BRANCH  27  30
ATOM     30  C   UNL A   1      35.666  31.140  28.588  1.00  0.00     0.039 A 
ATOM     31  C   UNL A   1      36.872  31.778  28.286  1.00  0.00     0.014 A 
ATOM     32  C   UNL A   1      35.671  29.913  29.258  1.00  0.00     0.014 A 
ATOM     33  C   UNL A   1      38.079  31.208  28.699  1.00  0.00     0.010 A 
ATOM     34  C   UNL A   1      36.870  29.382  29.728  1.00  0.00     0.010 A 
ATOM     35  C   UNL A   1      38.088  30.019  29.446  1.00  0.00    -0.014 A 
BRANCH  35  36
ATOM     36  C   UNL A   1      39.364  29.425  29.924  1.00  0.00     0.031 A 
ATOM     37  C   UNL A   1      40.090  30.034  31.093  1.00  0.00     0.074 A 
ATOM     38  C   UNL A   1      39.890  28.367  29.276  1.00  0.00     0.049 A 
ATOM     39  N   UNL A   1      41.237  29.694  31.626  1.00  0.00    -0.248 NA
ATOM     40  C   UNL A   1      39.457  31.200  31.728  1.00  0.00     0.031 C 
ATOM     41  C   UNL A   1      39.299  27.716  28.104  1.00  0.00     0.029 A 
ATOM     42  N   UNL A   1      41.042  27.655  29.503  1.00  0.00    -0.354 N 
ATOM     43  C   UNL A   1      41.468  30.607  32.649  1.00  0.00     0.074 A 
ATOM     44  C   UNL A   1      40.372  31.553  32.619  1.00  0.00     0.031 C 
ATOM     45  C   UNL A   1      40.077  26.688  27.733  1.00  0.00     0.029 A 
ATOM     46  C   UNL A   1      41.244  26.630  28.609  1.00  0.00     0.049 A 
ATOM     47  H   UNL A   1      41.664  27.860  30.237  1.00  0.00     0.167 HD
ATOM     48  C   UNL A   1      42.486  30.640  33.545  1.00  0.00     0.034 A 
ATOM     49  C   UNL A   1      42.257  25.748  28.501  1.00  0.00     0.034 A 
ATOM     50  C   UNL A   1      43.564  29.680  33.568  1.00  0.00     0.049 A 
ATOM     51  C   UNL A   1      43.384  25.811  29.499  1.00  0.00     0.074 A 
ATOM     52  C   UNL A   1      44.616  29.585  34.462  1.00  0.00     0.029 A 
ATOM     53  N   UNL A   1      43.733  28.651  32.649  1.00  0.00    -0.354 N 
ATOM     54  N   UNL A   1      43.560  26.649  30.495  1.00  0.00    -0.248 NA
ATOM     55  C   UNL A   1      44.443  24.801  29.367  1.00  0.00     0.031 C 
ATOM     56  C   UNL A   1      45.455  28.545  34.046  1.00  0.00     0.029 A 
ATOM     57  C   UNL A   1      44.888  27.938  32.938  1.00  0.00     0.049 A 
ATOM     58  H   UNL A   1      43.123  28.456  31.902  1.00  0.00     0.167 HD
ATOM     59  C   UNL A   1      44.734  26.246  31.127  1.00  0.00     0.074 A 
ATOM     60  C   UNL A   1      45.211  25.081  30.410  1.00  0.00     0.031 C 
ATOM     61  C   UNL A   1      45.359  26.786  32.205  1.00  0.00     0.034 A 
BRANCH  48  62
ATOM     62  C   UNL A   1      42.490  31.766  34.553  1.00  0.00     0.023 A 
ATOM     63  C   UNL A   1      41.805  31.666  35.777  1.00  0.00     0.031 A 
ATOM     64  C   UNL A   1      43.168  32.967  34.278  1.00  0.00     0.131 A 
ATOM     65  C   UNL A   1      41.746  32.770  36.641  1.00  0.00     0.055 A 
ATOM     66  C   UNL A   1      43.177  34.032  35.180  1.00  0.00     0.041 A 
ATOM     67  F   UNL A   1      43.823  33.132  33.118  1.00  0.00    -0.206 F 
ATOM     68  C   UNL A   1      42.450  33.944  36.364  1.00  0.00     0.022 A 
BRANCH  65  69
ATOM     69  S   UNL A   1      40.619  32.700  38.060  1.00  0.00     0.124 S 
ATOM     70  O   UNL A   1      39.493  31.954  37.505  1.00  0.00    -0.237 OA
ATOM     71  O   UNL A   1      41.416  32.002  39.063  1.00  0.00    -0.237 OA
ATOM     72  O   UNL A   1      40.343  34.106  38.348  1.00  0.00    -0.744 OA
ENDBRANCH  65  69
ENDBRANCH  48  62
BRANCH  49  73
ATOM     73  C   UNL A   1      42.263  24.733  27.408  1.00  0.00     0.023 A 
ATOM     74  C   UNL A   1      41.449  23.591  27.475  1.00  0.00     0.031 A 
ATOM     75  C   UNL A   1      43.113  24.871  26.297  1.00  0.00     0.131 A 
ATOM     76  C   UNL A   1      41.538  22.608  26.478  1.00  0.00     0.055 A 
ATOM     77  C   UNL A   1      43.159  23.917  25.279  1.00  0.00     0.041 A 
ATOM     78  F   UNL A   1      43.908  25.948  26.179  1.00  0.00    -0.206 F 
ATOM     79  C   UNL A   1      42.378  22.769  25.374  1.00  0.00     0.022 A 
BRANCH  76  80
ATOM     80  S   UNL A   1      40.601  21.069  26.690  1.00  0.00     0.124 S 
ATOM     81  O   UNL A   1      40.781  20.805  28.112  1.00  0.00    -0.237 OA
ATOM     82  O   UNL A   1      39.261  21.472  26.276  1.00  0.00    -0.237 OA
ATOM     83  O   UNL A   1      41.275  20.135  25.790  1.00  0.00    -0.744 OA
ENDBRANCH  76  80
ENDBRANCH  49  73
BRANCH  61  84
ATOM     84  C   UNL A   1      46.605  26.088  32.692  1.00  0.00     0.023 A 
ATOM     85  C   UNL A   1      46.556  25.077  33.666  1.00  0.00     0.031 A 
ATOM     86  C   UNL A   1      47.866  26.456  32.184  1.00  0.00     0.131 A 
ATOM     87  C   UNL A   1      47.747  24.512  34.148  1.00  0.00     0.055 A 
ATOM     88  C   UNL A   1      49.041  25.845  32.621  1.00  0.00     0.041 A 
ATOM     89  F   UNL A   1      47.972  27.418  31.253  1.00  0.00    -0.206 F 
ATOM     90  C   UNL A   1      48.988  24.877  33.621  1.00  0.00     0.022 A 
BRANCH  87  91
ATOM     91  S   UNL A   1      47.660  23.363  35.549  1.00  0.00     0.124 S 
ATOM     92  O   UNL A   1      48.848  22.543  35.344  1.00  0.00    -0.237 OA
ATOM     93  O   UNL A   1      47.698  24.266  36.696  1.00  0.00    -0.237 OA
ATOM     94  O   UNL A   1      46.386  22.673  35.349  1.00  0.00    -0.744 OA
ENDBRANCH  87  91
ENDBRANCH  61  84
ENDBRANCH  35  36
ENDBRANCH  27  30
ENDBRANCH  25  26
ENDBRANCH  24  25
ENDBRANCH  23  24
ENDBRANCH  22  23
ENDBRANCH   1  22
TORSDOF 22
ENDMDL
