MODEL 1
REMARK VINA RESULT:     -11.3      0.000      0.000
REMARK SMILES [NH3+][C@H]1CN(C(=O)OCC2c3ccccc3-c3ccccc32)C[C@@H]1C(=O)NCCCCCCNC(=O)c1ccc(-c2c3nc(c(-c4cc(S(=O)(=O)[O-])ccc4F)c4ccc([nH]4)c(-c4cc(S(=O)(=O)[O-])ccc4F)c4nc(c(-c5cc(S(=O)(=O)[O-])ccc5F)c5ccc2[nH]5)C=C4)C=C3)cc1
REMARK SMILES IDX 29 1 28 2 27 3 26 4 24 5 25 6 23 8 2 9 3 10 4 11 22 12 1 13
REMARK SMILES IDX 5 17 6 18 7 19 8 20 9 21 10 22 21 23 11 24 15 25 16 26 20 27
REMARK SMILES IDX 12 28 14 29 17 30 19 31 13 32 18 33 30 34 31 35 32 36 33 37
REMARK SMILES IDX 34 38 35 40 36 41 37 42 98 43 38 44 97 45 39 46 40 47 41 48
REMARK SMILES IDX 91 49 42 50 96 51 90 52 92 53 43 54 95 55 89 56 88 57 44 59
REMARK SMILES IDX 76 60 56 61 75 62 57 63 60 64 74 65 93 66 58 67 59 68 73 70
REMARK SMILES IDX 94 71 61 72 45 73 46 74 54 75 47 76 53 77 55 78 52 79 48 80
REMARK SMILES IDX 49 81 50 82 51 83 77 84 78 85 86 86 79 87 85 88 87 89 84 90
REMARK SMILES IDX 80 91 81 92 82 93 83 94 62 95 63 96 71 97 64 98 70 99 72 100
REMARK SMILES IDX 69 101 65 102 66 103 67 104 68 105
REMARK H PARENT 26 7 1 14 1 15 1 16 33 39 92 58 60 69
REMARK Flexibility Score: inf
ROOT
ATOM      1  C   UNL A   1      44.286  39.682  27.053  1.00  0.00     0.002 C 
ENDROOT
BRANCH   1   2
ATOM      2  C   UNL A   1      42.890  39.837  26.442  1.00  0.00     0.021 C 
BRANCH   2   3
ATOM      3  C   UNL A   1      42.479  41.287  26.204  1.00  0.00     0.116 C 
BRANCH   3   4
ATOM      4  N   UNL A   1      42.180  41.576  24.821  1.00  0.00    -0.356 N 
ATOM      5  C   UNL A   1      42.912  42.149  23.834  1.00  0.00     0.231 C 
ATOM      6  O   UNL A   1      42.404  42.129  22.705  1.00  0.00    -0.274 OA
ATOM      7  H   UNL A   1      41.275  41.305  24.542  1.00  0.00     0.163 HD
BRANCH   5   8
ATOM      8  C   UNL A   1      44.246  42.872  24.025  1.00  0.00     0.158 C 
ATOM      9  C   UNL A   1      44.243  44.366  24.407  1.00  0.00     0.215 C 
ATOM     10  C   UNL A   1      44.700  45.122  23.127  1.00  0.00     0.188 C 
ATOM     11  N   UNL A   1      44.963  44.079  22.152  1.00  0.00    -0.301 N 
ATOM     12  C   UNL A   1      45.099  42.785  22.777  1.00  0.00     0.143 C 
BRANCH   9  13
ATOM     13  N   UNL A   1      45.179  44.651  25.511  1.00  0.00    -0.353 N 
ATOM     14  H   UNL A   1      46.101  44.284  25.278  1.00  0.00     0.344 HD
ATOM     15  H   UNL A   1      44.841  44.205  26.365  1.00  0.00     0.344 HD
ATOM     16  H   UNL A   1      45.240  45.659  25.655  1.00  0.00     0.344 HD
ENDBRANCH   9  13
BRANCH  11  17
ATOM     17  C   UNL A   1      44.996  44.186  20.789  1.00  0.00     0.410 C 
ATOM     18  O   UNL A   1      44.989  43.205  20.064  1.00  0.00    -0.224 OA
BRANCH  17  19
ATOM     19  O   UNL A   1      44.985  45.470  20.339  1.00  0.00    -0.448 OA
BRANCH  19  20
ATOM     20  C   UNL A   1      45.983  45.752  19.321  1.00  0.00     0.248 C 
BRANCH  20  21
ATOM     21  C   UNL A   1      45.347  46.573  18.191  1.00  0.00     0.088 C 
ATOM     22  C   UNL A   1      44.121  45.976  17.501  1.00  0.00    -0.029 A 
ATOM     23  C   UNL A   1      44.821  47.941  18.621  1.00  0.00    -0.029 A 
ATOM     24  C   UNL A   1      43.936  44.710  16.963  1.00  0.00     0.005 A 
ATOM     25  C   UNL A   1      43.119  46.961  17.370  1.00  0.00    -0.014 A 
ATOM     26  C   UNL A   1      43.538  48.156  18.070  1.00  0.00    -0.014 A 
ATOM     27  C   UNL A   1      45.441  48.909  19.396  1.00  0.00     0.005 A 
ATOM     28  C   UNL A   1      42.758  44.440  16.264  1.00  0.00     0.000 A 
ATOM     29  C   UNL A   1      41.952  46.697  16.667  1.00  0.00     0.009 A 
ATOM     30  C   UNL A   1      42.874  49.353  18.275  1.00  0.00     0.009 A 
ATOM     31  C   UNL A   1      44.760  50.109  19.618  1.00  0.00     0.000 A 
ATOM     32  C   UNL A   1      41.779  45.430  16.105  1.00  0.00     0.001 A 
ATOM     33  C   UNL A   1      43.494  50.333  19.054  1.00  0.00     0.001 A 
ENDBRANCH  20  21
ENDBRANCH  19  20
ENDBRANCH  17  19
ENDBRANCH  11  17
ENDBRANCH   5   8
ENDBRANCH   3   4
ENDBRANCH   2   3
ENDBRANCH   1   2
BRANCH   1  34
ATOM     34  C   UNL A   1      44.791  38.236  27.155  1.00  0.00     0.002 C 
BRANCH  34  35
ATOM     35  C   UNL A   1      46.023  37.909  26.305  1.00  0.00     0.021 C 
BRANCH  35  36
ATOM     36  C   UNL A   1      46.461  36.448  26.359  1.00  0.00     0.116 C 
BRANCH  36  37
ATOM     37  N   UNL A   1      45.747  35.639  25.386  1.00  0.00    -0.352 N 
ATOM     38  C   UNL A   1      44.784  34.682  25.578  1.00  0.00     0.251 C 
ATOM     39  H   UNL A   1      45.991  35.803  24.446  1.00  0.00     0.163 HD
ATOM     40  O   UNL A   1      44.497  33.920  24.660  1.00  0.00    -0.269 OA
BRANCH  38  41
ATOM     41  C   UNL A   1      44.105  34.569  26.885  1.00  0.00     0.039 A 
ATOM     42  C   UNL A   1      44.329  33.435  27.667  1.00  0.00     0.014 A 
ATOM     43  C   UNL A   1      43.227  35.564  27.327  1.00  0.00     0.014 A 
ATOM     44  C   UNL A   1      43.714  33.323  28.915  1.00  0.00     0.010 A 
ATOM     45  C   UNL A   1      42.678  35.489  28.604  1.00  0.00     0.010 A 
ATOM     46  C   UNL A   1      42.910  34.364  29.410  1.00  0.00    -0.014 A 
BRANCH  46  47
ATOM     47  C   UNL A   1      42.302  34.285  30.763  1.00  0.00     0.031 A 
ATOM     48  C   UNL A   1      40.809  34.185  30.918  1.00  0.00     0.074 A 
ATOM     49  C   UNL A   1      43.095  34.353  31.851  1.00  0.00     0.049 A 
ATOM     50  N   UNL A   1      40.091  34.164  32.011  1.00  0.00    -0.248 NA
ATOM     51  C   UNL A   1      40.017  34.128  29.679  1.00  0.00     0.031 C 
ATOM     52  C   UNL A   1      44.553  34.487  31.824  1.00  0.00     0.029 A 
ATOM     53  N   UNL A   1      42.791  34.325  33.189  1.00  0.00    -0.354 N 
ATOM     54  C   UNL A   1      38.766  34.102  31.595  1.00  0.00     0.074 A 
ATOM     55  C   UNL A   1      38.779  34.151  30.148  1.00  0.00     0.031 C 
ATOM     56  C   UNL A   1      45.018  34.499  33.082  1.00  0.00     0.029 A 
ATOM     57  C   UNL A   1      43.892  34.430  34.008  1.00  0.00     0.049 A 
ATOM     58  H   UNL A   1      41.873  34.235  33.531  1.00  0.00     0.167 HD
ATOM     59  C   UNL A   1      37.644  33.993  32.349  1.00  0.00     0.034 A 
ATOM     60  C   UNL A   1      43.984  34.485  35.353  1.00  0.00     0.034 A 
ATOM     61  C   UNL A   1      37.653  33.939  33.791  1.00  0.00     0.049 A 
ATOM     62  C   UNL A   1      42.720  34.397  36.169  1.00  0.00     0.074 A 
ATOM     63  C   UNL A   1      36.581  33.775  34.652  1.00  0.00     0.029 A 
ATOM     64  N   UNL A   1      38.785  34.061  34.588  1.00  0.00    -0.354 N 
ATOM     65  N   UNL A   1      41.477  34.287  35.759  1.00  0.00    -0.248 NA
ATOM     66  C   UNL A   1      42.871  34.428  37.629  1.00  0.00     0.031 C 
ATOM     67  C   UNL A   1      37.052  33.883  35.964  1.00  0.00     0.029 A 
ATOM     68  C   UNL A   1      38.431  34.017  35.928  1.00  0.00     0.049 A 
ATOM     69  H   UNL A   1      39.703  34.163  34.250  1.00  0.00     0.167 HD
ATOM     70  C   UNL A   1      40.703  34.203  36.914  1.00  0.00     0.074 A 
ATOM     71  C   UNL A   1      41.621  34.258  38.032  1.00  0.00     0.031 C 
ATOM     72  C   UNL A   1      39.356  34.086  37.037  1.00  0.00     0.034 A 
BRANCH  59  73
ATOM     73  C   UNL A   1      36.315  33.959  31.629  1.00  0.00     0.023 A 
ATOM     74  C   UNL A   1      35.430  35.051  31.650  1.00  0.00     0.031 A 
ATOM     75  C   UNL A   1      35.923  32.811  30.918  1.00  0.00     0.131 A 
ATOM     76  C   UNL A   1      34.173  34.948  31.036  1.00  0.00     0.055 A 
ATOM     77  C   UNL A   1      34.706  32.746  30.235  1.00  0.00     0.041 A 
ATOM     78  F   UNL A   1      36.713  31.727  30.879  1.00  0.00    -0.206 F 
ATOM     79  C   UNL A   1      33.816  33.814  30.305  1.00  0.00     0.022 A 
BRANCH  76  80
ATOM     80  S   UNL A   1      32.954  36.259  31.329  1.00  0.00     0.124 S 
ATOM     81  O   UNL A   1      33.743  37.234  32.079  1.00  0.00    -0.237 OA
ATOM     82  O   UNL A   1      32.578  36.649  29.975  1.00  0.00    -0.237 OA
ATOM     83  O   UNL A   1      31.909  35.589  32.099  1.00  0.00    -0.744 OA
ENDBRANCH  76  80
ENDBRANCH  59  73
BRANCH  60  84
ATOM     84  C   UNL A   1      45.312  34.652  36.012  1.00  0.00     0.023 A 
ATOM     85  C   UNL A   1      45.873  35.923  36.209  1.00  0.00     0.031 A 
ATOM     86  C   UNL A   1      46.061  33.532  36.419  1.00  0.00     0.131 A 
ATOM     87  C   UNL A   1      47.163  36.043  36.749  1.00  0.00     0.055 A 
ATOM     88  C   UNL A   1      47.318  33.660  37.013  1.00  0.00     0.041 A 
ATOM     89  F   UNL A   1      45.573  32.292  36.257  1.00  0.00    -0.206 F 
ATOM     90  C   UNL A   1      47.882  34.921  37.168  1.00  0.00     0.022 A 
BRANCH  87  91
ATOM     91  S   UNL A   1      47.932  37.685  36.806  1.00  0.00     0.124 S 
ATOM     92  O   UNL A   1      48.307  37.788  38.211  1.00  0.00    -0.237 OA
ATOM     93  O   UNL A   1      49.030  37.538  35.856  1.00  0.00    -0.237 OA
ATOM     94  O   UNL A   1      46.857  38.578  36.378  1.00  0.00    -0.744 OA
ENDBRANCH  87  91
ENDBRANCH  60  84
BRANCH  72  95
ATOM     95  C   UNL A   1      38.799  33.961  38.436  1.00  0.00     0.023 A 
ATOM     96  C   UNL A   1      38.282  32.749  38.925  1.00  0.00     0.031 A 
ATOM     97  C   UNL A   1      38.778  35.078  39.290  1.00  0.00     0.131 A 
ATOM     98  C   UNL A   1      37.710  32.698  40.206  1.00  0.00     0.055 A 
ATOM     99  C   UNL A   1      38.274  35.003  40.590  1.00  0.00     0.041 A 
ATOM    100  F   UNL A   1      39.253  36.264  38.877  1.00  0.00    -0.206 F 
ATOM    101  C   UNL A   1      37.723  33.812  41.049  1.00  0.00     0.022 A 
BRANCH  98 102
ATOM    102  S   UNL A   1      36.851  31.183  40.715  1.00  0.00     0.124 S 
ATOM    103  O   UNL A   1      37.275  30.235  39.690  1.00  0.00    -0.237 OA
ATOM    104  O   UNL A   1      37.384  30.956  42.053  1.00  0.00    -0.237 OA
ATOM    105  O   UNL A   1      35.439  31.558  40.666  1.00  0.00    -0.744 OA
ENDBRANCH  98 102
ENDBRANCH  72  95
ENDBRANCH  46  47
ENDBRANCH  38  41
ENDBRANCH  36  37
ENDBRANCH  35  36
ENDBRANCH  34  35
ENDBRANCH   1  34
TORSDOF 21
ENDMDL
MODEL 2
REMARK VINA RESULT:     -11.1      7.035     14.212
REMARK SMILES [NH3+][C@H]1CN(C(=O)OCC2c3ccccc3-c3ccccc32)C[C@@H]1C(=O)NCCCCCCNC(=O)c1ccc(-c2c3nc(c(-c4cc(S(=O)(=O)[O-])ccc4F)c4ccc([nH]4)c(-c4cc(S(=O)(=O)[O-])ccc4F)c4nc(c(-c5cc(S(=O)(=O)[O-])ccc5F)c5ccc2[nH]5)C=C4)C=C3)cc1
REMARK SMILES IDX 29 1 28 2 27 3 26 4 24 5 25 6 23 8 2 9 3 10 4 11 22 12 1 13
REMARK SMILES IDX 5 17 6 18 7 19 8 20 9 21 10 22 21 23 11 24 15 25 16 26 20 27
REMARK SMILES IDX 12 28 14 29 17 30 19 31 13 32 18 33 30 34 31 35 32 36 33 37
REMARK SMILES IDX 34 38 35 40 36 41 37 42 98 43 38 44 97 45 39 46 40 47 41 48
REMARK SMILES IDX 91 49 42 50 96 51 90 52 92 53 43 54 95 55 89 56 88 57 44 59
REMARK SMILES IDX 76 60 56 61 75 62 57 63 60 64 74 65 93 66 58 67 59 68 73 70
REMARK SMILES IDX 94 71 61 72 45 73 46 74 54 75 47 76 53 77 55 78 52 79 48 80
REMARK SMILES IDX 49 81 50 82 51 83 77 84 78 85 86 86 79 87 85 88 87 89 84 90
REMARK SMILES IDX 80 91 81 92 82 93 83 94 62 95 63 96 71 97 64 98 70 99 72 100
REMARK SMILES IDX 69 101 65 102 66 103 67 104 68 105
REMARK H PARENT 26 7 1 14 1 15 1 16 33 39 92 58 60 69
REMARK Flexibility Score: inf
ROOT
ATOM      1  C   UNL A   1      38.927  33.074  38.832  1.00  0.00     0.002 C 
ENDROOT
BRANCH   1   2
ATOM      2  C   UNL A   1      37.944  33.022  37.659  1.00  0.00     0.021 C 
BRANCH   2   3
ATOM      3  C   UNL A   1      37.764  31.627  37.067  1.00  0.00     0.116 C 
BRANCH   3   4
ATOM      4  N   UNL A   1      38.375  31.476  35.768  1.00  0.00    -0.356 N 
ATOM      5  C   UNL A   1      38.397  32.279  34.676  1.00  0.00     0.231 C 
ATOM      6  O   UNL A   1      39.135  31.913  33.752  1.00  0.00    -0.274 OA
ATOM      7  H   UNL A   1      38.869  30.632  35.654  1.00  0.00     0.163 HD
BRANCH   5   8
ATOM      8  C   UNL A   1      37.538  33.529  34.476  1.00  0.00     0.158 C 
ATOM      9  C   UNL A   1      36.083  33.369  33.990  1.00  0.00     0.215 C 
ATOM     10  C   UNL A   1      36.083  33.863  32.515  1.00  0.00     0.188 C 
ATOM     11  N   UNL A   1      37.447  34.290  32.265  1.00  0.00    -0.301 N 
ATOM     12  C   UNL A   1      38.181  34.483  33.492  1.00  0.00     0.143 C 
BRANCH   9  13
ATOM     13  N   UNL A   1      35.148  34.186  34.787  1.00  0.00    -0.353 N 
ATOM     14  H   UNL A   1      34.307  34.371  34.239  1.00  0.00     0.344 HD
ATOM     15  H   UNL A   1      35.595  35.070  35.033  1.00  0.00     0.344 HD
ATOM     16  H   UNL A   1      34.896  33.684  35.638  1.00  0.00     0.344 HD
ENDBRANCH   9  13
BRANCH  11  17
ATOM     17  C   UNL A   1      38.082  34.424  31.061  1.00  0.00     0.410 C 
ATOM     18  O   UNL A   1      39.298  34.489  30.976  1.00  0.00    -0.224 OA
BRANCH  17  19
ATOM     19  O   UNL A   1      37.240  34.424  29.993  1.00  0.00    -0.448 OA
BRANCH  19  20
ATOM     20  C   UNL A   1      37.564  33.433  28.979  1.00  0.00     0.248 C 
BRANCH  20  21
ATOM     21  C   UNL A   1      37.040  32.059  29.417  1.00  0.00     0.088 C 
ATOM     22  C   UNL A   1      35.997  31.393  28.519  1.00  0.00    -0.029 A 
ATOM     23  C   UNL A   1      38.109  30.972  29.503  1.00  0.00    -0.029 A 
ATOM     24  C   UNL A   1      34.817  31.906  28.000  1.00  0.00     0.005 A 
ATOM     25  C   UNL A   1      36.337  30.039  28.314  1.00  0.00    -0.014 A 
ATOM     26  C   UNL A   1      37.637  29.785  28.899  1.00  0.00    -0.014 A 
ATOM     27  C   UNL A   1      39.363  31.026  30.093  1.00  0.00     0.005 A 
ATOM     28  C   UNL A   1      33.960  31.054  27.303  1.00  0.00     0.000 A 
ATOM     29  C   UNL A   1      35.482  29.188  27.630  1.00  0.00     0.009 A 
ATOM     30  C   UNL A   1      38.410  28.637  28.900  1.00  0.00     0.009 A 
ATOM     31  C   UNL A   1      40.149  29.872  30.075  1.00  0.00     0.000 A 
ATOM     32  C   UNL A   1      34.282  29.701  27.130  1.00  0.00     0.001 A 
ATOM     33  C   UNL A   1      39.674  28.687  29.494  1.00  0.00     0.001 A 
ENDBRANCH  20  21
ENDBRANCH  19  20
ENDBRANCH  17  19
ENDBRANCH  11  17
ENDBRANCH   5   8
ENDBRANCH   3   4
ENDBRANCH   2   3
ENDBRANCH   1   2
BRANCH   1  34
ATOM     34  C   UNL A   1      38.597  34.116  39.909  1.00  0.00     0.002 C 
BRANCH  34  35
ATOM     35  C   UNL A   1      39.646  34.276  41.014  1.00  0.00     0.021 C 
BRANCH  35  36
ATOM     36  C   UNL A   1      41.057  34.572  40.511  1.00  0.00     0.116 C 
BRANCH  36  37
ATOM     37  N   UNL A   1      41.196  35.956  40.094  1.00  0.00    -0.352 N 
ATOM     38  C   UNL A   1      41.701  36.476  38.929  1.00  0.00     0.251 C 
ATOM     39  H   UNL A   1      40.879  36.624  40.746  1.00  0.00     0.163 HD
ATOM     40  O   UNL A   1      41.987  37.668  38.872  1.00  0.00    -0.269 OA
BRANCH  38  41
ATOM     41  C   UNL A   1      41.907  35.599  37.758  1.00  0.00     0.039 A 
ATOM     42  C   UNL A   1      40.819  35.303  36.936  1.00  0.00     0.014 A 
ATOM     43  C   UNL A   1      43.163  35.047  37.487  1.00  0.00     0.014 A 
ATOM     44  C   UNL A   1      41.002  34.496  35.811  1.00  0.00     0.010 A 
ATOM     45  C   UNL A   1      43.361  34.309  36.323  1.00  0.00     0.010 A 
ATOM     46  C   UNL A   1      42.281  34.019  35.476  1.00  0.00    -0.014 A 
BRANCH  46  47
ATOM     47  C   UNL A   1      42.500  33.213  34.247  1.00  0.00     0.031 A 
ATOM     48  C   UNL A   1      42.597  31.715  34.333  1.00  0.00     0.074 A 
ATOM     49  C   UNL A   1      42.657  33.838  33.064  1.00  0.00     0.049 A 
ATOM     50  N   UNL A   1      42.841  30.847  33.384  1.00  0.00    -0.248 NA
ATOM     51  C   UNL A   1      42.423  31.114  35.665  1.00  0.00     0.031 C 
ATOM     52  C   UNL A   1      42.619  35.289  32.865  1.00  0.00     0.029 A 
ATOM     53  N   UNL A   1      42.888  33.339  31.806  1.00  0.00    -0.354 N 
ATOM     54  C   UNL A   1      42.862  29.602  34.004  1.00  0.00     0.074 A 
ATOM     55  C   UNL A   1      42.666  29.835  35.419  1.00  0.00     0.031 C 
ATOM     56  C   UNL A   1      42.788  35.559  31.562  1.00  0.00     0.029 A 
ATOM     57  C   UNL A   1      43.004  34.311  30.838  1.00  0.00     0.049 A 
ATOM     58  H   UNL A   1      42.963  32.377  31.614  1.00  0.00     0.167 HD
ATOM     59  C   UNL A   1      43.009  28.376  33.440  1.00  0.00     0.034 A 
ATOM     60  C   UNL A   1      43.273  34.210  29.520  1.00  0.00     0.034 A 
ATOM     61  C   UNL A   1      43.196  28.165  32.025  1.00  0.00     0.049 A 
ATOM     62  C   UNL A   1      43.467  32.839  28.924  1.00  0.00     0.074 A 
ATOM     63  C   UNL A   1      43.301  26.965  31.342  1.00  0.00     0.029 A 
ATOM     64  N   UNL A   1      43.320  29.173  31.077  1.00  0.00    -0.354 N 
ATOM     65  N   UNL A   1      43.432  31.668  29.516  1.00  0.00    -0.248 NA
ATOM     66  C   UNL A   1      43.724  32.776  27.480  1.00  0.00     0.031 C 
ATOM     67  C   UNL A   1      43.574  27.248  30.000  1.00  0.00     0.029 A 
ATOM     68  C   UNL A   1      43.541  28.622  29.823  1.00  0.00     0.049 A 
ATOM     69  H   UNL A   1      43.259  30.136  31.267  1.00  0.00     0.167 HD
ATOM     70  C   UNL A   1      43.631  30.727  28.509  1.00  0.00     0.074 A 
ATOM     71  C   UNL A   1      43.767  31.468  27.272  1.00  0.00     0.031 C 
ATOM     72  C   UNL A   1      43.690  29.373  28.597  1.00  0.00     0.034 A 
BRANCH  59  73
ATOM     73  C   UNL A   1      43.006  27.178  34.361  1.00  0.00     0.023 A 
ATOM     74  C   UNL A   1      44.196  26.627  34.867  1.00  0.00     0.031 A 
ATOM     75  C   UNL A   1      41.793  26.569  34.729  1.00  0.00     0.131 A 
ATOM     76  C   UNL A   1      44.154  25.465  35.653  1.00  0.00     0.055 A 
ATOM     77  C   UNL A   1      41.752  25.463  35.583  1.00  0.00     0.041 A 
ATOM     78  F   UNL A   1      40.624  27.033  34.260  1.00  0.00    -0.206 F 
ATOM     79  C   UNL A   1      42.938  24.896  36.037  1.00  0.00     0.022 A 
BRANCH  76  80
ATOM     80  S   UNL A   1      45.712  24.625  36.045  1.00  0.00     0.124 S 
ATOM     81  O   UNL A   1      46.197  25.414  37.176  1.00  0.00    -0.237 OA
ATOM     82  O   UNL A   1      45.272  23.270  36.354  1.00  0.00    -0.237 OA
ATOM     83  O   UNL A   1      46.494  24.764  34.819  1.00  0.00    -0.744 OA
ENDBRANCH  76  80
ENDBRANCH  59  73
BRANCH  60  84
ATOM     84  C   UNL A   1      43.395  35.436  28.679  1.00  0.00     0.023 A 
ATOM     85  C   UNL A   1      44.644  36.023  28.425  1.00  0.00     0.031 A 
ATOM     86  C   UNL A   1      42.253  36.064  28.150  1.00  0.00     0.131 A 
ATOM     87  C   UNL A   1      44.719  37.226  27.706  1.00  0.00     0.055 A 
ATOM     88  C   UNL A   1      42.338  37.228  27.382  1.00  0.00     0.041 A 
ATOM     89  F   UNL A   1      41.033  35.547  28.360  1.00  0.00    -0.206 F 
ATOM     90  C   UNL A   1      43.576  37.823  27.169  1.00  0.00     0.022 A 
BRANCH  87  91
ATOM     91  S   UNL A   1      46.326  38.056  27.566  1.00  0.00     0.124 S 
ATOM     92  O   UNL A   1      47.249  36.933  27.675  1.00  0.00    -0.237 OA
ATOM     93  O   UNL A   1      46.229  38.684  26.253  1.00  0.00    -0.237 OA
ATOM     94  O   UNL A   1      46.330  38.981  28.698  1.00  0.00    -0.744 OA
ENDBRANCH  87  91
ENDBRANCH  60  84
BRANCH  72  95
ATOM     95  C   UNL A   1      43.865  28.604  27.308  1.00  0.00     0.023 A 
ATOM     96  C   UNL A   1      45.136  28.293  26.795  1.00  0.00     0.031 A 
ATOM     97  C   UNL A   1      42.738  28.186  26.578  1.00  0.00     0.131 A 
ATOM     98  C   UNL A   1      45.250  27.640  25.558  1.00  0.00     0.055 A 
ATOM     99  C   UNL A   1      42.857  27.473  25.384  1.00  0.00     0.041 A 
ATOM    100  F   UNL A   1      41.499  28.459  27.015  1.00  0.00    -0.206 F 
ATOM    101  C   UNL A   1      44.119  27.209  24.860  1.00  0.00     0.022 A 
BRANCH  98 102
ATOM    102  S   UNL A   1      46.896  27.457  24.819  1.00  0.00     0.124 S 
ATOM    103  O   UNL A   1      47.768  27.619  25.978  1.00  0.00    -0.237 OA
ATOM    104  O   UNL A   1      46.836  26.116  24.249  1.00  0.00    -0.237 OA
ATOM    105  O   UNL A   1      46.956  28.543  23.842  1.00  0.00    -0.744 OA
ENDBRANCH  98 102
ENDBRANCH  72  95
ENDBRANCH  46  47
ENDBRANCH  38  41
ENDBRANCH  36  37
ENDBRANCH  35  36
ENDBRANCH  34  35
ENDBRANCH   1  34
TORSDOF 21
ENDMDL
MODEL 3
REMARK VINA RESULT:     -11.1      7.740     14.761
REMARK SMILES [NH3+][C@H]1CN(C(=O)OCC2c3ccccc3-c3ccccc32)C[C@@H]1C(=O)NCCCCCCNC(=O)c1ccc(-c2c3nc(c(-c4cc(S(=O)(=O)[O-])ccc4F)c4ccc([nH]4)c(-c4cc(S(=O)(=O)[O-])ccc4F)c4nc(c(-c5cc(S(=O)(=O)[O-])ccc5F)c5ccc2[nH]5)C=C4)C=C3)cc1
REMARK SMILES IDX 29 1 28 2 27 3 26 4 24 5 25 6 23 8 2 9 3 10 4 11 22 12 1 13
REMARK SMILES IDX 5 17 6 18 7 19 8 20 9 21 10 22 21 23 11 24 15 25 16 26 20 27
REMARK SMILES IDX 12 28 14 29 17 30 19 31 13 32 18 33 30 34 31 35 32 36 33 37
REMARK SMILES IDX 34 38 35 40 36 41 37 42 98 43 38 44 97 45 39 46 40 47 41 48
REMARK SMILES IDX 91 49 42 50 96 51 90 52 92 53 43 54 95 55 89 56 88 57 44 59
REMARK SMILES IDX 76 60 56 61 75 62 57 63 60 64 74 65 93 66 58 67 59 68 73 70
REMARK SMILES IDX 94 71 61 72 45 73 46 74 54 75 47 76 53 77 55 78 52 79 48 80
REMARK SMILES IDX 49 81 50 82 51 83 77 84 78 85 86 86 79 87 85 88 87 89 84 90
REMARK SMILES IDX 80 91 81 92 82 93 83 94 62 95 63 96 71 97 64 98 70 99 72 100
REMARK SMILES IDX 69 101 65 102 66 103 67 104 68 105
REMARK H PARENT 26 7 1 14 1 15 1 16 33 39 92 58 60 69
REMARK Flexibility Score: inf
ROOT
ATOM      1  C   UNL A   1      50.575  28.933  29.028  1.00  0.00     0.002 C 
ENDROOT
BRANCH   1   2
ATOM      2  C   UNL A   1      50.091  27.483  29.106  1.00  0.00     0.021 C 
BRANCH   2   3
ATOM      3  C   UNL A   1      50.462  26.643  27.887  1.00  0.00     0.116 C 
BRANCH   3   4
ATOM      4  N   UNL A   1      49.511  25.594  27.605  1.00  0.00    -0.356 N 
ATOM      5  C   UNL A   1      48.452  25.532  26.760  1.00  0.00     0.231 C 
ATOM      6  O   UNL A   1      47.911  24.423  26.654  1.00  0.00    -0.274 OA
ATOM      7  H   UNL A   1      49.660  24.769  28.121  1.00  0.00     0.163 HD
BRANCH   5   8
ATOM      8  C   UNL A   1      47.843  26.718  26.012  1.00  0.00     0.158 C 
ATOM      9  C   UNL A   1      47.109  27.814  26.811  1.00  0.00     0.215 C 
ATOM     10  C   UNL A   1      45.598  27.611  26.500  1.00  0.00     0.188 C 
ATOM     11  N   UNL A   1      45.556  26.503  25.564  1.00  0.00    -0.301 N 
ATOM     12  C   UNL A   1      46.848  26.256  24.969  1.00  0.00     0.143 C 
BRANCH   9  13
ATOM     13  N   UNL A   1      47.523  29.167  26.394  1.00  0.00    -0.353 N 
ATOM     14  H   UNL A   1      48.182  29.545  27.075  1.00  0.00     0.344 HD
ATOM     15  H   UNL A   1      46.703  29.772  26.342  1.00  0.00     0.344 HD
ATOM     16  H   UNL A   1      47.970  29.119  25.479  1.00  0.00     0.344 HD
ENDBRANCH   9  13
BRANCH  11  17
ATOM     17  C   UNL A   1      44.506  25.672  25.285  1.00  0.00     0.410 C 
ATOM     18  O   UNL A   1      43.351  26.066  25.293  1.00  0.00    -0.224 OA
BRANCH  17  19
ATOM     19  O   UNL A   1      44.881  24.407  24.956  1.00  0.00    -0.448 OA
BRANCH  19  20
ATOM     20  C   UNL A   1      43.773  23.524  24.629  1.00  0.00     0.248 C 
BRANCH  20  21
ATOM     21  C   UNL A   1      43.701  22.386  25.656  1.00  0.00     0.088 C 
ATOM     22  C   UNL A   1      42.342  21.716  25.859  1.00  0.00    -0.029 A 
ATOM     23  C   UNL A   1      44.589  21.186  25.334  1.00  0.00    -0.029 A 
ATOM     24  C   UNL A   1      41.100  22.286  26.099  1.00  0.00     0.005 A 
ATOM     25  C   UNL A   1      42.497  20.313  25.868  1.00  0.00    -0.014 A 
ATOM     26  C   UNL A   1      43.866  19.988  25.529  1.00  0.00    -0.014 A 
ATOM     27  C   UNL A   1      45.919  21.166  24.943  1.00  0.00     0.005 A 
ATOM     28  C   UNL A   1      40.018  21.451  26.379  1.00  0.00     0.000 A 
ATOM     29  C   UNL A   1      41.424  19.482  26.156  1.00  0.00     0.009 A 
ATOM     30  C   UNL A   1      44.477  18.758  25.351  1.00  0.00     0.009 A 
ATOM     31  C   UNL A   1      46.528  19.923  24.746  1.00  0.00     0.000 A 
ATOM     32  C   UNL A   1      40.180  20.060  26.421  1.00  0.00     0.001 A 
ATOM     33  C   UNL A   1      45.817  18.732  24.958  1.00  0.00     0.001 A 
ENDBRANCH  20  21
ENDBRANCH  19  20
ENDBRANCH  17  19
ENDBRANCH  11  17
ENDBRANCH   5   8
ENDBRANCH   3   4
ENDBRANCH   2   3
ENDBRANCH   1   2
BRANCH   1  34
ATOM     34  C   UNL A   1      51.626  29.323  30.076  1.00  0.00     0.002 C 
BRANCH  34  35
ATOM     35  C   UNL A   1      52.994  29.728  29.517  1.00  0.00     0.021 C 
BRANCH  35  36
ATOM     36  C   UNL A   1      52.970  30.208  28.068  1.00  0.00     0.116 C 
BRANCH  36  37
ATOM     37  N   UNL A   1      53.314  31.616  27.966  1.00  0.00    -0.352 N 
ATOM     38  C   UNL A   1      52.498  32.716  27.890  1.00  0.00     0.251 C 
ATOM     39  H   UNL A   1      54.279  31.810  27.949  1.00  0.00     0.163 HD
ATOM     40  O   UNL A   1      52.967  33.794  27.536  1.00  0.00    -0.269 OA
BRANCH  38  41
ATOM     41  C   UNL A   1      51.064  32.597  28.225  1.00  0.00     0.039 A 
ATOM     42  C   UNL A   1      50.655  32.830  29.539  1.00  0.00     0.014 A 
ATOM     43  C   UNL A   1      50.129  32.228  27.253  1.00  0.00     0.014 A 
ATOM     44  C   UNL A   1      49.301  32.745  29.866  1.00  0.00     0.010 A 
ATOM     45  C   UNL A   1      48.771  32.221  27.562  1.00  0.00     0.010 A 
ATOM     46  C   UNL A   1      48.343  32.473  28.875  1.00  0.00    -0.014 A 
BRANCH  46  47
ATOM     47  C   UNL A   1      46.893  32.444  29.198  1.00  0.00     0.031 A 
ATOM     48  C   UNL A   1      46.253  31.174  29.688  1.00  0.00     0.074 A 
ATOM     49  C   UNL A   1      46.148  33.550  29.003  1.00  0.00     0.049 A 
ATOM     50  N   UNL A   1      44.997  30.936  29.967  1.00  0.00    -0.248 NA
ATOM     51  C   UNL A   1      47.136  30.010  29.863  1.00  0.00     0.031 C 
ATOM     52  C   UNL A   1      46.653  34.828  28.498  1.00  0.00     0.029 A 
ATOM     53  N   UNL A   1      44.809  33.778  29.199  1.00  0.00    -0.354 N 
ATOM     54  C   UNL A   1      44.937  29.597  30.338  1.00  0.00     0.074 A 
ATOM     55  C   UNL A   1      46.273  29.061  30.189  1.00  0.00     0.031 C 
ATOM     56  C   UNL A   1      45.645  35.712  28.452  1.00  0.00     0.029 A 
ATOM     57  C   UNL A   1      44.412  35.054  28.870  1.00  0.00     0.049 A 
ATOM     58  H   UNL A   1      44.190  33.094  29.544  1.00  0.00     0.167 HD
ATOM     59  C   UNL A   1      43.869  28.887  30.782  1.00  0.00     0.034 A 
ATOM     60  C   UNL A   1      43.189  35.625  28.885  1.00  0.00     0.034 A 
ATOM     61  C   UNL A   1      42.546  29.442  30.930  1.00  0.00     0.049 A 
ATOM     62  C   UNL A   1      42.013  34.805  29.349  1.00  0.00     0.074 A 
ATOM     63  C   UNL A   1      41.406  28.829  31.421  1.00  0.00     0.029 A 
ATOM     64  N   UNL A   1      42.178  30.735  30.576  1.00  0.00    -0.354 N 
ATOM     65  N   UNL A   1      41.983  33.554  29.746  1.00  0.00    -0.248 NA
ATOM     66  C   UNL A   1      40.708  35.477  29.380  1.00  0.00     0.031 C 
ATOM     67  C   UNL A   1      40.336  29.718  31.285  1.00  0.00     0.029 A 
ATOM     68  C   UNL A   1      40.822  30.922  30.800  1.00  0.00     0.049 A 
ATOM     69  H   UNL A   1      42.791  31.417  30.219  1.00  0.00     0.167 HD
ATOM     70  C   UNL A   1      40.661  33.301  30.104  1.00  0.00     0.074 A 
ATOM     71  C   UNL A   1      39.932  34.534  29.892  1.00  0.00     0.031 C 
ATOM     72  C   UNL A   1      40.102  32.155  30.571  1.00  0.00     0.034 A 
BRANCH  59  73
ATOM     73  C   UNL A   1      44.085  27.426  31.107  1.00  0.00     0.023 A 
ATOM     74  C   UNL A   1      44.125  26.441  30.105  1.00  0.00     0.031 A 
ATOM     75  C   UNL A   1      44.244  27.012  32.441  1.00  0.00     0.131 A 
ATOM     76  C   UNL A   1      44.247  25.087  30.456  1.00  0.00     0.055 A 
ATOM     77  C   UNL A   1      44.451  25.672  32.778  1.00  0.00     0.041 A 
ATOM     78  F   UNL A   1      44.192  27.902  33.445  1.00  0.00    -0.206 F 
ATOM     79  C   UNL A   1      44.438  24.699  31.783  1.00  0.00     0.022 A 
BRANCH  76  80
ATOM     80  S   UNL A   1      44.006  23.832  29.170  1.00  0.00     0.124 S 
ATOM     81  O   UNL A   1      43.884  22.613  29.966  1.00  0.00    -0.237 OA
ATOM     82  O   UNL A   1      42.788  24.287  28.509  1.00  0.00    -0.237 OA
ATOM     83  O   UNL A   1      45.224  23.925  28.368  1.00  0.00    -0.744 OA
ENDBRANCH  76  80
ENDBRANCH  59  73
BRANCH  60  84
ATOM     84  C   UNL A   1      43.009  37.034  28.428  1.00  0.00     0.023 A 
ATOM     85  C   UNL A   1      43.144  38.110  29.319  1.00  0.00     0.031 A 
ATOM     86  C   UNL A   1      42.657  37.322  27.097  1.00  0.00     0.131 A 
ATOM     87  C   UNL A   1      42.879  39.418  28.882  1.00  0.00     0.055 A 
ATOM     88  C   UNL A   1      42.455  38.630  26.652  1.00  0.00     0.041 A 
ATOM     89  F   UNL A   1      42.516  36.332  26.202  1.00  0.00    -0.206 F 
ATOM     90  C   UNL A   1      42.553  39.686  27.551  1.00  0.00     0.022 A 
BRANCH  87  91
ATOM     91  S   UNL A   1      42.871  40.757  30.105  1.00  0.00     0.124 S 
ATOM     92  O   UNL A   1      43.882  41.658  29.564  1.00  0.00    -0.237 OA
ATOM     93  O   UNL A   1      41.491  41.223  30.035  1.00  0.00    -0.237 OA
ATOM     94  O   UNL A   1      43.236  40.083  31.350  1.00  0.00    -0.744 OA
ENDBRANCH  87  91
ENDBRANCH  60  84
BRANCH  72  95
ATOM     95  C   UNL A   1      38.635  32.199  30.929  1.00  0.00     0.023 A 
ATOM     96  C   UNL A   1      38.179  32.782  32.124  1.00  0.00     0.031 A 
ATOM     97  C   UNL A   1      37.680  31.636  30.063  1.00  0.00     0.131 A 
ATOM     98  C   UNL A   1      36.814  32.736  32.448  1.00  0.00     0.055 A 
ATOM     99  C   UNL A   1      36.316  31.658  30.358  1.00  0.00     0.041 A 
ATOM    100  F   UNL A   1      38.056  31.060  28.911  1.00  0.00    -0.206 F 
ATOM    101  C   UNL A   1      35.877  32.197  31.563  1.00  0.00     0.022 A 
BRANCH  98 102
ATOM    102  S   UNL A   1      36.292  33.293  34.094  1.00  0.00     0.124 S 
ATOM    103  O   UNL A   1      34.844  33.122  34.026  1.00  0.00    -0.237 OA
ATOM    104  O   UNL A   1      37.002  32.372  34.975  1.00  0.00    -0.237 OA
ATOM    105  O   UNL A   1      36.750  34.680  34.148  1.00  0.00    -0.744 OA
ENDBRANCH  98 102
ENDBRANCH  72  95
ENDBRANCH  46  47
ENDBRANCH  38  41
ENDBRANCH  36  37
ENDBRANCH  35  36
ENDBRANCH  34  35
ENDBRANCH   1  34
TORSDOF 21
ENDMDL
