MODEL 1
REMARK VINA RESULT:     -11.1      0.000      0.000
REMARK SMILES C[C@@H]1CN([C@@H](CCS(C)(=O)=O)C(=O)NCCCCCCNC(=O)c2ccc(-c3c4nc(c(-c5cc(S(=O)(=O)[O-])ccc5F)c5ccc([nH]5)c(-c5cc(S(=O)(=O)[O-])ccc5F)c5nc(c(-c6cc(S(=O)(=O)[O-])ccc6F)c6ccc3[nH]6)C=C5)C=C4)cc2)S(=O)(=O)C1
REMARK SMILES IDX 17 1 16 2 15 3 14 4 12 5 13 6 5 8 4 9 1 10 2 11 3 12 90 13
REMARK SMILES IDX 87 14 88 15 89 16 6 17 7 18 8 19 9 20 10 21 11 22 18 23
REMARK SMILES IDX 19 24 20 25 21 26 22 27 23 29 24 30 25 31 86 32 26 33 85 34
REMARK SMILES IDX 27 35 28 36 29 37 79 38 30 39 84 40 78 41 80 42 31 43 83 44
REMARK SMILES IDX 77 45 76 46 32 48 64 49 44 50 63 51 45 52 48 53 62 54 81 55
REMARK SMILES IDX 46 56 47 57 61 59 82 60 49 61 33 62 34 63 42 64 35 65 41 66
REMARK SMILES IDX 43 67 40 68 36 69 37 70 38 71 39 72 65 73 66 74 74 75 67 76
REMARK SMILES IDX 73 77 75 78 72 79 68 80 69 81 70 82 71 83 50 84 51 85 59 86
REMARK SMILES IDX 52 87 58 88 60 89 57 90 53 91 54 92 55 93 56 94
REMARK H PARENT 14 7 21 28 80 47 48 58
REMARK Flexibility Score: inf
ROOT
ATOM      1  C   UNL A   1      33.035  30.267  26.899  1.00  0.00     0.002 C 
ENDROOT
BRANCH   1   2
ATOM      2  C   UNL A   1      32.869  28.784  27.242  1.00  0.00     0.021 C 
BRANCH   2   3
ATOM      3  C   UNL A   1      31.408  28.432  27.477  1.00  0.00     0.116 C 
BRANCH   3   4
ATOM      4  N   UNL A   1      31.136  27.026  27.336  1.00  0.00    -0.355 N 
ATOM      5  C   UNL A   1      31.352  26.189  26.298  1.00  0.00     0.238 C 
ATOM      6  O   UNL A   1      31.303  24.976  26.555  1.00  0.00    -0.273 OA
ATOM      7  H   UNL A   1      30.724  26.606  28.126  1.00  0.00     0.163 HD
BRANCH   5   8
ATOM      8  C   UNL A   1      31.724  26.626  24.885  1.00  0.00     0.163 C 
BRANCH   8   9
ATOM      9  N   UNL A   1      32.519  25.841  23.893  1.00  0.00    -0.189 NA
ATOM     10  C   UNL A   1      35.403  23.411  23.574  1.00  0.00     0.010 C 
ATOM     11  C   UNL A   1      34.307  24.409  23.250  1.00  0.00     0.017 C 
ATOM     12  C   UNL A   1      33.635  25.036  24.476  1.00  0.00     0.107 C 
ATOM     13  C   UNL A   1      33.166  23.767  22.470  1.00  0.00     0.159 C 
ATOM     14  S   UNL A   1      31.801  24.900  22.661  1.00  0.00     0.215 S 
ATOM     15  O   UNL A   1      30.688  24.165  23.217  1.00  0.00    -0.212 OA
ATOM     16  O   UNL A   1      31.722  25.708  21.470  1.00  0.00    -0.212 OA
ENDBRANCH   8   9
BRANCH   8  17
ATOM     17  C   UNL A   1      30.594  27.415  24.164  1.00  0.00     0.046 C 
BRANCH  17  18
ATOM     18  C   UNL A   1      30.971  28.657  23.362  1.00  0.00     0.139 C 
BRANCH  18  19
ATOM     19  S   UNL A   1      29.577  29.649  22.812  1.00  0.00     0.147 S 
ATOM     20  C   UNL A   1      28.161  28.600  22.970  1.00  0.00     0.158 C 
ATOM     21  O   UNL A   1      29.414  30.736  23.756  1.00  0.00    -0.229 OA
ATOM     22  O   UNL A   1      29.697  29.914  21.393  1.00  0.00    -0.229 OA
ENDBRANCH  18  19
ENDBRANCH  17  18
ENDBRANCH   8  17
ENDBRANCH   5   8
ENDBRANCH   3   4
ENDBRANCH   2   3
ENDBRANCH   1   2
BRANCH   1  23
ATOM     23  C   UNL A   1      31.755  30.965  26.409  1.00  0.00     0.002 C 
BRANCH  23  24
ATOM     24  C   UNL A   1      31.637  32.444  26.781  1.00  0.00     0.021 C 
BRANCH  24  25
ATOM     25  C   UNL A   1      32.937  33.065  27.273  1.00  0.00     0.116 C 
BRANCH  25  26
ATOM     26  N   UNL A   1      32.711  34.365  27.887  1.00  0.00    -0.352 N 
ATOM     27  C   UNL A   1      33.217  34.887  29.045  1.00  0.00     0.251 C 
ATOM     28  H   UNL A   1      32.101  34.960  27.392  1.00  0.00     0.163 HD
ATOM     29  O   UNL A   1      32.718  35.898  29.531  1.00  0.00    -0.269 OA
BRANCH  27  30
ATOM     30  C   UNL A   1      34.354  34.219  29.701  1.00  0.00     0.039 A 
ATOM     31  C   UNL A   1      35.648  34.505  29.265  1.00  0.00     0.014 A 
ATOM     32  C   UNL A   1      34.137  33.306  30.738  1.00  0.00     0.014 A 
ATOM     33  C   UNL A   1      36.732  33.905  29.902  1.00  0.00     0.010 A 
ATOM     34  C   UNL A   1      35.221  32.779  31.428  1.00  0.00     0.010 A 
ATOM     35  C   UNL A   1      36.528  33.062  31.007  1.00  0.00    -0.014 A 
BRANCH  35  36
ATOM     36  C   UNL A   1      37.673  32.456  31.727  1.00  0.00     0.031 A 
ATOM     37  C   UNL A   1      38.442  31.328  31.098  1.00  0.00     0.074 A 
ATOM     38  C   UNL A   1      37.985  32.893  32.962  1.00  0.00     0.049 A 
ATOM     39  N   UNL A   1      39.437  30.632  31.585  1.00  0.00    -0.248 NA
ATOM     40  C   UNL A   1      38.013  30.905  29.756  1.00  0.00     0.031 C 
ATOM     41  C   UNL A   1      37.283  33.957  33.682  1.00  0.00     0.029 A 
ATOM     42  N   UNL A   1      38.968  32.497  33.831  1.00  0.00    -0.354 N 
ATOM     43  C   UNL A   1      39.747  29.686  30.614  1.00  0.00     0.074 A 
ATOM     44  C   UNL A   1      38.784  29.851  29.546  1.00  0.00     0.031 C 
ATOM     45  C   UNL A   1      37.883  34.157  34.865  1.00  0.00     0.029 A 
ATOM     46  C   UNL A   1      38.973  33.198  35.014  1.00  0.00     0.049 A 
ATOM     47  H   UNL A   1      39.610  31.779  33.627  1.00  0.00     0.167 HD
ATOM     48  C   UNL A   1      40.758  28.783  30.604  1.00  0.00     0.034 A 
ATOM     49  C   UNL A   1      39.759  33.072  36.101  1.00  0.00     0.034 A 
ATOM     50  C   UNL A   1      41.704  28.636  31.684  1.00  0.00     0.049 A 
ATOM     51  C   UNL A   1      40.844  32.027  36.091  1.00  0.00     0.074 A 
ATOM     52  C   UNL A   1      42.794  27.789  31.766  1.00  0.00     0.029 A 
ATOM     53  N   UNL A   1      41.664  29.345  32.880  1.00  0.00    -0.354 N 
ATOM     54  N   UNL A   1      41.159  31.170  35.146  1.00  0.00    -0.248 NA
ATOM     55  C   UNL A   1      41.684  31.937  37.291  1.00  0.00     0.031 C 
ATOM     56  C   UNL A   1      43.359  27.923  33.039  1.00  0.00     0.029 A 
ATOM     57  C   UNL A   1      42.684  28.924  33.721  1.00  0.00     0.049 A 
ATOM     58  H   UNL A   1      41.007  30.047  33.098  1.00  0.00     0.167 HD
ATOM     59  C   UNL A   1      42.257  30.461  35.626  1.00  0.00     0.074 A 
ATOM     60  C   UNL A   1      42.555  31.003  36.936  1.00  0.00     0.031 C 
ATOM     61  C   UNL A   1      42.960  29.461  35.034  1.00  0.00     0.034 A 
BRANCH  48  62
ATOM     62  C   UNL A   1      40.859  27.867  29.406  1.00  0.00     0.023 A 
ATOM     63  C   UNL A   1      41.823  28.065  28.402  1.00  0.00     0.031 A 
ATOM     64  C   UNL A   1      39.948  26.808  29.237  1.00  0.00     0.131 A 
ATOM     65  C   UNL A   1      41.796  27.283  27.237  1.00  0.00     0.055 A 
ATOM     66  C   UNL A   1      39.988  25.971  28.120  1.00  0.00     0.041 A 
ATOM     67  F   UNL A   1      38.988  26.580  30.146  1.00  0.00    -0.206 F 
ATOM     68  C   UNL A   1      40.904  26.219  27.101  1.00  0.00     0.022 A 
BRANCH  65  69
ATOM     69  S   UNL A   1      42.821  27.794  25.829  1.00  0.00     0.124 S 
ATOM     70  O   UNL A   1      42.166  27.101  24.722  1.00  0.00    -0.237 OA
ATOM     71  O   UNL A   1      42.682  29.245  25.848  1.00  0.00    -0.237 OA
ATOM     72  O   UNL A   1      44.148  27.288  26.170  1.00  0.00    -0.744 OA
ENDBRANCH  65  69
ENDBRANCH  48  62
BRANCH  49  73
ATOM     73  C   UNL A   1      39.549  33.952  37.287  1.00  0.00     0.023 A 
ATOM     74  C   UNL A   1      38.914  33.470  38.441  1.00  0.00     0.031 A 
ATOM     75  C   UNL A   1      39.958  35.298  37.272  1.00  0.00     0.131 A 
ATOM     76  C   UNL A   1      38.667  34.337  39.516  1.00  0.00     0.055 A 
ATOM     77  C   UNL A   1      39.762  36.141  38.367  1.00  0.00     0.041 A 
ATOM     78  F   UNL A   1      40.570  35.812  36.193  1.00  0.00    -0.206 F 
ATOM     79  C   UNL A   1      39.102  35.664  39.495  1.00  0.00     0.022 A 
BRANCH  76  80
ATOM     80  S   UNL A   1      37.686  33.727  40.916  1.00  0.00     0.124 S 
ATOM     81  O   UNL A   1      38.643  32.858  41.591  1.00  0.00    -0.237 OA
ATOM     82  O   UNL A   1      37.343  34.964  41.608  1.00  0.00    -0.237 OA
ATOM     83  O   UNL A   1      36.566  33.042  40.273  1.00  0.00    -0.744 OA
ENDBRANCH  76  80
ENDBRANCH  49  73
BRANCH  61  84
ATOM     84  C   UNL A   1      44.151  28.918  35.788  1.00  0.00     0.023 A 
ATOM     85  C   UNL A   1      44.046  27.809  36.646  1.00  0.00     0.031 A 
ATOM     86  C   UNL A   1      45.411  29.529  35.651  1.00  0.00     0.131 A 
ATOM     87  C   UNL A   1      45.165  27.385  37.379  1.00  0.00     0.055 A 
ATOM     88  C   UNL A   1      46.536  29.057  36.327  1.00  0.00     0.041 A 
ATOM     89  F   UNL A   1      45.570  30.596  34.851  1.00  0.00    -0.206 F 
ATOM     90  C   UNL A   1      46.414  27.988  37.209  1.00  0.00     0.022 A 
BRANCH  87  91
ATOM     91  S   UNL A   1      44.943  26.101  38.641  1.00  0.00     0.124 S 
ATOM     92  O   UNL A   1      44.267  26.837  39.705  1.00  0.00    -0.237 OA
ATOM     93  O   UNL A   1      44.136  25.108  37.940  1.00  0.00    -0.237 OA
ATOM     94  O   UNL A   1      46.309  25.683  38.950  1.00  0.00    -0.744 OA
ENDBRANCH  87  91
ENDBRANCH  61  84
ENDBRANCH  35  36
ENDBRANCH  27  30
ENDBRANCH  25  26
ENDBRANCH  24  25
ENDBRANCH  23  24
ENDBRANCH   1  23
TORSDOF 20
ENDMDL
MODEL 2
REMARK VINA RESULT:     -10.8      2.256      7.852
REMARK SMILES C[C@@H]1CN([C@@H](CCS(C)(=O)=O)C(=O)NCCCCCCNC(=O)c2ccc(-c3c4nc(c(-c5cc(S(=O)(=O)[O-])ccc5F)c5ccc([nH]5)c(-c5cc(S(=O)(=O)[O-])ccc5F)c5nc(c(-c6cc(S(=O)(=O)[O-])ccc6F)c6ccc3[nH]6)C=C5)C=C4)cc2)S(=O)(=O)C1
REMARK SMILES IDX 17 1 16 2 15 3 14 4 12 5 13 6 5 8 4 9 1 10 2 11 3 12 90 13
REMARK SMILES IDX 87 14 88 15 89 16 6 17 7 18 8 19 9 20 10 21 11 22 18 23
REMARK SMILES IDX 19 24 20 25 21 26 22 27 23 29 24 30 25 31 86 32 26 33 85 34
REMARK SMILES IDX 27 35 28 36 29 37 79 38 30 39 84 40 78 41 80 42 31 43 83 44
REMARK SMILES IDX 77 45 76 46 32 48 64 49 44 50 63 51 45 52 48 53 62 54 81 55
REMARK SMILES IDX 46 56 47 57 61 59 82 60 49 61 33 62 34 63 42 64 35 65 41 66
REMARK SMILES IDX 43 67 40 68 36 69 37 70 38 71 39 72 65 73 66 74 74 75 67 76
REMARK SMILES IDX 73 77 75 78 72 79 68 80 69 81 70 82 71 83 50 84 51 85 59 86
REMARK SMILES IDX 52 87 58 88 60 89 57 90 53 91 54 92 55 93 56 94
REMARK H PARENT 14 7 21 28 80 47 48 58
REMARK Flexibility Score: inf
ROOT
ATOM      1  C   UNL A   1      32.994  30.401  26.913  1.00  0.00     0.002 C 
ENDROOT
BRANCH   1   2
ATOM      2  C   UNL A   1      32.895  28.892  27.144  1.00  0.00     0.021 C 
BRANCH   2   3
ATOM      3  C   UNL A   1      33.964  28.142  26.363  1.00  0.00     0.116 C 
BRANCH   3   4
ATOM      4  N   UNL A   1      34.200  28.692  25.055  1.00  0.00    -0.355 N 
ATOM      5  C   UNL A   1      33.495  28.567  23.910  1.00  0.00     0.238 C 
ATOM      6  O   UNL A   1      33.755  29.387  23.016  1.00  0.00    -0.273 OA
ATOM      7  H   UNL A   1      35.008  29.251  24.984  1.00  0.00     0.163 HD
BRANCH   5   8
ATOM      8  C   UNL A   1      32.370  27.562  23.679  1.00  0.00     0.163 C 
BRANCH   8   9
ATOM      9  N   UNL A   1      32.463  26.077  23.821  1.00  0.00    -0.189 NA
ATOM     10  C   UNL A   1      30.859  23.096  25.513  1.00  0.00     0.010 C 
ATOM     11  C   UNL A   1      31.828  23.982  24.752  1.00  0.00     0.017 C 
ATOM     12  C   UNL A   1      31.458  25.469  24.744  1.00  0.00     0.107 C 
ATOM     13  C   UNL A   1      31.914  23.598  23.281  1.00  0.00     0.159 C 
ATOM     14  S   UNL A   1      32.633  25.024  22.487  1.00  0.00     0.215 S 
ATOM     15  O   UNL A   1      31.738  25.446  21.435  1.00  0.00    -0.212 OA
ATOM     16  O   UNL A   1      34.039  24.768  22.297  1.00  0.00    -0.212 OA
ENDBRANCH   8   9
BRANCH   8  17
ATOM     17  C   UNL A   1      30.983  28.063  24.174  1.00  0.00     0.046 C 
BRANCH  17  18
ATOM     18  C   UNL A   1      30.474  29.409  23.667  1.00  0.00     0.139 C 
BRANCH  18  19
ATOM     19  S   UNL A   1      28.950  29.328  22.717  1.00  0.00     0.147 S 
ATOM     20  C   UNL A   1      27.913  30.599  23.381  1.00  0.00     0.158 C 
ATOM     21  O   UNL A   1      29.265  29.699  21.353  1.00  0.00    -0.229 OA
ATOM     22  O   UNL A   1      28.262  28.087  23.006  1.00  0.00    -0.229 OA
ENDBRANCH  18  19
ENDBRANCH  17  18
ENDBRANCH   8  17
ENDBRANCH   5   8
ENDBRANCH   3   4
ENDBRANCH   2   3
ENDBRANCH   1   2
BRANCH   1  23
ATOM     23  C   UNL A   1      31.654  31.100  26.625  1.00  0.00     0.002 C 
BRANCH  23  24
ATOM     24  C   UNL A   1      31.624  32.600  26.926  1.00  0.00     0.021 C 
BRANCH  24  25
ATOM     25  C   UNL A   1      32.986  33.191  27.265  1.00  0.00     0.116 C 
BRANCH  25  26
ATOM     26  N   UNL A   1      32.858  34.444  27.995  1.00  0.00    -0.352 N 
ATOM     27  C   UNL A   1      33.442  34.838  29.167  1.00  0.00     0.251 C 
ATOM     28  H   UNL A   1      32.261  35.109  27.581  1.00  0.00     0.163 HD
ATOM     29  O   UNL A   1      33.021  35.827  29.759  1.00  0.00    -0.269 OA
BRANCH  27  30
ATOM     30  C   UNL A   1      34.567  34.058  29.710  1.00  0.00     0.039 A 
ATOM     31  C   UNL A   1      35.859  34.333  29.260  1.00  0.00     0.014 A 
ATOM     32  C   UNL A   1      34.342  33.052  30.656  1.00  0.00     0.014 A 
ATOM     33  C   UNL A   1      36.934  33.626  29.793  1.00  0.00     0.010 A 
ATOM     34  C   UNL A   1      35.421  32.411  31.248  1.00  0.00     0.010 A 
ATOM     35  C   UNL A   1      36.727  32.682  30.812  1.00  0.00    -0.014 A 
BRANCH  35  36
ATOM     36  C   UNL A   1      37.865  31.957  31.425  1.00  0.00     0.031 A 
ATOM     37  C   UNL A   1      38.377  32.370  32.776  1.00  0.00     0.074 A 
ATOM     38  C   UNL A   1      38.461  30.962  30.741  1.00  0.00     0.049 A 
ATOM     39  N   UNL A   1      39.391  31.899  33.456  1.00  0.00    -0.248 NA
ATOM     40  C   UNL A   1      37.676  33.482  33.435  1.00  0.00     0.031 C 
ATOM     41  C   UNL A   1      38.068  30.503  29.407  1.00  0.00     0.029 A 
ATOM     42  N   UNL A   1      39.523  30.159  31.069  1.00  0.00    -0.354 N 
ATOM     43  C   UNL A   1      39.453  32.662  34.618  1.00  0.00     0.074 A 
ATOM     44  C   UNL A   1      38.422  33.673  34.511  1.00  0.00     0.031 C 
ATOM     45  C   UNL A   1      38.851  29.474  29.049  1.00  0.00     0.029 A 
ATOM     46  C   UNL A   1      39.838  29.237  30.098  1.00  0.00     0.049 A 
ATOM     47  H   UNL A   1      40.012  30.234  31.920  1.00  0.00     0.167 HD
ATOM     48  C   UNL A   1      40.277  32.513  35.684  1.00  0.00     0.034 A 
ATOM     49  C   UNL A   1      40.820  28.316  30.054  1.00  0.00     0.034 A 
ATOM     50  C   UNL A   1      41.299  31.497  35.765  1.00  0.00     0.049 A 
ATOM     51  C   UNL A   1      41.757  28.202  31.228  1.00  0.00     0.074 A 
ATOM     52  C   UNL A   1      42.161  31.223  36.812  1.00  0.00     0.029 A 
ATOM     53  N   UNL A   1      41.609  30.597  34.752  1.00  0.00    -0.354 N 
ATOM     54  N   UNL A   1      41.775  28.897  32.343  1.00  0.00    -0.248 NA
ATOM     55  C   UNL A   1      42.801  27.175  31.141  1.00  0.00     0.031 C 
ATOM     56  C   UNL A   1      43.045  30.220  36.400  1.00  0.00     0.029 A 
ATOM     57  C   UNL A   1      42.675  29.796  35.133  1.00  0.00     0.049 A 
ATOM     58  H   UNL A   1      41.138  30.536  33.888  1.00  0.00     0.167 HD
ATOM     59  C   UNL A   1      42.813  28.367  33.105  1.00  0.00     0.074 A 
ATOM     60  C   UNL A   1      43.384  27.286  32.326  1.00  0.00     0.031 C 
ATOM     61  C   UNL A   1      43.247  28.733  34.339  1.00  0.00     0.034 A 
BRANCH  48  62
ATOM     62  C   UNL A   1      40.122  33.497  36.822  1.00  0.00     0.023 A 
ATOM     63  C   UNL A   1      40.972  34.608  36.961  1.00  0.00     0.031 A 
ATOM     64  C   UNL A   1      39.142  33.296  37.811  1.00  0.00     0.131 A 
ATOM     65  C   UNL A   1      40.890  35.417  38.104  1.00  0.00     0.055 A 
ATOM     66  C   UNL A   1      39.002  34.163  38.898  1.00  0.00     0.041 A 
ATOM     67  F   UNL A   1      38.314  32.242  37.751  1.00  0.00    -0.206 F 
ATOM     68  C   UNL A   1      39.892  35.220  39.059  1.00  0.00     0.022 A 
BRANCH  65  69
ATOM     69  S   UNL A   1      42.219  36.615  38.413  1.00  0.00     0.124 S 
ATOM     70  O   UNL A   1      42.700  36.875  37.058  1.00  0.00    -0.237 OA
ATOM     71  O   UNL A   1      41.509  37.712  39.061  1.00  0.00    -0.237 OA
ATOM     72  O   UNL A   1      43.150  35.882  39.266  1.00  0.00    -0.744 OA
ENDBRANCH  65  69
ENDBRANCH  48  62
BRANCH  49  73
ATOM     73  C   UNL A   1      40.970  27.435  28.861  1.00  0.00     0.023 A 
ATOM     74  C   UNL A   1      41.971  27.672  27.907  1.00  0.00     0.031 A 
ATOM     75  C   UNL A   1      40.095  26.354  28.643  1.00  0.00     0.131 A 
ATOM     76  C   UNL A   1      42.048  26.870  26.759  1.00  0.00     0.055 A 
ATOM     77  C   UNL A   1      40.213  25.523  27.529  1.00  0.00     0.041 A 
ATOM     78  F   UNL A   1      39.119  26.081  29.523  1.00  0.00    -0.206 F 
ATOM     79  C   UNL A   1      41.187  25.786  26.571  1.00  0.00     0.022 A 
BRANCH  76  80
ATOM     80  S   UNL A   1      43.238  27.318  25.464  1.00  0.00     0.124 S 
ATOM     81  O   UNL A   1      44.257  28.025  26.231  1.00  0.00    -0.237 OA
ATOM     82  O   UNL A   1      43.620  26.012  24.939  1.00  0.00    -0.237 OA
ATOM     83  O   UNL A   1      42.452  28.148  24.554  1.00  0.00    -0.744 OA
ENDBRANCH  76  80
ENDBRANCH  49  73
BRANCH  61  84
ATOM     84  C   UNL A   1      44.373  27.924  34.939  1.00  0.00     0.023 A 
ATOM     85  C   UNL A   1      45.723  28.243  34.709  1.00  0.00     0.031 A 
ATOM     86  C   UNL A   1      44.088  26.808  35.746  1.00  0.00     0.131 A 
ATOM     87  C   UNL A   1      46.734  27.421  35.230  1.00  0.00     0.055 A 
ATOM     88  C   UNL A   1      45.098  26.038  36.323  1.00  0.00     0.041 A 
ATOM     89  F   UNL A   1      42.817  26.452  35.995  1.00  0.00    -0.206 F 
ATOM     90  C   UNL A   1      46.431  26.333  36.053  1.00  0.00     0.022 A 
BRANCH  87  91
ATOM     91  S   UNL A   1      48.450  27.727  34.730  1.00  0.00     0.124 S 
ATOM     92  O   UNL A   1      49.198  27.174  35.855  1.00  0.00    -0.237 OA
ATOM     93  O   UNL A   1      48.547  26.989  33.475  1.00  0.00    -0.237 OA
ATOM     94  O   UNL A   1      48.515  29.182  34.599  1.00  0.00    -0.744 OA
ENDBRANCH  87  91
ENDBRANCH  61  84
ENDBRANCH  35  36
ENDBRANCH  27  30
ENDBRANCH  25  26
ENDBRANCH  24  25
ENDBRANCH  23  24
ENDBRANCH   1  23
TORSDOF 20
ENDMDL
MODEL 3
REMARK VINA RESULT:     -10.6      2.298      7.928
REMARK SMILES C[C@@H]1CN([C@@H](CCS(C)(=O)=O)C(=O)NCCCCCCNC(=O)c2ccc(-c3c4nc(c(-c5cc(S(=O)(=O)[O-])ccc5F)c5ccc([nH]5)c(-c5cc(S(=O)(=O)[O-])ccc5F)c5nc(c(-c6cc(S(=O)(=O)[O-])ccc6F)c6ccc3[nH]6)C=C5)C=C4)cc2)S(=O)(=O)C1
REMARK SMILES IDX 17 1 16 2 15 3 14 4 12 5 13 6 5 8 4 9 1 10 2 11 3 12 90 13
REMARK SMILES IDX 87 14 88 15 89 16 6 17 7 18 8 19 9 20 10 21 11 22 18 23
REMARK SMILES IDX 19 24 20 25 21 26 22 27 23 29 24 30 25 31 86 32 26 33 85 34
REMARK SMILES IDX 27 35 28 36 29 37 79 38 30 39 84 40 78 41 80 42 31 43 83 44
REMARK SMILES IDX 77 45 76 46 32 48 64 49 44 50 63 51 45 52 48 53 62 54 81 55
REMARK SMILES IDX 46 56 47 57 61 59 82 60 49 61 33 62 34 63 42 64 35 65 41 66
REMARK SMILES IDX 43 67 40 68 36 69 37 70 38 71 39 72 65 73 66 74 74 75 67 76
REMARK SMILES IDX 73 77 75 78 72 79 68 80 69 81 70 82 71 83 50 84 51 85 59 86
REMARK SMILES IDX 52 87 58 88 60 89 57 90 53 91 54 92 55 93 56 94
REMARK H PARENT 14 7 21 28 80 47 48 58
REMARK Flexibility Score: inf
ROOT
ATOM      1  C   UNL A   1      35.130  30.690  28.530  1.00  0.00     0.002 C 
ENDROOT
BRANCH   1   2
ATOM      2  C   UNL A   1      35.483  29.396  27.792  1.00  0.00     0.021 C 
BRANCH   2   3
ATOM      3  C   UNL A   1      34.390  29.003  26.811  1.00  0.00     0.116 C 
BRANCH   3   4
ATOM      4  N   UNL A   1      33.130  28.729  27.448  1.00  0.00    -0.355 N 
ATOM      5  C   UNL A   1      32.145  27.868  27.113  1.00  0.00     0.238 C 
ATOM      6  O   UNL A   1      31.312  27.618  27.998  1.00  0.00    -0.273 OA
ATOM      7  H   UNL A   1      32.957  29.257  28.261  1.00  0.00     0.163 HD
BRANCH   5   8
ATOM      8  C   UNL A   1      32.039  27.135  25.778  1.00  0.00     0.163 C 
BRANCH   8   9
ATOM      9  N   UNL A   1      32.590  25.783  25.460  1.00  0.00    -0.189 NA
ATOM     10  C   UNL A   1      35.742  23.694  25.602  1.00  0.00     0.010 C 
ATOM     11  C   UNL A   1      34.344  24.186  25.279  1.00  0.00     0.017 C 
ATOM     12  C   UNL A   1      34.043  25.609  25.761  1.00  0.00     0.107 C 
ATOM     13  C   UNL A   1      33.272  23.323  25.931  1.00  0.00     0.159 C 
ATOM     14  S   UNL A   1      31.802  24.332  25.896  1.00  0.00     0.215 S 
ATOM     15  O   UNL A   1      31.310  24.450  27.250  1.00  0.00    -0.212 OA
ATOM     16  O   UNL A   1      30.996  23.909  24.778  1.00  0.00    -0.212 OA
ENDBRANCH   8   9
BRANCH   8  17
ATOM     17  C   UNL A   1      30.669  27.338  25.069  1.00  0.00     0.046 C 
BRANCH  17  18
ATOM     18  C   UNL A   1      30.469  28.589  24.219  1.00  0.00     0.139 C 
BRANCH  18  19
ATOM     19  S   UNL A   1      31.196  28.506  22.577  1.00  0.00     0.147 S 
ATOM     20  C   UNL A   1      31.292  26.782  22.191  1.00  0.00     0.158 C 
ATOM     21  O   UNL A   1      30.253  29.101  21.651  1.00  0.00    -0.229 OA
ATOM     22  O   UNL A   1      32.570  28.961  22.628  1.00  0.00    -0.229 OA
ENDBRANCH  18  19
ENDBRANCH  17  18
ENDBRANCH   8  17
ENDBRANCH   5   8
ENDBRANCH   3   4
ENDBRANCH   2   3
ENDBRANCH   1   2
BRANCH   1  23
ATOM     23  C   UNL A   1      34.943  31.920  27.626  1.00  0.00     0.002 C 
BRANCH  23  24
ATOM     24  C   UNL A   1      33.713  32.775  27.936  1.00  0.00     0.021 C 
BRANCH  24  25
ATOM     25  C   UNL A   1      34.002  34.267  28.026  1.00  0.00     0.116 C 
BRANCH  25  26
ATOM     26  N   UNL A   1      33.515  34.832  29.276  1.00  0.00    -0.352 N 
ATOM     27  C   UNL A   1      33.864  34.538  30.565  1.00  0.00     0.251 C 
ATOM     28  H   UNL A   1      32.830  35.534  29.178  1.00  0.00     0.163 HD
ATOM     29  O   UNL A   1      33.167  34.936  31.494  1.00  0.00    -0.269 OA
BRANCH  27  30
ATOM     30  C   UNL A   1      35.072  33.735  30.820  1.00  0.00     0.039 A 
ATOM     31  C   UNL A   1      36.296  34.179  30.318  1.00  0.00     0.014 A 
ATOM     32  C   UNL A   1      34.990  32.543  31.546  1.00  0.00     0.014 A 
ATOM     33  C   UNL A   1      37.450  33.445  30.583  1.00  0.00     0.010 A 
ATOM     34  C   UNL A   1      36.152  31.861  31.883  1.00  0.00     0.010 A 
ATOM     35  C   UNL A   1      37.391  32.299  31.393  1.00  0.00    -0.014 A 
BRANCH  35  36
ATOM     36  C   UNL A   1      38.617  31.535  31.726  1.00  0.00     0.031 A 
ATOM     37  C   UNL A   1      39.361  31.829  32.998  1.00  0.00     0.074 A 
ATOM     38  C   UNL A   1      39.080  30.616  30.858  1.00  0.00     0.049 A 
ATOM     39  N   UNL A   1      40.477  31.310  33.443  1.00  0.00    -0.248 NA
ATOM     40  C   UNL A   1      38.791  32.866  33.871  1.00  0.00     0.031 C 
ATOM     41  C   UNL A   1      38.457  30.276  29.577  1.00  0.00     0.029 A 
ATOM     42  N   UNL A   1      40.180  29.800  30.919  1.00  0.00    -0.354 N 
ATOM     43  C   UNL A   1      40.746  31.964  34.641  1.00  0.00     0.074 A 
ATOM     44  C   UNL A   1      39.716  32.967  34.812  1.00  0.00     0.031 C 
ATOM     45  C   UNL A   1      39.161  29.295  28.993  1.00  0.00     0.029 A 
ATOM     46  C   UNL A   1      40.316  28.975  29.826  1.00  0.00     0.049 A 
ATOM     47  H   UNL A   1      40.812  29.802  31.674  1.00  0.00     0.167 HD
ATOM     48  C   UNL A   1      41.744  31.729  35.528  1.00  0.00     0.034 A 
ATOM     49  C   UNL A   1      41.272  28.075  29.524  1.00  0.00     0.034 A 
ATOM     50  C   UNL A   1      42.761  30.723  35.333  1.00  0.00     0.049 A 
ATOM     51  C   UNL A   1      42.401  27.866  30.499  1.00  0.00     0.074 A 
ATOM     52  C   UNL A   1      43.793  30.365  36.182  1.00  0.00     0.029 A 
ATOM     53  N   UNL A   1      42.884  29.924  34.202  1.00  0.00    -0.354 N 
ATOM     54  N   UNL A   1      42.618  28.456  31.654  1.00  0.00    -0.248 NA
ATOM     55  C   UNL A   1      43.411  26.865  30.135  1.00  0.00     0.031 C 
ATOM     56  C   UNL A   1      44.587  29.415  35.530  1.00  0.00     0.029 A 
ATOM     57  C   UNL A   1      43.998  29.105  34.313  1.00  0.00     0.049 A 
ATOM     58  H   UNL A   1      42.268  29.937  33.432  1.00  0.00     0.167 HD
ATOM     59  C   UNL A   1      43.772  27.871  32.169  1.00  0.00     0.074 A 
ATOM     60  C   UNL A   1      44.193  26.874  31.205  1.00  0.00     0.031 C 
ATOM     61  C   UNL A   1      44.418  28.127  33.336  1.00  0.00     0.034 A 
BRANCH  48  62
ATOM     62  C   UNL A   1      41.795  32.601  36.762  1.00  0.00     0.023 A 
ATOM     63  C   UNL A   1      41.081  32.276  37.929  1.00  0.00     0.031 A 
ATOM     64  C   UNL A   1      42.530  33.800  36.759  1.00  0.00     0.131 A 
ATOM     65  C   UNL A   1      41.039  33.179  39.002  1.00  0.00     0.055 A 
ATOM     66  C   UNL A   1      42.563  34.649  37.867  1.00  0.00     0.041 A 
ATOM     67  F   UNL A   1      43.214  34.181  35.668  1.00  0.00    -0.206 F 
ATOM     68  C   UNL A   1      41.798  34.350  38.991  1.00  0.00     0.022 A 
BRANCH  65  69
ATOM     69  S   UNL A   1      39.837  32.888  40.331  1.00  0.00     0.124 S 
ATOM     70  O   UNL A   1      38.703  32.343  39.588  1.00  0.00    -0.237 OA
ATOM     71  O   UNL A   1      40.545  31.952  41.195  1.00  0.00    -0.237 OA
ATOM     72  O   UNL A   1      39.620  34.218  40.894  1.00  0.00    -0.744 OA
ENDBRANCH  65  69
ENDBRANCH  48  62
BRANCH  49  73
ATOM     73  C   UNL A   1      41.207  27.310  28.247  1.00  0.00     0.023 A 
ATOM     74  C   UNL A   1      40.901  25.941  28.238  1.00  0.00     0.031 A 
ATOM     75  C   UNL A   1      41.476  27.933  27.014  1.00  0.00     0.131 A 
ATOM     76  C   UNL A   1      40.913  25.228  27.029  1.00  0.00     0.055 A 
ATOM     77  C   UNL A   1      41.429  27.233  25.807  1.00  0.00     0.041 A 
ATOM     78  F   UNL A   1      41.775  29.241  26.963  1.00  0.00    -0.206 F 
ATOM     79  C   UNL A   1      41.158  25.868  25.812  1.00  0.00     0.022 A 
BRANCH  76  80
ATOM     80  S   UNL A   1      40.690  23.429  27.079  1.00  0.00     0.124 S 
ATOM     81  O   UNL A   1      39.251  23.304  26.878  1.00  0.00    -0.237 OA
ATOM     82  O   UNL A   1      41.534  22.988  25.974  1.00  0.00    -0.237 OA
ATOM     83  O   UNL A   1      41.169  23.064  28.411  1.00  0.00    -0.744 OA
ENDBRANCH  76  80
ENDBRANCH  49  73
BRANCH  61  84
ATOM     84  C   UNL A   1      45.629  27.281  33.651  1.00  0.00     0.023 A 
ATOM     85  C   UNL A   1      45.519  26.035  34.295  1.00  0.00     0.031 A 
ATOM     86  C   UNL A   1      46.916  27.735  33.308  1.00  0.00     0.131 A 
ATOM     87  C   UNL A   1      46.677  25.318  34.629  1.00  0.00     0.055 A 
ATOM     88  C   UNL A   1      48.059  26.981  33.577  1.00  0.00     0.041 A 
ATOM     89  F   UNL A   1      47.083  28.919  32.698  1.00  0.00    -0.206 F 
ATOM     90  C   UNL A   1      47.945  25.772  34.255  1.00  0.00     0.022 A 
BRANCH  87  91
ATOM     91  S   UNL A   1      46.514  23.831  35.655  1.00  0.00     0.124 S 
ATOM     92  O   UNL A   1      45.214  23.315  35.237  1.00  0.00    -0.237 OA
ATOM     93  O   UNL A   1      47.673  23.042  35.251  1.00  0.00    -0.237 OA
ATOM     94  O   UNL A   1      46.564  24.349  37.021  1.00  0.00    -0.744 OA
ENDBRANCH  87  91
ENDBRANCH  61  84
ENDBRANCH  35  36
ENDBRANCH  27  30
ENDBRANCH  25  26
ENDBRANCH  24  25
ENDBRANCH  23  24
ENDBRANCH   1  23
TORSDOF 20
ENDMDL
