MODEL 1
REMARK VINA RESULT:     -10.4      0.000      0.000
REMARK SMILES COc1cc(-c2nnc(S)n2-c2ccc(C(=O)NCCCCCCNC(=O)c3ccc(-c4c5nc(c(-c6cc(S(=O)(=O)[O-])ccc6F)c6ccc([nH]6)c(-c6cc(S(=O)(=O)[O-])ccc6F)c6nc(c(-c7cc(S(=O)(=O)[O-])ccc7F)c7ccc4[nH]7)C=C6)C=C5)cc3)cc2)cc(OC)c1OC
REMARK SMILES IDX 21 1 20 2 19 3 18 4 16 5 17 6 15 8 12 9 13 10 92 11 14 12
REMARK SMILES IDX 91 13 11 14 6 15 7 16 8 17 9 18 5 19 3 20 4 21 97 22 94 23
REMARK SMILES IDX 93 24 2 25 1 26 98 27 99 28 95 29 96 30 10 31 22 33 23 34
REMARK SMILES IDX 24 35 25 36 26 37 27 39 28 40 29 41 90 42 30 43 89 44 31 45
REMARK SMILES IDX 32 46 33 47 83 48 34 49 88 50 82 51 84 52 35 53 87 54 81 55
REMARK SMILES IDX 80 56 36 58 68 59 48 60 67 61 49 62 52 63 66 64 85 65 50 66
REMARK SMILES IDX 51 67 65 69 86 70 53 71 37 72 38 73 46 74 39 75 45 76 47 77
REMARK SMILES IDX 44 78 40 79 41 80 42 81 43 82 69 83 70 84 78 85 71 86 77 87
REMARK SMILES IDX 79 88 76 89 72 90 73 91 74 92 75 93 54 94 55 95 63 96 56 97
REMARK SMILES IDX 62 98 64 99 61 100 57 101 58 102 59 103 60 104
REMARK H PARENT 18 7 10 32 25 38 84 57 52 68
REMARK Flexibility Score: inf
ROOT
ATOM      1  C   UNL A   1      35.639  24.377  25.115  1.00  0.00     0.002 C 
ENDROOT
BRANCH   1   2
ATOM      2  C   UNL A   1      34.506  23.441  25.554  1.00  0.00     0.021 C 
BRANCH   2   3
ATOM      3  C   UNL A   1      33.119  24.074  25.427  1.00  0.00     0.116 C 
BRANCH   3   4
ATOM      4  N   UNL A   1      32.367  23.427  24.366  1.00  0.00    -0.352 N 
ATOM      5  C   UNL A   1      31.350  23.859  23.555  1.00  0.00     0.251 C 
ATOM      6  O   UNL A   1      30.912  23.075  22.712  1.00  0.00    -0.269 OA
ATOM      7  H   UNL A   1      32.642  22.497  24.197  1.00  0.00     0.163 HD
BRANCH   5   8
ATOM      8  C   UNL A   1      30.821  25.250  23.591  1.00  0.00     0.039 A 
ATOM      9  C   UNL A   1      30.108  27.947  23.650  1.00  0.00     0.050 A 
ATOM     10  C   UNL A   1      30.859  27.466  22.575  1.00  0.00     0.027 A 
ATOM     11  C   UNL A   1      29.645  27.088  24.647  1.00  0.00     0.027 A 
ATOM     12  C   UNL A   1      31.232  26.120  22.565  1.00  0.00     0.016 A 
ATOM     13  C   UNL A   1      29.952  25.731  24.575  1.00  0.00     0.016 A 
BRANCH   9  14
ATOM     14  N   UNL A   1      29.788  29.315  23.744  1.00  0.00    -0.270 N 
ATOM     15  C   UNL A   1      30.462  30.273  24.496  1.00  0.00     0.169 A 
ATOM     16  N   UNL A   1      29.800  31.413  24.417  1.00  0.00    -0.129 NA
ATOM     17  N   UNL A   1      28.711  31.226  23.593  1.00  0.00    -0.123 NA
ATOM     18  C   UNL A   1      28.711  29.972  23.201  1.00  0.00     0.193 A 
BRANCH  15  19
ATOM     19  C   UNL A   1      31.753  30.059  25.155  1.00  0.00     0.027 A 
ATOM     20  C   UNL A   1      33.317  30.469  26.974  1.00  0.00     0.165 A 
ATOM     21  C   UNL A   1      32.140  30.799  26.274  1.00  0.00     0.062 A 
ATOM     22  C   UNL A   1      34.139  29.400  26.560  1.00  0.00     0.203 A 
ATOM     23  C   UNL A   1      33.766  28.690  25.400  1.00  0.00     0.165 A 
ATOM     24  C   UNL A   1      32.594  29.036  24.709  1.00  0.00     0.062 A 
BRANCH  20  25
ATOM     25  O   UNL A   1      33.508  31.095  28.182  1.00  0.00    -0.493 OA
ATOM     26  C   UNL A   1      34.316  32.267  28.079  1.00  0.00     0.278 C 
ENDBRANCH  20  25
BRANCH  22  27
ATOM     27  O   UNL A   1      35.251  28.940  27.206  1.00  0.00    -0.490 OA
ATOM     28  C   UNL A   1      36.402  29.749  27.363  1.00  0.00     0.278 C 
ENDBRANCH  22  27
BRANCH  23  29
ATOM     29  O   UNL A   1      34.404  27.630  24.803  1.00  0.00    -0.493 OA
ATOM     30  C   UNL A   1      34.476  27.576  23.386  1.00  0.00     0.278 C 
ENDBRANCH  23  29
ENDBRANCH  15  19
BRANCH  18  31
ATOM     31  S   UNL A   1      27.458  29.223  22.264  1.00  0.00    -0.103 SA
ATOM     32  H   UNL A   1      26.421  30.090  22.118  1.00  0.00     0.111 HD
ENDBRANCH  18  31
ENDBRANCH   9  14
ENDBRANCH   5   8
ENDBRANCH   3   4
ENDBRANCH   2   3
ENDBRANCH   1   2
BRANCH   1  33
ATOM     33  C   UNL A   1      36.986  23.692  24.829  1.00  0.00     0.002 C 
BRANCH  33  34
ATOM     34  C   UNL A   1      37.795  23.250  26.059  1.00  0.00     0.021 C 
BRANCH  34  35
ATOM     35  C   UNL A   1      38.580  24.385  26.697  1.00  0.00     0.116 C 
BRANCH  35  36
ATOM     36  N   UNL A   1      39.842  24.638  25.998  1.00  0.00    -0.352 N 
ATOM     37  C   UNL A   1      40.614  25.790  25.994  1.00  0.00     0.251 C 
ATOM     38  H   UNL A   1      40.188  23.891  25.458  1.00  0.00     0.163 HD
ATOM     39  O   UNL A   1      41.406  26.005  25.097  1.00  0.00    -0.269 OA
BRANCH  37  40
ATOM     40  C   UNL A   1      40.446  26.735  27.115  1.00  0.00     0.039 A 
ATOM     41  C   UNL A   1      40.245  26.312  28.432  1.00  0.00     0.014 A 
ATOM     42  C   UNL A   1      40.540  28.085  26.808  1.00  0.00     0.014 A 
ATOM     43  C   UNL A   1      40.213  27.274  29.442  1.00  0.00     0.010 A 
ATOM     44  C   UNL A   1      40.738  28.991  27.809  1.00  0.00     0.010 A 
ATOM     45  C   UNL A   1      40.471  28.614  29.118  1.00  0.00    -0.014 A 
BRANCH  45  46
ATOM     46  C   UNL A   1      40.532  29.669  30.122  1.00  0.00     0.031 A 
ATOM     47  C   UNL A   1      39.247  30.379  30.346  1.00  0.00     0.074 A 
ATOM     48  C   UNL A   1      41.583  29.783  30.966  1.00  0.00     0.049 A 
ATOM     49  N   UNL A   1      38.941  31.594  30.036  1.00  0.00    -0.248 NA
ATOM     50  C   UNL A   1      38.099  29.588  30.825  1.00  0.00     0.031 C 
ATOM     51  C   UNL A   1      42.759  28.901  31.074  1.00  0.00     0.029 A 
ATOM     52  N   UNL A   1      41.775  30.645  31.999  1.00  0.00    -0.354 N 
ATOM     53  C   UNL A   1      37.647  31.796  30.514  1.00  0.00     0.074 A 
ATOM     54  C   UNL A   1      37.114  30.486  30.762  1.00  0.00     0.031 C 
ATOM     55  C   UNL A   1      43.400  29.127  32.241  1.00  0.00     0.029 A 
ATOM     56  C   UNL A   1      42.814  30.299  32.860  1.00  0.00     0.049 A 
ATOM     57  H   UNL A   1      41.221  31.450  32.129  1.00  0.00     0.167 HD
ATOM     58  C   UNL A   1      37.231  33.032  30.912  1.00  0.00     0.034 A 
ATOM     59  C   UNL A   1      43.182  30.934  34.003  1.00  0.00     0.034 A 
ATOM     60  C   UNL A   1      38.175  34.039  30.486  1.00  0.00     0.049 A 
ATOM     61  C   UNL A   1      42.634  32.306  33.905  1.00  0.00     0.074 A 
ATOM     62  C   UNL A   1      38.583  34.562  29.277  1.00  0.00     0.029 A 
ATOM     63  N   UNL A   1      39.151  34.360  31.401  1.00  0.00    -0.354 N 
ATOM     64  N   UNL A   1      42.996  33.155  32.981  1.00  0.00    -0.248 NA
ATOM     65  C   UNL A   1      41.365  32.604  34.551  1.00  0.00     0.031 C 
ATOM     66  C   UNL A   1      39.975  34.837  29.436  1.00  0.00     0.029 A 
ATOM     67  C   UNL A   1      40.346  34.541  30.751  1.00  0.00     0.049 A 
ATOM     68  H   UNL A   1      39.014  34.444  32.373  1.00  0.00     0.167 HD
ATOM     69  C   UNL A   1      41.835  33.826  32.635  1.00  0.00     0.074 A 
ATOM     70  C   UNL A   1      40.910  33.559  33.733  1.00  0.00     0.031 C 
ATOM     71  C   UNL A   1      41.644  34.289  31.363  1.00  0.00     0.034 A 
BRANCH  58  72
ATOM     72  C   UNL A   1      36.226  33.320  32.016  1.00  0.00     0.023 A 
ATOM     73  C   UNL A   1      35.108  34.115  31.683  1.00  0.00     0.031 A 
ATOM     74  C   UNL A   1      36.426  33.107  33.399  1.00  0.00     0.131 A 
ATOM     75  C   UNL A   1      34.315  34.716  32.679  1.00  0.00     0.055 A 
ATOM     76  C   UNL A   1      35.599  33.660  34.385  1.00  0.00     0.041 A 
ATOM     77  F   UNL A   1      37.473  32.438  33.890  1.00  0.00    -0.206 F 
ATOM     78  C   UNL A   1      34.555  34.493  34.031  1.00  0.00     0.022 A 
BRANCH  75  79
ATOM     79  S   UNL A   1      33.062  35.927  32.184  1.00  0.00     0.124 S 
ATOM     80  O   UNL A   1      33.334  36.074  30.758  1.00  0.00    -0.237 OA
ATOM     81  O   UNL A   1      31.824  35.241  32.538  1.00  0.00    -0.237 OA
ATOM     82  O   UNL A   1      33.380  37.096  33.001  1.00  0.00    -0.744 OA
ENDBRANCH  75  79
ENDBRANCH  58  72
BRANCH  59  83
ATOM     83  C   UNL A   1      43.635  30.308  35.273  1.00  0.00     0.023 A 
ATOM     84  C   UNL A   1      43.263  29.009  35.677  1.00  0.00     0.031 A 
ATOM     85  C   UNL A   1      44.677  30.925  36.002  1.00  0.00     0.131 A 
ATOM     86  C   UNL A   1      43.929  28.380  36.758  1.00  0.00     0.055 A 
ATOM     87  C   UNL A   1      45.334  30.299  37.064  1.00  0.00     0.041 A 
ATOM     88  F   UNL A   1      45.147  32.133  35.645  1.00  0.00    -0.206 F 
ATOM     89  C   UNL A   1      44.968  29.018  37.441  1.00  0.00     0.022 A 
BRANCH  86  90
ATOM     90  S   UNL A   1      43.497  26.678  37.253  1.00  0.00     0.124 S 
ATOM     91  O   UNL A   1      44.178  26.544  38.536  1.00  0.00    -0.237 OA
ATOM     92  O   UNL A   1      42.040  26.728  37.295  1.00  0.00    -0.237 OA
ATOM     93  O   UNL A   1      44.051  25.857  36.176  1.00  0.00    -0.744 OA
ENDBRANCH  86  90
ENDBRANCH  59  83
BRANCH  71  94
ATOM     94  C   UNL A   1      42.864  34.419  30.469  1.00  0.00     0.023 A 
ATOM     95  C   UNL A   1      43.823  35.458  30.527  1.00  0.00     0.031 A 
ATOM     96  C   UNL A   1      43.101  33.362  29.573  1.00  0.00     0.131 A 
ATOM     97  C   UNL A   1      44.968  35.404  29.703  1.00  0.00     0.055 A 
ATOM     98  C   UNL A   1      44.243  33.302  28.778  1.00  0.00     0.041 A 
ATOM     99  F   UNL A   1      42.233  32.340  29.486  1.00  0.00    -0.206 F 
ATOM    100  C   UNL A   1      45.180  34.325  28.837  1.00  0.00     0.022 A 
BRANCH  97 101
ATOM    101  S   UNL A   1      46.204  36.746  29.726  1.00  0.00     0.124 S 
ATOM    102  O   UNL A   1      47.180  36.293  30.711  1.00  0.00    -0.237 OA
ATOM    103  O   UNL A   1      46.663  36.780  28.339  1.00  0.00    -0.237 OA
ATOM    104  O   UNL A   1      45.428  37.919  30.136  1.00  0.00    -0.744 OA
ENDBRANCH  97 101
ENDBRANCH  71  94
ENDBRANCH  45  46
ENDBRANCH  37  40
ENDBRANCH  35  36
ENDBRANCH  34  35
ENDBRANCH  33  34
ENDBRANCH   1  33
TORSDOF 22
ENDMDL
MODEL 2
REMARK VINA RESULT:     -10.4      1.876      2.114
REMARK SMILES COc1cc(-c2nnc(S)n2-c2ccc(C(=O)NCCCCCCNC(=O)c3ccc(-c4c5nc(c(-c6cc(S(=O)(=O)[O-])ccc6F)c6ccc([nH]6)c(-c6cc(S(=O)(=O)[O-])ccc6F)c6nc(c(-c7cc(S(=O)(=O)[O-])ccc7F)c7ccc4[nH]7)C=C6)C=C5)cc3)cc2)cc(OC)c1OC
REMARK SMILES IDX 21 1 20 2 19 3 18 4 16 5 17 6 15 8 12 9 13 10 92 11 14 12
REMARK SMILES IDX 91 13 11 14 6 15 7 16 8 17 9 18 5 19 3 20 4 21 97 22 94 23
REMARK SMILES IDX 93 24 2 25 1 26 98 27 99 28 95 29 96 30 10 31 22 33 23 34
REMARK SMILES IDX 24 35 25 36 26 37 27 39 28 40 29 41 90 42 30 43 89 44 31 45
REMARK SMILES IDX 32 46 33 47 83 48 34 49 88 50 82 51 84 52 35 53 87 54 81 55
REMARK SMILES IDX 80 56 36 58 68 59 48 60 67 61 49 62 52 63 66 64 85 65 50 66
REMARK SMILES IDX 51 67 65 69 86 70 53 71 37 72 38 73 46 74 39 75 45 76 47 77
REMARK SMILES IDX 44 78 40 79 41 80 42 81 43 82 69 83 70 84 78 85 71 86 77 87
REMARK SMILES IDX 79 88 76 89 72 90 73 91 74 92 75 93 54 94 55 95 63 96 56 97
REMARK SMILES IDX 62 98 64 99 61 100 57 101 58 102 59 103 60 104
REMARK H PARENT 18 7 10 32 25 38 84 57 52 68
REMARK Flexibility Score: inf
ROOT
ATOM      1  C   UNL A   1      35.482  24.383  25.438  1.00  0.00     0.002 C 
ENDROOT
BRANCH   1   2
ATOM      2  C   UNL A   1      34.350  23.538  26.038  1.00  0.00     0.021 C 
BRANCH   2   3
ATOM      3  C   UNL A   1      32.969  24.175  25.866  1.00  0.00     0.116 C 
BRANCH   3   4
ATOM      4  N   UNL A   1      32.252  23.530  24.780  1.00  0.00    -0.352 N 
ATOM      5  C   UNL A   1      31.280  23.971  23.920  1.00  0.00     0.251 C 
ATOM      6  O   UNL A   1      30.863  23.186  23.068  1.00  0.00    -0.269 OA
ATOM      7  H   UNL A   1      32.514  22.592  24.634  1.00  0.00     0.163 HD
BRANCH   5   8
ATOM      8  C   UNL A   1      30.777  25.373  23.918  1.00  0.00     0.039 A 
ATOM      9  C   UNL A   1      30.113  28.082  23.866  1.00  0.00     0.050 A 
ATOM     10  C   UNL A   1      30.727  27.512  22.749  1.00  0.00     0.027 A 
ATOM     11  C   UNL A   1      29.758  27.305  24.969  1.00  0.00     0.027 A 
ATOM     12  C   UNL A   1      31.078  26.161  22.792  1.00  0.00     0.016 A 
ATOM     13  C   UNL A   1      30.036  25.940  24.958  1.00  0.00     0.016 A 
BRANCH   9  14
ATOM     14  N   UNL A   1      29.825  29.460  23.898  1.00  0.00    -0.270 N 
ATOM     15  C   UNL A   1      30.506  30.431  24.627  1.00  0.00     0.169 A 
ATOM     16  N   UNL A   1      29.874  31.583  24.488  1.00  0.00    -0.129 NA
ATOM     17  N   UNL A   1      28.799  31.389  23.647  1.00  0.00    -0.123 NA
ATOM     18  C   UNL A   1      28.776  30.121  23.305  1.00  0.00     0.193 A 
BRANCH  15  19
ATOM     19  C   UNL A   1      31.777  30.213  25.323  1.00  0.00     0.027 A 
ATOM     20  C   UNL A   1      33.389  30.783  27.054  1.00  0.00     0.165 A 
ATOM     21  C   UNL A   1      32.243  31.097  26.299  1.00  0.00     0.062 A 
ATOM     22  C   UNL A   1      34.103  29.585  26.838  1.00  0.00     0.203 A 
ATOM     23  C   UNL A   1      33.653  28.723  25.817  1.00  0.00     0.165 A 
ATOM     24  C   UNL A   1      32.513  29.053  25.068  1.00  0.00     0.062 A 
BRANCH  20  25
ATOM     25  O   UNL A   1      33.650  31.588  28.136  1.00  0.00    -0.493 OA
ATOM     26  C   UNL A   1      33.239  32.940  27.935  1.00  0.00     0.278 C 
ENDBRANCH  20  25
BRANCH  22  27
ATOM     27  O   UNL A   1      35.172  29.141  27.563  1.00  0.00    -0.490 OA
ATOM     28  C   UNL A   1      36.383  29.871  27.616  1.00  0.00     0.278 C 
ENDBRANCH  22  27
BRANCH  23  29
ATOM     29  O   UNL A   1      34.182  27.519  25.418  1.00  0.00    -0.493 OA
ATOM     30  C   UNL A   1      34.049  27.122  24.062  1.00  0.00     0.278 C 
ENDBRANCH  23  29
ENDBRANCH  15  19
BRANCH  18  31
ATOM     31  S   UNL A   1      27.526  29.364  22.371  1.00  0.00    -0.103 SA
ATOM     32  H   UNL A   1      26.551  30.272  22.099  1.00  0.00     0.111 HD
ENDBRANCH  18  31
ENDBRANCH   9  14
ENDBRANCH   5   8
ENDBRANCH   3   4
ENDBRANCH   2   3
ENDBRANCH   1   2
BRANCH   1  33
ATOM     33  C   UNL A   1      36.770  23.614  25.103  1.00  0.00     0.002 C 
BRANCH  33  34
ATOM     34  C   UNL A   1      37.680  23.266  26.292  1.00  0.00     0.021 C 
BRANCH  34  35
ATOM     35  C   UNL A   1      38.490  24.450  26.793  1.00  0.00     0.116 C 
BRANCH  35  36
ATOM     36  N   UNL A   1      39.801  24.529  26.145  1.00  0.00    -0.352 N 
ATOM     37  C   UNL A   1      40.692  25.592  26.118  1.00  0.00     0.251 C 
ATOM     38  H   UNL A   1      40.088  23.720  25.663  1.00  0.00     0.163 HD
ATOM     39  O   UNL A   1      41.540  25.671  25.251  1.00  0.00    -0.269 OA
BRANCH  37  40
ATOM     40  C   UNL A   1      40.577  26.612  27.177  1.00  0.00     0.039 A 
ATOM     41  C   UNL A   1      40.404  26.283  28.525  1.00  0.00     0.014 A 
ATOM     42  C   UNL A   1      40.692  27.937  26.779  1.00  0.00     0.014 A 
ATOM     43  C   UNL A   1      40.422  27.310  29.469  1.00  0.00     0.010 A 
ATOM     44  C   UNL A   1      40.939  28.902  27.712  1.00  0.00     0.010 A 
ATOM     45  C   UNL A   1      40.700  28.619  29.049  1.00  0.00    -0.014 A 
BRANCH  45  46
ATOM     46  C   UNL A   1      40.813  29.736  29.979  1.00  0.00     0.031 A 
ATOM     47  C   UNL A   1      39.525  30.403  30.297  1.00  0.00     0.074 A 
ATOM     48  C   UNL A   1      41.940  29.948  30.698  1.00  0.00     0.049 A 
ATOM     49  N   UNL A   1      39.129  31.582  29.953  1.00  0.00    -0.248 NA
ATOM     50  C   UNL A   1      38.474  29.595  30.941  1.00  0.00     0.031 C 
ATOM     51  C   UNL A   1      43.162  29.125  30.730  1.00  0.00     0.029 A 
ATOM     52  N   UNL A   1      42.195  30.880  31.652  1.00  0.00    -0.354 N 
ATOM     53  C   UNL A   1      37.884  31.758  30.553  1.00  0.00     0.074 A 
ATOM     54  C   UNL A   1      37.445  30.444  30.932  1.00  0.00     0.031 C 
ATOM     55  C   UNL A   1      43.910  29.451  31.807  1.00  0.00     0.029 A 
ATOM     56  C   UNL A   1      43.335  30.633  32.416  1.00  0.00     0.049 A 
ATOM     57  H   UNL A   1      41.620  31.667  31.794  1.00  0.00     0.167 HD
ATOM     58  C   UNL A   1      37.451  32.997  30.922  1.00  0.00     0.034 A 
ATOM     59  C   UNL A   1      43.788  31.353  33.474  1.00  0.00     0.034 A 
ATOM     60  C   UNL A   1      38.295  34.015  30.340  1.00  0.00     0.049 A 
ATOM     61  C   UNL A   1      43.166  32.692  33.357  1.00  0.00     0.074 A 
ATOM     62  C   UNL A   1      38.548  34.478  29.066  1.00  0.00     0.029 A 
ATOM     63  N   UNL A   1      39.344  34.434  31.126  1.00  0.00    -0.354 N 
ATOM     64  N   UNL A   1      43.387  33.496  32.352  1.00  0.00    -0.248 NA
ATOM     65  C   UNL A   1      41.958  32.975  34.116  1.00  0.00     0.031 C 
ATOM     66  C   UNL A   1      39.935  34.822  29.060  1.00  0.00     0.029 A 
ATOM     67  C   UNL A   1      40.455  34.626  30.343  1.00  0.00     0.049 A 
ATOM     68  H   UNL A   1      39.305  34.573  32.100  1.00  0.00     0.167 HD
ATOM     69  C   UNL A   1      42.165  34.094  32.094  1.00  0.00     0.074 A 
ATOM     70  C   UNL A   1      41.374  33.857  33.298  1.00  0.00     0.031 C 
ATOM     71  C   UNL A   1      41.820  34.468  30.826  1.00  0.00     0.034 A 
BRANCH  58  72
ATOM     72  C   UNL A   1      36.554  33.310  32.109  1.00  0.00     0.023 A 
ATOM     73  C   UNL A   1      35.390  34.069  31.858  1.00  0.00     0.031 A 
ATOM     74  C   UNL A   1      36.894  33.158  33.472  1.00  0.00     0.131 A 
ATOM     75  C   UNL A   1      34.686  34.694  32.904  1.00  0.00     0.055 A 
ATOM     76  C   UNL A   1      36.156  33.734  34.513  1.00  0.00     0.041 A 
ATOM     77  F   UNL A   1      38.000  32.530  33.882  1.00  0.00    -0.206 F 
ATOM     78  C   UNL A   1      35.063  34.531  34.233  1.00  0.00     0.022 A 
BRANCH  75  79
ATOM     79  S   UNL A   1      33.361  35.859  32.490  1.00  0.00     0.124 S 
ATOM     80  O   UNL A   1      33.790  36.349  31.185  1.00  0.00    -0.237 OA
ATOM     81  O   UNL A   1      32.186  34.995  32.501  1.00  0.00    -0.237 OA
ATOM     82  O   UNL A   1      33.422  36.840  33.572  1.00  0.00    -0.744 OA
ENDBRANCH  75  79
ENDBRANCH  58  72
BRANCH  59  83
ATOM     83  C   UNL A   1      44.401  30.828  34.723  1.00  0.00     0.023 A 
ATOM     84  C   UNL A   1      45.717  31.132  35.131  1.00  0.00     0.031 A 
ATOM     85  C   UNL A   1      43.570  30.198  35.677  1.00  0.00     0.131 A 
ATOM     86  C   UNL A   1      46.147  30.815  36.443  1.00  0.00     0.055 A 
ATOM     87  C   UNL A   1      43.998  29.892  36.971  1.00  0.00     0.041 A 
ATOM     88  F   UNL A   1      42.281  29.935  35.403  1.00  0.00    -0.206 F 
ATOM     89  C   UNL A   1      45.288  30.209  37.363  1.00  0.00     0.022 A 
BRANCH  86  90
ATOM     90  S   UNL A   1      47.828  31.255  37.002  1.00  0.00     0.124 S 
ATOM     91  O   UNL A   1      48.665  30.378  36.191  1.00  0.00    -0.237 OA
ATOM     92  O   UNL A   1      47.893  32.679  36.697  1.00  0.00    -0.237 OA
ATOM     93  O   UNL A   1      47.808  30.934  38.429  1.00  0.00    -0.744 OA
ENDBRANCH  86  90
ENDBRANCH  59  83
BRANCH  71  94
ATOM     94  C   UNL A   1      42.933  34.595  29.800  1.00  0.00     0.023 A 
ATOM     95  C   UNL A   1      43.334  33.590  28.889  1.00  0.00     0.031 A 
ATOM     96  C   UNL A   1      43.548  35.855  29.694  1.00  0.00     0.131 A 
ATOM     97  C   UNL A   1      44.318  33.875  27.918  1.00  0.00     0.055 A 
ATOM     98  C   UNL A   1      44.502  36.137  28.720  1.00  0.00     0.041 A 
ATOM     99  F   UNL A   1      43.196  36.853  30.523  1.00  0.00    -0.206 F 
ATOM    100  C   UNL A   1      44.894  35.147  27.829  1.00  0.00     0.022 A 
BRANCH  97 101
ATOM    101  S   UNL A   1      44.884  32.590  26.752  1.00  0.00     0.124 S 
ATOM    102  O   UNL A   1      45.089  31.423  27.602  1.00  0.00    -0.237 OA
ATOM    103  O   UNL A   1      43.774  32.506  25.806  1.00  0.00    -0.237 OA
ATOM    104  O   UNL A   1      46.115  33.156  26.192  1.00  0.00    -0.744 OA
ENDBRANCH  97 101
ENDBRANCH  71  94
ENDBRANCH  45  46
ENDBRANCH  37  40
ENDBRANCH  35  36
ENDBRANCH  34  35
ENDBRANCH  33  34
ENDBRANCH   1  33
TORSDOF 22
ENDMDL
MODEL 3
REMARK VINA RESULT:     -10.3      2.455      7.430
REMARK SMILES COc1cc(-c2nnc(S)n2-c2ccc(C(=O)NCCCCCCNC(=O)c3ccc(-c4c5nc(c(-c6cc(S(=O)(=O)[O-])ccc6F)c6ccc([nH]6)c(-c6cc(S(=O)(=O)[O-])ccc6F)c6nc(c(-c7cc(S(=O)(=O)[O-])ccc7F)c7ccc4[nH]7)C=C6)C=C5)cc3)cc2)cc(OC)c1OC
REMARK SMILES IDX 21 1 20 2 19 3 18 4 16 5 17 6 15 8 12 9 13 10 92 11 14 12
REMARK SMILES IDX 91 13 11 14 6 15 7 16 8 17 9 18 5 19 3 20 4 21 97 22 94 23
REMARK SMILES IDX 93 24 2 25 1 26 98 27 99 28 95 29 96 30 10 31 22 33 23 34
REMARK SMILES IDX 24 35 25 36 26 37 27 39 28 40 29 41 90 42 30 43 89 44 31 45
REMARK SMILES IDX 32 46 33 47 83 48 34 49 88 50 82 51 84 52 35 53 87 54 81 55
REMARK SMILES IDX 80 56 36 58 68 59 48 60 67 61 49 62 52 63 66 64 85 65 50 66
REMARK SMILES IDX 51 67 65 69 86 70 53 71 37 72 38 73 46 74 39 75 45 76 47 77
REMARK SMILES IDX 44 78 40 79 41 80 42 81 43 82 69 83 70 84 78 85 71 86 77 87
REMARK SMILES IDX 79 88 76 89 72 90 73 91 74 92 75 93 54 94 55 95 63 96 56 97
REMARK SMILES IDX 62 98 64 99 61 100 57 101 58 102 59 103 60 104
REMARK H PARENT 18 7 10 32 25 38 84 57 52 68
REMARK Flexibility Score: inf
ROOT
ATOM      1  C   UNL A   1      35.416  23.818  24.391  1.00  0.00     0.002 C 
ENDROOT
BRANCH   1   2
ATOM      2  C   UNL A   1      34.037  23.177  24.590  1.00  0.00     0.021 C 
BRANCH   2   3
ATOM      3  C   UNL A   1      32.902  23.982  23.952  1.00  0.00     0.116 C 
BRANCH   3   4
ATOM      4  N   UNL A   1      33.166  24.187  22.539  1.00  0.00    -0.352 N 
ATOM      5  C   UNL A   1      32.826  25.189  21.668  1.00  0.00     0.251 C 
ATOM      6  O   UNL A   1      33.215  25.100  20.503  1.00  0.00    -0.269 OA
ATOM      7  H   UNL A   1      33.692  23.465  22.125  1.00  0.00     0.163 HD
BRANCH   5   8
ATOM      8  C   UNL A   1      32.087  26.412  22.091  1.00  0.00     0.039 A 
ATOM      9  C   UNL A   1      30.930  28.757  23.062  1.00  0.00     0.050 A 
ATOM     10  C   UNL A   1      32.184  28.821  22.452  1.00  0.00     0.027 A 
ATOM     11  C   UNL A   1      30.218  27.559  23.122  1.00  0.00     0.027 A 
ATOM     12  C   UNL A   1      32.767  27.639  21.990  1.00  0.00     0.016 A 
ATOM     13  C   UNL A   1      30.777  26.405  22.576  1.00  0.00     0.016 A 
BRANCH   9  14
ATOM     14  N   UNL A   1      30.346  29.910  23.621  1.00  0.00    -0.270 N 
ATOM     15  C   UNL A   1      30.717  30.531  24.811  1.00  0.00     0.169 A 
ATOM     16  N   UNL A   1      29.868  31.513  25.056  1.00  0.00    -0.129 NA
ATOM     17  N   UNL A   1      28.959  31.569  24.021  1.00  0.00    -0.123 NA
ATOM     18  C   UNL A   1      29.250  30.608  23.174  1.00  0.00     0.193 A 
BRANCH  15  19
ATOM     19  C   UNL A   1      31.920  30.207  25.581  1.00  0.00     0.027 A 
ATOM     20  C   UNL A   1      33.730  30.836  27.082  1.00  0.00     0.165 A 
ATOM     21  C   UNL A   1      32.668  31.193  26.229  1.00  0.00     0.062 A 
ATOM     22  C   UNL A   1      34.077  29.485  27.293  1.00  0.00     0.203 A 
ATOM     23  C   UNL A   1      33.348  28.499  26.595  1.00  0.00     0.165 A 
ATOM     24  C   UNL A   1      32.297  28.871  25.744  1.00  0.00     0.062 A 
BRANCH  20  25
ATOM     25  O   UNL A   1      34.265  31.842  27.849  1.00  0.00    -0.493 OA
ATOM     26  C   UNL A   1      33.343  32.904  28.095  1.00  0.00     0.278 C 
ENDBRANCH  20  25
BRANCH  22  27
ATOM     27  O   UNL A   1      35.028  29.021  28.157  1.00  0.00    -0.490 OA
ATOM     28  C   UNL A   1      36.391  29.368  28.010  1.00  0.00     0.278 C 
ENDBRANCH  22  27
BRANCH  23  29
ATOM     29  O   UNL A   1      33.505  27.134  26.630  1.00  0.00    -0.493 OA
ATOM     30  C   UNL A   1      32.353  26.306  26.636  1.00  0.00     0.278 C 
ENDBRANCH  23  29
ENDBRANCH  15  19
BRANCH  18  31
ATOM     31  S   UNL A   1      28.304  30.187  21.783  1.00  0.00    -0.103 SA
ATOM     32  H   UNL A   1      26.984  30.335  22.071  1.00  0.00     0.111 HD
ENDBRANCH  18  31
ENDBRANCH   9  14
ENDBRANCH   5   8
ENDBRANCH   3   4
ENDBRANCH   2   3
ENDBRANCH   1   2
BRANCH   1  33
ATOM     33  C   UNL A   1      36.572  22.832  24.151  1.00  0.00     0.002 C 
BRANCH  33  34
ATOM     34  C   UNL A   1      37.062  22.053  25.382  1.00  0.00     0.021 C 
BRANCH  34  35
ATOM     35  C   UNL A   1      38.126  22.795  26.175  1.00  0.00     0.116 C 
BRANCH  35  36
ATOM     36  N   UNL A   1      39.269  21.936  26.495  1.00  0.00    -0.352 N 
ATOM     37  C   UNL A   1      40.594  22.295  26.691  1.00  0.00     0.251 C 
ATOM     38  H   UNL A   1      39.070  20.976  26.581  1.00  0.00     0.163 HD
ATOM     39  O   UNL A   1      41.485  21.477  26.567  1.00  0.00    -0.269 OA
BRANCH  37  40
ATOM     40  C   UNL A   1      40.880  23.694  27.061  1.00  0.00     0.039 A 
ATOM     41  C   UNL A   1      40.117  24.768  26.593  1.00  0.00     0.014 A 
ATOM     42  C   UNL A   1      41.931  23.901  27.943  1.00  0.00     0.014 A 
ATOM     43  C   UNL A   1      40.389  26.044  27.088  1.00  0.00     0.010 A 
ATOM     44  C   UNL A   1      42.041  25.096  28.591  1.00  0.00     0.010 A 
ATOM     45  C   UNL A   1      41.351  26.194  28.097  1.00  0.00    -0.014 A 
BRANCH  45  46
ATOM     46  C   UNL A   1      41.642  27.478  28.722  1.00  0.00     0.031 A 
ATOM     47  C   UNL A   1      42.739  28.242  28.076  1.00  0.00     0.074 A 
ATOM     48  C   UNL A   1      40.796  28.037  29.619  1.00  0.00     0.049 A 
ATOM     49  N   UNL A   1      43.918  28.492  28.537  1.00  0.00    -0.248 NA
ATOM     50  C   UNL A   1      42.564  28.638  26.667  1.00  0.00     0.031 C 
ATOM     51  C   UNL A   1      39.486  27.532  30.066  1.00  0.00     0.029 A 
ATOM     52  N   UNL A   1      40.865  29.244  30.239  1.00  0.00    -0.354 N 
ATOM     53  C   UNL A   1      44.541  29.294  27.582  1.00  0.00     0.074 A 
ATOM     54  C   UNL A   1      43.764  29.146  26.383  1.00  0.00     0.031 C 
ATOM     55  C   UNL A   1      38.797  28.517  30.681  1.00  0.00     0.029 A 
ATOM     56  C   UNL A   1      39.684  29.648  30.859  1.00  0.00     0.049 A 
ATOM     57  H   UNL A   1      41.685  29.791  30.247  1.00  0.00     0.167 HD
ATOM     58  C   UNL A   1      45.481  30.213  27.942  1.00  0.00     0.034 A 
ATOM     59  C   UNL A   1      39.447  30.828  31.488  1.00  0.00     0.034 A 
ATOM     60  C   UNL A   1      45.899  29.992  29.308  1.00  0.00     0.049 A 
ATOM     61  C   UNL A   1      40.776  31.383  31.836  1.00  0.00     0.074 A 
ATOM     62  C   UNL A   1      46.594  29.010  29.981  1.00  0.00     0.029 A 
ATOM     63  N   UNL A   1      45.212  30.710  30.259  1.00  0.00    -0.354 N 
ATOM     64  N   UNL A   1      41.606  30.790  32.651  1.00  0.00    -0.248 NA
ATOM     65  C   UNL A   1      41.380  32.366  30.950  1.00  0.00     0.031 C 
ATOM     66  C   UNL A   1      45.985  28.937  31.271  1.00  0.00     0.029 A 
ATOM     67  C   UNL A   1      44.996  29.920  31.361  1.00  0.00     0.049 A 
ATOM     68  H   UNL A   1      44.918  31.645  30.164  1.00  0.00     0.167 HD
ATOM     69  C   UNL A   1      42.860  30.999  32.101  1.00  0.00     0.074 A 
ATOM     70  C   UNL A   1      42.673  32.096  31.157  1.00  0.00     0.031 C 
ATOM     71  C   UNL A   1      43.856  30.076  32.255  1.00  0.00     0.034 A 
BRANCH  58  72
ATOM     72  C   UNL A   1      45.737  31.543  27.251  1.00  0.00     0.023 A 
ATOM     73  C   UNL A   1      47.067  31.833  26.876  1.00  0.00     0.031 A 
ATOM     74  C   UNL A   1      44.840  32.633  27.188  1.00  0.00     0.131 A 
ATOM     75  C   UNL A   1      47.466  33.143  26.552  1.00  0.00     0.055 A 
ATOM     76  C   UNL A   1      45.230  33.923  26.808  1.00  0.00     0.041 A 
ATOM     77  F   UNL A   1      43.563  32.550  27.574  1.00  0.00    -0.206 F 
ATOM     78  C   UNL A   1      46.553  34.192  26.516  1.00  0.00     0.022 A 
BRANCH  75  79
ATOM     79  S   UNL A   1      49.232  33.489  26.334  1.00  0.00     0.124 S 
ATOM     80  O   UNL A   1      49.788  32.145  26.220  1.00  0.00    -0.237 OA
ATOM     81  O   UNL A   1      49.232  34.294  25.118  1.00  0.00    -0.237 OA
ATOM     82  O   UNL A   1      49.588  34.207  27.556  1.00  0.00    -0.744 OA
ENDBRANCH  75  79
ENDBRANCH  58  72
BRANCH  59  83
ATOM     83  C   UNL A   1      38.194  31.628  31.455  1.00  0.00     0.023 A 
ATOM     84  C   UNL A   1      37.546  32.106  32.614  1.00  0.00     0.031 A 
ATOM     85  C   UNL A   1      37.752  32.151  30.219  1.00  0.00     0.131 A 
ATOM     86  C   UNL A   1      36.513  33.070  32.505  1.00  0.00     0.055 A 
ATOM     87  C   UNL A   1      36.737  33.105  30.118  1.00  0.00     0.041 A 
ATOM     88  F   UNL A   1      38.358  31.808  29.069  1.00  0.00    -0.206 F 
ATOM     89  C   UNL A   1      36.119  33.576  31.264  1.00  0.00     0.022 A 
BRANCH  86  90
ATOM     90  S   UNL A   1      35.707  33.740  33.999  1.00  0.00     0.124 S 
ATOM     91  O   UNL A   1      36.356  32.988  35.067  1.00  0.00    -0.237 OA
ATOM     92  O   UNL A   1      36.029  35.160  33.915  1.00  0.00    -0.237 OA
ATOM     93  O   UNL A   1      34.293  33.420  33.797  1.00  0.00    -0.744 OA
ENDBRANCH  86  90
ENDBRANCH  59  83
BRANCH  71  94
ATOM     94  C   UNL A   1      43.697  29.042  33.355  1.00  0.00     0.023 A 
ATOM     95  C   UNL A   1      44.119  29.193  34.696  1.00  0.00     0.031 A 
ATOM     96  C   UNL A   1      42.984  27.876  33.022  1.00  0.00     0.131 A 
ATOM     97  C   UNL A   1      43.818  28.191  35.645  1.00  0.00     0.055 A 
ATOM     98  C   UNL A   1      42.671  26.901  33.966  1.00  0.00     0.041 A 
ATOM     99  F   UNL A   1      42.544  27.686  31.767  1.00  0.00    -0.206 F 
ATOM    100  C   UNL A   1      43.090  27.053  35.281  1.00  0.00     0.022 A 
BRANCH  97 101
ATOM    101  S   UNL A   1      44.380  28.337  37.375  1.00  0.00     0.124 S 
ATOM    102  O   UNL A   1      45.834  28.315  37.263  1.00  0.00    -0.237 OA
ATOM    103  O   UNL A   1      43.789  29.605  37.796  1.00  0.00    -0.237 OA
ATOM    104  O   UNL A   1      43.804  27.156  38.022  1.00  0.00    -0.744 OA
ENDBRANCH  97 101
ENDBRANCH  71  94
ENDBRANCH  45  46
ENDBRANCH  37  40
ENDBRANCH  35  36
ENDBRANCH  34  35
ENDBRANCH  33  34
ENDBRANCH   1  33
TORSDOF 22
ENDMDL
