MODEL 1
REMARK VINA RESULT:     -11.3      0.000      0.000
REMARK SMILES C[C@@H]1[C@@H](C(=O)NCCCCCCNC(=O)c2ccc(-c3c4nc(c(-c5cc(S(=O)(=O)[O-])ccc5F)c5ccc([nH]5)c(-c5cc(S(=O)(=O)[O-])ccc5F)c5nc(c(-c6cc(S(=O)(=O)[O-])ccc6F)c6ccc3[nH]6)C=C5)C=C4)cc2)CCN1C(=O)CCCC1CCCCC1
REMARK SMILES IDX 8 1 7 2 6 3 4 4 5 5 3 7 1 8 2 9 81 10 79 11 80 12 82 13
REMARK SMILES IDX 83 14 84 15 85 16 86 17 87 18 88 19 92 20 89 21 91 22 90 23
REMARK SMILES IDX 9 24 10 25 11 26 12 27 13 28 14 29 15 31 16 32 17 33 78 34
REMARK SMILES IDX 18 35 77 36 19 37 20 38 21 39 71 40 22 41 76 42 70 43 72 44
REMARK SMILES IDX 23 45 75 46 69 47 68 48 24 50 56 51 36 52 55 53 37 54 40 55
REMARK SMILES IDX 54 56 73 57 38 58 39 59 53 61 74 62 41 63 25 64 26 65 34 66
REMARK SMILES IDX 27 67 33 68 35 69 32 70 28 71 29 72 30 73 31 74 57 75 58 76
REMARK SMILES IDX 66 77 59 78 65 79 67 80 64 81 60 82 61 83 62 84 63 85 42 86
REMARK SMILES IDX 43 87 51 88 44 89 50 90 52 91 49 92 45 93 46 94 47 95 48 96
REMARK H PARENT 6 6 13 30 72 49 40 60
REMARK Flexibility Score: inf
ROOT
ATOM      1  C   UNL A   1      33.650  28.844  26.547  1.00  0.00     0.021 C 
ENDROOT
BRANCH   1   2
ATOM      2  C   UNL A   1      33.735  27.361  26.220  1.00  0.00     0.116 C 
BRANCH   2   3
ATOM      3  N   UNL A   1      32.497  26.662  26.472  1.00  0.00    -0.356 N 
ATOM      4  C   UNL A   1      32.289  25.315  26.509  1.00  0.00     0.225 C 
ATOM      5  O   UNL A   1      31.159  24.919  26.786  1.00  0.00    -0.275 OA
ATOM      6  H   UNL A   1      31.707  27.226  26.635  1.00  0.00     0.163 HD
BRANCH   4   7
ATOM      7  C   UNL A   1      33.453  24.385  26.175  1.00  0.00     0.102 C 
ATOM      8  C   UNL A   1      35.654  24.262  24.951  1.00  0.00     0.032 C 
ATOM      9  C   UNL A   1      34.241  24.852  24.942  1.00  0.00     0.094 C 
ATOM     10  N   UNL A   1      33.442  24.364  23.829  1.00  0.00    -0.339 N 
ATOM     11  C   UNL A   1      32.971  23.004  25.720  1.00  0.00     0.037 C 
ATOM     12  C   UNL A   1      32.678  23.194  24.234  1.00  0.00     0.120 C 
BRANCH  10  13
ATOM     13  C   UNL A   1      33.098  25.037  22.672  1.00  0.00     0.222 C 
ATOM     14  O   UNL A   1      33.965  25.571  21.970  1.00  0.00    -0.275 OA
BRANCH  13  15
ATOM     15  C   UNL A   1      31.628  25.245  22.319  1.00  0.00     0.100 C 
BRANCH  15  16
ATOM     16  C   UNL A   1      30.621  25.654  23.405  1.00  0.00     0.010 C 
BRANCH  16  17
ATOM     17  C   UNL A   1      30.352  27.126  23.784  1.00  0.00     0.004 C 
BRANCH  17  18
ATOM     18  C   UNL A   1      29.583  28.103  22.844  1.00  0.00    -0.011 C 
ATOM     19  C   UNL A   1      28.151  28.331  23.388  1.00  0.00     0.003 C 
ATOM     20  C   UNL A   1      30.289  29.423  22.542  1.00  0.00     0.003 C 
ATOM     21  C   UNL A   1      27.348  29.406  22.656  1.00  0.00     0.000 C 
ATOM     22  C   UNL A   1      29.455  30.400  21.726  1.00  0.00     0.000 C 
ATOM     23  C   UNL A   1      28.135  30.689  22.426  1.00  0.00     0.000 C 
ENDBRANCH  17  18
ENDBRANCH  16  17
ENDBRANCH  15  16
ENDBRANCH  13  15
ENDBRANCH  10  13
ENDBRANCH   4   7
ENDBRANCH   2   3
ENDBRANCH   1   2
BRANCH   1  24
ATOM     24  C   UNL A   1      32.245  29.354  26.885  1.00  0.00     0.002 C 
BRANCH  24  25
ATOM     25  C   UNL A   1      31.682  30.440  25.963  1.00  0.00     0.002 C 
BRANCH  25  26
ATOM     26  C   UNL A   1      31.514  31.829  26.583  1.00  0.00     0.021 C 
BRANCH  26  27
ATOM     27  C   UNL A   1      32.764  32.411  27.231  1.00  0.00     0.116 C 
BRANCH  27  28
ATOM     28  N   UNL A   1      32.602  33.806  27.591  1.00  0.00    -0.352 N 
ATOM     29  C   UNL A   1      33.239  34.531  28.567  1.00  0.00     0.251 C 
ATOM     30  H   UNL A   1      31.940  34.303  27.060  1.00  0.00     0.163 HD
ATOM     31  O   UNL A   1      32.839  35.658  28.837  1.00  0.00    -0.269 OA
BRANCH  29  32
ATOM     32  C   UNL A   1      34.379  33.943  29.305  1.00  0.00     0.039 A 
ATOM     33  C   UNL A   1      34.115  32.980  30.281  1.00  0.00     0.014 A 
ATOM     34  C   UNL A   1      35.696  34.344  29.058  1.00  0.00     0.014 A 
ATOM     35  C   UNL A   1      35.172  32.391  30.978  1.00  0.00     0.010 A 
ATOM     36  C   UNL A   1      36.753  33.697  29.695  1.00  0.00     0.010 A 
ATOM     37  C   UNL A   1      36.502  32.723  30.673  1.00  0.00    -0.014 A 
BRANCH  37  38
ATOM     38  C   UNL A   1      37.630  32.074  31.392  1.00  0.00     0.031 A 
ATOM     39  C   UNL A   1      38.393  30.948  30.745  1.00  0.00     0.074 A 
ATOM     40  C   UNL A   1      37.951  32.484  32.635  1.00  0.00     0.049 A 
ATOM     41  N   UNL A   1      39.394  30.250  31.216  1.00  0.00    -0.248 NA
ATOM     42  C   UNL A   1      37.952  30.536  29.404  1.00  0.00     0.031 C 
ATOM     43  C   UNL A   1      37.261  33.540  33.380  1.00  0.00     0.029 A 
ATOM     44  N   UNL A   1      38.940  32.069  33.491  1.00  0.00    -0.354 N 
ATOM     45  C   UNL A   1      39.701  29.315  30.232  1.00  0.00     0.074 A 
ATOM     46  C   UNL A   1      38.733  29.492  29.172  1.00  0.00     0.031 C 
ATOM     47  C   UNL A   1      37.870  33.715  34.563  1.00  0.00     0.029 A 
ATOM     48  C   UNL A   1      38.962  32.755  34.685  1.00  0.00     0.049 A 
ATOM     49  H   UNL A   1      39.574  31.349  33.273  1.00  0.00     0.167 HD
ATOM     50  C   UNL A   1      40.715  28.415  30.202  1.00  0.00     0.034 A 
ATOM     51  C   UNL A   1      39.767  32.620  35.758  1.00  0.00     0.034 A 
ATOM     52  C   UNL A   1      41.677  28.258  31.266  1.00  0.00     0.049 A 
ATOM     53  C   UNL A   1      40.864  31.586  35.717  1.00  0.00     0.074 A 
ATOM     54  C   UNL A   1      42.772  27.413  31.321  1.00  0.00     0.029 A 
ATOM     55  N   UNL A   1      41.656  28.955  32.468  1.00  0.00    -0.354 N 
ATOM     56  N   UNL A   1      41.176  30.748  34.754  1.00  0.00    -0.248 NA
ATOM     57  C   UNL A   1      41.724  31.487  36.902  1.00  0.00     0.031 C 
ATOM     58  C   UNL A   1      43.364  27.542  32.581  1.00  0.00     0.029 A 
ATOM     59  C   UNL A   1      42.695  28.531  33.284  1.00  0.00     0.049 A 
ATOM     60  H   UNL A   1      41.000  29.648  32.707  1.00  0.00     0.167 HD
ATOM     61  C   UNL A   1      42.288  30.045  35.209  1.00  0.00     0.074 A 
ATOM     62  C   UNL A   1      42.603  30.573  36.520  1.00  0.00     0.031 C 
ATOM     63  C   UNL A   1      42.988  29.054  34.599  1.00  0.00     0.034 A 
BRANCH  50  64
ATOM     64  C   UNL A   1      40.814  27.515  28.992  1.00  0.00     0.023 A 
ATOM     65  C   UNL A   1      41.766  27.738  27.981  1.00  0.00     0.031 A 
ATOM     66  C   UNL A   1      39.930  26.433  28.833  1.00  0.00     0.131 A 
ATOM     67  C   UNL A   1      41.762  26.942  26.825  1.00  0.00     0.055 A 
ATOM     68  C   UNL A   1      39.989  25.591  27.720  1.00  0.00     0.041 A 
ATOM     69  F   UNL A   1      38.984  26.182  29.751  1.00  0.00    -0.206 F 
ATOM     70  C   UNL A   1      40.899  25.852  26.700  1.00  0.00     0.022 A 
BRANCH  67  71
ATOM     71  S   UNL A   1      42.799  27.445  25.424  1.00  0.00     0.124 S 
ATOM     72  O   UNL A   1      42.849  26.215  24.638  1.00  0.00    -0.237 OA
ATOM     73  O   UNL A   1      42.034  28.543  24.845  1.00  0.00    -0.237 OA
ATOM     74  O   UNL A   1      44.063  27.827  26.052  1.00  0.00    -0.744 OA
ENDBRANCH  67  71
ENDBRANCH  50  64
BRANCH  51  75
ATOM     75  C   UNL A   1      39.569  33.473  36.966  1.00  0.00     0.023 A 
ATOM     76  C   UNL A   1      40.362  34.609  37.190  1.00  0.00     0.031 A 
ATOM     77  C   UNL A   1      38.615  33.134  37.943  1.00  0.00     0.131 A 
ATOM     78  C   UNL A   1      40.226  35.335  38.385  1.00  0.00     0.055 A 
ATOM     79  C   UNL A   1      38.442  33.894  39.101  1.00  0.00     0.041 A 
ATOM     80  F   UNL A   1      37.828  32.059  37.780  1.00  0.00    -0.206 F 
ATOM     81  C   UNL A   1      39.261  34.994  39.334  1.00  0.00     0.022 A 
BRANCH  78  82
ATOM     82  S   UNL A   1      41.401  36.674  38.725  1.00  0.00     0.124 S 
ATOM     83  O   UNL A   1      40.512  37.741  39.169  1.00  0.00    -0.237 OA
ATOM     84  O   UNL A   1      42.252  36.077  39.749  1.00  0.00    -0.237 OA
ATOM     85  O   UNL A   1      42.046  36.896  37.433  1.00  0.00    -0.744 OA
ENDBRANCH  78  82
ENDBRANCH  51  75
BRANCH  63  86
ATOM     86  C   UNL A   1      44.187  28.507  35.336  1.00  0.00     0.023 A 
ATOM     87  C   UNL A   1      44.066  27.474  36.282  1.00  0.00     0.031 A 
ATOM     88  C   UNL A   1      45.467  29.041  35.102  1.00  0.00     0.131 A 
ATOM     89  C   UNL A   1      45.193  27.052  37.003  1.00  0.00     0.055 A 
ATOM     90  C   UNL A   1      46.595  28.568  35.773  1.00  0.00     0.041 A 
ATOM     91  F   UNL A   1      45.643  30.031  34.213  1.00  0.00    -0.206 F 
ATOM     92  C   UNL A   1      46.460  27.578  36.742  1.00  0.00     0.022 A 
BRANCH  89  93
ATOM     93  S   UNL A   1      44.961  25.877  38.366  1.00  0.00     0.124 S 
ATOM     94  O   UNL A   1      44.468  24.695  37.667  1.00  0.00    -0.237 OA
ATOM     95  O   UNL A   1      46.306  25.773  38.922  1.00  0.00    -0.237 OA
ATOM     96  O   UNL A   1      43.984  26.540  39.228  1.00  0.00    -0.744 OA
ENDBRANCH  89  93
ENDBRANCH  63  86
ENDBRANCH  37  38
ENDBRANCH  29  32
ENDBRANCH  27  28
ENDBRANCH  26  27
ENDBRANCH  25  26
ENDBRANCH  24  25
ENDBRANCH   1  24
TORSDOF 21
ENDMDL
MODEL 2
REMARK VINA RESULT:     -11.1      2.033      7.812
REMARK SMILES C[C@@H]1[C@@H](C(=O)NCCCCCCNC(=O)c2ccc(-c3c4nc(c(-c5cc(S(=O)(=O)[O-])ccc5F)c5ccc([nH]5)c(-c5cc(S(=O)(=O)[O-])ccc5F)c5nc(c(-c6cc(S(=O)(=O)[O-])ccc6F)c6ccc3[nH]6)C=C5)C=C4)cc2)CCN1C(=O)CCCC1CCCCC1
REMARK SMILES IDX 8 1 7 2 6 3 4 4 5 5 3 7 1 8 2 9 81 10 79 11 80 12 82 13
REMARK SMILES IDX 83 14 84 15 85 16 86 17 87 18 88 19 92 20 89 21 91 22 90 23
REMARK SMILES IDX 9 24 10 25 11 26 12 27 13 28 14 29 15 31 16 32 17 33 78 34
REMARK SMILES IDX 18 35 77 36 19 37 20 38 21 39 71 40 22 41 76 42 70 43 72 44
REMARK SMILES IDX 23 45 75 46 69 47 68 48 24 50 56 51 36 52 55 53 37 54 40 55
REMARK SMILES IDX 54 56 73 57 38 58 39 59 53 61 74 62 41 63 25 64 26 65 34 66
REMARK SMILES IDX 27 67 33 68 35 69 32 70 28 71 29 72 30 73 31 74 57 75 58 76
REMARK SMILES IDX 66 77 59 78 65 79 67 80 64 81 60 82 61 83 62 84 63 85 42 86
REMARK SMILES IDX 43 87 51 88 44 89 50 90 52 91 49 92 45 93 46 94 47 95 48 96
REMARK H PARENT 6 6 13 30 72 49 40 60
REMARK Flexibility Score: inf
ROOT
ATOM      1  C   UNL A   1      36.035  30.757  27.621  1.00  0.00     0.021 C 
ENDROOT
BRANCH   1   2
ATOM      2  C   UNL A   1      35.470  29.357  27.812  1.00  0.00     0.116 C 
BRANCH   2   3
ATOM      3  N   UNL A   1      34.026  29.336  27.822  1.00  0.00    -0.356 N 
ATOM      4  C   UNL A   1      33.191  28.785  26.896  1.00  0.00     0.225 C 
ATOM      5  O   UNL A   1      31.983  28.835  27.115  1.00  0.00    -0.275 OA
ATOM      6  H   UNL A   1      33.592  29.773  28.590  1.00  0.00     0.163 HD
BRANCH   4   7
ATOM      7  C   UNL A   1      33.799  28.171  25.636  1.00  0.00     0.102 C 
ATOM      8  C   UNL A   1      33.605  28.109  23.123  1.00  0.00     0.032 C 
ATOM      9  C   UNL A   1      32.834  28.208  24.443  1.00  0.00     0.094 C 
ATOM     10  N   UNL A   1      31.975  27.056  24.671  1.00  0.00    -0.339 N 
ATOM     11  C   UNL A   1      34.035  26.666  25.788  1.00  0.00     0.037 C 
ATOM     12  C   UNL A   1      32.680  26.051  25.451  1.00  0.00     0.120 C 
BRANCH  10  13
ATOM     13  C   UNL A   1      30.600  26.987  24.550  1.00  0.00     0.222 C 
ATOM     14  O   UNL A   1      29.957  26.107  25.134  1.00  0.00    -0.275 OA
BRANCH  13  15
ATOM     15  C   UNL A   1      29.872  27.918  23.585  1.00  0.00     0.100 C 
BRANCH  15  16
ATOM     16  C   UNL A   1      28.402  27.657  23.217  1.00  0.00     0.010 C 
BRANCH  16  17
ATOM     17  C   UNL A   1      27.291  28.709  23.423  1.00  0.00     0.004 C 
BRANCH  17  18
ATOM     18  C   UNL A   1      27.334  30.113  22.747  1.00  0.00    -0.011 C 
ATOM     19  C   UNL A   1      27.841  31.166  23.764  1.00  0.00     0.003 C 
ATOM     20  C   UNL A   1      28.099  30.188  21.428  1.00  0.00     0.003 C 
ATOM     21  C   UNL A   1      28.098  32.555  23.179  1.00  0.00     0.000 C 
ATOM     22  C   UNL A   1      28.225  31.596  20.864  1.00  0.00     0.000 C 
ATOM     23  C   UNL A   1      28.886  32.519  21.876  1.00  0.00     0.000 C 
ENDBRANCH  17  18
ENDBRANCH  16  17
ENDBRANCH  15  16
ENDBRANCH  13  15
ENDBRANCH  10  13
ENDBRANCH   4   7
ENDBRANCH   2   3
ENDBRANCH   1   2
BRANCH   1  24
ATOM     24  C   UNL A   1      35.133  31.894  28.110  1.00  0.00     0.002 C 
BRANCH  24  25
ATOM     25  C   UNL A   1      35.735  33.302  28.063  1.00  0.00     0.002 C 
BRANCH  25  26
ATOM     26  C   UNL A   1      34.759  34.459  28.282  1.00  0.00     0.021 C 
BRANCH  26  27
ATOM     27  C   UNL A   1      33.410  34.073  28.874  1.00  0.00     0.116 C 
BRANCH  27  28
ATOM     28  N   UNL A   1      32.994  34.971  29.933  1.00  0.00    -0.352 N 
ATOM     29  C   UNL A   1      33.479  35.089  31.212  1.00  0.00     0.251 C 
ATOM     30  H   UNL A   1      32.258  35.582  29.703  1.00  0.00     0.163 HD
ATOM     31  O   UNL A   1      32.879  35.788  32.021  1.00  0.00    -0.269 OA
BRANCH  29  32
ATOM     32  C   UNL A   1      34.699  34.354  31.615  1.00  0.00     0.039 A 
ATOM     33  C   UNL A   1      34.565  33.044  32.080  1.00  0.00     0.014 A 
ATOM     34  C   UNL A   1      35.964  34.949  31.556  1.00  0.00     0.014 A 
ATOM     35  C   UNL A   1      35.700  32.319  32.446  1.00  0.00     0.010 A 
ATOM     36  C   UNL A   1      37.102  34.196  31.843  1.00  0.00     0.010 A 
ATOM     37  C   UNL A   1      36.981  32.878  32.305  1.00  0.00    -0.014 A 
BRANCH  37  38
ATOM     38  C   UNL A   1      38.193  32.095  32.664  1.00  0.00     0.031 A 
ATOM     39  C   UNL A   1      38.919  32.371  33.954  1.00  0.00     0.074 A 
ATOM     40  C   UNL A   1      38.652  31.152  31.818  1.00  0.00     0.049 A 
ATOM     41  N   UNL A   1      39.997  31.806  34.434  1.00  0.00    -0.248 NA
ATOM     42  C   UNL A   1      38.375  33.443  34.803  1.00  0.00     0.031 C 
ATOM     43  C   UNL A   1      38.055  30.821  30.521  1.00  0.00     0.029 A 
ATOM     44  N   UNL A   1      39.720  30.296  31.917  1.00  0.00    -0.354 N 
ATOM     45  C   UNL A   1      40.262  32.454  35.637  1.00  0.00     0.074 A 
ATOM     46  C   UNL A   1      39.273  33.501  35.774  1.00  0.00     0.031 C 
ATOM     47  C   UNL A   1      38.742  29.810  29.966  1.00  0.00     0.029 A 
ATOM     48  C   UNL A   1      39.854  29.451  30.839  1.00  0.00     0.049 A 
ATOM     49  H   UNL A   1      40.332  30.287  32.688  1.00  0.00     0.167 HD
ATOM     50  C   UNL A   1      41.223  32.182  36.555  1.00  0.00     0.034 A 
ATOM     51  C   UNL A   1      40.774  28.500  30.580  1.00  0.00     0.034 A 
ATOM     52  C   UNL A   1      42.197  31.128  36.405  1.00  0.00     0.049 A 
ATOM     53  C   UNL A   1      41.856  28.241  31.599  1.00  0.00     0.074 A 
ATOM     54  C   UNL A   1      43.183  30.732  37.292  1.00  0.00     0.029 A 
ATOM     55  N   UNL A   1      42.316  30.306  35.290  1.00  0.00    -0.354 N 
ATOM     56  N   UNL A   1      42.058  28.826  32.758  1.00  0.00    -0.248 NA
ATOM     57  C   UNL A   1      42.825  27.185  31.281  1.00  0.00     0.031 C 
ATOM     58  C   UNL A   1      43.944  29.729  36.685  1.00  0.00     0.029 A 
ATOM     59  C   UNL A   1      43.382  29.433  35.454  1.00  0.00     0.049 A 
ATOM     60  H   UNL A   1      41.731  30.338  34.501  1.00  0.00     0.167 HD
ATOM     61  C   UNL A   1      43.161  28.186  33.319  1.00  0.00     0.074 A 
ATOM     62  C   UNL A   1      43.564  27.158  32.380  1.00  0.00     0.031 C 
ATOM     63  C   UNL A   1      43.784  28.423  34.501  1.00  0.00     0.034 A 
BRANCH  50  64
ATOM     64  C   UNL A   1      41.279  33.056  37.786  1.00  0.00     0.023 A 
ATOM     65  C   UNL A   1      40.602  32.711  38.970  1.00  0.00     0.031 A 
ATOM     66  C   UNL A   1      42.000  34.263  37.773  1.00  0.00     0.131 A 
ATOM     67  C   UNL A   1      40.595  33.596  40.058  1.00  0.00     0.055 A 
ATOM     68  C   UNL A   1      42.062  35.099  38.891  1.00  0.00     0.041 A 
ATOM     69  F   UNL A   1      42.649  34.660  36.666  1.00  0.00    -0.206 F 
ATOM     70  C   UNL A   1      41.343  34.775  40.038  1.00  0.00     0.022 A 
BRANCH  67  71
ATOM     71  S   UNL A   1      39.473  33.257  41.443  1.00  0.00     0.124 S 
ATOM     72  O   UNL A   1      40.227  33.796  42.572  1.00  0.00    -0.237 OA
ATOM     73  O   UNL A   1      38.274  33.996  41.065  1.00  0.00    -0.237 OA
ATOM     74  O   UNL A   1      39.341  31.801  41.429  1.00  0.00    -0.744 OA
ENDBRANCH  67  71
ENDBRANCH  50  64
BRANCH  51  75
ATOM     75  C   UNL A   1      40.727  27.726  29.306  1.00  0.00     0.023 A 
ATOM     76  C   UNL A   1      41.622  27.996  28.259  1.00  0.00     0.031 A 
ATOM     77  C   UNL A   1      39.748  26.737  29.095  1.00  0.00     0.131 A 
ATOM     78  C   UNL A   1      41.490  27.326  27.033  1.00  0.00     0.055 A 
ATOM     79  C   UNL A   1      39.660  26.030  27.895  1.00  0.00     0.041 A 
ATOM     80  F   UNL A   1      38.867  26.436  30.062  1.00  0.00    -0.206 F 
ATOM     81  C   UNL A   1      40.525  26.334  26.849  1.00  0.00     0.022 A 
BRANCH  78  82
ATOM     82  S   UNL A   1      42.537  27.842  25.644  1.00  0.00     0.124 S 
ATOM     83  O   UNL A   1      41.964  29.140  25.308  1.00  0.00    -0.237 OA
ATOM     84  O   UNL A   1      43.862  27.862  26.256  1.00  0.00    -0.237 OA
ATOM     85  O   UNL A   1      42.327  26.790  24.652  1.00  0.00    -0.744 OA
ENDBRANCH  78  82
ENDBRANCH  51  75
BRANCH  63  86
ATOM     86  C   UNL A   1      44.945  27.525  34.857  1.00  0.00     0.023 A 
ATOM     87  C   UNL A   1      44.753  26.280  35.481  1.00  0.00     0.031 A 
ATOM     88  C   UNL A   1      46.264  27.930  34.584  1.00  0.00     0.131 A 
ATOM     89  C   UNL A   1      45.863  25.514  35.868  1.00  0.00     0.055 A 
ATOM     90  C   UNL A   1      47.361  27.132  34.909  1.00  0.00     0.041 A 
ATOM     91  F   UNL A   1      46.509  29.111  33.993  1.00  0.00    -0.206 F 
ATOM     92  C   UNL A   1      47.165  25.922  35.569  1.00  0.00     0.022 A 
BRANCH  89  93
ATOM     93  S   UNL A   1      45.584  24.024  36.864  1.00  0.00     0.124 S 
ATOM     94  O   UNL A   1      44.673  23.260  36.018  1.00  0.00    -0.237 OA
ATOM     95  O   UNL A   1      46.932  23.482  37.000  1.00  0.00    -0.237 OA
ATOM     96  O   UNL A   1      44.997  24.541  38.099  1.00  0.00    -0.744 OA
ENDBRANCH  89  93
ENDBRANCH  63  86
ENDBRANCH  37  38
ENDBRANCH  29  32
ENDBRANCH  27  28
ENDBRANCH  26  27
ENDBRANCH  25  26
ENDBRANCH  24  25
ENDBRANCH   1  24
TORSDOF 21
ENDMDL
MODEL 3
REMARK VINA RESULT:     -11.1      2.185      8.280
REMARK SMILES C[C@@H]1[C@@H](C(=O)NCCCCCCNC(=O)c2ccc(-c3c4nc(c(-c5cc(S(=O)(=O)[O-])ccc5F)c5ccc([nH]5)c(-c5cc(S(=O)(=O)[O-])ccc5F)c5nc(c(-c6cc(S(=O)(=O)[O-])ccc6F)c6ccc3[nH]6)C=C5)C=C4)cc2)CCN1C(=O)CCCC1CCCCC1
REMARK SMILES IDX 8 1 7 2 6 3 4 4 5 5 3 7 1 8 2 9 81 10 79 11 80 12 82 13
REMARK SMILES IDX 83 14 84 15 85 16 86 17 87 18 88 19 92 20 89 21 91 22 90 23
REMARK SMILES IDX 9 24 10 25 11 26 12 27 13 28 14 29 15 31 16 32 17 33 78 34
REMARK SMILES IDX 18 35 77 36 19 37 20 38 21 39 71 40 22 41 76 42 70 43 72 44
REMARK SMILES IDX 23 45 75 46 69 47 68 48 24 50 56 51 36 52 55 53 37 54 40 55
REMARK SMILES IDX 54 56 73 57 38 58 39 59 53 61 74 62 41 63 25 64 26 65 34 66
REMARK SMILES IDX 27 67 33 68 35 69 32 70 28 71 29 72 30 73 31 74 57 75 58 76
REMARK SMILES IDX 66 77 59 78 65 79 67 80 64 81 60 82 61 83 62 84 63 85 42 86
REMARK SMILES IDX 43 87 51 88 44 89 50 90 52 91 49 92 45 93 46 94 47 95 48 96
REMARK H PARENT 6 6 13 30 72 49 40 60
REMARK Flexibility Score: inf
ROOT
ATOM      1  C   UNL A   1      34.894  29.036  27.206  1.00  0.00     0.021 C 
ENDROOT
BRANCH   1   2
ATOM      2  C   UNL A   1      34.131  27.984  26.416  1.00  0.00     0.116 C 
BRANCH   2   3
ATOM      3  N   UNL A   1      34.000  28.323  25.018  1.00  0.00    -0.356 N 
ATOM      4  C   UNL A   1      32.854  28.420  24.285  1.00  0.00     0.225 C 
ATOM      5  O   UNL A   1      32.956  28.769  23.111  1.00  0.00    -0.275 OA
ATOM      6  H   UNL A   1      34.839  28.504  24.536  1.00  0.00     0.163 HD
BRANCH   4   7
ATOM      7  C   UNL A   1      31.527  28.064  24.951  1.00  0.00     0.102 C 
ATOM      8  C   UNL A   1      30.298  26.215  26.146  1.00  0.00     0.032 C 
ATOM      9  C   UNL A   1      31.306  26.547  25.042  1.00  0.00     0.094 C 
ATOM     10  N   UNL A   1      30.813  26.200  23.717  1.00  0.00    -0.339 N 
ATOM     11  C   UNL A   1      30.326  28.494  24.102  1.00  0.00     0.037 C 
ATOM     12  C   UNL A   1      30.154  27.347  23.111  1.00  0.00     0.120 C 
BRANCH  10  13
ATOM     13  C   UNL A   1      31.187  25.130  22.928  1.00  0.00     0.222 C 
ATOM     14  O   UNL A   1      30.720  24.003  23.127  1.00  0.00    -0.275 OA
BRANCH  13  15
ATOM     15  C   UNL A   1      32.286  25.301  21.882  1.00  0.00     0.100 C 
BRANCH  15  16
ATOM     16  C   UNL A   1      33.749  25.481  22.317  1.00  0.00     0.010 C 
BRANCH  16  17
ATOM     17  C   UNL A   1      34.329  24.822  23.586  1.00  0.00     0.004 C 
BRANCH  17  18
ATOM     18  C   UNL A   1      34.785  23.331  23.619  1.00  0.00    -0.011 C 
ATOM     19  C   UNL A   1      36.286  23.253  23.994  1.00  0.00     0.003 C 
ATOM     20  C   UNL A   1      33.938  22.400  24.483  1.00  0.00     0.003 C 
ATOM     21  C   UNL A   1      36.817  21.840  24.233  1.00  0.00     0.000 C 
ATOM     22  C   UNL A   1      34.486  20.984  24.590  1.00  0.00     0.000 C 
ATOM     23  C   UNL A   1      35.910  21.002  25.125  1.00  0.00     0.000 C 
ENDBRANCH  17  18
ENDBRANCH  16  17
ENDBRANCH  15  16
ENDBRANCH  13  15
ENDBRANCH  10  13
ENDBRANCH   4   7
ENDBRANCH   2   3
ENDBRANCH   1   2
BRANCH   1  24
ATOM     24  C   UNL A   1      34.285  30.442  27.171  1.00  0.00     0.002 C 
BRANCH  24  25
ATOM     25  C   UNL A   1      32.784  30.535  27.466  1.00  0.00     0.002 C 
BRANCH  25  26
ATOM     26  C   UNL A   1      32.104  31.851  27.085  1.00  0.00     0.021 C 
BRANCH  26  27
ATOM     27  C   UNL A   1      33.039  33.038  26.892  1.00  0.00     0.116 C 
BRANCH  27  28
ATOM     28  N   UNL A   1      32.675  34.169  27.723  1.00  0.00    -0.352 N 
ATOM     29  C   UNL A   1      33.192  34.560  28.933  1.00  0.00     0.251 C 
ATOM     30  H   UNL A   1      31.952  34.736  27.370  1.00  0.00     0.163 HD
ATOM     31  O   UNL A   1      32.633  35.447  29.568  1.00  0.00    -0.269 OA
BRANCH  29  32
ATOM     32  C   UNL A   1      34.399  33.896  29.475  1.00  0.00     0.039 A 
ATOM     33  C   UNL A   1      34.231  32.826  30.357  1.00  0.00     0.014 A 
ATOM     34  C   UNL A   1      35.686  34.328  29.138  1.00  0.00     0.014 A 
ATOM     35  C   UNL A   1      35.350  32.166  30.867  1.00  0.00     0.010 A 
ATOM     36  C   UNL A   1      36.799  33.616  29.583  1.00  0.00     0.010 A 
ATOM     37  C   UNL A   1      36.644  32.536  30.464  1.00  0.00    -0.014 A 
BRANCH  37  38
ATOM     38  C   UNL A   1      37.835  31.813  30.981  1.00  0.00     0.031 A 
ATOM     39  C   UNL A   1      38.389  32.141  32.342  1.00  0.00     0.074 A 
ATOM     40  C   UNL A   1      38.431  30.878  30.215  1.00  0.00     0.049 A 
ATOM     41  N   UNL A   1      39.424  31.632  32.959  1.00  0.00    -0.248 NA
ATOM     42  C   UNL A   1      37.703  33.202  33.097  1.00  0.00     0.031 C 
ATOM     43  C   UNL A   1      38.009  30.501  28.864  1.00  0.00     0.029 A 
ATOM     44  N   UNL A   1      39.514  30.071  30.459  1.00  0.00    -0.354 N 
ATOM     45  C   UNL A   1      39.516  32.310  34.171  1.00  0.00     0.074 A 
ATOM     46  C   UNL A   1      38.474  33.314  34.167  1.00  0.00     0.031 C 
ATOM     47  C   UNL A   1      38.798  29.511  28.416  1.00  0.00     0.029 A 
ATOM     48  C   UNL A   1      39.812  29.216  29.423  1.00  0.00     0.049 A 
ATOM     49  H   UNL A   1      40.028  30.101  31.297  1.00  0.00     0.167 HD
ATOM     50  C   UNL A   1      40.370  32.094  35.203  1.00  0.00     0.034 A 
ATOM     51  C   UNL A   1      40.795  28.301  29.296  1.00  0.00     0.034 A 
ATOM     52  C   UNL A   1      41.397  31.081  35.192  1.00  0.00     0.049 A 
ATOM     53  C   UNL A   1      41.756  28.106  30.442  1.00  0.00     0.074 A 
ATOM     54  C   UNL A   1      42.285  30.743  36.199  1.00  0.00     0.029 A 
ATOM     55  N   UNL A   1      41.684  30.248  34.117  1.00  0.00    -0.354 N 
ATOM     56  N   UNL A   1      41.793  28.717  31.604  1.00  0.00    -0.248 NA
ATOM     57  C   UNL A   1      42.799  27.089  30.264  1.00  0.00     0.031 C 
ATOM     58  C   UNL A   1      43.154  29.764  35.708  1.00  0.00     0.029 A 
ATOM     59  C   UNL A   1      42.757  29.425  34.424  1.00  0.00     0.049 A 
ATOM     60  H   UNL A   1      41.196  30.242  33.263  1.00  0.00     0.167 HD
ATOM     61  C   UNL A   1      42.846  28.135  32.305  1.00  0.00     0.074 A 
ATOM     62  C   UNL A   1      43.401  27.112  31.443  1.00  0.00     0.031 C 
ATOM     63  C   UNL A   1      43.312  28.419  33.548  1.00  0.00     0.034 A 
BRANCH  50  64
ATOM     64  C   UNL A   1      40.241  32.990  36.413  1.00  0.00     0.023 A 
ATOM     65  C   UNL A   1      39.467  32.619  37.528  1.00  0.00     0.031 A 
ATOM     66  C   UNL A   1      40.882  34.241  36.447  1.00  0.00     0.131 A 
ATOM     67  C   UNL A   1      39.291  33.519  38.590  1.00  0.00     0.055 A 
ATOM     68  C   UNL A   1      40.773  35.096  37.546  1.00  0.00     0.041 A 
ATOM     69  F   UNL A   1      41.616  34.662  35.405  1.00  0.00    -0.206 F 
ATOM     70  C   UNL A   1      39.961  34.744  38.620  1.00  0.00     0.022 A 
BRANCH  67  71
ATOM     71  S   UNL A   1      38.054  33.129  39.858  1.00  0.00     0.124 S 
ATOM     72  O   UNL A   1      36.871  32.860  39.044  1.00  0.00    -0.237 OA
ATOM     73  O   UNL A   1      38.643  31.976  40.530  1.00  0.00    -0.237 OA
ATOM     74  O   UNL A   1      37.985  34.351  40.658  1.00  0.00    -0.744 OA
ENDBRANCH  67  71
ENDBRANCH  50  64
BRANCH  51  75
ATOM     75  C   UNL A   1      40.933  27.506  28.041  1.00  0.00     0.023 A 
ATOM     76  C   UNL A   1      40.563  26.153  27.995  1.00  0.00     0.031 A 
ATOM     77  C   UNL A   1      41.488  28.076  26.880  1.00  0.00     0.131 A 
ATOM     78  C   UNL A   1      40.799  25.400  26.834  1.00  0.00     0.055 A 
ATOM     79  C   UNL A   1      41.665  27.338  25.709  1.00  0.00     0.041 A 
ATOM     80  F   UNL A   1      41.859  29.366  26.867  1.00  0.00    -0.206 F 
ATOM     81  C   UNL A   1      41.334  25.987  25.686  1.00  0.00     0.022 A 
BRANCH  78  82
ATOM     82  S   UNL A   1      40.490  23.614  26.880  1.00  0.00     0.124 S 
ATOM     83  O   UNL A   1      41.524  23.111  25.982  1.00  0.00    -0.237 OA
ATOM     84  O   UNL A   1      40.667  23.312  28.297  1.00  0.00    -0.237 OA
ATOM     85  O   UNL A   1      39.120  23.493  26.386  1.00  0.00    -0.744 OA
ENDBRANCH  78  82
ENDBRANCH  51  75
BRANCH  63  86
ATOM     86  C   UNL A   1      44.458  27.578  34.059  1.00  0.00     0.023 A 
ATOM     87  C   UNL A   1      44.241  26.410  34.811  1.00  0.00     0.031 A 
ATOM     88  C   UNL A   1      45.787  27.962  33.804  1.00  0.00     0.131 A 
ATOM     89  C   UNL A   1      45.334  25.703  35.335  1.00  0.00     0.055 A 
ATOM     90  C   UNL A   1      46.870  27.216  34.270  1.00  0.00     0.041 A 
ATOM     91  F   UNL A   1      46.055  29.069  33.095  1.00  0.00    -0.206 F 
ATOM     92  C   UNL A   1      46.648  26.087  35.053  1.00  0.00     0.022 A 
BRANCH  89  93
ATOM     93  S   UNL A   1      45.014  24.334  36.480  1.00  0.00     0.124 S 
ATOM     94  O   UNL A   1      44.365  23.357  35.611  1.00  0.00    -0.237 OA
ATOM     95  O   UNL A   1      46.356  23.986  36.936  1.00  0.00    -0.237 OA
ATOM     96  O   UNL A   1      44.150  24.931  37.497  1.00  0.00    -0.744 OA
ENDBRANCH  89  93
ENDBRANCH  63  86
ENDBRANCH  37  38
ENDBRANCH  29  32
ENDBRANCH  27  28
ENDBRANCH  26  27
ENDBRANCH  25  26
ENDBRANCH  24  25
ENDBRANCH   1  24
TORSDOF 21
ENDMDL
