MODEL 1
REMARK VINA RESULT:     -12.1      0.000      0.000
REMARK SMILES O=C(NCCCCCCNC(=O)c1ccc(-c2c(F)cccc2F)cn1)c1ccc(-c2c3nc(c(-c4cc(S(=O)(=O)[O-])ccc4F)c4ccc([nH]4)c(-c4cc(S(=O)(=O)[O-])ccc4F)c4nc(c(-c5cc(S(=O)(=O)[O-])ccc5F)c5ccc2[nH]5)C=C4)C=C3)cc1
REMARK SMILES IDX 5 1 4 2 3 3 1 4 2 5 27 7 28 8 89 9 29 10 88 11 30 12 31 13
REMARK SMILES IDX 32 14 82 15 33 16 87 17 81 18 83 19 34 20 86 21 80 22 79 23
REMARK SMILES IDX 35 25 67 26 47 27 66 28 48 29 51 30 65 31 84 32 49 33 50 34
REMARK SMILES IDX 64 36 85 37 52 38 36 39 37 40 45 41 38 42 44 43 46 44 43 45
REMARK SMILES IDX 39 46 40 47 41 48 42 49 68 50 69 51 77 52 70 53 76 54 78 55
REMARK SMILES IDX 75 56 71 57 72 58 73 59 74 60 53 61 54 62 62 63 55 64 61 65
REMARK SMILES IDX 63 66 60 67 56 68 57 69 58 70 59 71 6 72 7 73 8 74 9 75
REMARK SMILES IDX 10 76 11 77 12 79 13 80 14 81 26 82 15 83 25 84 16 85 17 86
REMARK SMILES IDX 18 87 23 88 19 89 20 90 22 91 24 92 21 93
REMARK H PARENT 3 6 83 24 51 35 10 78
REMARK Flexibility Score: inf
ROOT
ATOM      1  C   UNL A   1      31.705  31.550  26.581  1.00  0.00     0.021 C 
ENDROOT
BRANCH   1   2
ATOM      2  C   UNL A   1      32.898  32.244  27.223  1.00  0.00     0.116 C 
BRANCH   2   3
ATOM      3  N   UNL A   1      32.611  33.627  27.566  1.00  0.00    -0.352 N 
ATOM      4  O   UNL A   1      32.693  35.492  28.832  1.00  0.00    -0.269 OA
ATOM      5  C   UNL A   1      33.177  34.398  28.550  1.00  0.00     0.251 C 
ATOM      6  H   UNL A   1      31.919  34.068  27.022  1.00  0.00     0.163 HD
BRANCH   5   7
ATOM      7  C   UNL A   1      34.368  33.901  29.272  1.00  0.00     0.039 A 
ATOM      8  C   UNL A   1      34.227  32.992  30.326  1.00  0.00     0.014 A 
ATOM      9  C   UNL A   1      35.638  34.327  28.875  1.00  0.00     0.014 A 
ATOM     10  C   UNL A   1      35.345  32.585  31.044  1.00  0.00     0.010 A 
ATOM     11  C   UNL A   1      36.768  33.853  29.547  1.00  0.00     0.010 A 
ATOM     12  C   UNL A   1      36.629  32.981  30.638  1.00  0.00    -0.014 A 
BRANCH  12  13
ATOM     13  C   UNL A   1      37.816  32.355  31.273  1.00  0.00     0.031 A 
ATOM     14  C   UNL A   1      38.564  31.236  30.605  1.00  0.00     0.074 A 
ATOM     15  C   UNL A   1      38.197  32.811  32.484  1.00  0.00     0.049 A 
ATOM     16  N   UNL A   1      39.590  30.558  31.050  1.00  0.00    -0.248 NA
ATOM     17  C   UNL A   1      38.100  30.820  29.273  1.00  0.00     0.031 C 
ATOM     18  C   UNL A   1      37.529  33.890  33.220  1.00  0.00     0.029 A 
ATOM     19  N   UNL A   1      39.222  32.435  33.312  1.00  0.00    -0.354 N 
ATOM     20  C   UNL A   1      39.886  29.621  30.066  1.00  0.00     0.074 A 
ATOM     21  C   UNL A   1      38.920  29.812  29.004  1.00  0.00     0.031 C 
ATOM     22  C   UNL A   1      38.172  34.101  34.377  1.00  0.00     0.029 A 
ATOM     23  C   UNL A   1      39.244  33.123  34.505  1.00  0.00     0.049 A 
ATOM     24  H   UNL A   1      39.879  31.742  33.076  1.00  0.00     0.167 HD
ATOM     25  C   UNL A   1      40.872  28.691  30.063  1.00  0.00     0.034 A 
ATOM     26  C   UNL A   1      40.006  32.953  35.602  1.00  0.00     0.034 A 
ATOM     27  C   UNL A   1      41.826  28.530  31.134  1.00  0.00     0.049 A 
ATOM     28  C   UNL A   1      41.052  31.871  35.586  1.00  0.00     0.074 A 
ATOM     29  C   UNL A   1      42.917  27.677  31.192  1.00  0.00     0.029 A 
ATOM     30  N   UNL A   1      41.792  29.211  32.344  1.00  0.00    -0.354 N 
ATOM     31  N   UNL A   1      41.364  31.042  34.616  1.00  0.00    -0.248 NA
ATOM     32  C   UNL A   1      41.846  31.696  36.808  1.00  0.00     0.031 C 
ATOM     33  C   UNL A   1      43.487  27.781  32.464  1.00  0.00     0.029 A 
ATOM     34  C   UNL A   1      42.805  28.755  33.175  1.00  0.00     0.049 A 
ATOM     35  H   UNL A   1      41.144  29.914  32.578  1.00  0.00     0.167 HD
ATOM     36  C   UNL A   1      42.398  30.255  35.111  1.00  0.00     0.074 A 
ATOM     37  C   UNL A   1      42.679  30.731  36.449  1.00  0.00     0.031 C 
ATOM     38  C   UNL A   1      43.055  29.227  34.516  1.00  0.00     0.034 A 
BRANCH  25  39
ATOM     39  C   UNL A   1      40.951  27.736  28.898  1.00  0.00     0.023 A 
ATOM     40  C   UNL A   1      41.909  27.872  27.880  1.00  0.00     0.031 A 
ATOM     41  C   UNL A   1      40.076  26.634  28.839  1.00  0.00     0.131 A 
ATOM     42  C   UNL A   1      41.951  26.940  26.830  1.00  0.00     0.055 A 
ATOM     43  C   UNL A   1      40.163  25.678  27.825  1.00  0.00     0.041 A 
ATOM     44  F   UNL A   1      39.129  26.464  29.775  1.00  0.00    -0.206 F 
ATOM     45  C   UNL A   1      41.101  25.831  26.809  1.00  0.00     0.022 A 
BRANCH  42  46
ATOM     46  S   UNL A   1      43.081  27.239  25.444  1.00  0.00     0.124 S 
ATOM     47  O   UNL A   1      42.326  28.199  24.644  1.00  0.00    -0.237 OA
ATOM     48  O   UNL A   1      44.270  27.759  26.110  1.00  0.00    -0.237 OA
ATOM     49  O   UNL A   1      43.237  25.919  24.836  1.00  0.00    -0.744 OA
ENDBRANCH  42  46
ENDBRANCH  25  39
BRANCH  26  50
ATOM     50  C   UNL A   1      39.764  33.768  36.827  1.00  0.00     0.023 A 
ATOM     51  C   UNL A   1      40.557  34.885  37.125  1.00  0.00     0.031 A 
ATOM     52  C   UNL A   1      38.771  33.400  37.755  1.00  0.00     0.131 A 
ATOM     53  C   UNL A   1      40.386  35.558  38.344  1.00  0.00     0.055 A 
ATOM     54  C   UNL A   1      38.558  34.116  38.933  1.00  0.00     0.041 A 
ATOM     55  F   UNL A   1      37.984  32.337  37.524  1.00  0.00    -0.206 F 
ATOM     56  C   UNL A   1      39.381  35.191  39.243  1.00  0.00     0.022 A 
BRANCH  53  57
ATOM     57  S   UNL A   1      41.583  36.842  38.797  1.00  0.00     0.124 S 
ATOM     58  O   UNL A   1      42.317  36.196  39.880  1.00  0.00    -0.237 OA
ATOM     59  O   UNL A   1      42.315  37.027  37.547  1.00  0.00    -0.237 OA
ATOM     60  O   UNL A   1      40.741  37.967  39.197  1.00  0.00    -0.744 OA
ENDBRANCH  53  57
ENDBRANCH  26  50
BRANCH  38  61
ATOM     61  C   UNL A   1      44.149  28.569  35.317  1.00  0.00     0.023 A 
ATOM     62  C   UNL A   1      43.876  27.498  36.185  1.00  0.00     0.031 A 
ATOM     63  C   UNL A   1      45.475  29.024  35.220  1.00  0.00     0.131 A 
ATOM     64  C   UNL A   1      44.906  26.950  36.963  1.00  0.00     0.055 A 
ATOM     65  C   UNL A   1      46.506  28.436  35.950  1.00  0.00     0.041 A 
ATOM     66  F   UNL A   1      45.788  30.048  34.409  1.00  0.00    -0.206 F 
ATOM     67  C   UNL A   1      46.224  27.400  36.837  1.00  0.00     0.022 A 
BRANCH  64  68
ATOM     68  S   UNL A   1      44.489  25.693  38.202  1.00  0.00     0.124 S 
ATOM     69  O   UNL A   1      43.575  24.831  37.460  1.00  0.00    -0.237 OA
ATOM     70  O   UNL A   1      45.792  25.119  38.518  1.00  0.00    -0.237 OA
ATOM     71  O   UNL A   1      43.875  26.466  39.280  1.00  0.00    -0.744 OA
ENDBRANCH  64  68
ENDBRANCH  38  61
ENDBRANCH  12  13
ENDBRANCH   5   7
ENDBRANCH   2   3
ENDBRANCH   1   2
BRANCH   1  72
ATOM     72  C   UNL A   1      31.735  30.023  26.656  1.00  0.00     0.002 C 
BRANCH  72  73
ATOM     73  C   UNL A   1      31.743  29.301  25.306  1.00  0.00     0.002 C 
BRANCH  73  74
ATOM     74  C   UNL A   1      31.678  27.771  25.375  1.00  0.00     0.021 C 
BRANCH  74  75
ATOM     75  C   UNL A   1      32.951  27.051  24.936  1.00  0.00     0.116 C 
BRANCH  75  76
ATOM     76  N   UNL A   1      33.189  27.184  23.509  1.00  0.00    -0.351 N 
ATOM     77  C   UNL A   1      33.419  26.192  22.581  1.00  0.00     0.269 C 
ATOM     78  H   UNL A   1      33.186  28.105  23.160  1.00  0.00     0.163 HD
ATOM     79  O   UNL A   1      33.706  26.492  21.425  1.00  0.00    -0.268 OA
BRANCH  77  80
ATOM     80  C   UNL A   1      33.279  24.769  22.992  1.00  0.00     0.128 A 
ATOM     81  C   UNL A   1      34.418  23.997  23.181  1.00  0.00     0.035 A 
ATOM     82  N   UNL A   1      32.017  24.299  23.132  1.00  0.00    -0.250 NA
ATOM     83  C   UNL A   1      34.253  22.650  23.495  1.00  0.00     0.013 A 
ATOM     84  C   UNL A   1      31.899  22.988  23.449  1.00  0.00     0.120 A 
ATOM     85  C   UNL A   1      32.968  22.107  23.637  1.00  0.00     0.006 A 
BRANCH  85  86
ATOM     86  C   UNL A   1      32.764  20.686  23.956  1.00  0.00     0.055 A 
ATOM     87  C   UNL A   1      32.983  20.181  25.246  1.00  0.00     0.134 A 
ATOM     88  C   UNL A   1      32.357  19.763  22.982  1.00  0.00     0.134 A 
ATOM     89  F   UNL A   1      33.358  21.004  26.238  1.00  0.00    -0.206 F 
ATOM     90  C   UNL A   1      32.812  18.829  25.552  1.00  0.00     0.040 A 
ATOM     91  C   UNL A   1      32.183  18.408  23.270  1.00  0.00     0.040 A 
ATOM     92  F   UNL A   1      32.131  20.168  21.723  1.00  0.00    -0.206 F 
ATOM     93  C   UNL A   1      32.412  17.938  24.561  1.00  0.00     0.006 A 
ENDBRANCH  85  86
ENDBRANCH  77  80
ENDBRANCH  75  76
ENDBRANCH  74  75
ENDBRANCH  73  74
ENDBRANCH  72  73
ENDBRANCH   1  72
TORSDOF 17
ENDMDL
MODEL 2
REMARK VINA RESULT:     -12.0      5.275     11.373
REMARK SMILES O=C(NCCCCCCNC(=O)c1ccc(-c2c(F)cccc2F)cn1)c1ccc(-c2c3nc(c(-c4cc(S(=O)(=O)[O-])ccc4F)c4ccc([nH]4)c(-c4cc(S(=O)(=O)[O-])ccc4F)c4nc(c(-c5cc(S(=O)(=O)[O-])ccc5F)c5ccc2[nH]5)C=C4)C=C3)cc1
REMARK SMILES IDX 5 1 4 2 3 3 1 4 2 5 27 7 28 8 89 9 29 10 88 11 30 12 31 13
REMARK SMILES IDX 32 14 82 15 33 16 87 17 81 18 83 19 34 20 86 21 80 22 79 23
REMARK SMILES IDX 35 25 67 26 47 27 66 28 48 29 51 30 65 31 84 32 49 33 50 34
REMARK SMILES IDX 64 36 85 37 52 38 36 39 37 40 45 41 38 42 44 43 46 44 43 45
REMARK SMILES IDX 39 46 40 47 41 48 42 49 68 50 69 51 77 52 70 53 76 54 78 55
REMARK SMILES IDX 75 56 71 57 72 58 73 59 74 60 53 61 54 62 62 63 55 64 61 65
REMARK SMILES IDX 63 66 60 67 56 68 57 69 58 70 59 71 6 72 7 73 8 74 9 75
REMARK SMILES IDX 10 76 11 77 12 79 13 80 14 81 26 82 15 83 25 84 16 85 17 86
REMARK SMILES IDX 18 87 23 88 19 89 20 90 22 91 24 92 21 93
REMARK H PARENT 3 6 83 24 51 35 10 78
REMARK Flexibility Score: inf
ROOT
ATOM      1  C   UNL A   1      35.327  32.928  29.277  1.00  0.00     0.021 C 
ENDROOT
BRANCH   1   2
ATOM      2  C   UNL A   1      35.152  32.498  27.827  1.00  0.00     0.116 C 
BRANCH   2   3
ATOM      3  N   UNL A   1      34.367  31.281  27.706  1.00  0.00    -0.352 N 
ATOM      4  O   UNL A   1      34.033  29.062  27.473  1.00  0.00    -0.269 OA
ATOM      5  C   UNL A   1      34.793  29.978  27.781  1.00  0.00     0.251 C 
ATOM      6  H   UNL A   1      33.403  31.407  27.551  1.00  0.00     0.163 HD
BRANCH   5   7
ATOM      7  C   UNL A   1      36.172  29.687  28.225  1.00  0.00     0.039 A 
ATOM      8  C   UNL A   1      36.409  29.165  29.502  1.00  0.00     0.014 A 
ATOM      9  C   UNL A   1      37.238  29.914  27.350  1.00  0.00     0.014 A 
ATOM     10  C   UNL A   1      37.713  28.962  29.937  1.00  0.00     0.010 A 
ATOM     11  C   UNL A   1      38.543  29.633  27.761  1.00  0.00     0.010 A 
ATOM     12  C   UNL A   1      38.790  29.156  29.058  1.00  0.00    -0.014 A 
BRANCH  12  13
ATOM     13  C   UNL A   1      40.148  28.717  29.466  1.00  0.00     0.031 A 
ATOM     14  C   UNL A   1      40.922  29.447  30.526  1.00  0.00     0.074 A 
ATOM     15  C   UNL A   1      40.678  27.646  28.841  1.00  0.00     0.049 A 
ATOM     16  N   UNL A   1      42.134  29.214  30.961  1.00  0.00    -0.248 NA
ATOM     17  C   UNL A   1      40.259  30.586  31.177  1.00  0.00     0.031 C 
ATOM     18  C   UNL A   1      40.007  26.873  27.790  1.00  0.00     0.029 A 
ATOM     19  N   UNL A   1      41.889  27.020  28.984  1.00  0.00    -0.354 N 
ATOM     20  C   UNL A   1      42.390  30.185  31.922  1.00  0.00     0.074 A 
ATOM     21  C   UNL A   1      41.208  31.020  31.997  1.00  0.00     0.031 C 
ATOM     22  C   UNL A   1      40.805  25.869  27.400  1.00  0.00     0.029 A 
ATOM     23  C   UNL A   1      42.073  25.973  28.110  1.00  0.00     0.049 A 
ATOM     24  H   UNL A   1      42.561  27.293  29.650  1.00  0.00     0.167 HD
ATOM     25  C   UNL A   1      43.512  30.357  32.662  1.00  0.00     0.034 A 
ATOM     26  C   UNL A   1      43.158  25.213  27.867  1.00  0.00     0.034 A 
ATOM     27  C   UNL A   1      44.672  29.503  32.571  1.00  0.00     0.049 A 
ATOM     28  C   UNL A   1      44.406  25.471  28.667  1.00  0.00     0.074 A 
ATOM     29  C   UNL A   1      45.826  29.537  33.338  1.00  0.00     0.029 A 
ATOM     30  N   UNL A   1      44.842  28.482  31.646  1.00  0.00    -0.354 N 
ATOM     31  N   UNL A   1      44.604  26.350  29.623  1.00  0.00    -0.248 NA
ATOM     32  C   UNL A   1      45.577  24.642  28.356  1.00  0.00     0.031 C 
ATOM     33  C   UNL A   1      46.723  28.598  32.820  1.00  0.00     0.029 A 
ATOM     34  C   UNL A   1      46.103  27.920  31.783  1.00  0.00     0.049 A 
ATOM     35  H   UNL A   1      44.167  28.198  30.988  1.00  0.00     0.167 HD
ATOM     36  C   UNL A   1      45.920  26.169  30.033  1.00  0.00     0.074 A 
ATOM     37  C   UNL A   1      46.456  25.078  29.247  1.00  0.00     0.031 C 
ATOM     38  C   UNL A   1      46.627  26.847  30.972  1.00  0.00     0.034 A 
BRANCH  25  39
ATOM     39  C   UNL A   1      43.575  31.535  33.603  1.00  0.00     0.023 A 
ATOM     40  C   UNL A   1      43.184  31.443  34.948  1.00  0.00     0.031 A 
ATOM     41  C   UNL A   1      44.089  32.764  33.147  1.00  0.00     0.131 A 
ATOM     42  C   UNL A   1      43.285  32.567  35.785  1.00  0.00     0.055 A 
ATOM     43  C   UNL A   1      44.244  33.860  33.999  1.00  0.00     0.041 A 
ATOM     44  F   UNL A   1      44.462  32.915  31.866  1.00  0.00    -0.206 F 
ATOM     45  C   UNL A   1      43.835  33.766  35.325  1.00  0.00     0.022 A 
BRANCH  42  46
ATOM     46  S   UNL A   1      42.612  32.466  37.466  1.00  0.00     0.124 S 
ATOM     47  O   UNL A   1      41.580  33.499  37.437  1.00  0.00    -0.237 OA
ATOM     48  O   UNL A   1      42.135  31.090  37.535  1.00  0.00    -0.237 OA
ATOM     49  O   UNL A   1      43.762  32.769  38.316  1.00  0.00    -0.744 OA
ENDBRANCH  42  46
ENDBRANCH  25  39
BRANCH  26  50
ATOM     50  C   UNL A   1      43.141  24.194  26.778  1.00  0.00     0.023 A 
ATOM     51  C   UNL A   1      42.466  22.976  26.933  1.00  0.00     0.031 A 
ATOM     52  C   UNL A   1      43.859  24.402  25.584  1.00  0.00     0.131 A 
ATOM     53  C   UNL A   1      42.571  21.988  25.941  1.00  0.00     0.055 A 
ATOM     54  C   UNL A   1      43.901  23.444  24.570  1.00  0.00     0.041 A 
ATOM     55  F   UNL A   1      44.527  25.549  25.382  1.00  0.00    -0.206 F 
ATOM     56  C   UNL A   1      43.270  22.220  24.754  1.00  0.00     0.022 A 
BRANCH  53  57
ATOM     57  S   UNL A   1      41.885  20.345  26.284  1.00  0.00     0.124 S 
ATOM     58  O   UNL A   1      42.494  19.543  25.229  1.00  0.00    -0.237 OA
ATOM     59  O   UNL A   1      42.366  20.094  27.639  1.00  0.00    -0.237 OA
ATOM     60  O   UNL A   1      40.443  20.546  26.162  1.00  0.00    -0.744 OA
ENDBRANCH  53  57
ENDBRANCH  26  50
BRANCH  38  61
ATOM     61  C   UNL A   1      48.050  26.405  31.199  1.00  0.00     0.023 A 
ATOM     62  C   UNL A   1      48.358  25.364  32.091  1.00  0.00     0.031 A 
ATOM     63  C   UNL A   1      49.108  27.039  30.527  1.00  0.00     0.131 A 
ATOM     64  C   UNL A   1      49.698  25.021  32.327  1.00  0.00     0.055 A 
ATOM     65  C   UNL A   1      50.434  26.653  30.719  1.00  0.00     0.041 A 
ATOM     66  F   UNL A   1      48.868  28.044  29.668  1.00  0.00    -0.206 F 
ATOM     67  C   UNL A   1      50.737  25.646  31.632  1.00  0.00     0.022 A 
BRANCH  64  68
ATOM     68  S   UNL A   1      50.070  23.798  33.613  1.00  0.00     0.124 S 
ATOM     69  O   UNL A   1      51.019  24.522  34.452  1.00  0.00    -0.237 OA
ATOM     70  O   UNL A   1      48.758  23.553  34.202  1.00  0.00    -0.237 OA
ATOM     71  O   UNL A   1      50.633  22.676  32.866  1.00  0.00    -0.744 OA
ENDBRANCH  64  68
ENDBRANCH  38  61
ENDBRANCH  12  13
ENDBRANCH   5   7
ENDBRANCH   2   3
ENDBRANCH   1   2
BRANCH   1  72
ATOM     72  C   UNL A   1      35.430  34.439  29.489  1.00  0.00     0.002 C 
BRANCH  72  73
ATOM     73  C   UNL A   1      34.825  35.300  28.376  1.00  0.00     0.002 C 
BRANCH  73  74
ATOM     74  C   UNL A   1      33.566  36.084  28.759  1.00  0.00     0.021 C 
BRANCH  74  75
ATOM     75  C   UNL A   1      32.692  35.424  29.823  1.00  0.00     0.116 C 
BRANCH  75  76
ATOM     76  N   UNL A   1      32.307  36.357  30.869  1.00  0.00    -0.351 N 
ATOM     77  C   UNL A   1      32.669  36.353  32.198  1.00  0.00     0.269 C 
ATOM     78  H   UNL A   1      31.709  37.088  30.590  1.00  0.00     0.163 HD
ATOM     79  O   UNL A   1      32.165  37.163  32.971  1.00  0.00    -0.268 OA
BRANCH  77  80
ATOM     80  C   UNL A   1      33.696  35.383  32.666  1.00  0.00     0.128 A 
ATOM     81  C   UNL A   1      35.014  35.795  32.802  1.00  0.00     0.035 A 
ATOM     82  N   UNL A   1      33.271  34.120  32.908  1.00  0.00    -0.250 NA
ATOM     83  C   UNL A   1      35.964  34.846  33.172  1.00  0.00     0.013 A 
ATOM     84  C   UNL A   1      34.222  33.230  33.278  1.00  0.00     0.120 A 
ATOM     85  C   UNL A   1      35.583  33.520  33.421  1.00  0.00     0.006 A 
BRANCH  85  86
ATOM     86  C   UNL A   1      36.565  32.494  33.801  1.00  0.00     0.055 A 
ATOM     87  C   UNL A   1      36.775  31.349  33.019  1.00  0.00     0.134 A 
ATOM     88  C   UNL A   1      37.329  32.601  34.972  1.00  0.00     0.134 A 
ATOM     89  F   UNL A   1      36.094  31.180  31.873  1.00  0.00    -0.206 F 
ATOM     90  C   UNL A   1      37.690  30.359  33.383  1.00  0.00     0.040 A 
ATOM     91  C   UNL A   1      38.247  31.620  35.352  1.00  0.00     0.040 A 
ATOM     92  F   UNL A   1      37.183  33.666  35.776  1.00  0.00    -0.206 F 
ATOM     93  C   UNL A   1      38.428  30.493  34.554  1.00  0.00     0.006 A 
ENDBRANCH  85  86
ENDBRANCH  77  80
ENDBRANCH  75  76
ENDBRANCH  74  75
ENDBRANCH  73  74
ENDBRANCH  72  73
ENDBRANCH   1  72
TORSDOF 17
ENDMDL
MODEL 3
REMARK VINA RESULT:     -11.8      2.740      4.356
REMARK SMILES O=C(NCCCCCCNC(=O)c1ccc(-c2c(F)cccc2F)cn1)c1ccc(-c2c3nc(c(-c4cc(S(=O)(=O)[O-])ccc4F)c4ccc([nH]4)c(-c4cc(S(=O)(=O)[O-])ccc4F)c4nc(c(-c5cc(S(=O)(=O)[O-])ccc5F)c5ccc2[nH]5)C=C4)C=C3)cc1
REMARK SMILES IDX 5 1 4 2 3 3 1 4 2 5 27 7 28 8 89 9 29 10 88 11 30 12 31 13
REMARK SMILES IDX 32 14 82 15 33 16 87 17 81 18 83 19 34 20 86 21 80 22 79 23
REMARK SMILES IDX 35 25 67 26 47 27 66 28 48 29 51 30 65 31 84 32 49 33 50 34
REMARK SMILES IDX 64 36 85 37 52 38 36 39 37 40 45 41 38 42 44 43 46 44 43 45
REMARK SMILES IDX 39 46 40 47 41 48 42 49 68 50 69 51 77 52 70 53 76 54 78 55
REMARK SMILES IDX 75 56 71 57 72 58 73 59 74 60 53 61 54 62 62 63 55 64 61 65
REMARK SMILES IDX 63 66 60 67 56 68 57 69 58 70 59 71 6 72 7 73 8 74 9 75
REMARK SMILES IDX 10 76 11 77 12 79 13 80 14 81 26 82 15 83 25 84 16 85 17 86
REMARK SMILES IDX 18 87 23 88 19 89 20 90 22 91 24 92 21 93
REMARK H PARENT 3 6 83 24 51 35 10 78
REMARK Flexibility Score: inf
ROOT
ATOM      1  C   UNL A   1      32.020  28.610  26.302  1.00  0.00     0.021 C 
ENDROOT
BRANCH   1   2
ATOM      2  C   UNL A   1      33.009  29.657  25.810  1.00  0.00     0.116 C 
BRANCH   2   3
ATOM      3  N   UNL A   1      32.633  31.001  26.215  1.00  0.00    -0.352 N 
ATOM      4  O   UNL A   1      32.651  32.836  27.527  1.00  0.00    -0.269 OA
ATOM      5  C   UNL A   1      33.204  31.795  27.179  1.00  0.00     0.251 C 
ATOM      6  H   UNL A   1      31.869  31.395  25.735  1.00  0.00     0.163 HD
BRANCH   5   7
ATOM      7  C   UNL A   1      34.482  31.383  27.798  1.00  0.00     0.039 A 
ATOM      8  C   UNL A   1      35.512  32.313  27.977  1.00  0.00     0.014 A 
ATOM      9  C   UNL A   1      34.644  30.063  28.227  1.00  0.00     0.014 A 
ATOM     10  C   UNL A   1      36.735  31.901  28.494  1.00  0.00     0.010 A 
ATOM     11  C   UNL A   1      35.845  29.670  28.821  1.00  0.00     0.010 A 
ATOM     12  C   UNL A   1      36.900  30.586  28.957  1.00  0.00    -0.014 A 
BRANCH  12  13
ATOM     13  C   UNL A   1      38.129  30.231  29.712  1.00  0.00     0.031 A 
ATOM     14  C   UNL A   1      39.130  29.255  29.164  1.00  0.00     0.074 A 
ATOM     15  C   UNL A   1      38.313  30.802  30.920  1.00  0.00     0.049 A 
ATOM     16  N   UNL A   1      40.226  28.809  29.720  1.00  0.00    -0.248 NA
ATOM     17  C   UNL A   1      38.866  28.702  27.827  1.00  0.00     0.031 C 
ATOM     18  C   UNL A   1      37.392  31.759  31.543  1.00  0.00     0.029 A 
ATOM     19  N   UNL A   1      39.319  30.669  31.840  1.00  0.00    -0.354 N 
ATOM     20  C   UNL A   1      40.777  27.909  28.815  1.00  0.00     0.074 A 
ATOM     21  C   UNL A   1      39.884  27.864  27.675  1.00  0.00     0.031 C 
ATOM     22  C   UNL A   1      37.885  32.138  32.730  1.00  0.00     0.029 A 
ATOM     23  C   UNL A   1      39.110  31.395  32.991  1.00  0.00     0.049 A 
ATOM     24  H   UNL A   1      40.115  30.108  31.692  1.00  0.00     0.167 HD
ATOM     25  C   UNL A   1      41.920  27.191  28.936  1.00  0.00     0.034 A 
ATOM     26  C   UNL A   1      39.798  31.423  34.149  1.00  0.00     0.034 A 
ATOM     27  C   UNL A   1      42.796  27.264  30.081  1.00  0.00     0.049 A 
ATOM     28  C   UNL A   1      41.030  30.567  34.270  1.00  0.00     0.074 A 
ATOM     29  C   UNL A   1      44.022  26.644  30.266  1.00  0.00     0.029 A 
ATOM     30  N   UNL A   1      42.532  27.973  31.245  1.00  0.00    -0.354 N 
ATOM     31  N   UNL A   1      41.574  29.776  33.373  1.00  0.00    -0.248 NA
ATOM     32  C   UNL A   1      41.739  30.601  35.555  1.00  0.00     0.031 C 
ATOM     33  C   UNL A   1      44.454  26.910  31.568  1.00  0.00     0.029 A 
ATOM     34  C   UNL A   1      43.542  27.759  32.172  1.00  0.00     0.049 A 
ATOM     35  H   UNL A   1      41.744  28.545  31.391  1.00  0.00     0.167 HD
ATOM     36  C   UNL A   1      42.695  29.228  33.986  1.00  0.00     0.074 A 
ATOM     37  C   UNL A   1      42.768  29.804  35.313  1.00  0.00     0.031 C 
ATOM     38  C   UNL A   1      43.584  28.325  33.499  1.00  0.00     0.034 A 
BRANCH  25  39
ATOM     39  C   UNL A   1      42.277  26.223  27.835  1.00  0.00     0.023 A 
ATOM     40  C   UNL A   1      41.786  24.908  27.805  1.00  0.00     0.031 A 
ATOM     41  C   UNL A   1      43.088  26.650  26.766  1.00  0.00     0.131 A 
ATOM     42  C   UNL A   1      42.133  24.055  26.743  1.00  0.00     0.055 A 
ATOM     43  C   UNL A   1      43.380  25.817  25.684  1.00  0.00     0.041 A 
ATOM     44  F   UNL A   1      43.601  27.891  26.752  1.00  0.00    -0.206 F 
ATOM     45  C   UNL A   1      42.906  24.509  25.672  1.00  0.00     0.022 A 
BRANCH  42  46
ATOM     46  S   UNL A   1      41.626  22.316  26.820  1.00  0.00     0.124 S 
ATOM     47  O   UNL A   1      40.172  22.432  26.895  1.00  0.00    -0.237 OA
ATOM     48  O   UNL A   1      42.159  21.776  25.574  1.00  0.00    -0.237 OA
ATOM     49  O   UNL A   1      42.268  21.823  28.037  1.00  0.00    -0.744 OA
ENDBRANCH  42  46
ENDBRANCH  25  39
BRANCH  26  50
ATOM     50  C   UNL A   1      39.303  32.224  35.305  1.00  0.00     0.023 A 
ATOM     51  C   UNL A   1      39.719  33.548  35.503  1.00  0.00     0.031 A 
ATOM     52  C   UNL A   1      38.453  31.651  36.270  1.00  0.00     0.131 A 
ATOM     53  C   UNL A   1      39.335  34.235  36.665  1.00  0.00     0.055 A 
ATOM     54  C   UNL A   1      38.015  32.362  37.387  1.00  0.00     0.041 A 
ATOM     55  F   UNL A   1      38.024  30.385  36.134  1.00  0.00    -0.206 F 
ATOM     56  C   UNL A   1      38.473  33.657  37.600  1.00  0.00     0.022 A 
BRANCH  53  57
ATOM     57  S   UNL A   1      40.084  35.852  36.999  1.00  0.00     0.124 S 
ATOM     58  O   UNL A   1      39.744  36.593  35.789  1.00  0.00    -0.237 OA
ATOM     59  O   UNL A   1      39.392  36.260  38.217  1.00  0.00    -0.237 OA
ATOM     60  O   UNL A   1      41.502  35.541  37.163  1.00  0.00    -0.744 OA
ENDBRANCH  53  57
ENDBRANCH  26  50
BRANCH  38  61
ATOM     61  C   UNL A   1      44.714  27.927  34.413  1.00  0.00     0.023 A 
ATOM     62  C   UNL A   1      44.548  26.931  35.391  1.00  0.00     0.031 A 
ATOM     63  C   UNL A   1      45.966  28.558  34.314  1.00  0.00     0.131 A 
ATOM     64  C   UNL A   1      45.601  26.630  36.267  1.00  0.00     0.055 A 
ATOM     65  C   UNL A   1      47.028  28.212  35.148  1.00  0.00     0.041 A 
ATOM     66  F   UNL A   1      46.176  29.521  33.401  1.00  0.00    -0.206 F 
ATOM     67  C   UNL A   1      46.846  27.251  36.139  1.00  0.00     0.022 A 
BRANCH  64  68
ATOM     68  S   UNL A   1      45.297  25.471  37.628  1.00  0.00     0.124 S 
ATOM     69  O   UNL A   1      44.058  24.827  37.205  1.00  0.00    -0.237 OA
ATOM     70  O   UNL A   1      46.492  24.634  37.600  1.00  0.00    -0.237 OA
ATOM     71  O   UNL A   1      45.177  26.340  38.797  1.00  0.00    -0.744 OA
ENDBRANCH  64  68
ENDBRANCH  38  61
ENDBRANCH  12  13
ENDBRANCH   5   7
ENDBRANCH   2   3
ENDBRANCH   1   2
BRANCH   1  72
ATOM     72  C   UNL A   1      32.635  27.245  26.615  1.00  0.00     0.002 C 
BRANCH  72  73
ATOM     73  C   UNL A   1      33.726  26.780  25.646  1.00  0.00     0.002 C 
BRANCH  73  74
ATOM     74  C   UNL A   1      34.069  25.287  25.703  1.00  0.00     0.021 C 
BRANCH  74  75
ATOM     75  C   UNL A   1      34.470  24.665  24.368  1.00  0.00     0.116 C 
BRANCH  75  76
ATOM     76  N   UNL A   1      33.642  23.521  24.028  1.00  0.00    -0.351 N 
ATOM     77  C   UNL A   1      32.295  23.491  23.739  1.00  0.00     0.269 C 
ATOM     78  H   UNL A   1      34.105  22.652  23.999  1.00  0.00     0.163 HD
ATOM     79  O   UNL A   1      31.730  22.414  23.573  1.00  0.00    -0.268 OA
BRANCH  77  80
ATOM     80  C   UNL A   1      31.556  24.775  23.601  1.00  0.00     0.128 A 
ATOM     81  C   UNL A   1      30.602  25.121  24.548  1.00  0.00     0.035 A 
ATOM     82  N   UNL A   1      31.850  25.530  22.515  1.00  0.00    -0.250 NA
ATOM     83  C   UNL A   1      29.877  26.294  24.351  1.00  0.00     0.013 A 
ATOM     84  C   UNL A   1      31.132  26.668  22.366  1.00  0.00     0.120 A 
ATOM     85  C   UNL A   1      30.129  27.106  23.237  1.00  0.00     0.006 A 
BRANCH  85  86
ATOM     86  C   UNL A   1      29.370  28.342  22.997  1.00  0.00     0.055 A 
ATOM     87  C   UNL A   1      27.986  28.411  23.211  1.00  0.00     0.134 A 
ATOM     88  C   UNL A   1      29.990  29.509  22.526  1.00  0.00     0.134 A 
ATOM     89  F   UNL A   1      27.321  27.341  23.677  1.00  0.00    -0.206 F 
ATOM     90  C   UNL A   1      27.253  29.574  22.965  1.00  0.00     0.040 A 
ATOM     91  C   UNL A   1      29.273  30.680  22.274  1.00  0.00     0.040 A 
ATOM     92  F   UNL A   1      31.311  29.522  22.293  1.00  0.00    -0.206 F 
ATOM     93  C   UNL A   1      27.898  30.713  22.493  1.00  0.00     0.006 A 
ENDBRANCH  85  86
ENDBRANCH  77  80
ENDBRANCH  75  76
ENDBRANCH  74  75
ENDBRANCH  73  74
ENDBRANCH  72  73
ENDBRANCH   1  72
TORSDOF 17
ENDMDL
