MODEL 1
REMARK VINA RESULT:      -9.2      0.000      0.000
REMARK SMILES CCN(CC(C)(C)O)C(=O)NCCCC(=O)NCCCCCCNC(=O)c1ccc(-c2c3nc(c(-c4cc(S(=O)(=O)[O-])ccc4F)c4ccc([nH]4)c(-c4cc(S(=O)(=O)[O-])ccc4F)c4nc(c(-c5cc(S(=O)(=O)[O-])ccc5F)c5ccc2[nH]5)C=C4)C=C3)cc1
REMARK SMILES IDX 18 1 17 2 15 3 16 4 14 6 13 7 12 8 11 9 9 10 10 11 3 13 2 14
REMARK SMILES IDX 1 15 4 16 5 17 6 18 7 19 8 20 19 22 20 23 21 24 22 25 23 26
REMARK SMILES IDX 24 27 25 28 26 30 27 31 28 32 89 33 29 34 88 35 30 36 31 37
REMARK SMILES IDX 32 38 82 39 33 40 87 41 81 42 83 43 34 44 86 45 80 46 79 47
REMARK SMILES IDX 35 49 67 50 47 51 66 52 48 53 51 54 65 55 84 56 49 57 50 58
REMARK SMILES IDX 64 60 85 61 52 62 36 63 37 64 45 65 38 66 44 67 46 68 43 69
REMARK SMILES IDX 39 70 40 71 41 72 42 73 68 74 69 75 77 76 70 77 76 78 78 79
REMARK SMILES IDX 75 80 71 81 72 82 73 83 74 84 53 85 54 86 62 87 55 88 61 89
REMARK SMILES IDX 63 90 60 91 56 92 57 93 58 94 59 95
REMARK H PARENT 17 5 11 12 8 21 24 29 83 48 51 59
REMARK Flexibility Score: inf
ROOT
ATOM      1  C   UNL A   1      34.704  31.096  28.193  1.00  0.00     0.116 C 
ENDROOT
BRANCH   1   2
ATOM      2  N   UNL A   1      34.122  30.845  26.886  1.00  0.00    -0.356 N 
ATOM      3  C   UNL A   1      33.502  29.735  26.403  1.00  0.00     0.220 C 
ATOM      4  O   UNL A   1      33.163  29.716  25.219  1.00  0.00    -0.275 OA
ATOM      5  H   UNL A   1      34.186  31.595  26.251  1.00  0.00     0.163 HD
BRANCH   3   6
ATOM      6  C   UNL A   1      33.256  28.539  27.299  1.00  0.00     0.102 C 
BRANCH   6   7
ATOM      7  C   UNL A   1      31.777  28.164  27.351  1.00  0.00     0.031 C 
BRANCH   7   8
ATOM      8  C   UNL A   1      31.420  26.894  26.585  1.00  0.00     0.118 C 
BRANCH   8   9
ATOM      9  N   UNL A   1      32.005  26.871  25.258  1.00  0.00    -0.338 N 
ATOM     10  C   UNL A   1      32.461  25.944  24.398  1.00  0.00     0.317 C 
ATOM     11  O   UNL A   1      32.834  26.403  23.312  1.00  0.00    -0.249 OA
ATOM     12  H   UNL A   1      32.092  27.779  24.888  1.00  0.00     0.165 HD
BRANCH  10  13
ATOM     13  N   UNL A   1      32.517  24.607  24.674  1.00  0.00    -0.322 N 
BRANCH  13  14
ATOM     14  C   UNL A   1      31.238  23.877  24.623  1.00  0.00     0.118 C 
ATOM     15  C   UNL A   1      30.464  24.156  23.340  1.00  0.00     0.027 C 
ENDBRANCH  13  14
BRANCH  13  16
ATOM     16  C   UNL A   1      33.678  23.819  25.105  1.00  0.00     0.155 C 
BRANCH  16  17
ATOM     17  C   UNL A   1      34.382  22.998  23.979  1.00  0.00     0.077 C 
ATOM     18  C   UNL A   1      33.817  23.138  22.558  1.00  0.00     0.043 C 
ATOM     19  C   UNL A   1      35.870  23.368  23.970  1.00  0.00     0.043 C 
BRANCH  17  20
ATOM     20  O   UNL A   1      34.305  21.602  24.306  1.00  0.00    -0.389 OA
ATOM     21  H   UNL A   1      33.430  21.261  24.065  1.00  0.00     0.211 HD
ENDBRANCH  17  20
ENDBRANCH  16  17
ENDBRANCH  13  16
ENDBRANCH  10  13
ENDBRANCH   8   9
ENDBRANCH   7   8
ENDBRANCH   6   7
ENDBRANCH   3   6
ENDBRANCH   1   2
BRANCH   1  22
ATOM     22  C   UNL A   1      35.720  32.239  28.115  1.00  0.00     0.021 C 
BRANCH  22  23
ATOM     23  C   UNL A   1      35.097  33.597  27.799  1.00  0.00     0.002 C 
BRANCH  23  24
ATOM     24  C   UNL A   1      34.783  34.452  29.032  1.00  0.00     0.002 C 
BRANCH  24  25
ATOM     25  C   UNL A   1      33.340  34.964  29.127  1.00  0.00     0.021 C 
BRANCH  25  26
ATOM     26  C   UNL A   1      33.189  36.346  29.760  1.00  0.00     0.116 C 
BRANCH  26  27
ATOM     27  N   UNL A   1      32.436  36.282  31.000  1.00  0.00    -0.352 N 
ATOM     28  C   UNL A   1      32.617  35.480  32.092  1.00  0.00     0.251 C 
ATOM     29  H   UNL A   1      31.682  36.910  31.064  1.00  0.00     0.163 HD
ATOM     30  O   UNL A   1      31.688  35.347  32.896  1.00  0.00    -0.269 OA
BRANCH  28  31
ATOM     31  C   UNL A   1      33.902  34.789  32.326  1.00  0.00     0.039 A 
ATOM     32  C   UNL A   1      33.893  33.411  32.563  1.00  0.00     0.014 A 
ATOM     33  C   UNL A   1      35.103  35.502  32.407  1.00  0.00     0.014 A 
ATOM     34  C   UNL A   1      35.084  32.751  32.872  1.00  0.00     0.010 A 
ATOM     35  C   UNL A   1      36.300  34.831  32.649  1.00  0.00     0.010 A 
ATOM     36  C   UNL A   1      36.297  33.455  32.917  1.00  0.00    -0.014 A 
BRANCH  36  37
ATOM     37  C   UNL A   1      37.553  32.774  33.323  1.00  0.00     0.031 A 
ATOM     38  C   UNL A   1      38.217  33.144  34.623  1.00  0.00     0.074 A 
ATOM     39  C   UNL A   1      38.101  31.844  32.519  1.00  0.00     0.049 A 
ATOM     40  N   UNL A   1      39.320  32.681  35.154  1.00  0.00    -0.248 NA
ATOM     41  C   UNL A   1      37.568  34.198  35.417  1.00  0.00     0.031 C 
ATOM     42  C   UNL A   1      37.570  31.436  31.217  1.00  0.00     0.029 A 
ATOM     43  N   UNL A   1      39.224  31.073  32.676  1.00  0.00    -0.354 N 
ATOM     44  C   UNL A   1      39.504  33.396  36.334  1.00  0.00     0.074 A 
ATOM     45  C   UNL A   1      38.434  34.367  36.404  1.00  0.00     0.031 C 
ATOM     46  C   UNL A   1      38.353  30.470  30.707  1.00  0.00     0.029 A 
ATOM     47  C   UNL A   1      39.453  30.210  31.630  1.00  0.00     0.049 A 
ATOM     48  H   UNL A   1      39.811  31.131  33.464  1.00  0.00     0.167 HD
ATOM     49  C   UNL A   1      40.460  33.239  37.284  1.00  0.00     0.034 A 
ATOM     50  C   UNL A   1      40.436  29.308  31.443  1.00  0.00     0.034 A 
ATOM     51  C   UNL A   1      41.510  32.253  37.203  1.00  0.00     0.049 A 
ATOM     52  C   UNL A   1      41.473  29.130  32.524  1.00  0.00     0.074 A 
ATOM     53  C   UNL A   1      42.516  31.981  38.116  1.00  0.00     0.029 A 
ATOM     54  N   UNL A   1      41.689  31.369  36.145  1.00  0.00    -0.354 N 
ATOM     55  N   UNL A   1      41.609  29.784  33.655  1.00  0.00    -0.248 NA
ATOM     56  C   UNL A   1      42.470  28.074  32.313  1.00  0.00     0.031 C 
ATOM     57  C   UNL A   1      43.328  30.970  37.587  1.00  0.00     0.029 A 
ATOM     58  C   UNL A   1      42.792  30.562  36.377  1.00  0.00     0.049 A 
ATOM     59  H   UNL A   1      41.115  31.323  35.347  1.00  0.00     0.167 HD
ATOM     60  C   UNL A   1      42.686  29.191  34.307  1.00  0.00     0.074 A 
ATOM     61  C   UNL A   1      43.149  28.119  33.449  1.00  0.00     0.031 C 
ATOM     62  C   UNL A   1      43.241  29.499  35.508  1.00  0.00     0.034 A 
BRANCH  49  63
ATOM     63  C   UNL A   1      40.417  34.176  38.470  1.00  0.00     0.023 A 
ATOM     64  C   UNL A   1      39.775  33.821  39.669  1.00  0.00     0.031 A 
ATOM     65  C   UNL A   1      40.985  35.460  38.387  1.00  0.00     0.131 A 
ATOM     66  C   UNL A   1      39.637  34.763  40.700  1.00  0.00     0.055 A 
ATOM     67  C   UNL A   1      40.921  36.364  39.451  1.00  0.00     0.041 A 
ATOM     68  F   UNL A   1      41.595  35.867  37.264  1.00  0.00    -0.206 F 
ATOM     69  C   UNL A   1      40.229  36.024  40.609  1.00  0.00     0.022 A 
BRANCH  66  70
ATOM     70  S   UNL A   1      38.543  34.372  42.092  1.00  0.00     0.124 S 
ATOM     71  O   UNL A   1      37.316  35.066  41.705  1.00  0.00    -0.237 OA
ATOM     72  O   UNL A   1      38.492  32.915  42.054  1.00  0.00    -0.237 OA
ATOM     73  O   UNL A   1      39.235  34.943  43.245  1.00  0.00    -0.744 OA
ENDBRANCH  66  70
ENDBRANCH  49  63
BRANCH  50  74
ATOM     74  C   UNL A   1      40.480  28.488  30.201  1.00  0.00     0.023 A 
ATOM     75  C   UNL A   1      41.378  28.791  29.164  1.00  0.00     0.031 A 
ATOM     76  C   UNL A   1      39.599  27.409  30.016  1.00  0.00     0.131 A 
ATOM     77  C   UNL A   1      41.342  28.057  27.969  1.00  0.00     0.055 A 
ATOM     78  C   UNL A   1      39.600  26.649  28.844  1.00  0.00     0.041 A 
ATOM     79  F   UNL A   1      38.729  27.070  30.980  1.00  0.00    -0.206 F 
ATOM     80  C   UNL A   1      40.467  26.981  27.806  1.00  0.00     0.022 A 
BRANCH  77  81
ATOM     81  S   UNL A   1      42.405  28.579  26.597  1.00  0.00     0.124 S 
ATOM     82  O   UNL A   1      41.424  28.985  25.598  1.00  0.00    -0.237 OA
ATOM     83  O   UNL A   1      43.182  29.652  27.208  1.00  0.00    -0.237 OA
ATOM     84  O   UNL A   1      43.163  27.371  26.274  1.00  0.00    -0.744 OA
ENDBRANCH  77  81
ENDBRANCH  50  74
BRANCH  62  85
ATOM     85  C   UNL A   1      44.375  28.622  35.978  1.00  0.00     0.023 A 
ATOM     86  C   UNL A   1      44.176  27.586  36.906  1.00  0.00     0.031 A 
ATOM     87  C   UNL A   1      45.682  28.854  35.516  1.00  0.00     0.131 A 
ATOM     88  C   UNL A   1      45.276  26.866  37.397  1.00  0.00     0.055 A 
ATOM     89  C   UNL A   1      46.765  28.094  35.961  1.00  0.00     0.041 A 
ATOM     90  F   UNL A   1      45.931  29.831  34.629  1.00  0.00    -0.206 F 
ATOM     91  C   UNL A   1      46.567  27.105  36.920  1.00  0.00     0.022 A 
BRANCH  88  92
ATOM     92  S   UNL A   1      45.011  25.693  38.755  1.00  0.00     0.124 S 
ATOM     93  O   UNL A   1      46.352  25.572  39.319  1.00  0.00    -0.237 OA
ATOM     94  O   UNL A   1      44.033  26.391  39.582  1.00  0.00    -0.237 OA
ATOM     95  O   UNL A   1      44.512  24.495  38.082  1.00  0.00    -0.744 OA
ENDBRANCH  88  92
ENDBRANCH  62  85
ENDBRANCH  36  37
ENDBRANCH  28  31
ENDBRANCH  26  27
ENDBRANCH  25  26
ENDBRANCH  24  25
ENDBRANCH  23  24
ENDBRANCH  22  23
ENDBRANCH   1  22
TORSDOF 24
ENDMDL
MODEL 2
REMARK VINA RESULT:      -9.0      1.495      2.328
REMARK SMILES CCN(CC(C)(C)O)C(=O)NCCCC(=O)NCCCCCCNC(=O)c1ccc(-c2c3nc(c(-c4cc(S(=O)(=O)[O-])ccc4F)c4ccc([nH]4)c(-c4cc(S(=O)(=O)[O-])ccc4F)c4nc(c(-c5cc(S(=O)(=O)[O-])ccc5F)c5ccc2[nH]5)C=C4)C=C3)cc1
REMARK SMILES IDX 18 1 17 2 15 3 16 4 14 6 13 7 12 8 11 9 9 10 10 11 3 13 2 14
REMARK SMILES IDX 1 15 4 16 5 17 6 18 7 19 8 20 19 22 20 23 21 24 22 25 23 26
REMARK SMILES IDX 24 27 25 28 26 30 27 31 28 32 89 33 29 34 88 35 30 36 31 37
REMARK SMILES IDX 32 38 82 39 33 40 87 41 81 42 83 43 34 44 86 45 80 46 79 47
REMARK SMILES IDX 35 49 67 50 47 51 66 52 48 53 51 54 65 55 84 56 49 57 50 58
REMARK SMILES IDX 64 60 85 61 52 62 36 63 37 64 45 65 38 66 44 67 46 68 43 69
REMARK SMILES IDX 39 70 40 71 41 72 42 73 68 74 69 75 77 76 70 77 76 78 78 79
REMARK SMILES IDX 75 80 71 81 72 82 73 83 74 84 53 85 54 86 62 87 55 88 61 89
REMARK SMILES IDX 63 90 60 91 56 92 57 93 58 94 59 95
REMARK H PARENT 17 5 11 12 8 21 24 29 83 48 51 59
REMARK Flexibility Score: inf
ROOT
ATOM      1  C   UNL A   1      32.327  29.906  25.862  1.00  0.00     0.116 C 
ENDROOT
BRANCH   1   2
ATOM      2  N   UNL A   1      33.345  29.688  24.848  1.00  0.00    -0.356 N 
ATOM      3  C   UNL A   1      33.343  28.858  23.771  1.00  0.00     0.220 C 
ATOM      4  O   UNL A   1      34.365  28.772  23.090  1.00  0.00    -0.275 OA
ATOM      5  H   UNL A   1      34.163  30.223  24.959  1.00  0.00     0.163 HD
BRANCH   3   6
ATOM      6  C   UNL A   1      32.114  28.041  23.431  1.00  0.00     0.102 C 
BRANCH   6   7
ATOM      7  C   UNL A   1      32.013  26.784  24.292  1.00  0.00     0.031 C 
BRANCH   7   8
ATOM      8  C   UNL A   1      33.256  25.900  24.268  1.00  0.00     0.118 C 
BRANCH   8   9
ATOM      9  N   UNL A   1      33.285  25.026  23.111  1.00  0.00    -0.338 N 
ATOM     10  C   UNL A   1      33.802  23.826  22.795  1.00  0.00     0.317 C 
ATOM     11  O   UNL A   1      33.510  23.434  21.659  1.00  0.00    -0.249 OA
ATOM     12  H   UNL A   1      32.791  25.417  22.354  1.00  0.00     0.165 HD
BRANCH  10  13
ATOM     13  N   UNL A   1      34.584  23.085  23.636  1.00  0.00    -0.322 N 
BRANCH  13  14
ATOM     14  C   UNL A   1      36.035  23.328  23.558  1.00  0.00     0.118 C 
ATOM     15  C   UNL A   1      36.840  22.268  24.300  1.00  0.00     0.027 C 
ENDBRANCH  13  14
BRANCH  13  16
ATOM     16  C   UNL A   1      34.170  22.012  24.547  1.00  0.00     0.155 C 
BRANCH  16  17
ATOM     17  C   UNL A   1      33.515  22.486  25.883  1.00  0.00     0.077 C 
ATOM     18  C   UNL A   1      32.010  22.789  25.852  1.00  0.00     0.043 C 
ATOM     19  C   UNL A   1      33.796  21.430  26.959  1.00  0.00     0.043 C 
BRANCH  17  20
ATOM     20  O   UNL A   1      34.159  23.695  26.312  1.00  0.00    -0.389 OA
ATOM     21  H   UNL A   1      34.317  23.656  27.268  1.00  0.00     0.211 HD
ENDBRANCH  17  20
ENDBRANCH  16  17
ENDBRANCH  13  16
ENDBRANCH  10  13
ENDBRANCH   8   9
ENDBRANCH   7   8
ENDBRANCH   6   7
ENDBRANCH   3   6
ENDBRANCH   1   2
BRANCH   1  22
ATOM     22  C   UNL A   1      32.968  30.028  27.247  1.00  0.00     0.021 C 
BRANCH  22  23
ATOM     23  C   UNL A   1      34.276  30.819  27.252  1.00  0.00     0.002 C 
BRANCH  23  24
ATOM     24  C   UNL A   1      34.308  31.982  28.248  1.00  0.00     0.002 C 
BRANCH  24  25
ATOM     25  C   UNL A   1      33.265  33.082  28.009  1.00  0.00     0.021 C 
BRANCH  25  26
ATOM     26  C   UNL A   1      33.774  34.507  28.222  1.00  0.00     0.116 C 
BRANCH  26  27
ATOM     27  N   UNL A   1      33.118  35.139  29.354  1.00  0.00    -0.352 N 
ATOM     28  C   UNL A   1      33.285  34.924  30.693  1.00  0.00     0.251 C 
ATOM     29  H   UNL A   1      32.453  35.826  29.121  1.00  0.00     0.163 HD
ATOM     30  O   UNL A   1      32.412  35.318  31.475  1.00  0.00    -0.269 OA
BRANCH  28  31
ATOM     31  C   UNL A   1      34.491  34.245  31.212  1.00  0.00     0.039 A 
ATOM     32  C   UNL A   1      35.740  34.839  31.005  1.00  0.00     0.014 A 
ATOM     33  C   UNL A   1      34.409  32.986  31.816  1.00  0.00     0.014 A 
ATOM     34  C   UNL A   1      36.900  34.177  31.408  1.00  0.00     0.010 A 
ATOM     35  C   UNL A   1      35.563  32.357  32.279  1.00  0.00     0.010 A 
ATOM     36  C   UNL A   1      36.822  32.930  32.050  1.00  0.00    -0.014 A 
BRANCH  36  37
ATOM     37  C   UNL A   1      38.056  32.185  32.409  1.00  0.00     0.031 A 
ATOM     38  C   UNL A   1      38.781  32.514  33.689  1.00  0.00     0.074 A 
ATOM     39  C   UNL A   1      38.530  31.236  31.582  1.00  0.00     0.049 A 
ATOM     40  N   UNL A   1      39.877  31.993  34.179  1.00  0.00    -0.248 NA
ATOM     41  C   UNL A   1      38.211  33.592  34.510  1.00  0.00     0.031 C 
ATOM     42  C   UNL A   1      37.936  30.864  30.296  1.00  0.00     0.029 A 
ATOM     43  N   UNL A   1      39.618  30.410  31.697  1.00  0.00    -0.354 N 
ATOM     44  C   UNL A   1      40.135  32.689  35.356  1.00  0.00     0.074 A 
ATOM     45  C   UNL A   1      39.117  33.711  35.468  1.00  0.00     0.031 C 
ATOM     46  C   UNL A   1      38.653  29.864  29.755  1.00  0.00     0.029 A 
ATOM     47  C   UNL A   1      39.769  29.544  30.639  1.00  0.00     0.049 A 
ATOM     48  H   UNL A   1      40.234  30.433  32.465  1.00  0.00     0.167 HD
ATOM     49  C   UNL A   1      41.114  32.479  36.272  1.00  0.00     0.034 A 
ATOM     50  C   UNL A   1      40.700  28.597  30.414  1.00  0.00     0.034 A 
ATOM     51  C   UNL A   1      42.110  31.443  36.151  1.00  0.00     0.049 A 
ATOM     52  C   UNL A   1      41.762  28.360  31.457  1.00  0.00     0.074 A 
ATOM     53  C   UNL A   1      43.132  31.115  37.027  1.00  0.00     0.029 A 
ATOM     54  N   UNL A   1      42.210  30.559  35.082  1.00  0.00    -0.354 N 
ATOM     55  N   UNL A   1      41.968  28.998  32.587  1.00  0.00    -0.248 NA
ATOM     56  C   UNL A   1      42.699  27.258  31.207  1.00  0.00     0.031 C 
ATOM     57  C   UNL A   1      43.875  30.070  36.465  1.00  0.00     0.029 A 
ATOM     58  C   UNL A   1      43.279  29.697  35.272  1.00  0.00     0.049 A 
ATOM     59  H   UNL A   1      41.607  30.547  34.303  1.00  0.00     0.167 HD
ATOM     60  C   UNL A   1      43.036  28.349  33.199  1.00  0.00     0.074 A 
ATOM     61  C   UNL A   1      43.417  27.262  32.319  1.00  0.00     0.031 C 
ATOM     62  C   UNL A   1      43.646  28.620  34.382  1.00  0.00     0.034 A 
BRANCH  49  63
ATOM     63  C   UNL A   1      41.157  33.408  37.464  1.00  0.00     0.023 A 
ATOM     64  C   UNL A   1      40.459  33.120  38.651  1.00  0.00     0.031 A 
ATOM     65  C   UNL A   1      41.866  34.621  37.400  1.00  0.00     0.131 A 
ATOM     66  C   UNL A   1      40.411  34.066  39.686  1.00  0.00     0.055 A 
ATOM     67  C   UNL A   1      41.886  35.520  38.469  1.00  0.00     0.041 A 
ATOM     68  F   UNL A   1      42.535  34.963  36.289  1.00  0.00    -0.206 F 
ATOM     69  C   UNL A   1      41.142  35.253  39.614  1.00  0.00     0.022 A 
BRANCH  66  70
ATOM     70  S   UNL A   1      39.258  33.792  41.059  1.00  0.00     0.124 S 
ATOM     71  O   UNL A   1      38.449  35.008  41.010  1.00  0.00    -0.237 OA
ATOM     72  O   UNL A   1      38.584  32.560  40.664  1.00  0.00    -0.237 OA
ATOM     73  O   UNL A   1      40.131  33.681  42.225  1.00  0.00    -0.744 OA
ENDBRANCH  66  70
ENDBRANCH  49  63
BRANCH  50  74
ATOM     74  C   UNL A   1      40.662  27.784  29.166  1.00  0.00     0.023 A 
ATOM     75  C   UNL A   1      41.554  28.036  28.110  1.00  0.00     0.031 A 
ATOM     76  C   UNL A   1      39.708  26.766  28.995  1.00  0.00     0.131 A 
ATOM     77  C   UNL A   1      41.442  27.314  26.912  1.00  0.00     0.055 A 
ATOM     78  C   UNL A   1      39.632  26.017  27.819  1.00  0.00     0.041 A 
ATOM     79  F   UNL A   1      38.840  26.478  29.977  1.00  0.00    -0.206 F 
ATOM     80  C   UNL A   1      40.495  26.299  26.763  1.00  0.00     0.022 A 
BRANCH  77  81
ATOM     81  S   UNL A   1      42.506  27.776  25.519  1.00  0.00     0.124 S 
ATOM     82  O   UNL A   1      43.800  27.933  26.171  1.00  0.00    -0.237 OA
ATOM     83  O   UNL A   1      42.367  26.623  24.637  1.00  0.00    -0.237 OA
ATOM     84  O   UNL A   1      41.902  29.013  25.024  1.00  0.00    -0.744 OA
ENDBRANCH  77  81
ENDBRANCH  50  74
BRANCH  62  85
ATOM     85  C   UNL A   1      44.751  27.685  34.809  1.00  0.00     0.023 A 
ATOM     86  C   UNL A   1      44.484  26.482  35.485  1.00  0.00     0.031 A 
ATOM     87  C   UNL A   1      46.093  28.025  34.566  1.00  0.00     0.131 A 
ATOM     88  C   UNL A   1      45.546  25.697  35.957  1.00  0.00     0.055 A 
ATOM     89  C   UNL A   1      47.144  27.209  34.984  1.00  0.00     0.041 A 
ATOM     90  F   UNL A   1      46.405  29.162  33.925  1.00  0.00    -0.206 F 
ATOM     91  C   UNL A   1      46.874  26.046  35.700  1.00  0.00     0.022 A 
BRANCH  88  92
ATOM     92  S   UNL A   1      45.170  24.273  37.017  1.00  0.00     0.124 S 
ATOM     93  O   UNL A   1      43.739  24.093  36.789  1.00  0.00    -0.237 OA
ATOM     94  O   UNL A   1      46.038  23.238  36.466  1.00  0.00    -0.237 OA
ATOM     95  O   UNL A   1      45.529  24.736  38.356  1.00  0.00    -0.744 OA
ENDBRANCH  88  92
ENDBRANCH  62  85
ENDBRANCH  36  37
ENDBRANCH  28  31
ENDBRANCH  26  27
ENDBRANCH  25  26
ENDBRANCH  24  25
ENDBRANCH  23  24
ENDBRANCH  22  23
ENDBRANCH   1  22
TORSDOF 24
ENDMDL
MODEL 3
REMARK VINA RESULT:      -8.4      2.373      3.212
REMARK SMILES CCN(CC(C)(C)O)C(=O)NCCCC(=O)NCCCCCCNC(=O)c1ccc(-c2c3nc(c(-c4cc(S(=O)(=O)[O-])ccc4F)c4ccc([nH]4)c(-c4cc(S(=O)(=O)[O-])ccc4F)c4nc(c(-c5cc(S(=O)(=O)[O-])ccc5F)c5ccc2[nH]5)C=C4)C=C3)cc1
REMARK SMILES IDX 18 1 17 2 15 3 16 4 14 6 13 7 12 8 11 9 9 10 10 11 3 13 2 14
REMARK SMILES IDX 1 15 4 16 5 17 6 18 7 19 8 20 19 22 20 23 21 24 22 25 23 26
REMARK SMILES IDX 24 27 25 28 26 30 27 31 28 32 89 33 29 34 88 35 30 36 31 37
REMARK SMILES IDX 32 38 82 39 33 40 87 41 81 42 83 43 34 44 86 45 80 46 79 47
REMARK SMILES IDX 35 49 67 50 47 51 66 52 48 53 51 54 65 55 84 56 49 57 50 58
REMARK SMILES IDX 64 60 85 61 52 62 36 63 37 64 45 65 38 66 44 67 46 68 43 69
REMARK SMILES IDX 39 70 40 71 41 72 42 73 68 74 69 75 77 76 70 77 76 78 78 79
REMARK SMILES IDX 75 80 71 81 72 82 73 83 74 84 53 85 54 86 62 87 55 88 61 89
REMARK SMILES IDX 63 90 60 91 56 92 57 93 58 94 59 95
REMARK H PARENT 17 5 11 12 8 21 24 29 83 48 51 59
REMARK Flexibility Score: inf
ROOT
ATOM      1  C   UNL A   1      32.349  30.036  25.871  1.00  0.00     0.116 C 
ENDROOT
BRANCH   1   2
ATOM      2  N   UNL A   1      33.297  29.659  24.837  1.00  0.00    -0.356 N 
ATOM      3  C   UNL A   1      33.571  28.437  24.306  1.00  0.00     0.220 C 
ATOM      4  O   UNL A   1      34.490  28.340  23.491  1.00  0.00    -0.275 OA
ATOM      5  H   UNL A   1      33.821  30.402  24.462  1.00  0.00     0.163 HD
BRANCH   3   6
ATOM      6  C   UNL A   1      32.777  27.219  24.727  1.00  0.00     0.102 C 
BRANCH   6   7
ATOM      7  C   UNL A   1      33.034  26.029  23.805  1.00  0.00     0.031 C 
BRANCH   7   8
ATOM      8  C   UNL A   1      33.647  24.815  24.496  1.00  0.00     0.118 C 
BRANCH   8   9
ATOM      9  N   UNL A   1      34.752  24.255  23.741  1.00  0.00    -0.338 N 
ATOM     10  C   UNL A   1      35.490  23.132  23.759  1.00  0.00     0.317 C 
ATOM     11  O   UNL A   1      36.323  23.060  22.849  1.00  0.00    -0.249 OA
ATOM     12  H   UNL A   1      35.039  24.863  23.021  1.00  0.00     0.165 HD
BRANCH  10  13
ATOM     13  N   UNL A   1      35.350  22.141  24.690  1.00  0.00    -0.322 N 
BRANCH  13  14
ATOM     14  C   UNL A   1      36.399  22.064  25.721  1.00  0.00     0.118 C 
ATOM     15  C   UNL A   1      37.778  21.808  25.126  1.00  0.00     0.027 C 
ENDBRANCH  13  14
BRANCH  13  16
ATOM     16  C   UNL A   1      34.333  21.084  24.741  1.00  0.00     0.155 C 
BRANCH  16  17
ATOM     17  C   UNL A   1      33.303  21.205  25.908  1.00  0.00     0.077 C 
ATOM     18  C   UNL A   1      33.559  22.301  26.952  1.00  0.00     0.043 C 
ATOM     19  C   UNL A   1      31.908  21.399  25.303  1.00  0.00     0.043 C 
BRANCH  17  20
ATOM     20  O   UNL A   1      33.272  19.964  26.630  1.00  0.00    -0.389 OA
ATOM     21  H   UNL A   1      33.411  19.228  26.014  1.00  0.00     0.211 HD
ENDBRANCH  17  20
ENDBRANCH  16  17
ENDBRANCH  13  16
ENDBRANCH  10  13
ENDBRANCH   8   9
ENDBRANCH   7   8
ENDBRANCH   6   7
ENDBRANCH   3   6
ENDBRANCH   1   2
BRANCH   1  22
ATOM     22  C   UNL A   1      32.964  29.835  27.259  1.00  0.00     0.021 C 
BRANCH  22  23
ATOM     23  C   UNL A   1      34.471  30.082  27.307  1.00  0.00     0.002 C 
BRANCH  23  24
ATOM     24  C   UNL A   1      34.865  31.528  27.624  1.00  0.00     0.002 C 
BRANCH  24  25
ATOM     25  C   UNL A   1      33.797  32.357  28.349  1.00  0.00     0.021 C 
BRANCH  25  26
ATOM     26  C   UNL A   1      32.911  33.203  27.437  1.00  0.00     0.116 C 
BRANCH  26  27
ATOM     27  N   UNL A   1      32.717  34.538  27.976  1.00  0.00    -0.352 N 
ATOM     28  C   UNL A   1      33.194  35.092  29.131  1.00  0.00     0.251 C 
ATOM     29  H   UNL A   1      32.157  35.133  27.427  1.00  0.00     0.163 HD
ATOM     30  O   UNL A   1      32.655  36.114  29.570  1.00  0.00    -0.269 OA
BRANCH  28  31
ATOM     31  C   UNL A   1      34.343  34.496  29.845  1.00  0.00     0.039 A 
ATOM     32  C   UNL A   1      35.627  34.679  29.325  1.00  0.00     0.014 A 
ATOM     33  C   UNL A   1      34.154  33.683  30.967  1.00  0.00     0.014 A 
ATOM     34  C   UNL A   1      36.718  34.054  29.931  1.00  0.00     0.010 A 
ATOM     35  C   UNL A   1      35.251  33.115  31.612  1.00  0.00     0.010 A 
ATOM     36  C   UNL A   1      36.540  33.268  31.081  1.00  0.00    -0.014 A 
BRANCH  36  37
ATOM     37  C   UNL A   1      37.684  32.538  31.683  1.00  0.00     0.031 A 
ATOM     38  C   UNL A   1      38.206  32.951  33.035  1.00  0.00     0.074 A 
ATOM     39  C   UNL A   1      38.261  31.525  31.011  1.00  0.00     0.049 A 
ATOM     40  N   UNL A   1      39.199  32.455  33.728  1.00  0.00    -0.248 NA
ATOM     41  C   UNL A   1      37.539  34.093  33.676  1.00  0.00     0.031 C 
ATOM     42  C   UNL A   1      37.869  31.066  29.677  1.00  0.00     0.029 A 
ATOM     43  N   UNL A   1      39.299  30.697  31.355  1.00  0.00    -0.354 N 
ATOM     44  C   UNL A   1      39.284  33.234  34.879  1.00  0.00     0.074 A 
ATOM     45  C   UNL A   1      38.285  34.272  34.755  1.00  0.00     0.031 C 
ATOM     46  C   UNL A   1      38.639  30.021  29.329  1.00  0.00     0.029 A 
ATOM     47  C   UNL A   1      39.595  29.754  30.398  1.00  0.00     0.049 A 
ATOM     48  H   UNL A   1      39.786  30.770  32.208  1.00  0.00     0.167 HD
ATOM     49  C   UNL A   1      40.102  33.080  35.952  1.00  0.00     0.034 A 
ATOM     50  C   UNL A   1      40.527  28.783  30.392  1.00  0.00     0.034 A 
ATOM     51  C   UNL A   1      41.082  32.026  36.063  1.00  0.00     0.049 A 
ATOM     52  C   UNL A   1      41.406  28.611  31.605  1.00  0.00     0.074 A 
ATOM     53  C   UNL A   1      41.944  31.753  37.112  1.00  0.00     0.029 A 
ATOM     54  N   UNL A   1      41.328  31.066  35.089  1.00  0.00    -0.354 N 
ATOM     55  N   UNL A   1      41.447  29.328  32.705  1.00  0.00    -0.248 NA
ATOM     56  C   UNL A   1      42.345  27.483  31.584  1.00  0.00     0.031 C 
ATOM     57  C   UNL A   1      42.743  30.661  36.750  1.00  0.00     0.029 A 
ATOM     58  C   UNL A   1      42.334  30.208  35.507  1.00  0.00     0.049 A 
ATOM     59  H   UNL A   1      40.855  31.003  34.228  1.00  0.00     0.167 HD
ATOM     60  C   UNL A   1      42.390  28.713  33.523  1.00  0.00     0.074 A 
ATOM     61  C   UNL A   1      42.879  27.560  32.794  1.00  0.00     0.031 C 
ATOM     62  C   UNL A   1      42.812  29.064  34.765  1.00  0.00     0.034 A 
BRANCH  49  63
ATOM     63  C   UNL A   1      39.978  34.094  37.066  1.00  0.00     0.023 A 
ATOM     64  C   UNL A   1      40.918  35.127  37.232  1.00  0.00     0.031 A 
ATOM     65  C   UNL A   1      38.934  34.002  38.004  1.00  0.00     0.131 A 
ATOM     66  C   UNL A   1      40.848  35.968  38.354  1.00  0.00     0.055 A 
ATOM     67  C   UNL A   1      38.820  34.897  39.070  1.00  0.00     0.041 A 
ATOM     68  F   UNL A   1      38.017  33.027  37.912  1.00  0.00    -0.206 F 
ATOM     69  C   UNL A   1      39.791  35.877  39.260  1.00  0.00     0.022 A 
BRANCH  66  70
ATOM     70  S   UNL A   1      42.242  37.077  38.694  1.00  0.00     0.124 S 
ATOM     71  O   UNL A   1      41.557  38.263  39.204  1.00  0.00    -0.237 OA
ATOM     72  O   UNL A   1      43.019  36.319  39.668  1.00  0.00    -0.237 OA
ATOM     73  O   UNL A   1      42.873  37.247  37.387  1.00  0.00    -0.744 OA
ENDBRANCH  66  70
ENDBRANCH  49  63
BRANCH  50  74
ATOM     74  C   UNL A   1      40.668  27.880  29.214  1.00  0.00     0.023 A 
ATOM     75  C   UNL A   1      41.616  28.141  28.212  1.00  0.00     0.031 A 
ATOM     76  C   UNL A   1      39.830  26.764  29.056  1.00  0.00     0.131 A 
ATOM     77  C   UNL A   1      41.671  27.326  27.071  1.00  0.00     0.055 A 
ATOM     78  C   UNL A   1      39.921  25.926  27.941  1.00  0.00     0.041 A 
ATOM     79  F   UNL A   1      38.914  26.464  29.990  1.00  0.00    -0.206 F 
ATOM     80  C   UNL A   1      40.838  26.214  26.934  1.00  0.00     0.022 A 
BRANCH  77  81
ATOM     81  S   UNL A   1      42.798  27.787  25.728  1.00  0.00     0.124 S 
ATOM     82  O   UNL A   1      44.099  27.486  26.314  1.00  0.00    -0.237 OA
ATOM     83  O   UNL A   1      42.361  26.908  24.650  1.00  0.00    -0.237 OA
ATOM     84  O   UNL A   1      42.520  29.208  25.522  1.00  0.00    -0.744 OA
ENDBRANCH  77  81
ENDBRANCH  50  74
BRANCH  62  85
ATOM     85  C   UNL A   1      43.814  28.150  35.427  1.00  0.00     0.023 A 
ATOM     86  C   UNL A   1      45.196  28.291  35.220  1.00  0.00     0.031 A 
ATOM     87  C   UNL A   1      43.371  27.099  36.248  1.00  0.00     0.131 A 
ATOM     88  C   UNL A   1      46.083  27.353  35.769  1.00  0.00     0.055 A 
ATOM     89  C   UNL A   1      44.262  26.206  36.843  1.00  0.00     0.041 A 
ATOM     90  F   UNL A   1      42.061  26.918  36.480  1.00  0.00    -0.206 F 
ATOM     91  C   UNL A   1      45.626  26.320  36.590  1.00  0.00     0.022 A 
BRANCH  88  92
ATOM     92  S   UNL A   1      47.834  27.433  35.299  1.00  0.00     0.124 S 
ATOM     93  O   UNL A   1      48.210  28.769  35.751  1.00  0.00    -0.237 OA
ATOM     94  O   UNL A   1      48.408  26.321  36.048  1.00  0.00    -0.237 OA
ATOM     95  O   UNL A   1      47.808  27.256  33.848  1.00  0.00    -0.744 OA
ENDBRANCH  88  92
ENDBRANCH  62  85
ENDBRANCH  36  37
ENDBRANCH  28  31
ENDBRANCH  26  27
ENDBRANCH  25  26
ENDBRANCH  24  25
ENDBRANCH  23  24
ENDBRANCH  22  23
ENDBRANCH   1  22
TORSDOF 24
ENDMDL
