MODEL 1
REMARK VINA RESULT:     -12.5      0.000      0.000
REMARK SMILES Cc1cc2c(c(C)c1Cl)C=C(C(=O)NCCCCCCNC(=O)c1ccc(-c3c4nc(c(-c5cc(S(=O)(=O)[O-])ccc5F)c5ccc([nH]5)c(-c5cc(S(=O)(=O)[O-])ccc5F)c5nc(c(-c6cc(S(=O)(=O)[O-])ccc6F)c6ccc3[nH]6)C=C5)C=C4)cc1)[C@@H](C(F)(F)F)O2
REMARK SMILES IDX 18 1 17 2 16 3 15 4 14 5 12 6 13 7 11 9 1 10 2 11 3 12 8 13
REMARK SMILES IDX 4 14 6 15 9 16 5 17 92 18 7 19 10 20 87 21 88 22 89 23 90 24
REMARK SMILES IDX 91 25 19 26 20 27 21 28 22 29 23 31 24 32 25 33 86 34 26 35
REMARK SMILES IDX 85 36 27 37 28 38 29 39 79 40 30 41 84 42 78 43 80 44 31 45
REMARK SMILES IDX 83 46 77 47 76 48 32 50 64 51 44 52 63 53 45 54 48 55 62 56
REMARK SMILES IDX 81 57 46 58 47 59 61 61 82 62 49 63 33 64 34 65 42 66 35 67
REMARK SMILES IDX 41 68 43 69 40 70 36 71 37 72 38 73 39 74 65 75 66 76 74 77
REMARK SMILES IDX 67 78 73 79 75 80 72 81 68 82 69 83 70 84 71 85 50 86 51 87
REMARK SMILES IDX 59 88 52 89 58 90 60 91 57 92 53 93 54 94 55 95 56 96
REMARK H PARENT 14 8 21 30 80 49 48 60
REMARK Flexibility Score: inf
ROOT
ATOM      1  C   UNL A   1      31.663  30.648  26.086  1.00  0.00     0.002 C 
ENDROOT
BRANCH   1   2
ATOM      2  C   UNL A   1      32.480  29.716  26.991  1.00  0.00     0.002 C 
BRANCH   2   3
ATOM      3  C   UNL A   1      31.691  28.559  27.606  1.00  0.00     0.021 C 
BRANCH   3   4
ATOM      4  C   UNL A   1      31.593  27.339  26.697  1.00  0.00     0.116 C 
BRANCH   4   5
ATOM      5  N   UNL A   1      32.632  27.341  25.682  1.00  0.00    -0.352 N 
ATOM      6  C   UNL A   1      33.215  26.439  24.860  1.00  0.00     0.251 C 
ATOM      7  O   UNL A   1      34.079  26.893  24.104  1.00  0.00    -0.270 OA
ATOM      8  H   UNL A   1      33.014  28.240  25.559  1.00  0.00     0.163 HD
BRANCH   6   9
ATOM      9  C   UNL A   1      32.889  24.980  24.816  1.00  0.00     0.067 C 
ATOM     10  C   UNL A   1      32.760  18.474  24.982  1.00  0.00     0.046 C 
ATOM     11  C   UNL A   1      33.138  19.926  24.902  1.00  0.00    -0.028 A 
ATOM     12  C   UNL A   1      32.117  20.875  24.969  1.00  0.00     0.052 A 
ATOM     13  C   UNL A   1      34.473  20.371  24.809  1.00  0.00     0.047 A 
ATOM     14  C   UNL A   1      32.411  22.233  24.929  1.00  0.00     0.128 A 
ATOM     15  C   UNL A   1      34.786  21.754  24.766  1.00  0.00    -0.021 A 
ATOM     16  Cl  UNL A   1      35.737  19.178  24.773  1.00  0.00    -0.084 Cl
ATOM     17  C   UNL A   1      33.727  22.692  24.841  1.00  0.00     0.022 A 
ATOM     18  O   UNL A   1      31.326  23.049  25.033  1.00  0.00    -0.475 OA
ATOM     19  C   UNL A   1      36.208  22.248  24.653  1.00  0.00     0.047 C 
ATOM     20  C   UNL A   1      33.940  24.143  24.888  1.00  0.00     0.026 C 
ATOM     21  C   UNL A   1      31.500  24.438  24.667  1.00  0.00     0.314 C 
BRANCH  21  22
ATOM     22  C   UNL A   1      30.919  24.665  23.261  1.00  0.00     0.429 C 
ATOM     23  F   UNL A   1      30.000  23.713  22.966  1.00  0.00    -0.167 F 
ATOM     24  F   UNL A   1      30.287  25.856  23.142  1.00  0.00    -0.167 F 
ATOM     25  F   UNL A   1      31.869  24.628  22.299  1.00  0.00    -0.167 F 
ENDBRANCH  21  22
ENDBRANCH   6   9
ENDBRANCH   4   5
ENDBRANCH   3   4
ENDBRANCH   2   3
ENDBRANCH   1   2
BRANCH   1  26
ATOM     26  C   UNL A   1      31.499  32.080  26.607  1.00  0.00     0.021 C 
BRANCH  26  27
ATOM     27  C   UNL A   1      32.730  32.635  27.314  1.00  0.00     0.116 C 
BRANCH  27  28
ATOM     28  N   UNL A   1      32.579  34.048  27.618  1.00  0.00    -0.352 N 
ATOM     29  C   UNL A   1      33.158  34.782  28.619  1.00  0.00     0.251 C 
ATOM     30  H   UNL A   1      31.975  34.547  27.021  1.00  0.00     0.163 HD
ATOM     31  O   UNL A   1      32.728  35.902  28.884  1.00  0.00    -0.269 OA
BRANCH  29  32
ATOM     32  C   UNL A   1      34.289  34.213  29.378  1.00  0.00     0.039 A 
ATOM     33  C   UNL A   1      34.025  33.374  30.463  1.00  0.00     0.014 A 
ATOM     34  C   UNL A   1      35.608  34.515  29.022  1.00  0.00     0.014 A 
ATOM     35  C   UNL A   1      35.087  32.803  31.163  1.00  0.00     0.010 A 
ATOM     36  C   UNL A   1      36.663  33.887  29.675  1.00  0.00     0.010 A 
ATOM     37  C   UNL A   1      36.413  33.036  30.760  1.00  0.00    -0.014 A 
BRANCH  37  38
ATOM     38  C   UNL A   1      37.550  32.423  31.489  1.00  0.00     0.031 A 
ATOM     39  C   UNL A   1      38.325  31.300  30.854  1.00  0.00     0.074 A 
ATOM     40  C   UNL A   1      37.868  32.861  32.723  1.00  0.00     0.049 A 
ATOM     41  N   UNL A   1      39.317  30.604  31.344  1.00  0.00    -0.248 NA
ATOM     42  C   UNL A   1      37.920  30.897  29.496  1.00  0.00     0.031 C 
ATOM     43  C   UNL A   1      37.177  33.932  33.442  1.00  0.00     0.029 A 
ATOM     44  N   UNL A   1      38.857  32.465  33.588  1.00  0.00    -0.354 N 
ATOM     45  C   UNL A   1      39.655  29.683  30.358  1.00  0.00     0.074 A 
ATOM     46  C   UNL A   1      38.722  29.867  29.269  1.00  0.00     0.031 C 
ATOM     47  C   UNL A   1      37.788  34.136  34.621  1.00  0.00     0.029 A 
ATOM     48  C   UNL A   1      38.882  33.181  34.763  1.00  0.00     0.049 A 
ATOM     49  H   UNL A   1      39.488  31.738  33.387  1.00  0.00     0.167 HD
ATOM     50  C   UNL A   1      40.670  28.787  30.352  1.00  0.00     0.034 A 
ATOM     51  C   UNL A   1      39.693  33.075  35.835  1.00  0.00     0.034 A 
ATOM     52  C   UNL A   1      41.605  28.628  31.435  1.00  0.00     0.049 A 
ATOM     53  C   UNL A   1      40.780  32.033  35.825  1.00  0.00     0.074 A 
ATOM     54  C   UNL A   1      42.688  27.772  31.514  1.00  0.00     0.029 A 
ATOM     55  N   UNL A   1      41.570  29.340  32.626  1.00  0.00    -0.354 N 
ATOM     56  N   UNL A   1      41.089  31.175  34.880  1.00  0.00    -0.248 NA
ATOM     57  C   UNL A   1      41.626  31.942  37.022  1.00  0.00     0.031 C 
ATOM     58  C   UNL A   1      43.271  27.920  32.775  1.00  0.00     0.029 A 
ATOM     59  C   UNL A   1      42.595  28.920  33.457  1.00  0.00     0.049 A 
ATOM     60  H   UNL A   1      40.915  30.041  32.847  1.00  0.00     0.167 HD
ATOM     61  C   UNL A   1      42.180  30.457  35.363  1.00  0.00     0.074 A 
ATOM     62  C   UNL A   1      42.480  30.988  36.677  1.00  0.00     0.031 C 
ATOM     63  C   UNL A   1      42.872  29.451  34.770  1.00  0.00     0.034 A 
BRANCH  50  64
ATOM     64  C   UNL A   1      40.822  27.907  29.139  1.00  0.00     0.023 A 
ATOM     65  C   UNL A   1      41.825  28.144  28.184  1.00  0.00     0.031 A 
ATOM     66  C   UNL A   1      39.976  26.801  28.952  1.00  0.00     0.131 A 
ATOM     67  C   UNL A   1      41.934  27.308  27.064  1.00  0.00     0.055 A 
ATOM     68  C   UNL A   1      40.130  25.935  27.868  1.00  0.00     0.041 A 
ATOM     69  F   UNL A   1      38.988  26.541  29.824  1.00  0.00    -0.206 F 
ATOM     70  C   UNL A   1      41.109  26.189  26.913  1.00  0.00     0.022 A 
BRANCH  67  71
ATOM     71  S   UNL A   1      43.121  27.743  25.766  1.00  0.00     0.124 S 
ATOM     72  O   UNL A   1      43.890  26.506  25.644  1.00  0.00    -0.237 OA
ATOM     73  O   UNL A   1      42.255  28.069  24.639  1.00  0.00    -0.237 OA
ATOM     74  O   UNL A   1      43.854  28.872  26.336  1.00  0.00    -0.744 OA
ENDBRANCH  67  71
ENDBRANCH  50  64
BRANCH  51  75
ATOM     75  C   UNL A   1      39.506  33.977  37.006  1.00  0.00     0.023 A 
ATOM     76  C   UNL A   1      38.916  33.510  38.189  1.00  0.00     0.031 A 
ATOM     77  C   UNL A   1      39.912  35.323  36.955  1.00  0.00     0.131 A 
ATOM     78  C   UNL A   1      38.725  34.387  39.268  1.00  0.00     0.055 A 
ATOM     79  C   UNL A   1      39.759  36.180  38.045  1.00  0.00     0.041 A 
ATOM     80  F   UNL A   1      40.488  35.817  35.848  1.00  0.00    -0.206 F 
ATOM     81  C   UNL A   1      39.154  35.715  39.209  1.00  0.00     0.022 A 
BRANCH  78  82
ATOM     82  S   UNL A   1      37.868  33.777  40.745  1.00  0.00     0.124 S 
ATOM     83  O   UNL A   1      36.807  32.965  40.159  1.00  0.00    -0.237 OA
ATOM     84  O   UNL A   1      38.928  33.049  41.434  1.00  0.00    -0.237 OA
ATOM     85  O   UNL A   1      37.423  35.000  41.410  1.00  0.00    -0.744 OA
ENDBRANCH  78  82
ENDBRANCH  51  75
BRANCH  63  86
ATOM     86  C   UNL A   1      44.036  28.869  35.526  1.00  0.00     0.023 A 
ATOM     87  C   UNL A   1      43.872  27.779  36.395  1.00  0.00     0.031 A 
ATOM     88  C   UNL A   1      45.332  29.378  35.332  1.00  0.00     0.131 A 
ATOM     89  C   UNL A   1      44.985  27.245  37.061  1.00  0.00     0.055 A 
ATOM     90  C   UNL A   1      46.443  28.812  35.957  1.00  0.00     0.041 A 
ATOM     91  F   UNL A   1      45.541  30.417  34.507  1.00  0.00    -0.206 F 
ATOM     92  C   UNL A   1      46.272  27.742  36.833  1.00  0.00     0.022 A 
BRANCH  89  93
ATOM     93  S   UNL A   1      44.724  25.914  38.262  1.00  0.00     0.124 S 
ATOM     94  O   UNL A   1      43.741  25.079  37.580  1.00  0.00    -0.237 OA
ATOM     95  O   UNL A   1      46.061  25.343  38.395  1.00  0.00    -0.237 OA
ATOM     96  O   UNL A   1      44.231  26.613  39.448  1.00  0.00    -0.744 OA
ENDBRANCH  89  93
ENDBRANCH  63  86
ENDBRANCH  37  38
ENDBRANCH  29  32
ENDBRANCH  27  28
ENDBRANCH  26  27
ENDBRANCH   1  26
TORSDOF 17
ENDMDL
MODEL 2
REMARK VINA RESULT:     -12.4      1.400      7.537
REMARK SMILES Cc1cc2c(c(C)c1Cl)C=C(C(=O)NCCCCCCNC(=O)c1ccc(-c3c4nc(c(-c5cc(S(=O)(=O)[O-])ccc5F)c5ccc([nH]5)c(-c5cc(S(=O)(=O)[O-])ccc5F)c5nc(c(-c6cc(S(=O)(=O)[O-])ccc6F)c6ccc3[nH]6)C=C5)C=C4)cc1)[C@@H](C(F)(F)F)O2
REMARK SMILES IDX 18 1 17 2 16 3 15 4 14 5 12 6 13 7 11 9 1 10 2 11 3 12 8 13
REMARK SMILES IDX 4 14 6 15 9 16 5 17 92 18 7 19 10 20 87 21 88 22 89 23 90 24
REMARK SMILES IDX 91 25 19 26 20 27 21 28 22 29 23 31 24 32 25 33 86 34 26 35
REMARK SMILES IDX 85 36 27 37 28 38 29 39 79 40 30 41 84 42 78 43 80 44 31 45
REMARK SMILES IDX 83 46 77 47 76 48 32 50 64 51 44 52 63 53 45 54 48 55 62 56
REMARK SMILES IDX 81 57 46 58 47 59 61 61 82 62 49 63 33 64 34 65 42 66 35 67
REMARK SMILES IDX 41 68 43 69 40 70 36 71 37 72 38 73 39 74 65 75 66 76 74 77
REMARK SMILES IDX 67 78 73 79 75 80 72 81 68 82 69 83 70 84 71 85 50 86 51 87
REMARK SMILES IDX 59 88 52 89 58 90 60 91 57 92 53 93 54 94 55 95 56 96
REMARK H PARENT 14 8 21 30 80 49 48 60
REMARK Flexibility Score: inf
ROOT
ATOM      1  C   UNL A   1      31.517  30.649  26.071  1.00  0.00     0.002 C 
ENDROOT
BRANCH   1   2
ATOM      2  C   UNL A   1      32.325  29.690  26.956  1.00  0.00     0.002 C 
BRANCH   2   3
ATOM      3  C   UNL A   1      31.513  28.562  27.594  1.00  0.00     0.021 C 
BRANCH   3   4
ATOM      4  C   UNL A   1      31.537  27.267  26.791  1.00  0.00     0.116 C 
BRANCH   4   5
ATOM      5  N   UNL A   1      32.585  27.277  25.786  1.00  0.00    -0.352 N 
ATOM      6  C   UNL A   1      33.177  26.381  24.964  1.00  0.00     0.251 C 
ATOM      7  O   UNL A   1      34.049  26.841  24.220  1.00  0.00    -0.270 OA
ATOM      8  H   UNL A   1      32.970  28.177  25.674  1.00  0.00     0.163 HD
BRANCH   6   9
ATOM      9  C   UNL A   1      32.851  24.923  24.904  1.00  0.00     0.067 C 
ATOM     10  C   UNL A   1      32.728  18.415  24.985  1.00  0.00     0.046 C 
ATOM     11  C   UNL A   1      33.104  19.868  24.919  1.00  0.00    -0.028 A 
ATOM     12  C   UNL A   1      32.084  20.816  25.013  1.00  0.00     0.052 A 
ATOM     13  C   UNL A   1      34.438  20.315  24.814  1.00  0.00     0.047 A 
ATOM     14  C   UNL A   1      32.376  22.174  24.988  1.00  0.00     0.128 A 
ATOM     15  C   UNL A   1      34.749  21.699  24.784  1.00  0.00    -0.021 A 
ATOM     16  Cl  UNL A   1      35.701  19.123  24.745  1.00  0.00    -0.084 Cl
ATOM     17  C   UNL A   1      33.691  22.635  24.887  1.00  0.00     0.022 A 
ATOM     18  O   UNL A   1      31.293  22.988  25.117  1.00  0.00    -0.475 OA
ATOM     19  C   UNL A   1      36.169  22.195  24.659  1.00  0.00     0.047 C 
ATOM     20  C   UNL A   1      33.904  24.085  24.950  1.00  0.00     0.026 C 
ATOM     21  C   UNL A   1      31.460  24.382  24.768  1.00  0.00     0.314 C 
BRANCH  21  22
ATOM     22  C   UNL A   1      30.860  24.627  23.372  1.00  0.00     0.429 C 
ATOM     23  F   UNL A   1      31.840  24.703  22.439  1.00  0.00    -0.167 F 
ATOM     24  F   UNL A   1      30.032  23.633  22.977  1.00  0.00    -0.167 F 
ATOM     25  F   UNL A   1      30.149  25.776  23.313  1.00  0.00    -0.167 F 
ENDBRANCH  21  22
ENDBRANCH   6   9
ENDBRANCH   4   5
ENDBRANCH   3   4
ENDBRANCH   2   3
ENDBRANCH   1   2
BRANCH   1  26
ATOM     26  C   UNL A   1      31.474  32.102  26.557  1.00  0.00     0.021 C 
BRANCH  26  27
ATOM     27  C   UNL A   1      32.733  32.558  27.285  1.00  0.00     0.116 C 
BRANCH  27  28
ATOM     28  N   UNL A   1      32.629  33.941  27.715  1.00  0.00    -0.352 N 
ATOM     29  C   UNL A   1      33.264  34.573  28.752  1.00  0.00     0.251 C 
ATOM     30  H   UNL A   1      32.018  34.505  27.187  1.00  0.00     0.163 HD
ATOM     31  O   UNL A   1      32.872  35.675  29.129  1.00  0.00    -0.269 OA
BRANCH  29  32
ATOM     32  C   UNL A   1      34.407  33.914  29.416  1.00  0.00     0.039 A 
ATOM     33  C   UNL A   1      34.160  32.954  30.399  1.00  0.00     0.014 A 
ATOM     34  C   UNL A   1      35.719  34.252  29.071  1.00  0.00     0.014 A 
ATOM     35  C   UNL A   1      35.232  32.301  31.005  1.00  0.00     0.010 A 
ATOM     36  C   UNL A   1      36.784  33.549  29.623  1.00  0.00     0.010 A 
ATOM     37  C   UNL A   1      36.551  32.576  30.605  1.00  0.00    -0.014 A 
BRANCH  37  38
ATOM     38  C   UNL A   1      37.700  31.878  31.233  1.00  0.00     0.031 A 
ATOM     39  C   UNL A   1      38.126  32.249  32.627  1.00  0.00     0.074 A 
ATOM     40  C   UNL A   1      38.366  30.932  30.543  1.00  0.00     0.049 A 
ATOM     41  N   UNL A   1      39.129  31.793  33.330  1.00  0.00    -0.248 NA
ATOM     42  C   UNL A   1      37.331  33.282  33.313  1.00  0.00     0.031 C 
ATOM     43  C   UNL A   1      38.050  30.501  29.180  1.00  0.00     0.029 A 
ATOM     44  N   UNL A   1      39.442  30.156  30.894  1.00  0.00    -0.354 N 
ATOM     45  C   UNL A   1      39.085  32.479  34.539  1.00  0.00     0.074 A 
ATOM     46  C   UNL A   1      37.998  33.427  34.449  1.00  0.00     0.031 C 
ATOM     47  C   UNL A   1      38.886  29.511  28.826  1.00  0.00     0.029 A 
ATOM     48  C   UNL A   1      39.827  29.268  29.915  1.00  0.00     0.049 A 
ATOM     49  H   UNL A   1      39.896  30.227  31.764  1.00  0.00     0.167 HD
ATOM     50  C   UNL A   1      39.865  32.311  35.634  1.00  0.00     0.034 A 
ATOM     51  C   UNL A   1      40.828  28.366  29.897  1.00  0.00     0.034 A 
ATOM     52  C   UNL A   1      40.932  31.349  35.717  1.00  0.00     0.049 A 
ATOM     53  C   UNL A   1      41.714  28.237  31.108  1.00  0.00     0.074 A 
ATOM     54  C   UNL A   1      41.759  31.077  36.792  1.00  0.00     0.029 A 
ATOM     55  N   UNL A   1      41.320  30.500  34.690  1.00  0.00    -0.354 N 
ATOM     56  N   UNL A   1      41.653  28.890  32.245  1.00  0.00    -0.248 NA
ATOM     57  C   UNL A   1      42.803  27.254  31.035  1.00  0.00     0.031 C 
ATOM     58  C   UNL A   1      42.687  30.111  36.396  1.00  0.00     0.029 A 
ATOM     59  C   UNL A   1      42.394  29.727  35.097  1.00  0.00     0.049 A 
ATOM     60  H   UNL A   1      40.894  30.454  33.804  1.00  0.00     0.167 HD
ATOM     61  C   UNL A   1      42.684  28.380  33.030  1.00  0.00     0.074 A 
ATOM     62  C   UNL A   1      43.343  27.360  32.241  1.00  0.00     0.031 C 
ATOM     63  C   UNL A   1      43.048  28.723  34.291  1.00  0.00     0.034 A 
BRANCH  50  64
ATOM     64  C   UNL A   1      39.594  33.188  36.828  1.00  0.00     0.023 A 
ATOM     65  C   UNL A   1      40.294  34.390  37.027  1.00  0.00     0.031 A 
ATOM     66  C   UNL A   1      38.605  32.835  37.761  1.00  0.00     0.131 A 
ATOM     67  C   UNL A   1      40.021  35.179  38.153  1.00  0.00     0.055 A 
ATOM     68  C   UNL A   1      38.293  33.656  38.846  1.00  0.00     0.041 A 
ATOM     69  F   UNL A   1      37.921  31.687  37.629  1.00  0.00    -0.206 F 
ATOM     70  C   UNL A   1      39.007  34.833  39.051  1.00  0.00     0.022 A 
BRANCH  67  71
ATOM     71  S   UNL A   1      41.060  36.629  38.471  1.00  0.00     0.124 S 
ATOM     72  O   UNL A   1      41.909  36.149  39.559  1.00  0.00    -0.237 OA
ATOM     73  O   UNL A   1      41.722  36.834  37.188  1.00  0.00    -0.237 OA
ATOM     74  O   UNL A   1      40.099  37.664  38.849  1.00  0.00    -0.744 OA
ENDBRANCH  67  71
ENDBRANCH  50  64
BRANCH  51  75
ATOM     75  C   UNL A   1      41.046  27.516  28.693  1.00  0.00     0.023 A 
ATOM     76  C   UNL A   1      42.059  27.819  27.771  1.00  0.00     0.031 A 
ATOM     77  C   UNL A   1      40.241  26.389  28.446  1.00  0.00     0.131 A 
ATOM     78  C   UNL A   1      42.226  27.019  26.630  1.00  0.00     0.055 A 
ATOM     79  C   UNL A   1      40.438  25.573  27.332  1.00  0.00     0.041 A 
ATOM     80  F   UNL A   1      39.263  26.053  29.301  1.00  0.00    -0.206 F 
ATOM     81  C   UNL A   1      41.432  25.891  26.411  1.00  0.00     0.022 A 
BRANCH  78  82
ATOM     82  S   UNL A   1      43.478  27.497  25.407  1.00  0.00     0.124 S 
ATOM     83  O   UNL A   1      44.223  26.255  25.245  1.00  0.00    -0.237 OA
ATOM     84  O   UNL A   1      42.655  27.907  24.273  1.00  0.00    -0.237 OA
ATOM     85  O   UNL A   1      44.204  28.580  26.069  1.00  0.00    -0.744 OA
ENDBRANCH  78  82
ENDBRANCH  51  75
BRANCH  63  86
ATOM     86  C   UNL A   1      44.201  27.978  34.908  1.00  0.00     0.023 A 
ATOM     87  C   UNL A   1      44.030  26.703  35.471  1.00  0.00     0.031 A 
ATOM     88  C   UNL A   1      45.496  28.527  34.882  1.00  0.00     0.131 A 
ATOM     89  C   UNL A   1      45.134  26.027  36.011  1.00  0.00     0.055 A 
ATOM     90  C   UNL A   1      46.597  27.829  35.375  1.00  0.00     0.041 A 
ATOM     91  F   UNL A   1      45.711  29.741  34.350  1.00  0.00    -0.206 F 
ATOM     92  C   UNL A   1      46.419  26.573  35.949  1.00  0.00     0.022 A 
BRANCH  89  93
ATOM     93  S   UNL A   1      44.861  24.434  36.833  1.00  0.00     0.124 S 
ATOM     94  O   UNL A   1      43.790  23.857  36.027  1.00  0.00    -0.237 OA
ATOM     95  O   UNL A   1      46.165  23.790  36.714  1.00  0.00    -0.237 OA
ATOM     96  O   UNL A   1      44.481  24.812  38.194  1.00  0.00    -0.744 OA
ENDBRANCH  89  93
ENDBRANCH  63  86
ENDBRANCH  37  38
ENDBRANCH  29  32
ENDBRANCH  27  28
ENDBRANCH  26  27
ENDBRANCH   1  26
TORSDOF 17
ENDMDL
MODEL 3
REMARK VINA RESULT:     -12.3      1.594      7.627
REMARK SMILES Cc1cc2c(c(C)c1Cl)C=C(C(=O)NCCCCCCNC(=O)c1ccc(-c3c4nc(c(-c5cc(S(=O)(=O)[O-])ccc5F)c5ccc([nH]5)c(-c5cc(S(=O)(=O)[O-])ccc5F)c5nc(c(-c6cc(S(=O)(=O)[O-])ccc6F)c6ccc3[nH]6)C=C5)C=C4)cc1)[C@@H](C(F)(F)F)O2
REMARK SMILES IDX 18 1 17 2 16 3 15 4 14 5 12 6 13 7 11 9 1 10 2 11 3 12 8 13
REMARK SMILES IDX 4 14 6 15 9 16 5 17 92 18 7 19 10 20 87 21 88 22 89 23 90 24
REMARK SMILES IDX 91 25 19 26 20 27 21 28 22 29 23 31 24 32 25 33 86 34 26 35
REMARK SMILES IDX 85 36 27 37 28 38 29 39 79 40 30 41 84 42 78 43 80 44 31 45
REMARK SMILES IDX 83 46 77 47 76 48 32 50 64 51 44 52 63 53 45 54 48 55 62 56
REMARK SMILES IDX 81 57 46 58 47 59 61 61 82 62 49 63 33 64 34 65 42 66 35 67
REMARK SMILES IDX 41 68 43 69 40 70 36 71 37 72 38 73 39 74 65 75 66 76 74 77
REMARK SMILES IDX 67 78 73 79 75 80 72 81 68 82 69 83 70 84 71 85 50 86 51 87
REMARK SMILES IDX 59 88 52 89 58 90 60 91 57 92 53 93 54 94 55 95 56 96
REMARK H PARENT 14 8 21 30 80 49 48 60
REMARK Flexibility Score: inf
ROOT
ATOM      1  C   UNL A   1      31.403  30.773  25.863  1.00  0.00     0.002 C 
ENDROOT
BRANCH   1   2
ATOM      2  C   UNL A   1      32.390  29.783  26.497  1.00  0.00     0.002 C 
BRANCH   2   3
ATOM      3  C   UNL A   1      31.745  28.668  27.322  1.00  0.00     0.021 C 
BRANCH   3   4
ATOM      4  C   UNL A   1      32.238  27.274  26.948  1.00  0.00     0.116 C 
BRANCH   4   5
ATOM      5  N   UNL A   1      32.918  27.271  25.664  1.00  0.00    -0.352 N 
ATOM      6  C   UNL A   1      33.215  26.366  24.704  1.00  0.00     0.251 C 
ATOM      7  O   UNL A   1      33.813  26.816  23.721  1.00  0.00    -0.270 OA
ATOM      8  H   UNL A   1      33.253  28.167  25.432  1.00  0.00     0.163 HD
BRANCH   6   9
ATOM      9  C   UNL A   1      32.878  24.911  24.760  1.00  0.00     0.067 C 
ATOM     10  C   UNL A   1      32.725  18.421  25.252  1.00  0.00     0.046 C 
ATOM     11  C   UNL A   1      33.103  19.864  25.068  1.00  0.00    -0.028 A 
ATOM     12  C   UNL A   1      32.099  20.826  25.181  1.00  0.00     0.052 A 
ATOM     13  C   UNL A   1      34.427  20.290  24.832  1.00  0.00     0.047 A 
ATOM     14  C   UNL A   1      32.396  22.177  25.049  1.00  0.00     0.128 A 
ATOM     15  C   UNL A   1      34.742  21.666  24.694  1.00  0.00    -0.021 A 
ATOM     16  Cl  UNL A   1      35.675  19.083  24.740  1.00  0.00    -0.084 Cl
ATOM     17  C   UNL A   1      33.701  22.618  24.820  1.00  0.00     0.022 A 
ATOM     18  O   UNL A   1      31.330  23.008  25.211  1.00  0.00    -0.475 OA
ATOM     19  C   UNL A   1      36.152  22.139  24.429  1.00  0.00     0.047 C 
ATOM     20  C   UNL A   1      33.926  24.066  24.776  1.00  0.00     0.026 C 
ATOM     21  C   UNL A   1      31.477  24.376  24.765  1.00  0.00     0.314 C 
BRANCH  21  22
ATOM     22  C   UNL A   1      30.772  24.542  23.408  1.00  0.00     0.429 C 
ATOM     23  F   UNL A   1      31.651  24.955  22.461  1.00  0.00    -0.167 F 
ATOM     24  F   UNL A   1      30.235  23.386  22.952  1.00  0.00    -0.167 F 
ATOM     25  F   UNL A   1      29.769  25.448  23.456  1.00  0.00    -0.167 F 
ENDBRANCH  21  22
ENDBRANCH   6   9
ENDBRANCH   4   5
ENDBRANCH   3   4
ENDBRANCH   2   3
ENDBRANCH   1   2
BRANCH   1  26
ATOM     26  C   UNL A   1      31.372  32.163  26.508  1.00  0.00     0.021 C 
BRANCH  26  27
ATOM     27  C   UNL A   1      32.678  32.574  27.177  1.00  0.00     0.116 C 
BRANCH  27  28
ATOM     28  N   UNL A   1      32.649  33.964  27.596  1.00  0.00    -0.352 N 
ATOM     29  C   UNL A   1      33.358  34.580  28.594  1.00  0.00     0.251 C 
ATOM     30  H   UNL A   1      32.033  34.545  27.093  1.00  0.00     0.163 HD
ATOM     31  O   UNL A   1      33.028  35.699  28.978  1.00  0.00    -0.269 OA
BRANCH  29  32
ATOM     32  C   UNL A   1      34.507  33.884  29.207  1.00  0.00     0.039 A 
ATOM     33  C   UNL A   1      34.271  32.909  30.177  1.00  0.00     0.014 A 
ATOM     34  C   UNL A   1      35.815  34.203  28.827  1.00  0.00     0.014 A 
ATOM     35  C   UNL A   1      35.348  32.221  30.734  1.00  0.00     0.010 A 
ATOM     36  C   UNL A   1      36.881  33.467  29.331  1.00  0.00     0.010 A 
ATOM     37  C   UNL A   1      36.659  32.477  30.298  1.00  0.00    -0.014 A 
BRANCH  37  38
ATOM     38  C   UNL A   1      37.812  31.743  30.875  1.00  0.00     0.031 A 
ATOM     39  C   UNL A   1      38.262  32.044  32.279  1.00  0.00     0.074 A 
ATOM     40  C   UNL A   1      38.462  30.827  30.130  1.00  0.00     0.049 A 
ATOM     41  N   UNL A   1      39.272  31.548  32.944  1.00  0.00    -0.248 NA
ATOM     42  C   UNL A   1      37.484  33.047  33.026  1.00  0.00     0.031 C 
ATOM     43  C   UNL A   1      38.123  30.465  28.753  1.00  0.00     0.029 A 
ATOM     44  N   UNL A   1      39.538  30.029  30.427  1.00  0.00    -0.354 N 
ATOM     45  C   UNL A   1      39.250  32.175  34.185  1.00  0.00     0.074 A 
ATOM     46  C   UNL A   1      38.168  33.133  34.157  1.00  0.00     0.031 C 
ATOM     47  C   UNL A   1      38.947  29.488  28.339  1.00  0.00     0.029 A 
ATOM     48  C   UNL A   1      39.901  29.187  29.401  1.00  0.00     0.049 A 
ATOM     49  H   UNL A   1      40.004  30.055  31.293  1.00  0.00     0.167 HD
ATOM     50  C   UNL A   1      40.044  31.950  35.258  1.00  0.00     0.034 A 
ATOM     51  C   UNL A   1      40.896  28.280  29.324  1.00  0.00     0.034 A 
ATOM     52  C   UNL A   1      41.107  30.978  35.279  1.00  0.00     0.049 A 
ATOM     53  C   UNL A   1      41.799  28.088  30.514  1.00  0.00     0.074 A 
ATOM     54  C   UNL A   1      41.947  30.650  36.327  1.00  0.00     0.029 A 
ATOM     55  N   UNL A   1      41.473  30.178  34.207  1.00  0.00    -0.354 N 
ATOM     56  N   UNL A   1      41.760  28.685  31.683  1.00  0.00    -0.248 NA
ATOM     57  C   UNL A   1      42.880  27.102  30.377  1.00  0.00     0.031 C 
ATOM     58  C   UNL A   1      42.863  29.698  35.871  1.00  0.00     0.029 A 
ATOM     59  C   UNL A   1      42.548  29.379  34.559  1.00  0.00     0.049 A 
ATOM     60  H   UNL A   1      41.034  30.177  33.326  1.00  0.00     0.167 HD
ATOM     61  C   UNL A   1      42.798  28.132  32.426  1.00  0.00     0.074 A 
ATOM     62  C   UNL A   1      43.438  27.148  31.579  1.00  0.00     0.031 C 
ATOM     63  C   UNL A   1      43.183  28.412  33.697  1.00  0.00     0.034 A 
BRANCH  50  64
ATOM     64  C   UNL A   1      39.798  32.769  36.498  1.00  0.00     0.023 A 
ATOM     65  C   UNL A   1      38.874  32.360  37.474  1.00  0.00     0.031 A 
ATOM     66  C   UNL A   1      40.517  33.956  36.721  1.00  0.00     0.131 A 
ATOM     67  C   UNL A   1      38.665  33.150  38.613  1.00  0.00     0.055 A 
ATOM     68  C   UNL A   1      40.351  34.705  37.887  1.00  0.00     0.041 A 
ATOM     69  F   UNL A   1      41.397  34.402  35.811  1.00  0.00    -0.206 F 
ATOM     70  C   UNL A   1      39.416  34.307  38.839  1.00  0.00     0.022 A 
BRANCH  67  71
ATOM     71  S   UNL A   1      37.345  32.686  39.763  1.00  0.00     0.124 S 
ATOM     72  O   UNL A   1      37.815  31.388  40.243  1.00  0.00    -0.237 OA
ATOM     73  O   UNL A   1      37.373  33.774  40.734  1.00  0.00    -0.237 OA
ATOM     74  O   UNL A   1      36.154  32.637  38.917  1.00  0.00    -0.744 OA
ENDBRANCH  67  71
ENDBRANCH  50  64
BRANCH  51  75
ATOM     75  C   UNL A   1      41.091  27.488  28.078  1.00  0.00     0.023 A 
ATOM     76  C   UNL A   1      40.736  26.132  28.023  1.00  0.00     0.031 A 
ATOM     77  C   UNL A   1      41.640  28.075  26.923  1.00  0.00     0.131 A 
ATOM     78  C   UNL A   1      40.956  25.399  26.847  1.00  0.00     0.055 A 
ATOM     79  C   UNL A   1      41.817  27.353  25.743  1.00  0.00     0.041 A 
ATOM     80  F   UNL A   1      41.990  29.371  26.922  1.00  0.00    -0.206 F 
ATOM     81  C   UNL A   1      41.481  26.004  25.703  1.00  0.00     0.022 A 
BRANCH  78  82
ATOM     82  S   UNL A   1      40.579  23.625  26.843  1.00  0.00     0.124 S 
ATOM     83  O   UNL A   1      40.805  23.270  28.239  1.00  0.00    -0.237 OA
ATOM     84  O   UNL A   1      39.192  23.608  26.392  1.00  0.00    -0.237 OA
ATOM     85  O   UNL A   1      41.545  23.074  25.894  1.00  0.00    -0.744 OA
ENDBRANCH  78  82
ENDBRANCH  51  75
BRANCH  63  86
ATOM     86  C   UNL A   1      44.340  27.630  34.260  1.00  0.00     0.023 A 
ATOM     87  C   UNL A   1      44.152  26.373  34.856  1.00  0.00     0.031 A 
ATOM     88  C   UNL A   1      45.651  28.125  34.147  1.00  0.00     0.131 A 
ATOM     89  C   UNL A   1      45.258  25.662  35.345  1.00  0.00     0.055 A 
ATOM     90  C   UNL A   1      46.752  27.391  34.588  1.00  0.00     0.041 A 
ATOM     91  F   UNL A   1      45.884  29.320  33.580  1.00  0.00    -0.206 F 
ATOM     92  C   UNL A   1      46.558  26.153  35.196  1.00  0.00     0.022 A 
BRANCH  89  93
ATOM     93  S   UNL A   1      44.971  24.097  36.212  1.00  0.00     0.124 S 
ATOM     94  O   UNL A   1      44.714  24.549  37.575  1.00  0.00    -0.237 OA
ATOM     95  O   UNL A   1      43.823  23.546  35.498  1.00  0.00    -0.237 OA
ATOM     96  O   UNL A   1      46.223  23.366  36.025  1.00  0.00    -0.744 OA
ENDBRANCH  89  93
ENDBRANCH  63  86
ENDBRANCH  37  38
ENDBRANCH  29  32
ENDBRANCH  27  28
ENDBRANCH  26  27
ENDBRANCH   1  26
TORSDOF 17
ENDMDL
