MODEL 1
REMARK VINA RESULT:      -9.5      0.000      0.000
REMARK SMILES CC(C)C[C@H](NC(=O)CNC(=O)[C@@H](NC(=O)OCc1ccccc1)C(C)C)C(=O)N[C@@H](C)C(=O)NCCCCCCNC(=O)c1ccc(-c2c3nc(c(-c4cc(S(=O)(=O)[O-])ccc4F)c4ccc([nH]4)c(-c4cc(S(=O)(=O)[O-])ccc4F)c4nc(c(-c5cc(S(=O)(=O)[O-])ccc5F)c5ccc2[nH]5)C=C4)C=C3)cc1
REMARK SMILES IDX 33 1 34 2 35 3 31 5 32 6 30 7 28 8 29 9 5 11 4 12 2 13 1 14
REMARK SMILES IDX 3 15 6 16 7 17 8 19 9 20 10 21 11 22 12 24 13 25 14 26 15 27
REMARK SMILES IDX 16 29 17 30 18 31 19 32 20 33 24 34 21 35 23 36 22 37 25 38
REMARK SMILES IDX 26 39 27 40 36 41 37 42 38 43 39 44 40 45 41 46 42 47 43 48
REMARK SMILES IDX 44 50 45 51 46 52 107 53 47 54 106 55 48 56 49 57 50 58
REMARK SMILES IDX 100 59 51 60 105 61 99 62 101 63 52 64 104 65 98 66 97 67
REMARK SMILES IDX 53 69 85 70 65 71 84 72 66 73 69 74 83 75 102 76 67 77 68 78
REMARK SMILES IDX 82 80 103 81 70 82 54 83 55 84 63 85 56 86 62 87 64 88 61 89
REMARK SMILES IDX 57 90 58 91 59 92 60 93 86 94 87 95 95 96 88 97 94 98 96 99
REMARK SMILES IDX 93 100 89 101 90 102 91 103 92 104 71 105 72 106 80 107
REMARK SMILES IDX 73 108 79 109 81 110 78 111 74 112 75 113 76 114 77 115
REMARK H PARENT 35 4 30 10 6 18 10 23 14 28 42 49 101 68 69 79
REMARK Flexibility Score: inf
ROOT
ATOM      1  C   UNL A   1      35.806  20.975  25.133  1.00  0.00     0.242 C 
ATOM      2  O   UNL A   1      35.913  19.757  24.946  1.00  0.00    -0.273 OA
ATOM      3  N   UNL A   1      36.894  21.742  24.874  1.00  0.00    -0.354 N 
ATOM      4  H   UNL A   1      37.708  21.233  24.656  1.00  0.00     0.163 HD
ENDROOT
BRANCH   1   5
ATOM      5  C   UNL A   1      34.454  21.578  25.554  1.00  0.00     0.168 C 
ATOM      6  C   UNL A   1      34.209  21.442  27.051  1.00  0.00     0.041 C 
BRANCH   5   7
ATOM      7  N   UNL A   1      33.332  21.043  24.782  1.00  0.00    -0.343 N 
ATOM      8  C   UNL A   1      32.390  21.683  24.035  1.00  0.00     0.243 C 
ATOM      9  O   UNL A   1      31.796  21.015  23.185  1.00  0.00    -0.273 OA
ATOM     10  H   UNL A   1      33.242  20.063  24.807  1.00  0.00     0.164 HD
BRANCH   8  11
ATOM     11  C   UNL A   1      32.152  23.200  24.158  1.00  0.00     0.171 C 
BRANCH  11  12
ATOM     12  C   UNL A   1      30.702  23.534  24.536  1.00  0.00     0.038 C 
BRANCH  12  13
ATOM     13  C   UNL A   1      30.525  24.484  25.749  1.00  0.00    -0.015 C 
ATOM     14  C   UNL A   1      31.750  24.591  26.659  1.00  0.00     0.007 C 
ATOM     15  C   UNL A   1      30.157  25.885  25.253  1.00  0.00     0.007 C 
ENDBRANCH  12  13
ENDBRANCH  11  12
BRANCH  11  16
ATOM     16  N   UNL A   1      32.632  23.871  22.944  1.00  0.00    -0.343 N 
ATOM     17  C   UNL A   1      33.305  25.035  22.753  1.00  0.00     0.240 C 
ATOM     18  H   UNL A   1      32.427  23.386  22.112  1.00  0.00     0.164 HD
ATOM     19  O   UNL A   1      33.821  25.194  21.641  1.00  0.00    -0.273 OA
BRANCH  17  20
ATOM     20  C   UNL A   1      33.566  26.062  23.861  1.00  0.00     0.216 C 
BRANCH  20  21
ATOM     21  N   UNL A   1      33.667  27.444  23.451  1.00  0.00    -0.345 N 
ATOM     22  C   UNL A   1      33.701  28.610  24.136  1.00  0.00     0.243 C 
ATOM     23  H   UNL A   1      33.725  27.559  22.475  1.00  0.00     0.164 HD
ATOM     24  O   UNL A   1      33.916  29.617  23.448  1.00  0.00    -0.273 OA
BRANCH  22  25
ATOM     25  C   UNL A   1      33.609  28.744  25.684  1.00  0.00     0.177 C 
BRANCH  25  26
ATOM     26  N   UNL A   1      34.317  29.916  26.202  1.00  0.00    -0.309 N 
ATOM     27  C   UNL A   1      35.084  30.142  27.297  1.00  0.00     0.408 C 
ATOM     28  H   UNL A   1      34.214  30.713  25.632  1.00  0.00     0.167 HD
ATOM     29  O   UNL A   1      35.155  31.270  27.762  1.00  0.00    -0.225 OA
BRANCH  27  30
ATOM     30  O   UNL A   1      35.728  29.056  27.778  1.00  0.00    -0.445 OA
BRANCH  30  31
ATOM     31  C   UNL A   1      37.135  29.247  27.997  1.00  0.00     0.270 C 
BRANCH  31  32
ATOM     32  C   UNL A   1      37.491  29.040  29.453  1.00  0.00    -0.011 A 
ATOM     33  C   UNL A   1      36.862  29.781  30.462  1.00  0.00     0.007 A 
ATOM     34  C   UNL A   1      38.432  28.066  29.825  1.00  0.00     0.007 A 
ATOM     35  C   UNL A   1      37.169  29.551  31.805  1.00  0.00     0.000 A 
ATOM     36  C   UNL A   1      38.721  27.821  31.168  1.00  0.00     0.000 A 
ATOM     37  C   UNL A   1      38.091  28.567  32.159  1.00  0.00     0.000 A 
ENDBRANCH  31  32
ENDBRANCH  30  31
ENDBRANCH  27  30
ENDBRANCH  25  26
BRANCH  25  38
ATOM     38  C   UNL A   1      32.196  28.465  26.233  1.00  0.00     0.015 C 
ATOM     39  C   UNL A   1      32.233  28.064  27.716  1.00  0.00     0.010 C 
ATOM     40  C   UNL A   1      31.315  29.715  26.106  1.00  0.00     0.010 C 
ENDBRANCH  25  38
ENDBRANCH  22  25
ENDBRANCH  20  21
ENDBRANCH  17  20
ENDBRANCH  11  16
ENDBRANCH   8  11
ENDBRANCH   5   7
ENDBRANCH   1   5
BRANCH   3  41
ATOM     41  C   UNL A   1      37.067  23.180  24.863  1.00  0.00     0.116 C 
BRANCH  41  42
ATOM     42  C   UNL A   1      37.810  23.666  26.103  1.00  0.00     0.021 C 
BRANCH  42  43
ATOM     43  C   UNL A   1      39.013  22.802  26.501  1.00  0.00     0.002 C 
BRANCH  43  44
ATOM     44  C   UNL A   1      40.109  23.526  27.289  1.00  0.00     0.002 C 
BRANCH  44  45
ATOM     45  C   UNL A   1      39.840  25.005  27.578  1.00  0.00     0.021 C 
BRANCH  45  46
ATOM     46  C   UNL A   1      40.285  25.961  26.477  1.00  0.00     0.116 C 
BRANCH  46  47
ATOM     47  N   UNL A   1      41.467  25.481  25.784  1.00  0.00    -0.352 N 
ATOM     48  C   UNL A   1      42.679  26.105  25.611  1.00  0.00     0.251 C 
ATOM     49  H   UNL A   1      41.390  24.585  25.382  1.00  0.00     0.163 HD
ATOM     50  O   UNL A   1      43.499  25.637  24.829  1.00  0.00    -0.269 OA
BRANCH  48  51
ATOM     51  C   UNL A   1      42.972  27.351  26.352  1.00  0.00     0.039 A 
ATOM     52  C   UNL A   1      42.421  28.552  25.897  1.00  0.00     0.014 A 
ATOM     53  C   UNL A   1      43.787  27.336  27.488  1.00  0.00     0.014 A 
ATOM     54  C   UNL A   1      42.644  29.730  26.615  1.00  0.00     0.010 A 
ATOM     55  C   UNL A   1      43.951  28.497  28.239  1.00  0.00     0.010 A 
ATOM     56  C   UNL A   1      43.386  29.706  27.806  1.00  0.00    -0.014 A 
BRANCH  56  57
ATOM     57  C   UNL A   1      43.594  30.940  28.608  1.00  0.00     0.031 A 
ATOM     58  C   UNL A   1      42.651  31.275  29.731  1.00  0.00     0.074 A 
ATOM     59  C   UNL A   1      44.583  31.793  28.275  1.00  0.00     0.049 A 
ATOM     60  N   UNL A   1      42.611  32.339  30.490  1.00  0.00    -0.248 NA
ATOM     61  C   UNL A   1      41.591  30.295  30.009  1.00  0.00     0.031 C 
ATOM     62  C   UNL A   1      45.527  31.602  27.172  1.00  0.00     0.029 A 
ATOM     63  N   UNL A   1      44.949  32.998  28.819  1.00  0.00    -0.354 N 
ATOM     64  C   UNL A   1      41.509  32.168  31.323  1.00  0.00     0.074 A 
ATOM     65  C   UNL A   1      40.879  30.926  30.931  1.00  0.00     0.031 C 
ATOM     66  C   UNL A   1      46.366  32.649  27.124  1.00  0.00     0.029 A 
ATOM     67  C   UNL A   1      45.998  33.603  28.167  1.00  0.00     0.049 A 
ATOM     68  H   UNL A   1      44.502  33.394  29.603  1.00  0.00     0.167 HD
ATOM     69  C   UNL A   1      41.078  32.965  32.334  1.00  0.00     0.034 A 
ATOM     70  C   UNL A   1      46.587  34.797  28.374  1.00  0.00     0.034 A 
ATOM     71  C   UNL A   1      41.732  34.193  32.719  1.00  0.00     0.049 A 
ATOM     72  C   UNL A   1      46.099  35.664  29.504  1.00  0.00     0.074 A 
ATOM     73  C   UNL A   1      41.433  35.035  33.775  1.00  0.00     0.029 A 
ATOM     74  N   UNL A   1      42.811  34.762  32.052  1.00  0.00    -0.354 N 
ATOM     75  N   UNL A   1      45.101  35.455  30.332  1.00  0.00    -0.248 NA
ATOM     76  C   UNL A   1      46.824  36.919  29.737  1.00  0.00     0.031 C 
ATOM     77  C   UNL A   1      42.286  36.144  33.708  1.00  0.00     0.029 A 
ATOM     78  C   UNL A   1      43.167  35.960  32.654  1.00  0.00     0.049 A 
ATOM     79  H   UNL A   1      43.259  34.371  31.268  1.00  0.00     0.167 HD
ATOM     80  C   UNL A   1      45.094  36.543  31.199  1.00  0.00     0.074 A 
ATOM     81  C   UNL A   1      46.197  37.396  30.803  1.00  0.00     0.031 C 
ATOM     82  C   UNL A   1      44.257  36.810  32.235  1.00  0.00     0.034 A 
BRANCH  69  83
ATOM     83  C   UNL A   1      39.824  32.542  33.063  1.00  0.00     0.023 A 
ATOM     84  C   UNL A   1      38.563  33.075  32.740  1.00  0.00     0.031 A 
ATOM     85  C   UNL A   1      39.892  31.624  34.125  1.00  0.00     0.131 A 
ATOM     86  C   UNL A   1      37.444  32.761  33.526  1.00  0.00     0.055 A 
ATOM     87  C   UNL A   1      38.759  31.247  34.850  1.00  0.00     0.041 A 
ATOM     88  F   UNL A   1      41.069  31.092  34.495  1.00  0.00    -0.206 F 
ATOM     89  C   UNL A   1      37.528  31.831  34.564  1.00  0.00     0.022 A 
BRANCH  86  90
ATOM     90  S   UNL A   1      35.919  33.712  33.278  1.00  0.00     0.124 S 
ATOM     91  O   UNL A   1      35.050  33.147  34.308  1.00  0.00    -0.237 OA
ATOM     92  O   UNL A   1      36.363  35.082  33.498  1.00  0.00    -0.237 OA
ATOM     93  O   UNL A   1      35.534  33.390  31.905  1.00  0.00    -0.744 OA
ENDBRANCH  86  90
ENDBRANCH  69  83
BRANCH  70  94
ATOM     94  C   UNL A   1      47.690  35.250  27.479  1.00  0.00     0.023 A 
ATOM     95  C   UNL A   1      49.020  34.862  27.709  1.00  0.00     0.031 A 
ATOM     96  C   UNL A   1      47.428  36.094  26.385  1.00  0.00     0.131 A 
ATOM     97  C   UNL A   1      50.041  35.346  26.879  1.00  0.00     0.055 A 
ATOM     98  C   UNL A   1      48.441  36.536  25.535  1.00  0.00     0.041 A 
ATOM     99  F   UNL A   1      46.171  36.485  26.116  1.00  0.00    -0.206 F 
ATOM    100  C   UNL A   1      49.761  36.170  25.786  1.00  0.00     0.022 A 
BRANCH  97 101
ATOM    101  S   UNL A   1      51.761  34.930  27.281  1.00  0.00     0.124 S 
ATOM    102  O   UNL A   1      52.360  34.831  25.954  1.00  0.00    -0.237 OA
ATOM    103  O   UNL A   1      52.169  36.077  28.085  1.00  0.00    -0.237 OA
ATOM    104  O   UNL A   1      51.644  33.670  28.010  1.00  0.00    -0.744 OA
ENDBRANCH  97 101
ENDBRANCH  70  94
BRANCH  82 105
ATOM    105  C   UNL A   1      44.529  38.065  33.028  1.00  0.00     0.023 A 
ATOM    106  C   UNL A   1      43.773  39.236  32.843  1.00  0.00     0.031 A 
ATOM    107  C   UNL A   1      45.566  38.088  33.976  1.00  0.00     0.131 A 
ATOM    108  C   UNL A   1      44.099  40.398  33.560  1.00  0.00     0.055 A 
ATOM    109  C   UNL A   1      45.850  39.230  34.728  1.00  0.00     0.041 A 
ATOM    110  F   UNL A   1      46.322  37.000  34.191  1.00  0.00    -0.206 F 
ATOM    111  C   UNL A   1      45.122  40.398  34.512  1.00  0.00     0.022 A 
BRANCH 108 112
ATOM    112  S   UNL A   1      43.225  41.938  33.168  1.00  0.00     0.124 S 
ATOM    113  O   UNL A   1      43.955  42.913  33.972  1.00  0.00    -0.237 OA
ATOM    114  O   UNL A   1      43.406  42.040  31.723  1.00  0.00    -0.237 OA
ATOM    115  O   UNL A   1      41.856  41.676  33.604  1.00  0.00    -0.744 OA
ENDBRANCH 108 112
ENDBRANCH  82 105
ENDBRANCH  56  57
ENDBRANCH  48  51
ENDBRANCH  46  47
ENDBRANCH  45  46
ENDBRANCH  44  45
ENDBRANCH  43  44
ENDBRANCH  42  43
ENDBRANCH  41  42
ENDBRANCH   3  41
TORSDOF 29
ENDMDL
MODEL 2
REMARK VINA RESULT:      -8.1      4.818      8.093
REMARK SMILES CC(C)C[C@H](NC(=O)CNC(=O)[C@@H](NC(=O)OCc1ccccc1)C(C)C)C(=O)N[C@@H](C)C(=O)NCCCCCCNC(=O)c1ccc(-c2c3nc(c(-c4cc(S(=O)(=O)[O-])ccc4F)c4ccc([nH]4)c(-c4cc(S(=O)(=O)[O-])ccc4F)c4nc(c(-c5cc(S(=O)(=O)[O-])ccc5F)c5ccc2[nH]5)C=C4)C=C3)cc1
REMARK SMILES IDX 33 1 34 2 35 3 31 5 32 6 30 7 28 8 29 9 5 11 4 12 2 13 1 14
REMARK SMILES IDX 3 15 6 16 7 17 8 19 9 20 10 21 11 22 12 24 13 25 14 26 15 27
REMARK SMILES IDX 16 29 17 30 18 31 19 32 20 33 24 34 21 35 23 36 22 37 25 38
REMARK SMILES IDX 26 39 27 40 36 41 37 42 38 43 39 44 40 45 41 46 42 47 43 48
REMARK SMILES IDX 44 50 45 51 46 52 107 53 47 54 106 55 48 56 49 57 50 58
REMARK SMILES IDX 100 59 51 60 105 61 99 62 101 63 52 64 104 65 98 66 97 67
REMARK SMILES IDX 53 69 85 70 65 71 84 72 66 73 69 74 83 75 102 76 67 77 68 78
REMARK SMILES IDX 82 80 103 81 70 82 54 83 55 84 63 85 56 86 62 87 64 88 61 89
REMARK SMILES IDX 57 90 58 91 59 92 60 93 86 94 87 95 95 96 88 97 94 98 96 99
REMARK SMILES IDX 93 100 89 101 90 102 91 103 92 104 71 105 72 106 80 107
REMARK SMILES IDX 73 108 79 109 81 110 78 111 74 112 75 113 76 114 77 115
REMARK H PARENT 35 4 30 10 6 18 10 23 14 28 42 49 101 68 69 79
REMARK Flexibility Score: inf
ROOT
ATOM      1  C   UNL A   1      36.336  20.740  25.120  1.00  0.00     0.242 C 
ATOM      2  O   UNL A   1      36.021  19.562  24.917  1.00  0.00    -0.273 OA
ATOM      3  N   UNL A   1      37.660  21.034  25.154  1.00  0.00    -0.354 N 
ATOM      4  H   UNL A   1      38.252  20.247  25.113  1.00  0.00     0.163 HD
ENDROOT
BRANCH   1   5
ATOM      5  C   UNL A   1      35.249  21.825  25.235  1.00  0.00     0.168 C 
ATOM      6  C   UNL A   1      34.904  22.137  26.685  1.00  0.00     0.041 C 
BRANCH   5   7
ATOM      7  N   UNL A   1      34.049  21.506  24.461  1.00  0.00    -0.343 N 
ATOM      8  C   UNL A   1      33.422  22.207  23.476  1.00  0.00     0.243 C 
ATOM      9  O   UNL A   1      32.675  21.576  22.724  1.00  0.00    -0.273 OA
ATOM     10  H   UNL A   1      33.626  20.646  24.688  1.00  0.00     0.164 HD
BRANCH   8  11
ATOM     11  C   UNL A   1      33.715  23.699  23.232  1.00  0.00     0.171 C 
BRANCH  11  12
ATOM     12  C   UNL A   1      33.005  24.607  24.247  1.00  0.00     0.038 C 
BRANCH  12  13
ATOM     13  C   UNL A   1      32.006  23.900  25.198  1.00  0.00    -0.015 C 
ATOM     14  C   UNL A   1      31.778  24.616  26.531  1.00  0.00     0.007 C 
ATOM     15  C   UNL A   1      30.657  23.732  24.493  1.00  0.00     0.007 C 
ENDBRANCH  12  13
ENDBRANCH  11  12
BRANCH  11  16
ATOM     16  N   UNL A   1      33.442  24.028  21.828  1.00  0.00    -0.343 N 
ATOM     17  C   UNL A   1      32.831  25.091  21.245  1.00  0.00     0.240 C 
ATOM     18  H   UNL A   1      33.762  23.351  21.189  1.00  0.00     0.164 HD
ATOM     19  O   UNL A   1      33.005  25.225  20.028  1.00  0.00    -0.273 OA
BRANCH  17  20
ATOM     20  C   UNL A   1      32.077  26.176  22.024  1.00  0.00     0.216 C 
BRANCH  20  21
ATOM     21  N   UNL A   1      32.750  27.444  22.181  1.00  0.00    -0.345 N 
ATOM     22  C   UNL A   1      32.682  28.415  23.121  1.00  0.00     0.243 C 
ATOM     23  H   UNL A   1      33.388  27.642  21.457  1.00  0.00     0.164 HD
ATOM     24  O   UNL A   1      33.507  29.330  22.991  1.00  0.00    -0.273 OA
BRANCH  22  25
ATOM     25  C   UNL A   1      31.753  28.392  24.369  1.00  0.00     0.177 C 
BRANCH  25  26
ATOM     26  N   UNL A   1      30.776  27.303  24.337  1.00  0.00    -0.309 N 
ATOM     27  C   UNL A   1      29.509  27.191  23.865  1.00  0.00     0.408 C 
ATOM     28  H   UNL A   1      31.110  26.472  24.746  1.00  0.00     0.167 HD
ATOM     29  O   UNL A   1      28.748  26.379  24.369  1.00  0.00    -0.225 OA
BRANCH  27  30
ATOM     30  O   UNL A   1      29.208  28.013  22.837  1.00  0.00    -0.445 OA
BRANCH  30  31
ATOM     31  C   UNL A   1      27.995  28.764  23.013  1.00  0.00     0.270 C 
BRANCH  31  32
ATOM     32  C   UNL A   1      28.173  30.197  22.560  1.00  0.00    -0.011 A 
ATOM     33  C   UNL A   1      28.028  30.551  21.213  1.00  0.00     0.007 A 
ATOM     34  C   UNL A   1      28.448  31.210  23.493  1.00  0.00     0.007 A 
ATOM     35  C   UNL A   1      28.154  31.884  20.813  1.00  0.00     0.000 A 
ATOM     36  C   UNL A   1      28.552  32.544  23.097  1.00  0.00     0.000 A 
ATOM     37  C   UNL A   1      28.408  32.881  21.755  1.00  0.00     0.000 A 
ENDBRANCH  31  32
ENDBRANCH  30  31
ENDBRANCH  27  30
ENDBRANCH  25  26
BRANCH  25  38
ATOM     38  C   UNL A   1      32.509  28.633  25.691  1.00  0.00     0.015 C 
ATOM     39  C   UNL A   1      31.614  28.372  26.912  1.00  0.00     0.010 C 
ATOM     40  C   UNL A   1      33.724  27.701  25.791  1.00  0.00     0.010 C 
ENDBRANCH  25  38
ENDBRANCH  22  25
ENDBRANCH  20  21
ENDBRANCH  17  20
ENDBRANCH  11  16
ENDBRANCH   8  11
ENDBRANCH   5   7
ENDBRANCH   1   5
BRANCH   3  41
ATOM     41  C   UNL A   1      38.355  22.301  25.238  1.00  0.00     0.116 C 
BRANCH  41  42
ATOM     42  C   UNL A   1      38.981  22.508  26.613  1.00  0.00     0.021 C 
BRANCH  42  43
ATOM     43  C   UNL A   1      40.383  21.908  26.769  1.00  0.00     0.002 C 
BRANCH  43  44
ATOM     44  C   UNL A   1      41.520  22.925  26.913  1.00  0.00     0.002 C 
BRANCH  44  45
ATOM     45  C   UNL A   1      41.124  24.386  26.690  1.00  0.00     0.021 C 
BRANCH  45  46
ATOM     46  C   UNL A   1      42.222  25.263  26.101  1.00  0.00     0.116 C 
BRANCH  46  47
ATOM     47  N   UNL A   1      43.535  24.657  26.238  1.00  0.00    -0.352 N 
ATOM     48  C   UNL A   1      44.535  24.959  27.129  1.00  0.00     0.251 C 
ATOM     49  H   UNL A   1      43.735  23.929  25.606  1.00  0.00     0.163 HD
ATOM     50  O   UNL A   1      45.654  24.481  26.975  1.00  0.00    -0.269 OA
BRANCH  48  51
ATOM     51  C   UNL A   1      44.260  25.882  28.253  1.00  0.00     0.039 A 
ATOM     52  C   UNL A   1      44.822  27.161  28.229  1.00  0.00     0.014 A 
ATOM     53  C   UNL A   1      43.453  25.486  29.325  1.00  0.00     0.014 A 
ATOM     54  C   UNL A   1      44.529  28.063  29.255  1.00  0.00     0.010 A 
ATOM     55  C   UNL A   1      43.108  26.409  30.309  1.00  0.00     0.010 A 
ATOM     56  C   UNL A   1      43.648  27.704  30.287  1.00  0.00    -0.014 A 
BRANCH  56  57
ATOM     57  C   UNL A   1      43.288  28.666  31.361  1.00  0.00     0.031 A 
ATOM     58  C   UNL A   1      43.918  28.544  32.722  1.00  0.00     0.074 A 
ATOM     59  C   UNL A   1      42.340  29.596  31.133  1.00  0.00     0.049 A 
ATOM     60  N   UNL A   1      43.678  29.226  33.811  1.00  0.00    -0.248 NA
ATOM     61  C   UNL A   1      44.928  27.487  32.883  1.00  0.00     0.031 C 
ATOM     62  C   UNL A   1      41.619  29.775  29.871  1.00  0.00     0.029 A 
ATOM     63  N   UNL A   1      41.807  30.554  31.958  1.00  0.00    -0.354 N 
ATOM     64  C   UNL A   1      44.490  28.670  34.794  1.00  0.00     0.074 A 
ATOM     65  C   UNL A   1      45.183  27.556  34.180  1.00  0.00     0.031 C 
ATOM     66  C   UNL A   1      40.743  30.784  30.005  1.00  0.00     0.029 A 
ATOM     67  C   UNL A   1      40.812  31.298  31.369  1.00  0.00     0.049 A 
ATOM     68  H   UNL A   1      42.108  30.695  32.886  1.00  0.00     0.167 HD
ATOM     69  C   UNL A   1      44.657  29.065  36.081  1.00  0.00     0.034 A 
ATOM     70  C   UNL A   1      40.031  32.274  31.875  1.00  0.00     0.034 A 
ATOM     71  C   UNL A   1      43.968  30.189  36.668  1.00  0.00     0.049 A 
ATOM     72  C   UNL A   1      40.236  32.703  33.304  1.00  0.00     0.074 A 
ATOM     73  C   UNL A   1      44.118  30.729  37.933  1.00  0.00     0.029 A 
ATOM     74  N   UNL A   1      42.985  30.940  36.033  1.00  0.00    -0.354 N 
ATOM     75  N   UNL A   1      41.061  32.215  34.202  1.00  0.00    -0.248 NA
ATOM     76  C   UNL A   1      39.415  33.822  33.783  1.00  0.00     0.031 C 
ATOM     77  C   UNL A   1      43.183  31.760  38.086  1.00  0.00     0.029 A 
ATOM     78  C   UNL A   1      42.498  31.914  36.891  1.00  0.00     0.049 A 
ATOM     79  H   UNL A   1      42.680  30.800  35.107  1.00  0.00     0.167 HD
ATOM     80  C   UNL A   1      40.874  32.985  35.346  1.00  0.00     0.074 A 
ATOM     81  C   UNL A   1      39.870  33.977  35.018  1.00  0.00     0.031 C 
ATOM     82  C   UNL A   1      41.482  32.885  36.556  1.00  0.00     0.034 A 
BRANCH  69  83
ATOM     83  C   UNL A   1      45.596  28.249  36.941  1.00  0.00     0.023 A 
ATOM     84  C   UNL A   1      46.976  28.518  36.991  1.00  0.00     0.031 A 
ATOM     85  C   UNL A   1      45.114  27.160  37.687  1.00  0.00     0.131 A 
ATOM     86  C   UNL A   1      47.834  27.658  37.692  1.00  0.00     0.055 A 
ATOM     87  C   UNL A   1      45.963  26.358  38.455  1.00  0.00     0.041 A 
ATOM     88  F   UNL A   1      43.810  26.840  37.666  1.00  0.00    -0.206 F 
ATOM     89  C   UNL A   1      47.334  26.593  38.445  1.00  0.00     0.022 A 
BRANCH  86  90
ATOM     90  S   UNL A   1      49.624  27.851  37.467  1.00  0.00     0.124 S 
ATOM     91  O   UNL A   1      49.704  29.181  36.868  1.00  0.00    -0.237 OA
ATOM     92  O   UNL A   1      50.126  27.732  38.830  1.00  0.00    -0.237 OA
ATOM     93  O   UNL A   1      49.978  26.751  36.572  1.00  0.00    -0.744 OA
ENDBRANCH  86  90
ENDBRANCH  69  83
BRANCH  70  94
ATOM     94  C   UNL A   1      38.974  32.897  31.029  1.00  0.00     0.023 A 
ATOM     95  C   UNL A   1      37.618  32.578  31.207  1.00  0.00     0.031 A 
ATOM     96  C   UNL A   1      39.310  33.814  30.018  1.00  0.00     0.131 A 
ATOM     97  C   UNL A   1      36.652  33.143  30.361  1.00  0.00     0.055 A 
ATOM     98  C   UNL A   1      38.341  34.408  29.209  1.00  0.00     0.041 A 
ATOM     99  F   UNL A   1      40.592  34.161  29.815  1.00  0.00    -0.206 F 
ATOM    100  C   UNL A   1      37.002  34.066  29.372  1.00  0.00     0.022 A 
BRANCH  97 101
ATOM    101  S   UNL A   1      34.927  32.611  30.533  1.00  0.00     0.124 S 
ATOM    102  O   UNL A   1      34.223  33.890  30.559  1.00  0.00    -0.237 OA
ATOM    103  O   UNL A   1      34.740  31.800  29.335  1.00  0.00    -0.237 OA
ATOM    104  O   UNL A   1      34.922  31.870  31.792  1.00  0.00    -0.744 OA
ENDBRANCH  97 101
ENDBRANCH  70  94
BRANCH  82 105
ATOM    105  C   UNL A   1      41.094  33.901  37.602  1.00  0.00     0.023 A 
ATOM    106  C   UNL A   1      41.830  35.083  37.794  1.00  0.00     0.031 A 
ATOM    107  C   UNL A   1      39.976  33.676  38.424  1.00  0.00     0.131 A 
ATOM    108  C   UNL A   1      41.469  35.972  38.818  1.00  0.00     0.055 A 
ATOM    109  C   UNL A   1      39.588  34.591  39.404  1.00  0.00     0.041 A 
ATOM    110  F   UNL A   1      39.240  32.562  38.287  1.00  0.00    -0.206 F 
ATOM    111  C   UNL A   1      40.343  35.742  39.613  1.00  0.00     0.022 A 
BRANCH 108 112
ATOM    112  S   UNL A   1      42.542  37.395  39.157  1.00  0.00     0.124 S 
ATOM    113  O   UNL A   1      43.453  36.854  40.162  1.00  0.00    -0.237 OA
ATOM    114  O   UNL A   1      43.126  37.664  37.847  1.00  0.00    -0.237 OA
ATOM    115  O   UNL A   1      41.616  38.415  39.644  1.00  0.00    -0.744 OA
ENDBRANCH 108 112
ENDBRANCH  82 105
ENDBRANCH  56  57
ENDBRANCH  48  51
ENDBRANCH  46  47
ENDBRANCH  45  46
ENDBRANCH  44  45
ENDBRANCH  43  44
ENDBRANCH  42  43
ENDBRANCH  41  42
ENDBRANCH   3  41
TORSDOF 29
ENDMDL
MODEL 3
REMARK VINA RESULT:      -8.1      7.212      9.731
REMARK SMILES CC(C)C[C@H](NC(=O)CNC(=O)[C@@H](NC(=O)OCc1ccccc1)C(C)C)C(=O)N[C@@H](C)C(=O)NCCCCCCNC(=O)c1ccc(-c2c3nc(c(-c4cc(S(=O)(=O)[O-])ccc4F)c4ccc([nH]4)c(-c4cc(S(=O)(=O)[O-])ccc4F)c4nc(c(-c5cc(S(=O)(=O)[O-])ccc5F)c5ccc2[nH]5)C=C4)C=C3)cc1
REMARK SMILES IDX 33 1 34 2 35 3 31 5 32 6 30 7 28 8 29 9 5 11 4 12 2 13 1 14
REMARK SMILES IDX 3 15 6 16 7 17 8 19 9 20 10 21 11 22 12 24 13 25 14 26 15 27
REMARK SMILES IDX 16 29 17 30 18 31 19 32 20 33 24 34 21 35 23 36 22 37 25 38
REMARK SMILES IDX 26 39 27 40 36 41 37 42 38 43 39 44 40 45 41 46 42 47 43 48
REMARK SMILES IDX 44 50 45 51 46 52 107 53 47 54 106 55 48 56 49 57 50 58
REMARK SMILES IDX 100 59 51 60 105 61 99 62 101 63 52 64 104 65 98 66 97 67
REMARK SMILES IDX 53 69 85 70 65 71 84 72 66 73 69 74 83 75 102 76 67 77 68 78
REMARK SMILES IDX 82 80 103 81 70 82 54 83 55 84 63 85 56 86 62 87 64 88 61 89
REMARK SMILES IDX 57 90 58 91 59 92 60 93 86 94 87 95 95 96 88 97 94 98 96 99
REMARK SMILES IDX 93 100 89 101 90 102 91 103 92 104 71 105 72 106 80 107
REMARK SMILES IDX 73 108 79 109 81 110 78 111 74 112 75 113 76 114 77 115
REMARK H PARENT 35 4 30 10 6 18 10 23 14 28 42 49 101 68 69 79
REMARK Flexibility Score: inf
ROOT
ATOM      1  C   UNL A   1      36.661  21.229  25.358  1.00  0.00     0.242 C 
ATOM      2  O   UNL A   1      36.949  20.082  24.998  1.00  0.00    -0.273 OA
ATOM      3  N   UNL A   1      37.663  22.144  25.380  1.00  0.00    -0.354 N 
ATOM      4  H   UNL A   1      38.557  21.773  25.201  1.00  0.00     0.163 HD
ENDROOT
BRANCH   1   5
ATOM      5  C   UNL A   1      35.201  21.599  25.675  1.00  0.00     0.168 C 
ATOM      6  C   UNL A   1      34.991  21.883  27.156  1.00  0.00     0.041 C 
BRANCH   5   7
ATOM      7  N   UNL A   1      34.247  20.603  25.185  1.00  0.00    -0.343 N 
ATOM      8  C   UNL A   1      33.031  20.762  24.594  1.00  0.00     0.243 C 
ATOM      9  O   UNL A   1      32.598  19.814  23.933  1.00  0.00    -0.273 OA
ATOM     10  H   UNL A   1      34.529  19.667  25.302  1.00  0.00     0.164 HD
BRANCH   8  11
ATOM     11  C   UNL A   1      32.274  22.102  24.645  1.00  0.00     0.171 C 
BRANCH  11  12
ATOM     12  C   UNL A   1      30.954  21.998  25.423  1.00  0.00     0.038 C 
BRANCH  12  13
ATOM     13  C   UNL A   1      30.910  22.756  26.775  1.00  0.00    -0.015 C 
ATOM     14  C   UNL A   1      31.578  24.132  26.758  1.00  0.00     0.007 C 
ATOM     15  C   UNL A   1      29.455  22.922  27.223  1.00  0.00     0.007 C 
ENDBRANCH  12  13
ENDBRANCH  11  12
BRANCH  11  16
ATOM     16  N   UNL A   1      32.136  22.639  23.285  1.00  0.00    -0.343 N 
ATOM     17  C   UNL A   1      33.016  23.256  22.457  1.00  0.00     0.240 C 
ATOM     18  H   UNL A   1      31.235  22.531  22.903  1.00  0.00     0.164 HD
ATOM     19  O   UNL A   1      32.687  23.336  21.268  1.00  0.00    -0.273 OA
BRANCH  17  20
ATOM     20  C   UNL A   1      34.415  23.715  22.886  1.00  0.00     0.216 C 
BRANCH  20  21
ATOM     21  N   UNL A   1      34.516  24.361  24.174  1.00  0.00    -0.345 N 
ATOM     22  C   UNL A   1      34.049  25.536  24.658  1.00  0.00     0.243 C 
ATOM     23  H   UNL A   1      35.029  23.841  24.835  1.00  0.00     0.164 HD
ATOM     24  O   UNL A   1      34.232  25.714  25.870  1.00  0.00    -0.273 OA
BRANCH  22  25
ATOM     25  C   UNL A   1      33.224  26.576  23.845  1.00  0.00     0.177 C 
BRANCH  25  26
ATOM     26  N   UNL A   1      32.574  27.579  24.689  1.00  0.00    -0.309 N 
ATOM     27  C   UNL A   1      31.397  28.249  24.615  1.00  0.00     0.408 C 
ATOM     28  H   UNL A   1      33.107  27.821  25.482  1.00  0.00     0.167 HD
ATOM     29  O   UNL A   1      31.295  29.348  25.139  1.00  0.00    -0.225 OA
BRANCH  27  30
ATOM     30  O   UNL A   1      30.413  27.603  23.952  1.00  0.00    -0.445 OA
BRANCH  30  31
ATOM     31  C   UNL A   1      30.224  28.040  22.596  1.00  0.00     0.270 C 
BRANCH  31  32
ATOM     32  C   UNL A   1      29.287  29.225  22.533  1.00  0.00    -0.011 A 
ATOM     33  C   UNL A   1      28.095  29.243  23.270  1.00  0.00     0.007 A 
ATOM     34  C   UNL A   1      29.613  30.353  21.763  1.00  0.00     0.007 A 
ATOM     35  C   UNL A   1      27.258  30.360  23.236  1.00  0.00     0.000 A 
ATOM     36  C   UNL A   1      28.788  31.478  21.747  1.00  0.00     0.000 A 
ATOM     37  C   UNL A   1      27.607  31.480  22.482  1.00  0.00     0.000 A 
ENDBRANCH  31  32
ENDBRANCH  30  31
ENDBRANCH  27  30
ENDBRANCH  25  26
BRANCH  25  38
ATOM     38  C   UNL A   1      33.953  27.071  22.580  1.00  0.00     0.015 C 
ATOM     39  C   UNL A   1      33.200  26.678  21.300  1.00  0.00     0.010 C 
ATOM     40  C   UNL A   1      34.081  28.601  22.600  1.00  0.00     0.010 C 
ENDBRANCH  25  38
ENDBRANCH  22  25
ENDBRANCH  20  21
ENDBRANCH  17  20
ENDBRANCH  11  16
ENDBRANCH   8  11
ENDBRANCH   5   7
ENDBRANCH   1   5
BRANCH   3  41
ATOM     41  C   UNL A   1      37.646  23.572  25.620  1.00  0.00     0.116 C 
BRANCH  41  42
ATOM     42  C   UNL A   1      38.369  23.932  26.913  1.00  0.00     0.021 C 
BRANCH  42  43
ATOM     43  C   UNL A   1      39.752  24.564  26.712  1.00  0.00     0.002 C 
BRANCH  43  44
ATOM     44  C   UNL A   1      40.217  25.496  27.835  1.00  0.00     0.002 C 
BRANCH  44  45
ATOM     45  C   UNL A   1      39.512  26.854  27.893  1.00  0.00     0.021 C 
BRANCH  45  46
ATOM     46  C   UNL A   1      40.423  28.056  27.671  1.00  0.00     0.116 C 
BRANCH  46  47
ATOM     47  N   UNL A   1      40.861  28.159  26.290  1.00  0.00    -0.352 N 
ATOM     48  C   UNL A   1      42.137  28.111  25.785  1.00  0.00     0.251 C 
ATOM     49  H   UNL A   1      40.145  28.279  25.625  1.00  0.00     0.163 HD
ATOM     50  O   UNL A   1      42.340  28.414  24.614  1.00  0.00    -0.269 OA
BRANCH  48  51
ATOM     51  C   UNL A   1      43.259  27.720  26.666  1.00  0.00     0.039 A 
ATOM     52  C   UNL A   1      43.760  26.418  26.583  1.00  0.00     0.014 A 
ATOM     53  C   UNL A   1      43.813  28.632  27.570  1.00  0.00     0.014 A 
ATOM     54  C   UNL A   1      44.855  26.048  27.370  1.00  0.00     0.010 A 
ATOM     55  C   UNL A   1      44.945  28.282  28.301  1.00  0.00     0.010 A 
ATOM     56  C   UNL A   1      45.473  26.985  28.213  1.00  0.00    -0.014 A 
BRANCH  56  57
ATOM     57  C   UNL A   1      46.666  26.623  29.022  1.00  0.00     0.031 A 
ATOM     58  C   UNL A   1      46.495  26.109  30.425  1.00  0.00     0.074 A 
ATOM     59  C   UNL A   1      47.899  26.830  28.520  1.00  0.00     0.049 A 
ATOM     60  N   UNL A   1      47.405  25.818  31.318  1.00  0.00    -0.248 NA
ATOM     61  C   UNL A   1      45.112  25.932  30.894  1.00  0.00     0.031 C 
ATOM     62  C   UNL A   1      48.190  27.376  27.192  1.00  0.00     0.029 A 
ATOM     63  N   UNL A   1      49.138  26.624  29.072  1.00  0.00    -0.354 N 
ATOM     64  C   UNL A   1      46.708  25.446  32.463  1.00  0.00     0.074 A 
ATOM     65  C   UNL A   1      45.300  25.605  32.163  1.00  0.00     0.031 C 
ATOM     66  C   UNL A   1      49.521  27.456  27.032  1.00  0.00     0.029 A 
ATOM     67  C   UNL A   1      50.177  27.004  28.255  1.00  0.00     0.049 A 
ATOM     68  H   UNL A   1      49.271  26.241  29.970  1.00  0.00     0.167 HD
ATOM     69  C   UNL A   1      47.196  24.994  33.645  1.00  0.00     0.034 A 
ATOM     70  C   UNL A   1      51.507  27.004  28.472  1.00  0.00     0.034 A 
ATOM     71  C   UNL A   1      48.604  24.826  33.917  1.00  0.00     0.049 A 
ATOM     72  C   UNL A   1      52.031  26.493  29.788  1.00  0.00     0.074 A 
ATOM     73  C   UNL A   1      49.209  24.301  35.045  1.00  0.00     0.029 A 
ATOM     74  N   UNL A   1      49.630  25.195  33.054  1.00  0.00    -0.354 N 
ATOM     75  N   UNL A   1      51.360  26.074  30.836  1.00  0.00    -0.248 NA
ATOM     76  C   UNL A   1      53.490  26.440  29.945  1.00  0.00     0.031 C 
ATOM     77  C   UNL A   1      50.596  24.413  34.893  1.00  0.00     0.029 A 
ATOM     78  C   UNL A   1      50.861  24.941  33.639  1.00  0.00     0.049 A 
ATOM     79  H   UNL A   1      49.501  25.581  32.158  1.00  0.00     0.167 HD
ATOM     80  C   UNL A   1      52.317  25.685  31.768  1.00  0.00     0.074 A 
ATOM     81  C   UNL A   1      53.610  25.906  31.152  1.00  0.00     0.031 C 
ATOM     82  C   UNL A   1      52.143  25.185  33.019  1.00  0.00     0.034 A 
BRANCH  69  83
ATOM     83  C   UNL A   1      46.197  24.684  34.735  1.00  0.00     0.023 A 
ATOM     84  C   UNL A   1      45.640  25.694  35.540  1.00  0.00     0.031 A 
ATOM     85  C   UNL A   1      45.826  23.355  35.005  1.00  0.00     0.131 A 
ATOM     86  C   UNL A   1      44.821  25.356  36.628  1.00  0.00     0.055 A 
ATOM     87  C   UNL A   1      44.940  23.030  36.036  1.00  0.00     0.041 A 
ATOM     88  F   UNL A   1      46.337  22.343  34.285  1.00  0.00    -0.206 F 
ATOM     89  C   UNL A   1      44.448  24.032  36.867  1.00  0.00     0.022 A 
BRANCH  86  90
ATOM     90  S   UNL A   1      44.391  26.652  37.822  1.00  0.00     0.124 S 
ATOM     91  O   UNL A   1      44.803  27.858  37.108  1.00  0.00    -0.237 OA
ATOM     92  O   UNL A   1      42.955  26.464  37.985  1.00  0.00    -0.237 OA
ATOM     93  O   UNL A   1      45.202  26.323  38.992  1.00  0.00    -0.744 OA
ENDBRANCH  86  90
ENDBRANCH  69  83
BRANCH  70  94
ATOM     94  C   UNL A   1      52.434  27.524  27.426  1.00  0.00     0.023 A 
ATOM     95  C   UNL A   1      53.206  26.653  26.640  1.00  0.00     0.031 A 
ATOM     96  C   UNL A   1      52.569  28.906  27.208  1.00  0.00     0.131 A 
ATOM     97  C   UNL A   1      54.106  27.176  25.699  1.00  0.00     0.055 A 
ATOM     98  C   UNL A   1      53.431  29.420  26.239  1.00  0.00     0.041 A 
ATOM     99  F   UNL A   1      51.844  29.781  27.926  1.00  0.00    -0.206 F 
ATOM    100  C   UNL A   1      54.215  28.552  25.484  1.00  0.00     0.022 A 
BRANCH  97 101
ATOM    101  S   UNL A   1      55.181  26.030  24.794  1.00  0.00     0.124 S 
ATOM    102  O   UNL A   1      56.366  26.000  25.644  1.00  0.00    -0.237 OA
ATOM    103  O   UNL A   1      54.376  24.814  24.772  1.00  0.00    -0.237 OA
ATOM    104  O   UNL A   1      55.358  26.681  23.498  1.00  0.00    -0.744 OA
ENDBRANCH  97 101
ENDBRANCH  70  94
BRANCH  82 105
ATOM    105  C   UNL A   1      53.389  24.814  33.786  1.00  0.00     0.023 A 
ATOM    106  C   UNL A   1      53.909  25.640  34.797  1.00  0.00     0.031 A 
ATOM    107  C   UNL A   1      54.068  23.619  33.492  1.00  0.00     0.131 A 
ATOM    108  C   UNL A   1      55.103  25.285  35.444  1.00  0.00     0.055 A 
ATOM    109  C   UNL A   1      55.224  23.242  34.178  1.00  0.00     0.041 A 
ATOM    110  F   UNL A   1      53.617  22.793  32.534  1.00  0.00    -0.206 F 
ATOM    111  C   UNL A   1      55.755  24.084  35.152  1.00  0.00     0.022 A 
BRANCH 108 112
ATOM    112  S   UNL A   1      55.844  26.458  36.612  1.00  0.00     0.124 S 
ATOM    113  O   UNL A   1      55.492  27.743  36.017  1.00  0.00    -0.237 OA
ATOM    114  O   UNL A   1      55.164  26.126  37.861  1.00  0.00    -0.237 OA
ATOM    115  O   UNL A   1      57.267  26.126  36.576  1.00  0.00    -0.744 OA
ENDBRANCH 108 112
ENDBRANCH  82 105
ENDBRANCH  56  57
ENDBRANCH  48  51
ENDBRANCH  46  47
ENDBRANCH  45  46
ENDBRANCH  44  45
ENDBRANCH  43  44
ENDBRANCH  42  43
ENDBRANCH  41  42
ENDBRANCH   3  41
TORSDOF 29
ENDMDL
