MODEL 1
REMARK VINA RESULT:     -12.4      0.000      0.000
REMARK SMILES O=C(NCCCCCCNC(=O)[C@@H]1c2ccccc2C(=O)N(C2CCCC2)C12CCCCC2)c1ccc(-c2c3nc(c(-c4cc(S(=O)(=O)[O-])ccc4F)c4ccc([nH]4)c(-c4cc(S(=O)(=O)[O-])ccc4F)c4nc(c(-c5cc(S(=O)(=O)[O-])ccc5F)c5ccc2[nH]5)C=C4)C=C3)cc1
REMARK SMILES IDX 5 1 4 2 3 3 1 4 2 5 34 7 35 8 96 9 36 10 95 11 37 12 38 13
REMARK SMILES IDX 39 14 89 15 40 16 94 17 88 18 90 19 41 20 93 21 87 22 86 23
REMARK SMILES IDX 42 25 74 26 54 27 73 28 55 29 58 30 72 31 91 32 56 33 57 34
REMARK SMILES IDX 71 36 92 37 59 38 43 39 44 40 52 41 45 42 51 43 53 44 50 45
REMARK SMILES IDX 46 46 47 47 48 48 49 49 75 50 76 51 84 52 77 53 83 54 85 55
REMARK SMILES IDX 82 56 78 57 79 58 80 59 81 60 60 61 61 62 69 63 62 64 68 65
REMARK SMILES IDX 70 66 67 67 63 68 64 69 65 70 66 71 6 72 7 73 8 74 9 75
REMARK SMILES IDX 10 76 11 77 12 79 13 80 14 81 28 82 15 83 19 84 22 85 29 86
REMARK SMILES IDX 33 87 16 88 18 89 20 90 30 91 32 92 17 93 21 94 31 95 23 96
REMARK SMILES IDX 24 97 27 98 25 99 26 100
REMARK H PARENT 3 6 90 24 58 35 10 78
REMARK Flexibility Score: inf
ROOT
ATOM      1  C   UNL A   1      32.713  29.033  23.938  1.00  0.00     0.021 C 
ENDROOT
BRANCH   1   2
ATOM      2  C   UNL A   1      33.156  29.345  25.358  1.00  0.00     0.116 C 
BRANCH   2   3
ATOM      3  N   UNL A   1      32.623  30.592  25.876  1.00  0.00    -0.352 N 
ATOM      4  O   UNL A   1      32.477  32.370  27.249  1.00  0.00    -0.269 OA
ATOM      5  C   UNL A   1      33.109  31.378  26.891  1.00  0.00     0.251 C 
ATOM      6  H   UNL A   1      31.801  30.917  25.441  1.00  0.00     0.163 HD
BRANCH   5   7
ATOM      7  C   UNL A   1      34.372  31.012  27.573  1.00  0.00     0.039 A 
ATOM      8  C   UNL A   1      35.351  31.992  27.740  1.00  0.00     0.014 A 
ATOM      9  C   UNL A   1      34.594  29.716  28.047  1.00  0.00     0.014 A 
ATOM     10  C   UNL A   1      36.536  31.678  28.408  1.00  0.00     0.010 A 
ATOM     11  C   UNL A   1      35.728  29.433  28.800  1.00  0.00     0.010 A 
ATOM     12  C   UNL A   1      36.728  30.399  28.961  1.00  0.00    -0.014 A 
BRANCH  12  13
ATOM     13  C   UNL A   1      37.990  30.057  29.668  1.00  0.00     0.031 A 
ATOM     14  C   UNL A   1      38.255  30.593  31.049  1.00  0.00     0.074 A 
ATOM     15  C   UNL A   1      38.906  29.278  29.060  1.00  0.00     0.049 A 
ATOM     16  N   UNL A   1      39.279  30.377  31.834  1.00  0.00    -0.248 NA
ATOM     17  C   UNL A   1      37.257  31.516  31.612  1.00  0.00     0.031 C 
ATOM     18  C   UNL A   1      38.793  28.765  27.696  1.00  0.00     0.029 A 
ATOM     19  N   UNL A   1      40.102  28.778  29.509  1.00  0.00    -0.354 N 
ATOM     20  C   UNL A   1      39.042  31.129  32.979  1.00  0.00     0.074 A 
ATOM     21  C   UNL A   1      37.834  31.884  32.745  1.00  0.00     0.031 C 
ATOM     22  C   UNL A   1      39.852  27.984  27.434  1.00  0.00     0.029 A 
ATOM     23  C   UNL A   1      40.739  27.970  28.597  1.00  0.00     0.049 A 
ATOM     24  H   UNL A   1      40.469  28.978  30.400  1.00  0.00     0.167 HD
ATOM     25  C   UNL A   1      39.738  31.149  34.141  1.00  0.00     0.034 A 
ATOM     26  C   UNL A   1      41.898  27.286  28.685  1.00  0.00     0.034 A 
ATOM     27  C   UNL A   1      40.935  30.380  34.364  1.00  0.00     0.049 A 
ATOM     28  C   UNL A   1      42.655  27.309  29.988  1.00  0.00     0.074 A 
ATOM     29  C   UNL A   1      41.697  30.297  35.515  1.00  0.00     0.029 A 
ATOM     30  N   UNL A   1      41.544  29.558  33.425  1.00  0.00    -0.354 N 
ATOM     31  N   UNL A   1      42.368  27.949  31.099  1.00  0.00    -0.248 NA
ATOM     32  C   UNL A   1      43.882  26.504  30.064  1.00  0.00     0.031 C 
ATOM     33  C   UNL A   1      42.797  29.478  35.253  1.00  0.00     0.029 A 
ATOM     34  C   UNL A   1      42.684  28.983  33.963  1.00  0.00     0.049 A 
ATOM     35  H   UNL A   1      41.213  29.405  32.510  1.00  0.00     0.167 HD
ATOM     36  C   UNL A   1      43.372  27.619  32.005  1.00  0.00     0.074 A 
ATOM     37  C   UNL A   1      44.246  26.684  31.327  1.00  0.00     0.031 C 
ATOM     38  C   UNL A   1      43.561  28.061  33.276  1.00  0.00     0.034 A 
BRANCH  25  39
ATOM     39  C   UNL A   1      39.206  31.992  35.276  1.00  0.00     0.023 A 
ATOM     40  C   UNL A   1      39.695  33.293  35.490  1.00  0.00     0.031 A 
ATOM     41  C   UNL A   1      38.283  31.471  36.204  1.00  0.00     0.131 A 
ATOM     42  C   UNL A   1      39.280  34.016  36.615  1.00  0.00     0.055 A 
ATOM     43  C   UNL A   1      37.832  32.216  37.293  1.00  0.00     0.041 A 
ATOM     44  F   UNL A   1      37.785  30.232  36.050  1.00  0.00    -0.206 F 
ATOM     45  C   UNL A   1      38.341  33.491  37.509  1.00  0.00     0.022 A 
BRANCH  42  46
ATOM     46  S   UNL A   1      39.987  35.641  37.002  1.00  0.00     0.124 S 
ATOM     47  O   UNL A   1      39.277  35.992  38.231  1.00  0.00    -0.237 OA
ATOM     48  O   UNL A   1      41.402  35.325  37.168  1.00  0.00    -0.237 OA
ATOM     49  O   UNL A   1      39.653  36.454  35.839  1.00  0.00    -0.744 OA
ENDBRANCH  42  46
ENDBRANCH  25  39
BRANCH  26  50
ATOM     50  C   UNL A   1      42.339  26.466  27.518  1.00  0.00     0.023 A 
ATOM     51  C   UNL A   1      42.160  25.070  27.513  1.00  0.00     0.031 A 
ATOM     52  C   UNL A   1      43.072  27.042  26.466  1.00  0.00     0.131 A 
ATOM     53  C   UNL A   1      42.781  24.292  26.527  1.00  0.00     0.055 A 
ATOM     54  C   UNL A   1      43.618  26.269  25.440  1.00  0.00     0.041 A 
ATOM     55  F   UNL A   1      43.284  28.366  26.434  1.00  0.00    -0.206 F 
ATOM     56  C   UNL A   1      43.492  24.884  25.479  1.00  0.00     0.022 A 
BRANCH  53  57
ATOM     57  S   UNL A   1      42.817  22.482  26.664  1.00  0.00     0.124 S 
ATOM     58  O   UNL A   1      41.949  22.244  27.813  1.00  0.00    -0.237 OA
ATOM     59  O   UNL A   1      42.276  22.077  25.369  1.00  0.00    -0.237 OA
ATOM     60  O   UNL A   1      44.229  22.179  26.866  1.00  0.00    -0.744 OA
ENDBRANCH  53  57
ENDBRANCH  26  50
BRANCH  38  61
ATOM     61  C   UNL A   1      44.777  27.574  34.030  1.00  0.00     0.023 A 
ATOM     62  C   UNL A   1      44.693  26.444  34.866  1.00  0.00     0.031 A 
ATOM     63  C   UNL A   1      45.979  28.305  34.026  1.00  0.00     0.131 A 
ATOM     64  C   UNL A   1      45.775  26.097  35.685  1.00  0.00     0.055 A 
ATOM     65  C   UNL A   1      47.075  27.923  34.802  1.00  0.00     0.041 A 
ATOM     66  F   UNL A   1      46.108  29.401  33.262  1.00  0.00    -0.206 F 
ATOM     67  C   UNL A   1      46.971  26.823  35.646  1.00  0.00     0.022 A 
BRANCH  64  68
ATOM     68  S   UNL A   1      45.643  24.757  36.901  1.00  0.00     0.124 S 
ATOM     69  O   UNL A   1      46.803  25.009  37.754  1.00  0.00    -0.237 OA
ATOM     70  O   UNL A   1      44.347  25.026  37.517  1.00  0.00    -0.237 OA
ATOM     71  O   UNL A   1      45.714  23.543  36.095  1.00  0.00    -0.744 OA
ENDBRANCH  64  68
ENDBRANCH  38  61
ENDBRANCH  12  13
ENDBRANCH   5   7
ENDBRANCH   2   3
ENDBRANCH   1   2
BRANCH   1  72
ATOM     72  C   UNL A   1      33.842  28.797  22.935  1.00  0.00     0.002 C 
BRANCH  72  73
ATOM     73  C   UNL A   1      34.009  27.369  22.407  1.00  0.00     0.002 C 
BRANCH  73  74
ATOM     74  C   UNL A   1      32.763  26.671  21.843  1.00  0.00     0.021 C 
BRANCH  74  75
ATOM     75  C   UNL A   1      32.853  25.156  21.682  1.00  0.00     0.116 C 
BRANCH  75  76
ATOM     76  N   UNL A   1      31.805  24.444  22.383  1.00  0.00    -0.355 N 
ATOM     77  C   UNL A   1      31.882  23.560  23.419  1.00  0.00     0.229 C 
ATOM     78  H   UNL A   1      30.893  24.626  22.061  1.00  0.00     0.163 HD
ATOM     79  O   UNL A   1      30.811  23.249  23.946  1.00  0.00    -0.274 OA
BRANCH  77  80
ATOM     80  C   UNL A   1      33.225  22.926  23.826  1.00  0.00     0.135 C 
ATOM     81  C   UNL A   1      33.143  21.388  23.801  1.00  0.00    -0.020 A 
ATOM     82  C   UNL A   1      33.844  23.433  25.194  1.00  0.00     0.059 C 
ATOM     83  C   UNL A   1      32.241  20.695  22.969  1.00  0.00     0.005 A 
ATOM     84  C   UNL A   1      34.015  20.623  24.594  1.00  0.00     0.044 A 
ATOM     85  N   UNL A   1      35.176  22.668  25.324  1.00  0.00    -0.329 N 
ATOM     86  C   UNL A   1      33.003  23.047  26.467  1.00  0.00     0.030 C 
ATOM     87  C   UNL A   1      34.024  24.980  25.234  1.00  0.00     0.030 C 
ATOM     88  C   UNL A   1      32.153  19.300  22.997  1.00  0.00     0.000 A 
ATOM     89  C   UNL A   1      33.920  19.223  24.624  1.00  0.00     0.014 A 
ATOM     90  C   UNL A   1      35.137  21.264  25.326  1.00  0.00     0.254 C 
ATOM     91  C   UNL A   1      31.779  23.901  26.793  1.00  0.00     0.002 C 
ATOM     92  C   UNL A   1      32.779  25.817  25.541  1.00  0.00     0.002 C 
ATOM     93  C   UNL A   1      32.979  18.563  23.838  1.00  0.00     0.001 A 
ATOM     94  O   UNL A   1      36.020  20.554  25.800  1.00  0.00    -0.269 OA
ATOM     95  C   UNL A   1      32.094  25.383  26.822  1.00  0.00     0.000 C 
BRANCH  85  96
ATOM     96  C   UNL A   1      36.534  23.239  25.312  1.00  0.00     0.086 C 
ATOM     97  C   UNL A   1      36.926  24.078  26.530  1.00  0.00     0.025 C 
ATOM     98  C   UNL A   1      37.715  22.322  24.986  1.00  0.00     0.025 C 
ATOM     99  C   UNL A   1      38.437  24.186  26.397  1.00  0.00     0.002 C 
ATOM    100  C   UNL A   1      38.867  22.823  25.861  1.00  0.00     0.002 C 
ENDBRANCH  85  96
ENDBRANCH  77  80
ENDBRANCH  75  76
ENDBRANCH  74  75
ENDBRANCH  73  74
ENDBRANCH  72  73
ENDBRANCH   1  72
TORSDOF 17
ENDMDL
MODEL 2
REMARK VINA RESULT:     -12.3      4.164      9.756
REMARK SMILES O=C(NCCCCCCNC(=O)[C@@H]1c2ccccc2C(=O)N(C2CCCC2)C12CCCCC2)c1ccc(-c2c3nc(c(-c4cc(S(=O)(=O)[O-])ccc4F)c4ccc([nH]4)c(-c4cc(S(=O)(=O)[O-])ccc4F)c4nc(c(-c5cc(S(=O)(=O)[O-])ccc5F)c5ccc2[nH]5)C=C4)C=C3)cc1
REMARK SMILES IDX 5 1 4 2 3 3 1 4 2 5 34 7 35 8 96 9 36 10 95 11 37 12 38 13
REMARK SMILES IDX 39 14 89 15 40 16 94 17 88 18 90 19 41 20 93 21 87 22 86 23
REMARK SMILES IDX 42 25 74 26 54 27 73 28 55 29 58 30 72 31 91 32 56 33 57 34
REMARK SMILES IDX 71 36 92 37 59 38 43 39 44 40 52 41 45 42 51 43 53 44 50 45
REMARK SMILES IDX 46 46 47 47 48 48 49 49 75 50 76 51 84 52 77 53 83 54 85 55
REMARK SMILES IDX 82 56 78 57 79 58 80 59 81 60 60 61 61 62 69 63 62 64 68 65
REMARK SMILES IDX 70 66 67 67 63 68 64 69 65 70 66 71 6 72 7 73 8 74 9 75
REMARK SMILES IDX 10 76 11 77 12 79 13 80 14 81 28 82 15 83 19 84 22 85 29 86
REMARK SMILES IDX 33 87 16 88 18 89 20 90 30 91 32 92 17 93 21 94 31 95 23 96
REMARK SMILES IDX 24 97 27 98 25 99 26 100
REMARK H PARENT 3 6 90 24 58 35 10 78
REMARK Flexibility Score: inf
ROOT
ATOM      1  C   UNL A   1      34.807  21.773  26.757  1.00  0.00     0.021 C 
ENDROOT
BRANCH   1   2
ATOM      2  C   UNL A   1      35.933  22.146  25.806  1.00  0.00     0.116 C 
BRANCH   2   3
ATOM      3  N   UNL A   1      36.882  21.073  25.575  1.00  0.00    -0.352 N 
ATOM      4  O   UNL A   1      38.905  20.099  25.404  1.00  0.00    -0.269 OA
ATOM      5  C   UNL A   1      38.248  21.087  25.722  1.00  0.00     0.251 C 
ATOM      6  H   UNL A   1      36.495  20.219  25.272  1.00  0.00     0.163 HD
BRANCH   5   7
ATOM      7  C   UNL A   1      38.926  22.302  26.230  1.00  0.00     0.039 A 
ATOM      8  C   UNL A   1      39.986  22.152  27.126  1.00  0.00     0.014 A 
ATOM      9  C   UNL A   1      38.527  23.580  25.829  1.00  0.00     0.014 A 
ATOM     10  C   UNL A   1      40.660  23.281  27.593  1.00  0.00     0.010 A 
ATOM     11  C   UNL A   1      39.264  24.695  26.215  1.00  0.00     0.010 A 
ATOM     12  C   UNL A   1      40.317  24.563  27.127  1.00  0.00    -0.014 A 
BRANCH  12  13
ATOM     13  C   UNL A   1      41.028  25.769  27.625  1.00  0.00     0.031 A 
ATOM     14  C   UNL A   1      42.476  25.993  27.282  1.00  0.00     0.074 A 
ATOM     15  C   UNL A   1      40.376  26.656  28.402  1.00  0.00     0.049 A 
ATOM     16  N   UNL A   1      43.252  26.999  27.595  1.00  0.00    -0.248 NA
ATOM     17  C   UNL A   1      43.153  24.936  26.512  1.00  0.00     0.031 C 
ATOM     18  C   UNL A   1      38.996  26.506  28.863  1.00  0.00     0.029 A 
ATOM     19  N   UNL A   1      40.779  27.855  28.932  1.00  0.00    -0.354 N 
ATOM     20  C   UNL A   1      44.498  26.698  27.056  1.00  0.00     0.074 A 
ATOM     21  C   UNL A   1      44.402  25.374  26.487  1.00  0.00     0.031 C 
ATOM     22  C   UNL A   1      38.651  27.595  29.568  1.00  0.00     0.029 A 
ATOM     23  C   UNL A   1      39.795  28.503  29.642  1.00  0.00     0.049 A 
ATOM     24  H   UNL A   1      41.686  28.219  28.815  1.00  0.00     0.167 HD
ATOM     25  C   UNL A   1      45.606  27.474  26.993  1.00  0.00     0.034 A 
ATOM     26  C   UNL A   1      39.804  29.695  30.273  1.00  0.00     0.034 A 
ATOM     27  C   UNL A   1      45.682  28.799  27.553  1.00  0.00     0.049 A 
ATOM     28  C   UNL A   1      41.040  30.553  30.184  1.00  0.00     0.074 A 
ATOM     29  C   UNL A   1      46.742  29.685  27.513  1.00  0.00     0.029 A 
ATOM     30  N   UNL A   1      44.661  29.431  28.251  1.00  0.00    -0.354 N 
ATOM     31  N   UNL A   1      42.182  30.295  29.587  1.00  0.00    -0.248 NA
ATOM     32  C   UNL A   1      40.990  31.869  30.833  1.00  0.00     0.031 C 
ATOM     33  C   UNL A   1      46.386  30.825  28.237  1.00  0.00     0.029 A 
ATOM     34  C   UNL A   1      45.075  30.687  28.665  1.00  0.00     0.049 A 
ATOM     35  H   UNL A   1      43.772  29.044  28.424  1.00  0.00     0.167 HD
ATOM     36  C   UNL A   1      42.981  31.419  29.782  1.00  0.00     0.074 A 
ATOM     37  C   UNL A   1      42.174  32.375  30.511  1.00  0.00     0.031 C 
ATOM     38  C   UNL A   1      44.269  31.632  29.406  1.00  0.00     0.034 A 
BRANCH  25  39
ATOM     39  C   UNL A   1      46.811  26.936  26.258  1.00  0.00     0.023 A 
ATOM     40  C   UNL A   1      47.863  26.326  26.964  1.00  0.00     0.031 A 
ATOM     41  C   UNL A   1      46.961  27.114  24.869  1.00  0.00     0.131 A 
ATOM     42  C   UNL A   1      49.026  25.940  26.284  1.00  0.00     0.055 A 
ATOM     43  C   UNL A   1      48.099  26.680  24.189  1.00  0.00     0.041 A 
ATOM     44  F   UNL A   1      45.989  27.694  24.146  1.00  0.00    -0.206 F 
ATOM     45  C   UNL A   1      49.144  26.101  24.900  1.00  0.00     0.022 A 
BRANCH  42  46
ATOM     46  S   UNL A   1      50.459  25.274  27.175  1.00  0.00     0.124 S 
ATOM     47  O   UNL A   1      49.864  24.156  27.905  1.00  0.00    -0.237 OA
ATOM     48  O   UNL A   1      51.349  24.900  26.080  1.00  0.00    -0.237 OA
ATOM     49  O   UNL A   1      50.907  26.388  28.002  1.00  0.00    -0.744 OA
ENDBRANCH  42  46
ENDBRANCH  25  39
BRANCH  26  50
ATOM     50  C   UNL A   1      38.561  30.154  30.961  1.00  0.00     0.023 A 
ATOM     51  C   UNL A   1      37.692  31.069  30.338  1.00  0.00     0.031 A 
ATOM     52  C   UNL A   1      38.301  29.801  32.296  1.00  0.00     0.131 A 
ATOM     53  C   UNL A   1      36.661  31.665  31.077  1.00  0.00     0.055 A 
ATOM     54  C   UNL A   1      37.222  30.336  33.002  1.00  0.00     0.041 A 
ATOM     55  F   UNL A   1      39.109  28.944  32.939  1.00  0.00    -0.206 F 
ATOM     56  C   UNL A   1      36.409  31.290  32.399  1.00  0.00     0.022 A 
BRANCH  53  57
ATOM     57  S   UNL A   1      35.720  33.059  30.394  1.00  0.00     0.124 S 
ATOM     58  O   UNL A   1      34.343  32.662  30.667  1.00  0.00    -0.237 OA
ATOM     59  O   UNL A   1      36.226  34.175  31.190  1.00  0.00    -0.237 OA
ATOM     60  O   UNL A   1      36.105  33.080  28.987  1.00  0.00    -0.744 OA
ENDBRANCH  53  57
ENDBRANCH  26  50
BRANCH  38  61
ATOM     61  C   UNL A   1      44.922  32.939  29.795  1.00  0.00     0.023 A 
ATOM     62  C   UNL A   1      44.942  34.022  28.895  1.00  0.00     0.031 A 
ATOM     63  C   UNL A   1      45.639  33.067  30.999  1.00  0.00     0.131 A 
ATOM     64  C   UNL A   1      45.687  35.169  29.198  1.00  0.00     0.055 A 
ATOM     65  C   UNL A   1      46.334  34.233  31.321  1.00  0.00     0.041 A 
ATOM     66  F   UNL A   1      45.669  32.057  31.884  1.00  0.00    -0.206 F 
ATOM     67  C   UNL A   1      46.371  35.285  30.412  1.00  0.00     0.022 A 
BRANCH  64  68
ATOM     68  S   UNL A   1      45.879  36.510  27.991  1.00  0.00     0.124 S 
ATOM     69  O   UNL A   1      44.873  36.160  26.990  1.00  0.00    -0.237 OA
ATOM     70  O   UNL A   1      45.574  37.693  28.793  1.00  0.00    -0.237 OA
ATOM     71  O   UNL A   1      47.265  36.392  27.551  1.00  0.00    -0.744 OA
ENDBRANCH  64  68
ENDBRANCH  38  61
ENDBRANCH  12  13
ENDBRANCH   5   7
ENDBRANCH   2   3
ENDBRANCH   1   2
BRANCH   1  72
ATOM     72  C   UNL A   1      33.615  21.063  26.117  1.00  0.00     0.002 C 
BRANCH  72  73
ATOM     73  C   UNL A   1      32.392  21.925  25.788  1.00  0.00     0.002 C 
BRANCH  73  74
ATOM     74  C   UNL A   1      31.856  22.845  26.893  1.00  0.00     0.021 C 
BRANCH  74  75
ATOM     75  C   UNL A   1      30.690  23.752  26.509  1.00  0.00     0.116 C 
BRANCH  75  76
ATOM     76  N   UNL A   1      30.504  23.868  25.078  1.00  0.00    -0.355 N 
ATOM     77  C   UNL A   1      30.761  24.912  24.238  1.00  0.00     0.229 C 
ATOM     78  H   UNL A   1      30.133  23.067  24.641  1.00  0.00     0.163 HD
ATOM     79  O   UNL A   1      30.683  24.668  23.031  1.00  0.00    -0.274 OA
BRANCH  77  80
ATOM     80  C   UNL A   1      31.034  26.324  24.786  1.00  0.00     0.135 C 
ATOM     81  C   UNL A   1      30.068  27.355  24.169  1.00  0.00    -0.020 A 
ATOM     82  C   UNL A   1      32.534  26.829  24.685  1.00  0.00     0.059 C 
ATOM     83  C   UNL A   1      28.790  27.000  23.695  1.00  0.00     0.005 A 
ATOM     84  C   UNL A   1      30.433  28.710  24.103  1.00  0.00     0.044 A 
ATOM     85  N   UNL A   1      32.515  28.230  25.328  1.00  0.00    -0.329 N 
ATOM     86  C   UNL A   1      33.047  27.041  23.212  1.00  0.00     0.030 C 
ATOM     87  C   UNL A   1      33.540  25.857  25.369  1.00  0.00     0.030 C 
ATOM     88  C   UNL A   1      27.950  27.945  23.097  1.00  0.00     0.000 A 
ATOM     89  C   UNL A   1      29.590  29.655  23.498  1.00  0.00     0.014 A 
ATOM     90  C   UNL A   1      31.662  29.201  24.778  1.00  0.00     0.254 C 
ATOM     91  C   UNL A   1      33.490  25.806  22.432  1.00  0.00     0.002 C 
ATOM     92  C   UNL A   1      33.955  24.614  24.578  1.00  0.00     0.002 C 
ATOM     93  C   UNL A   1      28.356  29.269  22.981  1.00  0.00     0.001 A 
ATOM     94  O   UNL A   1      31.822  30.411  24.917  1.00  0.00    -0.269 OA
ATOM     95  C   UNL A   1      34.485  24.958  23.200  1.00  0.00     0.000 C 
BRANCH  85  96
ATOM     96  C   UNL A   1      33.200  28.651  26.562  1.00  0.00     0.086 C 
ATOM     97  C   UNL A   1      34.718  28.819  26.471  1.00  0.00     0.025 C 
ATOM     98  C   UNL A   1      32.650  29.850  27.337  1.00  0.00     0.025 C 
ATOM     99  C   UNL A   1      35.051  29.597  27.733  1.00  0.00     0.002 C 
ATOM    100  C   UNL A   1      33.882  30.563  27.902  1.00  0.00     0.002 C 
ENDBRANCH  85  96
ENDBRANCH  77  80
ENDBRANCH  75  76
ENDBRANCH  74  75
ENDBRANCH  73  74
ENDBRANCH  72  73
ENDBRANCH   1  72
TORSDOF 17
ENDMDL
MODEL 3
REMARK VINA RESULT:     -12.2      1.959      2.292
REMARK SMILES O=C(NCCCCCCNC(=O)[C@@H]1c2ccccc2C(=O)N(C2CCCC2)C12CCCCC2)c1ccc(-c2c3nc(c(-c4cc(S(=O)(=O)[O-])ccc4F)c4ccc([nH]4)c(-c4cc(S(=O)(=O)[O-])ccc4F)c4nc(c(-c5cc(S(=O)(=O)[O-])ccc5F)c5ccc2[nH]5)C=C4)C=C3)cc1
REMARK SMILES IDX 5 1 4 2 3 3 1 4 2 5 34 7 35 8 96 9 36 10 95 11 37 12 38 13
REMARK SMILES IDX 39 14 89 15 40 16 94 17 88 18 90 19 41 20 93 21 87 22 86 23
REMARK SMILES IDX 42 25 74 26 54 27 73 28 55 29 58 30 72 31 91 32 56 33 57 34
REMARK SMILES IDX 71 36 92 37 59 38 43 39 44 40 52 41 45 42 51 43 53 44 50 45
REMARK SMILES IDX 46 46 47 47 48 48 49 49 75 50 76 51 84 52 77 53 83 54 85 55
REMARK SMILES IDX 82 56 78 57 79 58 80 59 81 60 60 61 61 62 69 63 62 64 68 65
REMARK SMILES IDX 70 66 67 67 63 68 64 69 65 70 66 71 6 72 7 73 8 74 9 75
REMARK SMILES IDX 10 76 11 77 12 79 13 80 14 81 28 82 15 83 19 84 22 85 29 86
REMARK SMILES IDX 33 87 16 88 18 89 20 90 30 91 32 92 17 93 21 94 31 95 23 96
REMARK SMILES IDX 24 97 27 98 25 99 26 100
REMARK H PARENT 3 6 90 24 58 35 10 78
REMARK Flexibility Score: inf
ROOT
ATOM      1  C   UNL A   1      33.257  29.211  24.338  1.00  0.00     0.021 C 
ENDROOT
BRANCH   1   2
ATOM      2  C   UNL A   1      33.688  29.446  25.777  1.00  0.00     0.116 C 
BRANCH   2   3
ATOM      3  N   UNL A   1      33.237  30.714  26.323  1.00  0.00    -0.352 N 
ATOM      4  O   UNL A   1      33.237  32.490  27.706  1.00  0.00    -0.269 OA
ATOM      5  C   UNL A   1      33.805  31.472  27.316  1.00  0.00     0.251 C 
ATOM      6  H   UNL A   1      32.412  31.079  25.927  1.00  0.00     0.163 HD
BRANCH   5   7
ATOM      7  C   UNL A   1      35.080  31.045  27.938  1.00  0.00     0.039 A 
ATOM      8  C   UNL A   1      35.160  29.766  28.490  1.00  0.00     0.014 A 
ATOM      9  C   UNL A   1      36.191  31.893  27.977  1.00  0.00     0.014 A 
ATOM     10  C   UNL A   1      36.361  29.331  29.053  1.00  0.00     0.010 A 
ATOM     11  C   UNL A   1      37.413  31.421  28.444  1.00  0.00     0.010 A 
ATOM     12  C   UNL A   1      37.505  30.148  29.019  1.00  0.00    -0.014 A 
BRANCH  12  13
ATOM     13  C   UNL A   1      38.785  29.691  29.621  1.00  0.00     0.031 A 
ATOM     14  C   UNL A   1      39.231  30.229  30.954  1.00  0.00     0.074 A 
ATOM     15  C   UNL A   1      39.555  28.805  28.960  1.00  0.00     0.049 A 
ATOM     16  N   UNL A   1      40.295  29.924  31.651  1.00  0.00    -0.248 NA
ATOM     17  C   UNL A   1      38.390  31.266  31.574  1.00  0.00     0.031 C 
ATOM     18  C   UNL A   1      39.263  28.274  27.629  1.00  0.00     0.029 A 
ATOM     19  N   UNL A   1      40.729  28.192  29.316  1.00  0.00    -0.354 N 
ATOM     20  C   UNL A   1      40.245  30.724  32.787  1.00  0.00     0.074 A 
ATOM     21  C   UNL A   1      39.104  31.597  32.637  1.00  0.00     0.031 C 
ATOM     22  C   UNL A   1      40.207  27.379  27.300  1.00  0.00     0.029 A 
ATOM     23  C   UNL A   1      41.192  27.300  28.378  1.00  0.00     0.049 A 
ATOM     24  H   UNL A   1      41.197  28.373  30.164  1.00  0.00     0.167 HD
ATOM     25  C   UNL A   1      41.044  30.698  33.880  1.00  0.00     0.034 A 
ATOM     26  C   UNL A   1      42.277  26.498  28.385  1.00  0.00     0.034 A 
ATOM     27  C   UNL A   1      42.171  29.812  34.021  1.00  0.00     0.049 A 
ATOM     28  C   UNL A   1      43.151  26.472  29.613  1.00  0.00     0.074 A 
ATOM     29  C   UNL A   1      43.023  29.677  35.101  1.00  0.00     0.029 A 
ATOM     30  N   UNL A   1      42.601  28.907  33.058  1.00  0.00    -0.354 N 
ATOM     31  N   UNL A   1      43.035  27.166  30.723  1.00  0.00    -0.248 NA
ATOM     32  C   UNL A   1      44.289  25.543  29.606  1.00  0.00     0.031 C 
ATOM     33  C   UNL A   1      44.003  28.739  34.769  1.00  0.00     0.029 A 
ATOM     34  C   UNL A   1      43.721  28.228  33.511  1.00  0.00     0.049 A 
ATOM     35  H   UNL A   1      42.172  28.769  32.183  1.00  0.00     0.167 HD
ATOM     36  C   UNL A   1      44.080  26.753  31.546  1.00  0.00     0.074 A 
ATOM     37  C   UNL A   1      44.785  25.715  30.824  1.00  0.00     0.031 C 
ATOM     38  C   UNL A   1      44.430  27.202  32.779  1.00  0.00     0.034 A 
BRANCH  25  39
ATOM     39  C   UNL A   1      40.709  31.619  35.030  1.00  0.00     0.023 A 
ATOM     40  C   UNL A   1      39.639  31.323  35.893  1.00  0.00     0.031 A 
ATOM     41  C   UNL A   1      41.389  32.839  35.212  1.00  0.00     0.131 A 
ATOM     42  C   UNL A   1      39.265  32.245  36.880  1.00  0.00     0.055 A 
ATOM     43  C   UNL A   1      41.047  33.728  36.231  1.00  0.00     0.041 A 
ATOM     44  F   UNL A   1      42.417  33.174  34.414  1.00  0.00    -0.206 F 
ATOM     45  C   UNL A   1      39.972  33.439  37.062  1.00  0.00     0.022 A 
BRANCH  42  46
ATOM     46  S   UNL A   1      37.810  31.966  37.925  1.00  0.00     0.124 S 
ATOM     47  O   UNL A   1      37.482  30.575  37.617  1.00  0.00    -0.237 OA
ATOM     48  O   UNL A   1      38.348  32.198  39.262  1.00  0.00    -0.237 OA
ATOM     49  O   UNL A   1      36.844  32.951  37.452  1.00  0.00    -0.744 OA
ENDBRANCH  42  46
ENDBRANCH  25  39
BRANCH  26  50
ATOM     50  C   UNL A   1      42.521  25.609  27.211  1.00  0.00     0.023 A 
ATOM     51  C   UNL A   1      42.097  24.267  27.227  1.00  0.00     0.031 A 
ATOM     52  C   UNL A   1      43.304  26.041  26.127  1.00  0.00     0.131 A 
ATOM     53  C   UNL A   1      42.531  23.387  26.227  1.00  0.00     0.055 A 
ATOM     54  C   UNL A   1      43.666  25.179  25.090  1.00  0.00     0.041 A 
ATOM     55  F   UNL A   1      43.748  27.306  26.074  1.00  0.00    -0.206 F 
ATOM     56  C   UNL A   1      43.297  23.839  25.148  1.00  0.00     0.022 A 
BRANCH  53  57
ATOM     57  S   UNL A   1      42.250  21.601  26.381  1.00  0.00     0.124 S 
ATOM     58  O   UNL A   1      40.841  21.480  26.019  1.00  0.00    -0.237 OA
ATOM     59  O   UNL A   1      43.200  21.067  25.409  1.00  0.00    -0.237 OA
ATOM     60  O   UNL A   1      42.569  21.319  27.776  1.00  0.00    -0.744 OA
ENDBRANCH  53  57
ENDBRANCH  26  50
BRANCH  38  61
ATOM     61  C   UNL A   1      45.654  26.608  33.438  1.00  0.00     0.023 A 
ATOM     62  C   UNL A   1      46.935  27.122  33.158  1.00  0.00     0.031 A 
ATOM     63  C   UNL A   1      45.566  25.453  34.236  1.00  0.00     0.131 A 
ATOM     64  C   UNL A   1      48.074  26.465  33.642  1.00  0.00     0.055 A 
ATOM     65  C   UNL A   1      46.701  24.834  34.763  1.00  0.00     0.041 A 
ATOM     66  F   UNL A   1      44.371  24.910  34.518  1.00  0.00    -0.206 F 
ATOM     67  C   UNL A   1      47.962  25.332  34.455  1.00  0.00     0.022 A 
BRANCH  64  68
ATOM     68  S   UNL A   1      49.741  26.994  33.158  1.00  0.00     0.124 S 
ATOM     69  O   UNL A   1      50.566  26.369  34.191  1.00  0.00    -0.237 OA
ATOM     70  O   UNL A   1      49.872  26.417  31.823  1.00  0.00    -0.237 OA
ATOM     71  O   UNL A   1      49.677  28.450  33.209  1.00  0.00    -0.744 OA
ENDBRANCH  64  68
ENDBRANCH  38  61
ENDBRANCH  12  13
ENDBRANCH   5   7
ENDBRANCH   2   3
ENDBRANCH   1   2
BRANCH   1  72
ATOM     72  C   UNL A   1      34.174  28.306  23.517  1.00  0.00     0.002 C 
BRANCH  72  73
ATOM     73  C   UNL A   1      33.693  27.926  22.114  1.00  0.00     0.002 C 
BRANCH  73  74
ATOM     74  C   UNL A   1      32.426  27.065  22.007  1.00  0.00     0.021 C 
BRANCH  74  75
ATOM     75  C   UNL A   1      32.641  25.577  21.745  1.00  0.00     0.116 C 
BRANCH  75  76
ATOM     76  N   UNL A   1      31.587  24.744  22.283  1.00  0.00    -0.355 N 
ATOM     77  C   UNL A   1      31.631  23.784  23.252  1.00  0.00     0.229 C 
ATOM     78  H   UNL A   1      30.697  24.893  21.888  1.00  0.00     0.163 HD
ATOM     79  O   UNL A   1      30.540  23.362  23.645  1.00  0.00    -0.274 OA
BRANCH  77  80
ATOM     80  C   UNL A   1      32.972  23.206  23.738  1.00  0.00     0.135 C 
ATOM     81  C   UNL A   1      32.965  21.666  23.686  1.00  0.00    -0.020 A 
ATOM     82  C   UNL A   1      33.475  23.717  25.153  1.00  0.00     0.059 C 
ATOM     83  C   UNL A   1      32.155  20.947  22.785  1.00  0.00     0.005 A 
ATOM     84  C   UNL A   1      33.818  20.929  24.525  1.00  0.00     0.044 A 
ATOM     85  N   UNL A   1      34.829  23.013  25.360  1.00  0.00    -0.329 N 
ATOM     86  C   UNL A   1      32.569  23.270  26.361  1.00  0.00     0.030 C 
ATOM     87  C   UNL A   1      33.577  25.270  25.227  1.00  0.00     0.030 C 
ATOM     88  C   UNL A   1      32.131  19.548  22.788  1.00  0.00     0.000 A 
ATOM     89  C   UNL A   1      33.788  19.525  24.529  1.00  0.00     0.014 A 
ATOM     90  C   UNL A   1      34.857  21.608  25.340  1.00  0.00     0.254 C 
ATOM     91  C   UNL A   1      31.288  24.060  26.615  1.00  0.00     0.002 C 
ATOM     92  C   UNL A   1      32.277  26.042  25.462  1.00  0.00     0.002 C 
ATOM     93  C   UNL A   1      32.934  18.836  23.672  1.00  0.00     0.001 A 
ATOM     94  O   UNL A   1      35.740  20.932  25.862  1.00  0.00    -0.269 OA
ATOM     95  C   UNL A   1      31.529  25.555  26.687  1.00  0.00     0.000 C 
BRANCH  85  96
ATOM     96  C   UNL A   1      36.157  23.646  25.449  1.00  0.00     0.086 C 
ATOM     97  C   UNL A   1      36.640  24.013  26.853  1.00  0.00     0.025 C 
ATOM     98  C   UNL A   1      37.332  22.997  24.713  1.00  0.00     0.025 C 
ATOM     99  C   UNL A   1      38.123  24.271  26.647  1.00  0.00     0.002 C 
ATOM    100  C   UNL A   1      38.548  23.230  25.614  1.00  0.00     0.002 C 
ENDBRANCH  85  96
ENDBRANCH  77  80
ENDBRANCH  75  76
ENDBRANCH  74  75
ENDBRANCH  73  74
ENDBRANCH  72  73
ENDBRANCH   1  72
TORSDOF 17
ENDMDL
