MODEL 1
REMARK VINA RESULT:      -8.9      0.000      0.000
REMARK SMILES CC1(C)[C@H](C(=O)Nc2ccc(NC(=O)C[NH+]3CCCCC3)cc2)[C@@H]1C(=O)NCCCCCCNC(=O)c1ccc(-c2c3nc(c(-c4cc(S(=O)(=O)[O-])ccc4F)c4ccc([nH]4)c(-c4cc(S(=O)(=O)[O-])ccc4F)c4nc(c(-c5cc(S(=O)(=O)[O-])ccc5F)c5ccc2[nH]5)C=C4)C=C3)cc1
REMARK SMILES IDX 29 1 28 2 27 3 25 4 26 5 24 7 1 8 2 9 3 10 4 11 5 12 6 13
REMARK SMILES IDX 7 14 8 16 9 17 23 18 10 19 22 20 11 21 12 22 13 23 14 25
REMARK SMILES IDX 15 26 16 27 17 28 21 29 18 31 20 32 19 33 30 34 31 35 32 36
REMARK SMILES IDX 33 37 34 38 35 39 36 41 37 42 38 43 99 44 39 45 98 46 40 47
REMARK SMILES IDX 41 48 42 49 92 50 43 51 97 52 91 53 93 54 44 55 96 56 90 57
REMARK SMILES IDX 89 58 45 60 77 61 57 62 76 63 58 64 61 65 75 66 94 67 59 68
REMARK SMILES IDX 60 69 74 71 95 72 62 73 46 74 47 75 55 76 48 77 54 78 56 79
REMARK SMILES IDX 53 80 49 81 50 82 51 83 52 84 78 85 79 86 87 87 80 88 86 89
REMARK SMILES IDX 88 90 85 91 81 92 82 93 83 94 84 95 63 96 64 97 72 98 65 99
REMARK SMILES IDX 71 100 73 101 70 102 66 103 67 104 68 105 69 106
REMARK H PARENT 27 6 7 15 12 24 16 30 34 40 93 59 61 70
REMARK Flexibility Score: inf
ROOT
ATOM      1  C   UNL A   1      37.858  31.916  29.703  1.00  0.00     0.021 C 
ENDROOT
BRANCH   1   2
ATOM      2  C   UNL A   1      37.416  30.459  29.585  1.00  0.00     0.116 C 
BRANCH   2   3
ATOM      3  N   UNL A   1      38.157  29.581  30.467  1.00  0.00    -0.356 N 
ATOM      4  C   UNL A   1      39.440  29.119  30.331  1.00  0.00     0.224 C 
ATOM      5  O   UNL A   1      39.909  28.370  31.172  1.00  0.00    -0.275 OA
ATOM      6  H   UNL A   1      37.676  29.276  31.270  1.00  0.00     0.163 HD
BRANCH   4   7
ATOM      7  C   UNL A   1      40.168  29.417  29.076  1.00  0.00     0.098 C 
ATOM      8  C   UNL A   1      40.167  28.999  26.498  1.00  0.00     0.013 C 
ATOM      9  C   UNL A   1      40.282  28.431  27.902  1.00  0.00    -0.011 C 
ATOM     10  C   UNL A   1      39.707  27.051  27.976  1.00  0.00     0.013 C 
ATOM     11  C   UNL A   1      41.511  28.876  28.664  1.00  0.00     0.098 C 
BRANCH  11  12
ATOM     12  C   UNL A   1      42.540  28.201  29.502  1.00  0.00     0.228 C 
ATOM     13  O   UNL A   1      42.671  28.660  30.642  1.00  0.00    -0.274 OA
ATOM     14  N   UNL A   1      43.243  27.050  29.272  1.00  0.00    -0.326 N 
ATOM     15  H   UNL A   1      43.650  26.672  30.084  1.00  0.00     0.169 HD
BRANCH  14  16
ATOM     16  C   UNL A   1      43.495  26.306  28.133  1.00  0.00     0.041 A 
ATOM     17  C   UNL A   1      42.839  25.095  27.985  1.00  0.00     0.028 A 
ATOM     18  C   UNL A   1      44.485  26.661  27.230  1.00  0.00     0.028 A 
ATOM     19  C   UNL A   1      42.991  24.356  26.815  1.00  0.00     0.028 A 
ATOM     20  C   UNL A   1      44.677  25.891  26.075  1.00  0.00     0.028 A 
ATOM     21  C   UNL A   1      43.915  24.738  25.848  1.00  0.00     0.041 A 
BRANCH  21  22
ATOM     22  N   UNL A   1      44.101  24.065  24.629  1.00  0.00    -0.321 N 
ATOM     23  C   UNL A   1      44.632  22.840  24.321  1.00  0.00     0.279 C 
ATOM     24  H   UNL A   1      43.790  24.571  23.845  1.00  0.00     0.170 HD
ATOM     25  O   UNL A   1      44.503  22.434  23.158  1.00  0.00    -0.268 OA
BRANCH  23  26
ATOM     26  C   UNL A   1      45.409  21.996  25.345  1.00  0.00     0.363 C 
BRANCH  26  27
ATOM     27  N   UNL A   1      44.623  20.824  25.757  1.00  0.00    -0.327 N 
ATOM     28  C   UNL A   1      43.180  21.059  25.749  1.00  0.00     0.262 C 
ATOM     29  C   UNL A   1      44.977  19.615  25.009  1.00  0.00     0.262 C 
ATOM     30  H   UNL A   1      44.881  20.660  26.730  1.00  0.00     0.348 HD
ATOM     31  C   UNL A   1      42.482  19.899  26.464  1.00  0.00     0.062 C 
ATOM     32  C   UNL A   1      44.323  18.391  25.653  1.00  0.00     0.062 C 
ATOM     33  C   UNL A   1      42.814  18.566  25.802  1.00  0.00     0.012 C 
ENDBRANCH  26  27
ENDBRANCH  23  26
ENDBRANCH  21  22
ENDBRANCH  14  16
ENDBRANCH  11  12
ENDBRANCH   4   7
ENDBRANCH   2   3
ENDBRANCH   1   2
BRANCH   1  34
ATOM     34  C   UNL A   1      36.904  32.853  30.458  1.00  0.00     0.002 C 
BRANCH  34  35
ATOM     35  C   UNL A   1      35.533  32.288  30.837  1.00  0.00     0.002 C 
BRANCH  35  36
ATOM     36  C   UNL A   1      34.639  33.189  31.687  1.00  0.00     0.021 C 
BRANCH  36  37
ATOM     37  C   UNL A   1      35.341  34.375  32.339  1.00  0.00     0.116 C 
BRANCH  37  38
ATOM     38  N   UNL A   1      35.196  34.391  33.784  1.00  0.00    -0.352 N 
ATOM     39  C   UNL A   1      36.002  33.828  34.746  1.00  0.00     0.251 C 
ATOM     40  H   UNL A   1      34.409  34.874  34.124  1.00  0.00     0.163 HD
ATOM     41  O   UNL A   1      35.637  33.828  35.919  1.00  0.00    -0.269 OA
BRANCH  39  42
ATOM     42  C   UNL A   1      37.283  33.194  34.359  1.00  0.00     0.039 A 
ATOM     43  C   UNL A   1      37.279  31.853  33.963  1.00  0.00     0.014 A 
ATOM     44  C   UNL A   1      38.480  33.914  34.375  1.00  0.00     0.014 A 
ATOM     45  C   UNL A   1      38.461  31.258  33.515  1.00  0.00     0.010 A 
ATOM     46  C   UNL A   1      39.641  33.343  33.860  1.00  0.00     0.010 A 
ATOM     47  C   UNL A   1      39.644  32.009  33.423  1.00  0.00    -0.014 A 
BRANCH  47  48
ATOM     48  C   UNL A   1      40.894  31.419  32.874  1.00  0.00     0.031 A 
ATOM     49  C   UNL A   1      41.555  30.266  33.579  1.00  0.00     0.074 A 
ATOM     50  C   UNL A   1      41.469  31.966  31.785  1.00  0.00     0.049 A 
ATOM     51  N   UNL A   1      42.692  29.675  33.315  1.00  0.00    -0.248 NA
ATOM     52  C   UNL A   1      40.857  29.729  34.756  1.00  0.00     0.031 C 
ATOM     53  C   UNL A   1      40.943  33.110  31.036  1.00  0.00     0.029 A 
ATOM     54  N   UNL A   1      42.627  31.642  31.121  1.00  0.00    -0.354 N 
ATOM     55  C   UNL A   1      42.853  28.705  34.299  1.00  0.00     0.074 A 
ATOM     56  C   UNL A   1      41.726  28.834  35.200  1.00  0.00     0.031 C 
ATOM     57  C   UNL A   1      41.763  33.378  30.008  1.00  0.00     0.029 A 
ATOM     58  C   UNL A   1      42.896  32.459  30.047  1.00  0.00     0.049 A 
ATOM     59  H   UNL A   1      43.209  30.895  31.390  1.00  0.00     0.167 HD
ATOM     60  C   UNL A   1      43.836  27.780  34.427  1.00  0.00     0.034 A 
ATOM     61  C   UNL A   1      43.945  32.476  29.200  1.00  0.00     0.034 A 
ATOM     62  C   UNL A   1      44.947  27.658  33.514  1.00  0.00     0.049 A 
ATOM     63  C   UNL A   1      45.042  31.456  29.378  1.00  0.00     0.074 A 
ATOM     64  C   UNL A   1      45.969  26.725  33.517  1.00  0.00     0.029 A 
ATOM     65  N   UNL A   1      45.188  28.503  32.437  1.00  0.00    -0.354 N 
ATOM     66  N   UNL A   1      45.156  30.515  30.287  1.00  0.00    -0.248 NA
ATOM     67  C   UNL A   1      46.146  31.496  28.411  1.00  0.00     0.031 C 
ATOM     68  C   UNL A   1      46.860  27.044  32.486  1.00  0.00     0.029 A 
ATOM     69  C   UNL A   1      46.357  28.132  31.790  1.00  0.00     0.049 A 
ATOM     70  H   UNL A   1      44.611  29.257  32.172  1.00  0.00     0.167 HD
ATOM     71  C   UNL A   1      46.329  29.832  29.980  1.00  0.00     0.074 A 
ATOM     72  C   UNL A   1      46.877  30.461  28.796  1.00  0.00     0.031 C 
ATOM     73  C   UNL A   1      46.899  28.777  30.616  1.00  0.00     0.034 A 
BRANCH  60  74
ATOM     74  C   UNL A   1      43.761  26.847  35.614  1.00  0.00     0.023 A 
ATOM     75  C   UNL A   1      44.259  27.217  36.875  1.00  0.00     0.031 A 
ATOM     76  C   UNL A   1      43.218  25.558  35.476  1.00  0.00     0.131 A 
ATOM     77  C   UNL A   1      44.281  26.283  37.923  1.00  0.00     0.055 A 
ATOM     78  C   UNL A   1      43.163  24.662  36.546  1.00  0.00     0.041 A 
ATOM     79  F   UNL A   1      42.745  25.138  34.291  1.00  0.00    -0.206 F 
ATOM     80  C   UNL A   1      43.713  25.016  37.774  1.00  0.00     0.022 A 
BRANCH  77  81
ATOM     81  S   UNL A   1      45.203  26.696  39.429  1.00  0.00     0.124 S 
ATOM     82  O   UNL A   1      45.805  27.976  39.064  1.00  0.00    -0.237 OA
ATOM     83  O   UNL A   1      44.152  26.749  40.438  1.00  0.00    -0.237 OA
ATOM     84  O   UNL A   1      46.147  25.588  39.567  1.00  0.00    -0.744 OA
ENDBRANCH  77  81
ENDBRANCH  60  74
BRANCH  61  85
ATOM     85  C   UNL A   1      44.022  33.494  28.115  1.00  0.00     0.023 A 
ATOM     86  C   UNL A   1      44.263  34.846  28.408  1.00  0.00     0.031 A 
ATOM     87  C   UNL A   1      43.817  33.138  26.770  1.00  0.00     0.131 A 
ATOM     88  C   UNL A   1      44.249  35.799  27.377  1.00  0.00     0.055 A 
ATOM     89  C   UNL A   1      43.856  34.081  25.742  1.00  0.00     0.041 A 
ATOM     90  F   UNL A   1      43.588  31.857  26.435  1.00  0.00    -0.206 F 
ATOM     91  C   UNL A   1      44.061  35.423  26.045  1.00  0.00     0.022 A 
BRANCH  88  92
ATOM     92  S   UNL A   1      44.404  37.552  27.814  1.00  0.00     0.124 S 
ATOM     93  O   UNL A   1      44.470  38.182  26.501  1.00  0.00    -0.237 OA
ATOM     94  O   UNL A   1      43.183  37.783  28.577  1.00  0.00    -0.237 OA
ATOM     95  O   UNL A   1      45.641  37.598  28.593  1.00  0.00    -0.744 OA
ENDBRANCH  88  92
ENDBRANCH  61  85
BRANCH  73  96
ATOM     96  C   UNL A   1      48.159  28.211  30.009  1.00  0.00     0.023 A 
ATOM     97  C   UNL A   1      48.121  27.261  28.973  1.00  0.00     0.031 A 
ATOM     98  C   UNL A   1      49.417  28.623  30.484  1.00  0.00     0.131 A 
ATOM     99  C   UNL A   1      49.317  26.716  28.481  1.00  0.00     0.055 A 
ATOM    100  C   UNL A   1      50.605  28.121  29.950  1.00  0.00     0.041 A 
ATOM    101  F   UNL A   1      49.511  29.526  31.473  1.00  0.00    -0.206 F 
ATOM    102  C   UNL A   1      50.558  27.153  28.952  1.00  0.00     0.022 A 
BRANCH  99 103
ATOM    103  S   UNL A   1      49.229  25.364  27.276  1.00  0.00     0.124 S 
ATOM    104  O   UNL A   1      49.658  26.026  26.047  1.00  0.00    -0.237 OA
ATOM    105  O   UNL A   1      50.161  24.388  27.831  1.00  0.00    -0.237 OA
ATOM    106  O   UNL A   1      47.824  24.966  27.307  1.00  0.00    -0.744 OA
ENDBRANCH  99 103
ENDBRANCH  73  96
ENDBRANCH  47  48
ENDBRANCH  39  42
ENDBRANCH  37  38
ENDBRANCH  36  37
ENDBRANCH  35  36
ENDBRANCH  34  35
ENDBRANCH   1  34
TORSDOF 21
ENDMDL
MODEL 2
REMARK VINA RESULT:      -8.8      3.523      7.935
REMARK SMILES CC1(C)[C@H](C(=O)Nc2ccc(NC(=O)C[NH+]3CCCCC3)cc2)[C@@H]1C(=O)NCCCCCCNC(=O)c1ccc(-c2c3nc(c(-c4cc(S(=O)(=O)[O-])ccc4F)c4ccc([nH]4)c(-c4cc(S(=O)(=O)[O-])ccc4F)c4nc(c(-c5cc(S(=O)(=O)[O-])ccc5F)c5ccc2[nH]5)C=C4)C=C3)cc1
REMARK SMILES IDX 29 1 28 2 27 3 25 4 26 5 24 7 1 8 2 9 3 10 4 11 5 12 6 13
REMARK SMILES IDX 7 14 8 16 9 17 23 18 10 19 22 20 11 21 12 22 13 23 14 25
REMARK SMILES IDX 15 26 16 27 17 28 21 29 18 31 20 32 19 33 30 34 31 35 32 36
REMARK SMILES IDX 33 37 34 38 35 39 36 41 37 42 38 43 99 44 39 45 98 46 40 47
REMARK SMILES IDX 41 48 42 49 92 50 43 51 97 52 91 53 93 54 44 55 96 56 90 57
REMARK SMILES IDX 89 58 45 60 77 61 57 62 76 63 58 64 61 65 75 66 94 67 59 68
REMARK SMILES IDX 60 69 74 71 95 72 62 73 46 74 47 75 55 76 48 77 54 78 56 79
REMARK SMILES IDX 53 80 49 81 50 82 51 83 52 84 78 85 79 86 87 87 80 88 86 89
REMARK SMILES IDX 88 90 85 91 81 92 82 93 83 94 84 95 63 96 64 97 72 98 65 99
REMARK SMILES IDX 71 100 73 101 70 102 66 103 67 104 68 105 69 106
REMARK H PARENT 27 6 7 15 12 24 16 30 34 40 93 59 61 70
REMARK Flexibility Score: inf
ROOT
ATOM      1  C   UNL A   1      39.899  33.978  29.890  1.00  0.00     0.021 C 
ENDROOT
BRANCH   1   2
ATOM      2  C   UNL A   1      41.056  34.955  29.685  1.00  0.00     0.116 C 
BRANCH   2   3
ATOM      3  N   UNL A   1      41.222  35.335  28.298  1.00  0.00    -0.356 N 
ATOM      4  C   UNL A   1      42.200  36.115  27.736  1.00  0.00     0.224 C 
ATOM      5  O   UNL A   1      42.180  36.346  26.539  1.00  0.00    -0.275 OA
ATOM      6  H   UNL A   1      40.542  34.988  27.675  1.00  0.00     0.163 HD
BRANCH   4   7
ATOM      7  C   UNL A   1      43.165  36.790  28.634  1.00  0.00     0.098 C 
ATOM      8  C   UNL A   1      43.561  38.948  30.051  1.00  0.00     0.013 C 
ATOM      9  C   UNL A   1      43.360  38.314  28.685  1.00  0.00    -0.011 C 
ATOM     10  C   UNL A   1      42.616  39.233  27.767  1.00  0.00     0.013 C 
ATOM     11  C   UNL A   1      44.482  37.403  28.241  1.00  0.00     0.098 C 
BRANCH  11  12
ATOM     12  C   UNL A   1      45.260  37.214  26.985  1.00  0.00     0.228 C 
ATOM     13  O   UNL A   1      45.774  38.240  26.527  1.00  0.00    -0.274 OA
ATOM     14  N   UNL A   1      45.639  36.061  26.352  1.00  0.00    -0.326 N 
ATOM     15  H   UNL A   1      46.369  36.192  25.705  1.00  0.00     0.169 HD
BRANCH  14  16
ATOM     16  C   UNL A   1      45.207  34.749  26.436  1.00  0.00     0.041 A 
ATOM     17  C   UNL A   1      45.534  34.026  27.572  1.00  0.00     0.028 A 
ATOM     18  C   UNL A   1      44.604  34.106  25.367  1.00  0.00     0.028 A 
ATOM     19  C   UNL A   1      45.045  32.734  27.741  1.00  0.00     0.028 A 
ATOM     20  C   UNL A   1      44.155  32.787  25.516  1.00  0.00     0.028 A 
ATOM     21  C   UNL A   1      44.356  32.094  26.717  1.00  0.00     0.041 A 
BRANCH  21  22
ATOM     22  N   UNL A   1      43.804  30.806  26.825  1.00  0.00    -0.321 N 
ATOM     23  C   UNL A   1      44.359  29.555  26.770  1.00  0.00     0.279 C 
ATOM     24  H   UNL A   1      42.830  30.803  26.967  1.00  0.00     0.170 HD
ATOM     25  O   UNL A   1      43.640  28.594  27.077  1.00  0.00    -0.268 OA
BRANCH  23  26
ATOM     26  C   UNL A   1      45.803  29.312  26.302  1.00  0.00     0.363 C 
BRANCH  26  27
ATOM     27  N   UNL A   1      46.327  28.056  26.860  1.00  0.00    -0.327 N 
ATOM     28  C   UNL A   1      46.899  27.165  25.852  1.00  0.00     0.262 C 
ATOM     29  C   UNL A   1      47.253  28.277  27.974  1.00  0.00     0.262 C 
ATOM     30  H   UNL A   1      45.512  27.574  27.239  1.00  0.00     0.348 HD
ATOM     31  C   UNL A   1      47.139  25.790  26.482  1.00  0.00     0.062 C 
ATOM     32  C   UNL A   1      47.556  26.951  28.674  1.00  0.00     0.062 C 
ATOM     33  C   UNL A   1      48.059  25.894  27.694  1.00  0.00     0.012 C 
ENDBRANCH  26  27
ENDBRANCH  23  26
ENDBRANCH  21  22
ENDBRANCH  14  16
ENDBRANCH  11  12
ENDBRANCH   4   7
ENDBRANCH   2   3
ENDBRANCH   1   2
BRANCH   1  34
ATOM     34  C   UNL A   1      38.523  34.448  29.399  1.00  0.00     0.002 C 
BRANCH  34  35
ATOM     35  C   UNL A   1      37.309  33.638  29.862  1.00  0.00     0.002 C 
BRANCH  35  36
ATOM     36  C   UNL A   1      35.982  33.950  29.171  1.00  0.00     0.021 C 
BRANCH  36  37
ATOM     37  C   UNL A   1      34.794  33.118  29.639  1.00  0.00     0.116 C 
BRANCH  37  38
ATOM     38  N   UNL A   1      34.143  32.404  28.554  1.00  0.00    -0.352 N 
ATOM     39  C   UNL A   1      34.559  31.281  27.878  1.00  0.00     0.251 C 
ATOM     40  H   UNL A   1      33.281  32.778  28.260  1.00  0.00     0.163 HD
ATOM     41  O   UNL A   1      33.936  30.904  26.889  1.00  0.00    -0.269 OA
BRANCH  39  42
ATOM     42  C   UNL A   1      35.771  30.557  28.322  1.00  0.00     0.039 A 
ATOM     43  C   UNL A   1      36.964  30.745  27.619  1.00  0.00     0.014 A 
ATOM     44  C   UNL A   1      35.740  29.706  29.430  1.00  0.00     0.014 A 
ATOM     45  C   UNL A   1      38.139  30.137  28.069  1.00  0.00     0.010 A 
ATOM     46  C   UNL A   1      36.924  29.160  29.920  1.00  0.00     0.010 A 
ATOM     47  C   UNL A   1      38.137  29.371  29.246  1.00  0.00    -0.014 A 
BRANCH  47  48
ATOM     48  C   UNL A   1      39.389  28.780  29.788  1.00  0.00     0.031 A 
ATOM     49  C   UNL A   1      40.047  29.390  30.996  1.00  0.00     0.074 A 
ATOM     50  C   UNL A   1      39.968  27.743  29.153  1.00  0.00     0.049 A 
ATOM     51  N   UNL A   1      41.185  29.082  31.563  1.00  0.00    -0.248 NA
ATOM     52  C   UNL A   1      39.344  30.515  31.629  1.00  0.00     0.031 C 
ATOM     53  C   UNL A   1      39.446  27.089  27.951  1.00  0.00     0.029 A 
ATOM     54  N   UNL A   1      41.129  27.060  29.420  1.00  0.00    -0.354 N 
ATOM     55  C   UNL A   1      41.343  29.984  32.612  1.00  0.00     0.074 A 
ATOM     56  C   UNL A   1      40.212  30.887  32.558  1.00  0.00     0.031 C 
ATOM     57  C   UNL A   1      40.271  26.090  27.598  1.00  0.00     0.029 A 
ATOM     58  C   UNL A   1      41.403  26.059  28.517  1.00  0.00     0.049 A 
ATOM     59  H   UNL A   1      41.711  27.268  30.188  1.00  0.00     0.167 HD
ATOM     60  C   UNL A   1      42.325  30.038  33.545  1.00  0.00     0.034 A 
ATOM     61  C   UNL A   1      42.456  25.221  28.430  1.00  0.00     0.034 A 
ATOM     62  C   UNL A   1      43.440  29.123  33.590  1.00  0.00     0.049 A 
ATOM     63  C   UNL A   1      43.552  25.318  29.462  1.00  0.00     0.074 A 
ATOM     64  C   UNL A   1      44.462  29.053  34.520  1.00  0.00     0.029 A 
ATOM     65  N   UNL A   1      43.685  28.121  32.658  1.00  0.00    -0.354 N 
ATOM     66  N   UNL A   1      43.662  26.146  30.474  1.00  0.00    -0.248 NA
ATOM     67  C   UNL A   1      44.660  24.362  29.341  1.00  0.00     0.031 C 
ATOM     68  C   UNL A   1      45.357  28.056  34.117  1.00  0.00     0.029 A 
ATOM     69  C   UNL A   1      44.857  27.451  32.975  1.00  0.00     0.049 A 
ATOM     70  H   UNL A   1      43.110  27.917  31.885  1.00  0.00     0.167 HD
ATOM     71  C   UNL A   1      44.837  25.789  31.130  1.00  0.00     0.074 A 
ATOM     72  C   UNL A   1      45.391  24.664  30.405  1.00  0.00     0.031 C 
ATOM     73  C   UNL A   1      45.404  26.337  32.235  1.00  0.00     0.034 A 
BRANCH  60  74
ATOM     74  C   UNL A   1      42.244  31.143  34.573  1.00  0.00     0.023 A 
ATOM     75  C   UNL A   1      42.899  32.373  34.387  1.00  0.00     0.031 A 
ATOM     76  C   UNL A   1      41.535  30.953  35.772  1.00  0.00     0.131 A 
ATOM     77  C   UNL A   1      42.902  33.329  35.414  1.00  0.00     0.055 A 
ATOM     78  C   UNL A   1      41.469  31.943  36.754  1.00  0.00     0.041 A 
ATOM     79  F   UNL A   1      40.907  29.792  36.017  1.00  0.00    -0.206 F 
ATOM     80  C   UNL A   1      42.170  33.134  36.586  1.00  0.00     0.022 A 
BRANCH  77  81
ATOM     81  S   UNL A   1      44.003  34.762  35.257  1.00  0.00     0.124 S 
ATOM     82  O   UNL A   1      43.166  35.836  35.789  1.00  0.00    -0.237 OA
ATOM     83  O   UNL A   1      45.144  34.375  36.077  1.00  0.00    -0.237 OA
ATOM     84  O   UNL A   1      44.263  34.839  33.820  1.00  0.00    -0.744 OA
ENDBRANCH  77  81
ENDBRANCH  60  74
BRANCH  61  85
ATOM     85  C   UNL A   1      42.537  24.224  27.326  1.00  0.00     0.023 A 
ATOM     86  C   UNL A   1      41.945  22.957  27.452  1.00  0.00     0.031 A 
ATOM     87  C   UNL A   1      43.240  24.508  26.142  1.00  0.00     0.131 A 
ATOM     88  C   UNL A   1      42.104  22.005  26.431  1.00  0.00     0.055 A 
ATOM     89  C   UNL A   1      43.352  23.577  25.107  1.00  0.00     0.041 A 
ATOM     90  F   UNL A   1      43.821  25.707  25.968  1.00  0.00    -0.206 F 
ATOM     91  C   UNL A   1      42.792  22.312  25.255  1.00  0.00     0.022 A 
BRANCH  88  92
ATOM     92  S   UNL A   1      41.462  20.331  26.699  1.00  0.00     0.124 S 
ATOM     93  O   UNL A   1      40.057  20.593  26.986  1.00  0.00    -0.237 OA
ATOM     94  O   UNL A   1      41.748  19.688  25.421  1.00  0.00    -0.237 OA
ATOM     95  O   UNL A   1      42.251  19.843  27.829  1.00  0.00    -0.744 OA
ENDBRANCH  88  92
ENDBRANCH  61  85
BRANCH  73  96
ATOM     96  C   UNL A   1      46.667  25.691  32.749  1.00  0.00     0.023 A 
ATOM     97  C   UNL A   1      47.927  25.981  32.195  1.00  0.00     0.031 A 
ATOM     98  C   UNL A   1      46.607  24.763  33.803  1.00  0.00     0.131 A 
ATOM     99  C   UNL A   1      49.067  25.312  32.663  1.00  0.00     0.055 A 
ATOM    100  C   UNL A   1      47.752  24.143  34.304  1.00  0.00     0.041 A 
ATOM    101  F   UNL A   1      45.430  24.446  34.367  1.00  0.00    -0.206 F 
ATOM    102  C   UNL A   1      48.990  24.407  33.724  1.00  0.00     0.022 A 
BRANCH  99 103
ATOM    103  S   UNL A   1      50.645  25.573  31.808  1.00  0.00     0.124 S 
ATOM    104  O   UNL A   1      51.522  25.972  32.905  1.00  0.00    -0.237 OA
ATOM    105  O   UNL A   1      50.909  24.261  31.228  1.00  0.00    -0.237 OA
ATOM    106  O   UNL A   1      50.343  26.627  30.842  1.00  0.00    -0.744 OA
ENDBRANCH  99 103
ENDBRANCH  73  96
ENDBRANCH  47  48
ENDBRANCH  39  42
ENDBRANCH  37  38
ENDBRANCH  36  37
ENDBRANCH  35  36
ENDBRANCH  34  35
ENDBRANCH   1  34
TORSDOF 21
ENDMDL
MODEL 3
REMARK VINA RESULT:      -8.4      5.615     10.549
REMARK SMILES CC1(C)[C@H](C(=O)Nc2ccc(NC(=O)C[NH+]3CCCCC3)cc2)[C@@H]1C(=O)NCCCCCCNC(=O)c1ccc(-c2c3nc(c(-c4cc(S(=O)(=O)[O-])ccc4F)c4ccc([nH]4)c(-c4cc(S(=O)(=O)[O-])ccc4F)c4nc(c(-c5cc(S(=O)(=O)[O-])ccc5F)c5ccc2[nH]5)C=C4)C=C3)cc1
REMARK SMILES IDX 29 1 28 2 27 3 25 4 26 5 24 7 1 8 2 9 3 10 4 11 5 12 6 13
REMARK SMILES IDX 7 14 8 16 9 17 23 18 10 19 22 20 11 21 12 22 13 23 14 25
REMARK SMILES IDX 15 26 16 27 17 28 21 29 18 31 20 32 19 33 30 34 31 35 32 36
REMARK SMILES IDX 33 37 34 38 35 39 36 41 37 42 38 43 99 44 39 45 98 46 40 47
REMARK SMILES IDX 41 48 42 49 92 50 43 51 97 52 91 53 93 54 44 55 96 56 90 57
REMARK SMILES IDX 89 58 45 60 77 61 57 62 76 63 58 64 61 65 75 66 94 67 59 68
REMARK SMILES IDX 60 69 74 71 95 72 62 73 46 74 47 75 55 76 48 77 54 78 56 79
REMARK SMILES IDX 53 80 49 81 50 82 51 83 52 84 78 85 79 86 87 87 80 88 86 89
REMARK SMILES IDX 88 90 85 91 81 92 82 93 83 94 84 95 63 96 64 97 72 98 65 99
REMARK SMILES IDX 71 100 73 101 70 102 66 103 67 104 68 105 69 106
REMARK H PARENT 27 6 7 15 12 24 16 30 34 40 93 59 61 70
REMARK Flexibility Score: inf
ROOT
ATOM      1  C   UNL A   1      38.607  21.863  25.556  1.00  0.00     0.021 C 
ENDROOT
BRANCH   1   2
ATOM      2  C   UNL A   1      37.455  22.857  25.693  1.00  0.00     0.116 C 
BRANCH   2   3
ATOM      3  N   UNL A   1      36.402  22.370  26.560  1.00  0.00    -0.356 N 
ATOM      4  C   UNL A   1      35.192  21.828  26.213  1.00  0.00     0.224 C 
ATOM      5  O   UNL A   1      34.412  21.477  27.082  1.00  0.00    -0.275 OA
ATOM      6  H   UNL A   1      36.579  22.438  27.526  1.00  0.00     0.163 HD
BRANCH   4   7
ATOM      7  C   UNL A   1      34.801  21.834  24.785  1.00  0.00     0.098 C 
ATOM      8  C   UNL A   1      34.788  23.291  22.617  1.00  0.00     0.013 C 
ATOM      9  C   UNL A   1      34.304  23.085  24.042  1.00  0.00    -0.011 C 
ATOM     10  C   UNL A   1      34.120  24.395  24.745  1.00  0.00     0.013 C 
ATOM     11  C   UNL A   1      33.400  21.888  24.236  1.00  0.00     0.098 C 
BRANCH  11  12
ATOM     12  C   UNL A   1      32.113  21.635  24.940  1.00  0.00     0.228 C 
ATOM     13  O   UNL A   1      32.002  20.511  25.441  1.00  0.00    -0.274 OA
ATOM     14  N   UNL A   1      31.106  22.502  25.267  1.00  0.00    -0.326 N 
ATOM     15  H   UNL A   1      30.502  22.154  25.962  1.00  0.00     0.169 HD
BRANCH  14  16
ATOM     16  C   UNL A   1      30.764  23.767  24.824  1.00  0.00     0.041 A 
ATOM     17  C   UNL A   1      30.461  24.731  25.772  1.00  0.00     0.028 A 
ATOM     18  C   UNL A   1      30.569  24.046  23.480  1.00  0.00     0.028 A 
ATOM     19  C   UNL A   1      30.201  26.040  25.378  1.00  0.00     0.028 A 
ATOM     20  C   UNL A   1      30.257  25.352  23.082  1.00  0.00     0.028 A 
ATOM     21  C   UNL A   1      30.089  26.369  24.031  1.00  0.00     0.041 A 
BRANCH  21  22
ATOM     22  N   UNL A   1      29.862  27.671  23.555  1.00  0.00    -0.321 N 
ATOM     23  C   UNL A   1      30.705  28.641  23.079  1.00  0.00     0.279 C 
ATOM     24  H   UNL A   1      28.915  27.939  23.566  1.00  0.00     0.170 HD
ATOM     25  O   UNL A   1      30.193  29.642  22.560  1.00  0.00    -0.268 OA
BRANCH  23  26
ATOM     26  C   UNL A   1      32.234  28.545  23.212  1.00  0.00     0.363 C 
BRANCH  26  27
ATOM     27  N   UNL A   1      32.676  29.054  24.519  1.00  0.00    -0.327 N 
ATOM     28  C   UNL A   1      31.605  29.683  25.290  1.00  0.00     0.262 C 
ATOM     29  C   UNL A   1      33.388  28.044  25.306  1.00  0.00     0.262 C 
ATOM     30  H   UNL A   1      33.345  29.792  24.303  1.00  0.00     0.348 HD
ATOM     31  C   UNL A   1      32.219  30.428  26.478  1.00  0.00     0.062 C 
ATOM     32  C   UNL A   1      34.042  28.697  26.525  1.00  0.00     0.062 C 
ATOM     33  C   UNL A   1      33.034  29.485  27.357  1.00  0.00     0.012 C 
ENDBRANCH  26  27
ENDBRANCH  23  26
ENDBRANCH  21  22
ENDBRANCH  14  16
ENDBRANCH  11  12
ENDBRANCH   4   7
ENDBRANCH   2   3
ENDBRANCH   1   2
BRANCH   1  34
ATOM     34  C   UNL A   1      39.697  21.938  26.634  1.00  0.00     0.002 C 
BRANCH  34  35
ATOM     35  C   UNL A   1      40.848  20.934  26.526  1.00  0.00     0.002 C 
BRANCH  35  36
ATOM     36  C   UNL A   1      42.225  21.512  26.205  1.00  0.00     0.021 C 
BRANCH  36  37
ATOM     37  C   UNL A   1      42.254  23.011  25.926  1.00  0.00     0.116 C 
BRANCH  37  38
ATOM     38  N   UNL A   1      43.436  23.426  25.193  1.00  0.00    -0.352 N 
ATOM     39  C   UNL A   1      44.310  24.453  25.460  1.00  0.00     0.251 C 
ATOM     40  H   UNL A   1      43.642  22.896  24.389  1.00  0.00     0.163 HD
ATOM     41  O   UNL A   1      45.179  24.740  24.640  1.00  0.00    -0.269 OA
BRANCH  39  42
ATOM     42  C   UNL A   1      44.176  25.231  26.713  1.00  0.00     0.039 A 
ATOM     43  C   UNL A   1      45.110  26.235  26.986  1.00  0.00     0.014 A 
ATOM     44  C   UNL A   1      43.134  24.985  27.609  1.00  0.00     0.014 A 
ATOM     45  C   UNL A   1      44.957  27.037  28.119  1.00  0.00     0.010 A 
ATOM     46  C   UNL A   1      42.940  25.831  28.699  1.00  0.00     0.010 A 
ATOM     47  C   UNL A   1      43.848  26.867  28.965  1.00  0.00    -0.014 A 
BRANCH  47  48
ATOM     48  C   UNL A   1      43.621  27.759  30.133  1.00  0.00     0.031 A 
ATOM     49  C   UNL A   1      44.363  27.520  31.419  1.00  0.00     0.074 A 
ATOM     50  C   UNL A   1      42.699  28.739  30.055  1.00  0.00     0.049 A 
ATOM     51  N   UNL A   1      44.238  28.125  32.572  1.00  0.00    -0.248 NA
ATOM     52  C   UNL A   1      45.354  26.434  31.413  1.00  0.00     0.031 C 
ATOM     53  C   UNL A   1      41.889  29.046  28.874  1.00  0.00     0.029 A 
ATOM     54  N   UNL A   1      42.277  29.652  30.990  1.00  0.00    -0.354 N 
ATOM     55  C   UNL A   1      45.124  27.485  33.434  1.00  0.00     0.074 A 
ATOM     56  C   UNL A   1      45.731  26.406  32.682  1.00  0.00     0.031 C 
ATOM     57  C   UNL A   1      41.085  30.085  29.149  1.00  0.00     0.029 A 
ATOM     58  C   UNL A   1      41.286  30.491  30.536  1.00  0.00     0.049 A 
ATOM     59  H   UNL A   1      42.650  29.701  31.900  1.00  0.00     0.167 HD
ATOM     60  C   UNL A   1      45.421  27.784  34.723  1.00  0.00     0.034 A 
ATOM     61  C   UNL A   1      40.604  31.466  31.171  1.00  0.00     0.034 A 
ATOM     62  C   UNL A   1      44.814  28.870  35.454  1.00  0.00     0.049 A 
ATOM     63  C   UNL A   1      40.930  31.763  32.613  1.00  0.00     0.074 A 
ATOM     64  C   UNL A   1      45.078  29.296  36.745  1.00  0.00     0.029 A 
ATOM     65  N   UNL A   1      43.813  29.699  34.962  1.00  0.00    -0.354 N 
ATOM     66  N   UNL A   1      41.804  31.179  33.399  1.00  0.00    -0.248 NA
ATOM     67  C   UNL A   1      40.182  32.855  33.249  1.00  0.00     0.031 C 
ATOM     68  C   UNL A   1      44.195  30.336  37.054  1.00  0.00     0.029 A 
ATOM     69  C   UNL A   1      43.428  30.612  35.933  1.00  0.00     0.049 A 
ATOM     70  H   UNL A   1      43.432  29.647  34.055  1.00  0.00     0.167 HD
ATOM     71  C   UNL A   1      41.732  31.855  34.614  1.00  0.00     0.074 A 
ATOM     72  C   UNL A   1      40.739  32.898  34.450  1.00  0.00     0.031 C 
ATOM     73  C   UNL A   1      42.427  31.639  35.759  1.00  0.00     0.034 A 
BRANCH  60  74
ATOM     74  C   UNL A   1      46.428  26.903  35.426  1.00  0.00     0.023 A 
ATOM     75  C   UNL A   1      46.029  25.799  36.200  1.00  0.00     0.031 A 
ATOM     76  C   UNL A   1      47.802  27.188  35.351  1.00  0.00     0.131 A 
ATOM     77  C   UNL A   1      46.981  25.076  36.935  1.00  0.00     0.055 A 
ATOM     78  C   UNL A   1      48.754  26.411  36.015  1.00  0.00     0.041 A 
ATOM     79  F   UNL A   1      48.244  28.241  34.645  1.00  0.00    -0.206 F 
ATOM     80  C   UNL A   1      48.344  25.358  36.827  1.00  0.00     0.022 A 
BRANCH  77  81
ATOM     81  S   UNL A   1      46.396  23.864  38.151  1.00  0.00     0.124 S 
ATOM     82  O   UNL A   1      46.973  24.386  39.387  1.00  0.00    -0.237 OA
ATOM     83  O   UNL A   1      44.947  23.968  38.028  1.00  0.00    -0.237 OA
ATOM     84  O   UNL A   1      46.974  22.605  37.684  1.00  0.00    -0.744 OA
ENDBRANCH  77  81
ENDBRANCH  60  74
BRANCH  61  85
ATOM     85  C   UNL A   1      39.540  32.229  30.458  1.00  0.00     0.023 A 
ATOM     86  C   UNL A   1      38.278  31.659  30.223  1.00  0.00     0.031 A 
ATOM     87  C   UNL A   1      39.780  33.525  29.969  1.00  0.00     0.131 A 
ATOM     88  C   UNL A   1      37.319  32.366  29.478  1.00  0.00     0.055 A 
ATOM     89  C   UNL A   1      38.806  34.244  29.273  1.00  0.00     0.041 A 
ATOM     90  F   UNL A   1      40.968  34.118  30.172  1.00  0.00    -0.206 F 
ATOM     91  C   UNL A   1      37.570  33.659  29.014  1.00  0.00     0.022 A 
BRANCH  88  92
ATOM     92  S   UNL A   1      35.764  31.535  29.058  1.00  0.00     0.124 S 
ATOM     93  O   UNL A   1      34.887  31.982  30.134  1.00  0.00    -0.237 OA
ATOM     94  O   UNL A   1      35.480  32.074  27.733  1.00  0.00    -0.237 OA
ATOM     95  O   UNL A   1      36.118  30.117  29.089  1.00  0.00    -0.744 OA
ENDBRANCH  88  92
ENDBRANCH  61  85
BRANCH  73  96
ATOM     96  C   UNL A   1      42.166  32.582  36.908  1.00  0.00     0.023 A 
ATOM     97  C   UNL A   1      41.179  32.318  37.874  1.00  0.00     0.031 A 
ATOM     98  C   UNL A   1      42.911  33.768  37.030  1.00  0.00     0.131 A 
ATOM     99  C   UNL A   1      40.929  33.253  38.890  1.00  0.00     0.055 A 
ATOM    100  C   UNL A   1      42.697  34.666  38.077  1.00  0.00     0.041 A 
ATOM    101  F   UNL A   1      43.865  34.071  36.135  1.00  0.00    -0.206 F 
ATOM    102  C   UNL A   1      41.693  34.416  39.007  1.00  0.00     0.022 A 
BRANCH  99 103
ATOM    103  S   UNL A   1      39.531  32.970  40.010  1.00  0.00     0.124 S 
ATOM    104  O   UNL A   1      38.582  32.278  39.142  1.00  0.00    -0.237 OA
ATOM    105  O   UNL A   1      40.133  32.162  41.065  1.00  0.00    -0.237 OA
ATOM    106  O   UNL A   1      39.133  34.317  40.412  1.00  0.00    -0.744 OA
ENDBRANCH  99 103
ENDBRANCH  73  96
ENDBRANCH  47  48
ENDBRANCH  39  42
ENDBRANCH  37  38
ENDBRANCH  36  37
ENDBRANCH  35  36
ENDBRANCH  34  35
ENDBRANCH   1  34
TORSDOF 21
ENDMDL
