MODEL 1
REMARK VINA RESULT:     -11.5      0.000      0.000
REMARK SMILES C[C@@H](Cc1cnn(-c2ccccc2)n1)C(=O)NCCCCCCNC(=O)c1ccc(-c2c3nc(c(-c4cc(S(=O)(=O)[O-])ccc4F)c4ccc([nH]4)c(-c4cc(S(=O)(=O)[O-])ccc4F)c4nc(c(-c5cc(S(=O)(=O)[O-])ccc5F)c5ccc2[nH]5)C=C4)C=C3)cc1
REMARK SMILES IDX 20 1 19 2 18 3 17 4 15 5 16 6 2 8 1 9 3 10 4 11 5 12 14 13
REMARK SMILES IDX 6 14 7 15 8 16 9 17 13 18 10 19 12 20 11 21 21 22 22 23
REMARK SMILES IDX 23 24 24 25 25 26 26 28 27 29 28 30 89 31 29 32 88 33 30 34
REMARK SMILES IDX 31 35 32 36 82 37 33 38 87 39 81 40 83 41 34 42 86 43 80 44
REMARK SMILES IDX 79 45 35 47 67 48 47 49 66 50 48 51 51 52 65 53 84 54 49 55
REMARK SMILES IDX 50 56 64 58 85 59 52 60 36 61 37 62 45 63 38 64 44 65 46 66
REMARK SMILES IDX 43 67 39 68 40 69 41 70 42 71 68 72 69 73 77 74 70 75 76 76
REMARK SMILES IDX 78 77 75 78 71 79 72 80 73 81 74 82 53 83 54 84 62 85 55 86
REMARK SMILES IDX 61 87 63 88 60 89 56 90 57 91 58 92 59 93
REMARK H PARENT 17 7 24 27 83 46 51 57
REMARK Flexibility Score: inf
ROOT
ATOM      1  C   UNL A   1      32.345  28.301  26.712  1.00  0.00     0.002 C 
ENDROOT
BRANCH   1   2
ATOM      2  C   UNL A   1      32.396  28.106  25.197  1.00  0.00     0.021 C 
BRANCH   2   3
ATOM      3  C   UNL A   1      33.212  26.912  24.738  1.00  0.00     0.116 C 
BRANCH   3   4
ATOM      4  N   UNL A   1      33.438  26.833  23.315  1.00  0.00    -0.356 N 
ATOM      5  C   UNL A   1      33.477  25.727  22.523  1.00  0.00     0.223 C 
ATOM      6  O   UNL A   1      33.421  25.894  21.299  1.00  0.00    -0.275 OA
ATOM      7  H   UNL A   1      33.583  27.692  22.857  1.00  0.00     0.163 HD
BRANCH   5   8
ATOM      8  C   UNL A   1      33.612  24.314  23.088  1.00  0.00     0.081 C 
ATOM      9  C   UNL A   1      32.385  23.432  22.864  1.00  0.00     0.018 C 
BRANCH   8  10
ATOM     10  C   UNL A   1      34.984  23.660  22.878  1.00  0.00     0.073 C 
BRANCH  10  11
ATOM     11  C   UNL A   1      35.837  23.324  24.054  1.00  0.00     0.084 A 
ATOM     12  C   UNL A   1      36.084  24.085  25.212  1.00  0.00     0.161 A 
ATOM     13  N   UNL A   1      36.576  22.202  24.105  1.00  0.00    -0.153 NA
ATOM     14  N   UNL A   1      37.067  23.534  25.920  1.00  0.00    -0.157 NA
ATOM     15  N   UNL A   1      37.336  22.407  25.215  1.00  0.00    -0.151 N 
BRANCH  15  16
ATOM     16  C   UNL A   1      38.343  21.513  25.640  1.00  0.00     0.086 A 
ATOM     17  C   UNL A   1      39.404  21.958  26.433  1.00  0.00     0.030 A 
ATOM     18  C   UNL A   1      38.307  20.190  25.182  1.00  0.00     0.030 A 
ATOM     19  C   UNL A   1      40.483  21.101  26.675  1.00  0.00     0.002 A 
ATOM     20  C   UNL A   1      39.343  19.315  25.509  1.00  0.00     0.002 A 
ATOM     21  C   UNL A   1      40.447  19.781  26.222  1.00  0.00     0.000 A 
ENDBRANCH  15  16
ENDBRANCH  10  11
ENDBRANCH   8  10
ENDBRANCH   5   8
ENDBRANCH   3   4
ENDBRANCH   2   3
ENDBRANCH   1   2
BRANCH   1  22
ATOM     22  C   UNL A   1      32.862  29.644  27.249  1.00  0.00     0.002 C 
BRANCH  22  23
ATOM     23  C   UNL A   1      34.303  30.042  26.895  1.00  0.00     0.021 C 
BRANCH  23  24
ATOM     24  C   UNL A   1      35.376  29.288  27.651  1.00  0.00     0.116 C 
BRANCH  24  25
ATOM     25  N   UNL A   1      35.543  29.779  29.021  1.00  0.00    -0.352 N 
ATOM     26  C   UNL A   1      36.531  29.446  29.926  1.00  0.00     0.251 C 
ATOM     27  H   UNL A   1      34.870  30.426  29.335  1.00  0.00     0.163 HD
ATOM     28  O   UNL A   1      36.350  29.607  31.136  1.00  0.00    -0.269 OA
BRANCH  26  29
ATOM     29  C   UNL A   1      37.799  28.901  29.414  1.00  0.00     0.039 A 
ATOM     30  C   UNL A   1      38.351  29.282  28.189  1.00  0.00     0.014 A 
ATOM     31  C   UNL A   1      38.468  28.005  30.241  1.00  0.00     0.014 A 
ATOM     32  C   UNL A   1      39.616  28.799  27.853  1.00  0.00     0.010 A 
ATOM     33  C   UNL A   1      39.787  27.737  30.027  1.00  0.00     0.010 A 
ATOM     34  C   UNL A   1      40.334  28.037  28.792  1.00  0.00    -0.014 A 
BRANCH  34  35
ATOM     35  C   UNL A   1      41.720  27.637  28.586  1.00  0.00     0.031 A 
ATOM     36  C   UNL A   1      41.847  26.395  27.790  1.00  0.00     0.074 A 
ATOM     37  C   UNL A   1      42.773  28.440  28.872  1.00  0.00     0.049 A 
ATOM     38  N   UNL A   1      42.130  25.216  28.229  1.00  0.00    -0.248 NA
ATOM     39  C   UNL A   1      41.388  26.405  26.390  1.00  0.00     0.031 C 
ATOM     40  C   UNL A   1      42.758  29.820  29.379  1.00  0.00     0.029 A 
ATOM     41  N   UNL A   1      44.101  28.225  28.674  1.00  0.00    -0.354 N 
ATOM     42  C   UNL A   1      42.187  24.402  27.105  1.00  0.00     0.074 A 
ATOM     43  C   UNL A   1      41.466  25.107  26.083  1.00  0.00     0.031 C 
ATOM     44  C   UNL A   1      43.981  30.379  29.230  1.00  0.00     0.029 A 
ATOM     45  C   UNL A   1      44.911  29.358  28.781  1.00  0.00     0.049 A 
ATOM     46  H   UNL A   1      44.466  27.334  28.469  1.00  0.00     0.167 HD
ATOM     47  C   UNL A   1      43.086  23.381  27.041  1.00  0.00     0.034 A 
ATOM     48  C   UNL A   1      46.247  29.451  28.521  1.00  0.00     0.034 A 
ATOM     49  C   UNL A   1      43.631  23.104  28.358  1.00  0.00     0.049 A 
ATOM     50  C   UNL A   1      46.782  28.069  28.620  1.00  0.00     0.074 A 
ATOM     51  C   UNL A   1      43.080  22.763  29.580  1.00  0.00     0.029 A 
ATOM     52  N   UNL A   1      44.890  23.590  28.646  1.00  0.00    -0.354 N 
ATOM     53  N   UNL A   1      46.788  27.388  29.734  1.00  0.00    -0.248 NA
ATOM     54  C   UNL A   1      46.806  27.267  27.406  1.00  0.00     0.031 C 
ATOM     55  C   UNL A   1      43.811  23.530  30.537  1.00  0.00     0.029 A 
ATOM     56  C   UNL A   1      44.838  24.205  29.872  1.00  0.00     0.049 A 
ATOM     57  H   UNL A   1      45.685  23.509  28.071  1.00  0.00     0.167 HD
ATOM     58  C   UNL A   1      46.362  26.117  29.380  1.00  0.00     0.074 A 
ATOM     59  C   UNL A   1      46.475  26.077  27.920  1.00  0.00     0.031 C 
ATOM     60  C   UNL A   1      45.679  25.325  30.261  1.00  0.00     0.034 A 
BRANCH  47  61
ATOM     61  C   UNL A   1      43.787  22.921  25.778  1.00  0.00     0.023 A 
ATOM     62  C   UNL A   1      43.850  21.531  25.563  1.00  0.00     0.031 A 
ATOM     63  C   UNL A   1      44.625  23.702  24.949  1.00  0.00     0.131 A 
ATOM     64  C   UNL A   1      44.789  20.975  24.680  1.00  0.00     0.055 A 
ATOM     65  C   UNL A   1      45.512  23.147  24.021  1.00  0.00     0.041 A 
ATOM     66  F   UNL A   1      44.706  25.034  25.035  1.00  0.00    -0.206 F 
ATOM     67  C   UNL A   1      45.626  21.775  23.909  1.00  0.00     0.022 A 
BRANCH  64  68
ATOM     68  S   UNL A   1      45.023  19.181  24.704  1.00  0.00     0.124 S 
ATOM     69  O   UNL A   1      46.247  19.059  25.488  1.00  0.00    -0.237 OA
ATOM     70  O   UNL A   1      43.794  18.728  25.348  1.00  0.00    -0.237 OA
ATOM     71  O   UNL A   1      45.150  18.839  23.289  1.00  0.00    -0.744 OA
ENDBRANCH  64  68
ENDBRANCH  47  61
BRANCH  48  72
ATOM     72  C   UNL A   1      46.986  30.571  27.856  1.00  0.00     0.023 A 
ATOM     73  C   UNL A   1      46.350  31.630  27.162  1.00  0.00     0.031 A 
ATOM     74  C   UNL A   1      48.361  30.744  28.134  1.00  0.00     0.131 A 
ATOM     75  C   UNL A   1      47.084  32.788  26.786  1.00  0.00     0.055 A 
ATOM     76  C   UNL A   1      49.075  31.889  27.769  1.00  0.00     0.041 A 
ATOM     77  F   UNL A   1      49.042  29.838  28.852  1.00  0.00    -0.206 F 
ATOM     78  C   UNL A   1      48.437  32.922  27.103  1.00  0.00     0.022 A 
BRANCH  75  79
ATOM     79  S   UNL A   1      46.273  34.192  25.941  1.00  0.00     0.124 S 
ATOM     80  O   UNL A   1      45.935  35.073  27.053  1.00  0.00    -0.237 OA
ATOM     81  O   UNL A   1      47.314  34.659  25.033  1.00  0.00    -0.237 OA
ATOM     82  O   UNL A   1      45.121  33.575  25.279  1.00  0.00    -0.744 OA
ENDBRANCH  75  79
ENDBRANCH  48  72
BRANCH  60  83
ATOM     83  C   UNL A   1      45.654  25.727  31.727  1.00  0.00     0.023 A 
ATOM     84  C   UNL A   1      46.698  25.519  32.661  1.00  0.00     0.031 A 
ATOM     85  C   UNL A   1      44.538  26.469  32.156  1.00  0.00     0.131 A 
ATOM     86  C   UNL A   1      46.590  26.044  33.968  1.00  0.00     0.055 A 
ATOM     87  C   UNL A   1      44.447  27.005  33.438  1.00  0.00     0.041 A 
ATOM     88  F   UNL A   1      43.523  26.717  31.313  1.00  0.00    -0.206 F 
ATOM     89  C   UNL A   1      45.471  26.790  34.351  1.00  0.00     0.022 A 
BRANCH  86  90
ATOM     90  S   UNL A   1      47.890  25.746  35.214  1.00  0.00     0.124 S 
ATOM     91  O   UNL A   1      48.926  26.711  34.864  1.00  0.00    -0.237 OA
ATOM     92  O   UNL A   1      47.188  25.990  36.470  1.00  0.00    -0.237 OA
ATOM     93  O   UNL A   1      48.262  24.347  34.990  1.00  0.00    -0.744 OA
ENDBRANCH  86  90
ENDBRANCH  60  83
ENDBRANCH  34  35
ENDBRANCH  26  29
ENDBRANCH  24  25
ENDBRANCH  23  24
ENDBRANCH  22  23
ENDBRANCH   1  22
TORSDOF 19
ENDMDL
MODEL 2
REMARK VINA RESULT:     -10.8      3.022      7.445
REMARK SMILES C[C@@H](Cc1cnn(-c2ccccc2)n1)C(=O)NCCCCCCNC(=O)c1ccc(-c2c3nc(c(-c4cc(S(=O)(=O)[O-])ccc4F)c4ccc([nH]4)c(-c4cc(S(=O)(=O)[O-])ccc4F)c4nc(c(-c5cc(S(=O)(=O)[O-])ccc5F)c5ccc2[nH]5)C=C4)C=C3)cc1
REMARK SMILES IDX 20 1 19 2 18 3 17 4 15 5 16 6 2 8 1 9 3 10 4 11 5 12 14 13
REMARK SMILES IDX 6 14 7 15 8 16 9 17 13 18 10 19 12 20 11 21 21 22 22 23
REMARK SMILES IDX 23 24 24 25 25 26 26 28 27 29 28 30 89 31 29 32 88 33 30 34
REMARK SMILES IDX 31 35 32 36 82 37 33 38 87 39 81 40 83 41 34 42 86 43 80 44
REMARK SMILES IDX 79 45 35 47 67 48 47 49 66 50 48 51 51 52 65 53 84 54 49 55
REMARK SMILES IDX 50 56 64 58 85 59 52 60 36 61 37 62 45 63 38 64 44 65 46 66
REMARK SMILES IDX 43 67 39 68 40 69 41 70 42 71 68 72 69 73 77 74 70 75 76 76
REMARK SMILES IDX 78 77 75 78 71 79 72 80 73 81 74 82 53 83 54 84 62 85 55 86
REMARK SMILES IDX 61 87 63 88 60 89 56 90 57 91 58 92 59 93
REMARK H PARENT 17 7 24 27 83 46 51 57
REMARK Flexibility Score: inf
ROOT
ATOM      1  C   UNL A   1      33.053  27.812  26.412  1.00  0.00     0.002 C 
ENDROOT
BRANCH   1   2
ATOM      2  C   UNL A   1      33.677  26.631  25.669  1.00  0.00     0.021 C 
BRANCH   2   3
ATOM      3  C   UNL A   1      33.389  26.597  24.179  1.00  0.00     0.116 C 
BRANCH   3   4
ATOM      4  N   UNL A   1      32.007  26.382  23.826  1.00  0.00    -0.356 N 
ATOM      5  C   UNL A   1      31.165  25.399  24.249  1.00  0.00     0.223 C 
ATOM      6  O   UNL A   1      29.957  25.546  24.035  1.00  0.00    -0.275 OA
ATOM      7  H   UNL A   1      31.621  27.032  23.195  1.00  0.00     0.163 HD
BRANCH   5   8
ATOM      8  C   UNL A   1      31.663  24.133  24.944  1.00  0.00     0.081 C 
ATOM      9  C   UNL A   1      31.067  23.908  26.332  1.00  0.00     0.018 C 
BRANCH   8  10
ATOM     10  C   UNL A   1      31.793  22.903  24.037  1.00  0.00     0.073 C 
BRANCH  10  11
ATOM     11  C   UNL A   1      32.696  21.782  24.425  1.00  0.00     0.084 A 
ATOM     12  C   UNL A   1      34.084  21.804  24.649  1.00  0.00     0.161 A 
ATOM     13  N   UNL A   1      32.256  20.517  24.543  1.00  0.00    -0.153 NA
ATOM     14  N   UNL A   1      34.549  20.562  24.765  1.00  0.00    -0.157 NA
ATOM     15  N   UNL A   1      33.415  19.821  24.689  1.00  0.00    -0.151 N 
BRANCH  15  16
ATOM     16  C   UNL A   1      33.469  18.412  24.772  1.00  0.00     0.086 A 
ATOM     17  C   UNL A   1      34.278  17.675  23.903  1.00  0.00     0.030 A 
ATOM     18  C   UNL A   1      32.631  17.759  25.685  1.00  0.00     0.030 A 
ATOM     19  C   UNL A   1      34.162  16.281  23.879  1.00  0.00     0.002 A 
ATOM     20  C   UNL A   1      32.595  16.365  25.718  1.00  0.00     0.002 A 
ATOM     21  C   UNL A   1      33.330  15.629  24.790  1.00  0.00     0.000 A 
ENDBRANCH  15  16
ENDBRANCH  10  11
ENDBRANCH   8  10
ENDBRANCH   5   8
ENDBRANCH   3   4
ENDBRANCH   2   3
ENDBRANCH   1   2
BRANCH   1  22
ATOM     22  C   UNL A   1      34.010  28.688  27.237  1.00  0.00     0.002 C 
BRANCH  22  23
ATOM     23  C   UNL A   1      33.901  30.210  27.067  1.00  0.00     0.021 C 
BRANCH  23  24
ATOM     24  C   UNL A   1      34.262  31.016  28.296  1.00  0.00     0.116 C 
BRANCH  24  25
ATOM     25  N   UNL A   1      34.980  32.249  27.963  1.00  0.00    -0.352 N 
ATOM     26  C   UNL A   1      36.258  32.612  28.340  1.00  0.00     0.251 C 
ATOM     27  H   UNL A   1      34.494  32.896  27.402  1.00  0.00     0.163 HD
ATOM     28  O   UNL A   1      36.596  33.800  28.338  1.00  0.00    -0.269 OA
BRANCH  26  29
ATOM     29  C   UNL A   1      37.202  31.556  28.739  1.00  0.00     0.039 A 
ATOM     30  C   UNL A   1      37.218  30.290  28.151  1.00  0.00     0.014 A 
ATOM     31  C   UNL A   1      38.133  31.892  29.717  1.00  0.00     0.014 A 
ATOM     32  C   UNL A   1      38.232  29.403  28.515  1.00  0.00     0.010 A 
ATOM     33  C   UNL A   1      39.248  31.127  29.884  1.00  0.00     0.010 A 
ATOM     34  C   UNL A   1      39.255  29.841  29.375  1.00  0.00    -0.014 A 
BRANCH  34  35
ATOM     35  C   UNL A   1      40.433  29.036  29.671  1.00  0.00     0.031 A 
ATOM     36  C   UNL A   1      40.633  28.823  31.123  1.00  0.00     0.074 A 
ATOM     37  C   UNL A   1      41.119  28.352  28.724  1.00  0.00     0.049 A 
ATOM     38  N   UNL A   1      41.498  29.407  31.881  1.00  0.00    -0.248 NA
ATOM     39  C   UNL A   1      39.621  28.055  31.869  1.00  0.00     0.031 C 
ATOM     40  C   UNL A   1      40.828  28.238  27.288  1.00  0.00     0.029 A 
ATOM     41  N   UNL A   1      42.186  27.520  28.864  1.00  0.00    -0.354 N 
ATOM     42  C   UNL A   1      41.334  28.840  33.138  1.00  0.00     0.074 A 
ATOM     43  C   UNL A   1      40.025  28.251  33.127  1.00  0.00     0.031 C 
ATOM     44  C   UNL A   1      41.545  27.224  26.750  1.00  0.00     0.029 A 
ATOM     45  C   UNL A   1      42.472  26.725  27.751  1.00  0.00     0.049 A 
ATOM     46  H   UNL A   1      42.718  27.479  29.691  1.00  0.00     0.167 HD
ATOM     47  C   UNL A   1      42.412  28.642  33.949  1.00  0.00     0.034 A 
ATOM     48  C   UNL A   1      43.403  25.732  27.657  1.00  0.00     0.034 A 
ATOM     49  C   UNL A   1      43.553  29.396  33.463  1.00  0.00     0.049 A 
ATOM     50  C   UNL A   1      44.392  25.993  28.734  1.00  0.00     0.074 A 
ATOM     51  C   UNL A   1      43.788  30.733  33.200  1.00  0.00     0.029 A 
ATOM     52  N   UNL A   1      44.525  28.709  32.765  1.00  0.00    -0.354 N 
ATOM     53  N   UNL A   1      45.154  27.054  28.755  1.00  0.00    -0.248 NA
ATOM     54  C   UNL A   1      44.156  25.375  30.030  1.00  0.00     0.031 C 
ATOM     55  C   UNL A   1      44.531  30.741  31.980  1.00  0.00     0.029 A 
ATOM     56  C   UNL A   1      44.813  29.419  31.625  1.00  0.00     0.049 A 
ATOM     57  H   UNL A   1      44.939  27.858  33.037  1.00  0.00     0.167 HD
ATOM     58  C   UNL A   1      45.118  27.494  30.070  1.00  0.00     0.074 A 
ATOM     59  C   UNL A   1      44.562  26.371  30.827  1.00  0.00     0.031 C 
ATOM     60  C   UNL A   1      45.257  28.819  30.378  1.00  0.00     0.034 A 
BRANCH  47  61
ATOM     61  C   UNL A   1      42.576  27.476  34.902  1.00  0.00     0.023 A 
ATOM     62  C   UNL A   1      43.438  26.441  34.489  1.00  0.00     0.031 A 
ATOM     63  C   UNL A   1      41.754  27.175  36.012  1.00  0.00     0.131 A 
ATOM     64  C   UNL A   1      43.365  25.163  35.066  1.00  0.00     0.055 A 
ATOM     65  C   UNL A   1      41.734  25.919  36.628  1.00  0.00     0.041 A 
ATOM     66  F   UNL A   1      40.862  28.033  36.519  1.00  0.00    -0.206 F 
ATOM     67  C   UNL A   1      42.514  24.893  36.132  1.00  0.00     0.022 A 
BRANCH  64  68
ATOM     68  S   UNL A   1      44.270  23.816  34.267  1.00  0.00     0.124 S 
ATOM     69  O   UNL A   1      44.838  23.125  35.420  1.00  0.00    -0.237 OA
ATOM     70  O   UNL A   1      43.203  23.119  33.557  1.00  0.00    -0.237 OA
ATOM     71  O   UNL A   1      45.234  24.513  33.418  1.00  0.00    -0.744 OA
ENDBRANCH  64  68
ENDBRANCH  47  61
BRANCH  48  72
ATOM     72  C   UNL A   1      43.287  24.417  26.952  1.00  0.00     0.023 A 
ATOM     73  C   UNL A   1      44.063  24.059  25.821  1.00  0.00     0.031 A 
ATOM     74  C   UNL A   1      42.565  23.370  27.570  1.00  0.00     0.131 A 
ATOM     75  C   UNL A   1      44.094  22.713  25.365  1.00  0.00     0.055 A 
ATOM     76  C   UNL A   1      42.607  22.046  27.121  1.00  0.00     0.041 A 
ATOM     77  F   UNL A   1      41.860  23.583  28.691  1.00  0.00    -0.206 F 
ATOM     78  C   UNL A   1      43.380  21.710  26.023  1.00  0.00     0.022 A 
BRANCH  75  79
ATOM     79  S   UNL A   1      45.132  22.216  23.944  1.00  0.00     0.124 S 
ATOM     80  O   UNL A   1      46.149  23.261  23.920  1.00  0.00    -0.237 OA
ATOM     81  O   UNL A   1      45.578  20.883  24.330  1.00  0.00    -0.237 OA
ATOM     82  O   UNL A   1      44.201  22.243  22.814  1.00  0.00    -0.744 OA
ENDBRANCH  75  79
ENDBRANCH  48  72
BRANCH  60  83
ATOM     83  C   UNL A   1      45.754  29.767  29.299  1.00  0.00     0.023 A 
ATOM     84  C   UNL A   1      44.941  30.563  28.457  1.00  0.00     0.031 A 
ATOM     85  C   UNL A   1      47.147  29.945  29.212  1.00  0.00     0.131 A 
ATOM     86  C   UNL A   1      45.535  31.487  27.570  1.00  0.00     0.055 A 
ATOM     87  C   UNL A   1      47.727  30.875  28.353  1.00  0.00     0.041 A 
ATOM     88  F   UNL A   1      47.973  29.234  29.996  1.00  0.00    -0.206 F 
ATOM     89  C   UNL A   1      46.924  31.647  27.525  1.00  0.00     0.022 A 
BRANCH  86  90
ATOM     90  S   UNL A   1      44.519  32.489  26.431  1.00  0.00     0.124 S 
ATOM     91  O   UNL A   1      45.499  33.068  25.519  1.00  0.00    -0.237 OA
ATOM     92  O   UNL A   1      43.617  31.497  25.854  1.00  0.00    -0.237 OA
ATOM     93  O   UNL A   1      43.868  33.457  27.317  1.00  0.00    -0.744 OA
ENDBRANCH  86  90
ENDBRANCH  60  83
ENDBRANCH  34  35
ENDBRANCH  26  29
ENDBRANCH  24  25
ENDBRANCH  23  24
ENDBRANCH  22  23
ENDBRANCH   1  22
TORSDOF 19
ENDMDL
MODEL 3
REMARK VINA RESULT:     -10.7      4.015      9.365
REMARK SMILES C[C@@H](Cc1cnn(-c2ccccc2)n1)C(=O)NCCCCCCNC(=O)c1ccc(-c2c3nc(c(-c4cc(S(=O)(=O)[O-])ccc4F)c4ccc([nH]4)c(-c4cc(S(=O)(=O)[O-])ccc4F)c4nc(c(-c5cc(S(=O)(=O)[O-])ccc5F)c5ccc2[nH]5)C=C4)C=C3)cc1
REMARK SMILES IDX 20 1 19 2 18 3 17 4 15 5 16 6 2 8 1 9 3 10 4 11 5 12 14 13
REMARK SMILES IDX 6 14 7 15 8 16 9 17 13 18 10 19 12 20 11 21 21 22 22 23
REMARK SMILES IDX 23 24 24 25 25 26 26 28 27 29 28 30 89 31 29 32 88 33 30 34
REMARK SMILES IDX 31 35 32 36 82 37 33 38 87 39 81 40 83 41 34 42 86 43 80 44
REMARK SMILES IDX 79 45 35 47 67 48 47 49 66 50 48 51 51 52 65 53 84 54 49 55
REMARK SMILES IDX 50 56 64 58 85 59 52 60 36 61 37 62 45 63 38 64 44 65 46 66
REMARK SMILES IDX 43 67 39 68 40 69 41 70 42 71 68 72 69 73 77 74 70 75 76 76
REMARK SMILES IDX 78 77 75 78 71 79 72 80 73 81 74 82 53 83 54 84 62 85 55 86
REMARK SMILES IDX 61 87 63 88 60 89 56 90 57 91 58 92 59 93
REMARK H PARENT 17 7 24 27 83 46 51 57
REMARK Flexibility Score: inf
ROOT
ATOM      1  C   UNL A   1      34.179  22.640  25.177  1.00  0.00     0.002 C 
ENDROOT
BRANCH   1   2
ATOM      2  C   UNL A   1      33.436  22.410  23.861  1.00  0.00     0.021 C 
BRANCH   2   3
ATOM      3  C   UNL A   1      33.920  23.262  22.703  1.00  0.00     0.116 C 
BRANCH   3   4
ATOM      4  N   UNL A   1      32.892  24.009  22.020  1.00  0.00    -0.356 N 
ATOM      5  C   UNL A   1      32.441  25.267  22.281  1.00  0.00     0.223 C 
ATOM      6  O   UNL A   1      31.746  25.819  21.421  1.00  0.00    -0.275 OA
ATOM      7  H   UNL A   1      32.458  23.549  21.265  1.00  0.00     0.163 HD
BRANCH   5   8
ATOM      8  C   UNL A   1      32.743  25.993  23.590  1.00  0.00     0.081 C 
ATOM      9  C   UNL A   1      33.678  27.192  23.438  1.00  0.00     0.018 C 
BRANCH   8  10
ATOM     10  C   UNL A   1      31.541  26.166  24.528  1.00  0.00     0.073 C 
BRANCH  10  11
ATOM     11  C   UNL A   1      30.399  27.034  24.123  1.00  0.00     0.084 A 
ATOM     12  C   UNL A   1      29.065  26.673  23.861  1.00  0.00     0.161 A 
ATOM     13  N   UNL A   1      30.550  28.348  23.877  1.00  0.00    -0.153 NA
ATOM     14  N   UNL A   1      28.410  27.698  23.321  1.00  0.00    -0.157 NA
ATOM     15  N   UNL A   1      29.344  28.683  23.345  1.00  0.00    -0.151 N 
BRANCH  15  16
ATOM     16  C   UNL A   1      29.046  29.971  22.849  1.00  0.00     0.086 A 
ATOM     17  C   UNL A   1      29.097  31.088  23.688  1.00  0.00     0.030 A 
ATOM     18  C   UNL A   1      28.618  30.100  21.523  1.00  0.00     0.030 A 
ATOM     19  C   UNL A   1      28.611  32.314  23.221  1.00  0.00     0.002 A 
ATOM     20  C   UNL A   1      28.226  31.347  21.038  1.00  0.00     0.002 A 
ATOM     21  C   UNL A   1      28.186  32.444  21.897  1.00  0.00     0.000 A 
ENDBRANCH  15  16
ENDBRANCH  10  11
ENDBRANCH   8  10
ENDBRANCH   5   8
ENDBRANCH   3   4
ENDBRANCH   2   3
ENDBRANCH   1   2
BRANCH   1  22
ATOM     22  C   UNL A   1      35.701  22.835  25.083  1.00  0.00     0.002 C 
BRANCH  22  23
ATOM     23  C   UNL A   1      36.415  23.434  26.303  1.00  0.00     0.021 C 
BRANCH  23  24
ATOM     24  C   UNL A   1      37.817  23.938  26.036  1.00  0.00     0.116 C 
BRANCH  24  25
ATOM     25  N   UNL A   1      38.838  22.927  26.326  1.00  0.00    -0.352 N 
ATOM     26  C   UNL A   1      40.092  23.123  26.870  1.00  0.00     0.251 C 
ATOM     27  H   UNL A   1      38.601  21.997  26.109  1.00  0.00     0.163 HD
ATOM     28  O   UNL A   1      40.982  22.284  26.703  1.00  0.00    -0.269 OA
BRANCH  26  29
ATOM     29  C   UNL A   1      40.337  24.345  27.652  1.00  0.00     0.039 A 
ATOM     30  C   UNL A   1      41.586  24.667  28.188  1.00  0.00     0.014 A 
ATOM     31  C   UNL A   1      39.261  25.214  27.800  1.00  0.00     0.014 A 
ATOM     32  C   UNL A   1      41.742  25.907  28.807  1.00  0.00     0.010 A 
ATOM     33  C   UNL A   1      39.477  26.505  28.179  1.00  0.00     0.010 A 
ATOM     34  C   UNL A   1      40.680  26.828  28.782  1.00  0.00    -0.014 A 
BRANCH  34  35
ATOM     35  C   UNL A   1      40.816  28.199  29.257  1.00  0.00     0.031 A 
ATOM     36  C   UNL A   1      41.887  28.946  28.558  1.00  0.00     0.074 A 
ATOM     37  C   UNL A   1      39.906  28.797  30.063  1.00  0.00     0.049 A 
ATOM     38  N   UNL A   1      43.058  29.235  29.015  1.00  0.00    -0.248 NA
ATOM     39  C   UNL A   1      41.740  29.203  27.114  1.00  0.00     0.031 C 
ATOM     40  C   UNL A   1      38.639  28.253  30.572  1.00  0.00     0.029 A 
ATOM     41  N   UNL A   1      39.873  30.075  30.527  1.00  0.00    -0.354 N 
ATOM     42  C   UNL A   1      43.673  29.982  28.020  1.00  0.00     0.074 A 
ATOM     43  C   UNL A   1      42.947  29.690  26.815  1.00  0.00     0.031 C 
ATOM     44  C   UNL A   1      37.874  29.253  31.070  1.00  0.00     0.029 A 
ATOM     45  C   UNL A   1      38.653  30.479  31.077  1.00  0.00     0.049 A 
ATOM     46  H   UNL A   1      40.652  30.674  30.478  1.00  0.00     0.167 HD
ATOM     47  C   UNL A   1      44.515  31.002  28.347  1.00  0.00     0.034 A 
ATOM     48  C   UNL A   1      38.309  31.727  31.507  1.00  0.00     0.034 A 
ATOM     49  C   UNL A   1      44.896  30.913  29.745  1.00  0.00     0.049 A 
ATOM     50  C   UNL A   1      39.586  32.434  31.779  1.00  0.00     0.074 A 
ATOM     51  C   UNL A   1      45.501  29.943  30.522  1.00  0.00     0.029 A 
ATOM     52  N   UNL A   1      44.263  31.755  30.636  1.00  0.00    -0.354 N 
ATOM     53  N   UNL A   1      40.417  32.064  32.716  1.00  0.00    -0.248 NA
ATOM     54  C   UNL A   1      40.181  33.193  30.690  1.00  0.00     0.031 C 
ATOM     55  C   UNL A   1      44.779  29.958  31.755  1.00  0.00     0.029 A 
ATOM     56  C   UNL A   1      43.856  31.006  31.713  1.00  0.00     0.049 A 
ATOM     57  H   UNL A   1      44.128  32.723  30.520  1.00  0.00     0.167 HD
ATOM     58  C   UNL A   1      41.672  32.136  32.131  1.00  0.00     0.074 A 
ATOM     59  C   UNL A   1      41.473  32.923  30.912  1.00  0.00     0.031 C 
ATOM     60  C   UNL A   1      42.687  31.307  32.523  1.00  0.00     0.034 A 
BRANCH  47  61
ATOM     61  C   UNL A   1      44.661  32.291  27.563  1.00  0.00     0.023 A 
ATOM     62  C   UNL A   1      44.059  33.437  28.119  1.00  0.00     0.031 A 
ATOM     63  C   UNL A   1      45.075  32.415  26.218  1.00  0.00     0.131 A 
ATOM     64  C   UNL A   1      43.776  34.563  27.330  1.00  0.00     0.055 A 
ATOM     65  C   UNL A   1      44.851  33.565  25.454  1.00  0.00     0.041 A 
ATOM     66  F   UNL A   1      45.642  31.419  25.529  1.00  0.00    -0.206 F 
ATOM     67  C   UNL A   1      44.164  34.634  25.997  1.00  0.00     0.022 A 
BRANCH  64  68
ATOM     68  S   UNL A   1      42.721  35.853  28.034  1.00  0.00     0.124 S 
ATOM     69  O   UNL A   1      42.910  36.937  27.076  1.00  0.00    -0.237 OA
ATOM     70  O   UNL A   1      41.413  35.205  28.028  1.00  0.00    -0.237 OA
ATOM     71  O   UNL A   1      43.300  36.078  29.357  1.00  0.00    -0.744 OA
ENDBRANCH  64  68
ENDBRANCH  47  61
BRANCH  48  72
ATOM     72  C   UNL A   1      36.998  32.432  31.349  1.00  0.00     0.023 A 
ATOM     73  C   UNL A   1      36.524  32.945  30.116  1.00  0.00     0.031 A 
ATOM     74  C   UNL A   1      36.057  32.373  32.403  1.00  0.00     0.131 A 
ATOM     75  C   UNL A   1      35.173  33.363  29.981  1.00  0.00     0.055 A 
ATOM     76  C   UNL A   1      34.726  32.778  32.261  1.00  0.00     0.041 A 
ATOM     77  F   UNL A   1      36.379  31.834  33.589  1.00  0.00    -0.206 F 
ATOM     78  C   UNL A   1      34.275  33.265  31.046  1.00  0.00     0.022 A 
BRANCH  75  79
ATOM     79  S   UNL A   1      34.524  33.976  28.385  1.00  0.00     0.124 S 
ATOM     80  O   UNL A   1      34.345  35.399  28.646  1.00  0.00    -0.237 OA
ATOM     81  O   UNL A   1      35.584  33.613  27.452  1.00  0.00    -0.237 OA
ATOM     82  O   UNL A   1      33.278  33.226  28.211  1.00  0.00    -0.744 OA
ENDBRANCH  75  79
ENDBRANCH  48  72
BRANCH  60  83
ATOM     83  C   UNL A   1      42.520  30.515  33.809  1.00  0.00     0.023 A 
ATOM     84  C   UNL A   1      42.127  29.158  33.902  1.00  0.00     0.031 A 
ATOM     85  C   UNL A   1      42.899  31.163  34.999  1.00  0.00     0.131 A 
ATOM     86  C   UNL A   1      42.121  28.509  35.156  1.00  0.00     0.055 A 
ATOM     87  C   UNL A   1      42.914  30.512  36.230  1.00  0.00     0.041 A 
ATOM     88  F   UNL A   1      43.299  32.444  34.977  1.00  0.00    -0.206 F 
ATOM     89  C   UNL A   1      42.520  29.183  36.315  1.00  0.00     0.022 A 
BRANCH  86  90
ATOM     90  S   UNL A   1      41.566  26.777  35.319  1.00  0.00     0.124 S 
ATOM     91  O   UNL A   1      40.539  26.649  34.293  1.00  0.00    -0.237 OA
ATOM     92  O   UNL A   1      42.797  26.026  35.089  1.00  0.00    -0.237 OA
ATOM     93  O   UNL A   1      41.064  26.709  36.694  1.00  0.00    -0.744 OA
ENDBRANCH  86  90
ENDBRANCH  60  83
ENDBRANCH  34  35
ENDBRANCH  26  29
ENDBRANCH  24  25
ENDBRANCH  23  24
ENDBRANCH  22  23
ENDBRANCH   1  22
TORSDOF 19
ENDMDL
