MODEL 1
REMARK VINA RESULT:     -10.9      0.000      0.000
REMARK SMILES C[C@H](CSc1ccc(C(=O)N(C)C)cn1)C(=O)NCCCCCCNC(=O)c1ccc(-c2c3nc(c(-c4cc(S(=O)(=O)[O-])ccc4F)c4ccc([nH]4)c(-c4cc(S(=O)(=O)[O-])ccc4F)c4nc(c(-c5cc(S(=O)(=O)[O-])ccc5F)c5ccc2[nH]5)C=C4)C=C3)cc1
REMARK SMILES IDX 21 1 20 2 19 3 18 4 16 5 17 6 2 8 1 9 3 10 4 11 5 12 6 13
REMARK SMILES IDX 15 14 7 15 14 16 8 17 9 18 10 19 11 20 12 21 13 22 22 23
REMARK SMILES IDX 23 24 24 25 25 26 26 27 27 29 28 30 29 31 90 32 30 33 89 34
REMARK SMILES IDX 31 35 32 36 33 37 83 38 34 39 88 40 82 41 84 42 35 43 87 44
REMARK SMILES IDX 81 45 80 46 36 48 68 49 48 50 67 51 49 52 52 53 66 54 85 55
REMARK SMILES IDX 50 56 51 57 65 59 86 60 53 61 37 62 38 63 46 64 39 65 45 66
REMARK SMILES IDX 47 67 44 68 40 69 41 70 42 71 43 72 69 73 70 74 78 75 71 76
REMARK SMILES IDX 77 77 79 78 76 79 72 80 73 81 74 82 75 83 54 84 55 85 63 86
REMARK SMILES IDX 56 87 62 88 64 89 61 90 57 91 58 92 59 93 60 94
REMARK H PARENT 18 7 25 28 84 47 52 58
REMARK Flexibility Score: inf
ROOT
ATOM      1  C   UNL A   1      31.848  29.868  25.737  1.00  0.00     0.002 C 
ENDROOT
BRANCH   1   2
ATOM      2  C   UNL A   1      32.107  29.205  27.094  1.00  0.00     0.021 C 
BRANCH   2   3
ATOM      3  C   UNL A   1      33.469  28.520  27.147  1.00  0.00     0.116 C 
BRANCH   3   4
ATOM      4  N   UNL A   1      33.772  27.942  25.846  1.00  0.00    -0.356 N 
ATOM      5  C   UNL A   1      33.592  26.686  25.360  1.00  0.00     0.223 C 
ATOM      6  O   UNL A   1      34.033  26.433  24.237  1.00  0.00    -0.275 OA
ATOM      7  H   UNL A   1      34.178  28.571  25.207  1.00  0.00     0.163 HD
BRANCH   5   8
ATOM      8  C   UNL A   1      32.790  25.649  26.129  1.00  0.00     0.085 C 
ATOM      9  C   UNL A   1      33.502  24.310  25.925  1.00  0.00     0.019 C 
BRANCH   8  10
ATOM     10  C   UNL A   1      31.276  25.799  25.869  1.00  0.00     0.089 C 
BRANCH  10  11
ATOM     11  S   UNL A   1      30.676  25.386  24.185  1.00  0.00    -0.106 SA
BRANCH  11  12
ATOM     12  C   UNL A   1      30.004  26.957  23.682  1.00  0.00     0.096 A 
ATOM     13  C   UNL A   1      28.628  27.144  23.764  1.00  0.00     0.036 A 
ATOM     14  N   UNL A   1      30.823  27.850  23.095  1.00  0.00    -0.249 NA
ATOM     15  C   UNL A   1      28.049  28.253  23.134  1.00  0.00     0.018 A 
ATOM     16  C   UNL A   1      30.233  28.932  22.514  1.00  0.00     0.126 A 
ATOM     17  C   UNL A   1      28.854  29.151  22.437  1.00  0.00     0.058 A 
BRANCH  17  18
ATOM     18  C   UNL A   1      28.403  30.337  21.654  1.00  0.00     0.254 C 
ATOM     19  O   UNL A   1      28.015  30.107  20.505  1.00  0.00    -0.269 OA
ATOM     20  N   UNL A   1      28.376  31.647  22.149  1.00  0.00    -0.345 N 
ATOM     21  C   UNL A   1      28.556  32.110  23.515  1.00  0.00     0.146 C 
ATOM     22  C   UNL A   1      28.030  32.677  21.178  1.00  0.00     0.146 C 
ENDBRANCH  17  18
ENDBRANCH  11  12
ENDBRANCH  10  11
ENDBRANCH   8  10
ENDBRANCH   5   8
ENDBRANCH   3   4
ENDBRANCH   2   3
ENDBRANCH   1   2
BRANCH   1  23
ATOM     23  C   UNL A   1      31.072  31.188  25.826  1.00  0.00     0.002 C 
BRANCH  23  24
ATOM     24  C   UNL A   1      31.396  32.026  27.066  1.00  0.00     0.021 C 
BRANCH  24  25
ATOM     25  C   UNL A   1      32.699  32.809  26.955  1.00  0.00     0.116 C 
BRANCH  25  26
ATOM     26  N   UNL A   1      32.591  34.112  27.591  1.00  0.00    -0.352 N 
ATOM     27  C   UNL A   1      33.245  34.582  28.697  1.00  0.00     0.251 C 
ATOM     28  H   UNL A   1      31.962  34.741  27.169  1.00  0.00     0.163 HD
ATOM     29  O   UNL A   1      32.853  35.612  29.249  1.00  0.00    -0.269 OA
BRANCH  27  30
ATOM     30  C   UNL A   1      34.405  33.839  29.226  1.00  0.00     0.039 A 
ATOM     31  C   UNL A   1      35.687  34.200  28.813  1.00  0.00     0.014 A 
ATOM     32  C   UNL A   1      34.221  32.783  30.125  1.00  0.00     0.014 A 
ATOM     33  C   UNL A   1      36.791  33.521  29.329  1.00  0.00     0.010 A 
ATOM     34  C   UNL A   1      35.326  32.165  30.700  1.00  0.00     0.010 A 
ATOM     35  C   UNL A   1      36.623  32.513  30.293  1.00  0.00    -0.014 A 
BRANCH  35  36
ATOM     36  C   UNL A   1      37.790  31.780  30.846  1.00  0.00     0.031 A 
ATOM     37  C   UNL A   1      38.291  32.107  32.228  1.00  0.00     0.074 A 
ATOM     38  C   UNL A   1      38.411  30.847  30.099  1.00  0.00     0.049 A 
ATOM     39  N   UNL A   1      39.325  31.628  32.869  1.00  0.00    -0.248 NA
ATOM     40  C   UNL A   1      37.543  33.130  32.977  1.00  0.00     0.031 C 
ATOM     41  C   UNL A   1      38.037  30.470  28.733  1.00  0.00     0.029 A 
ATOM     42  N   UNL A   1      39.490  30.046  30.377  1.00  0.00    -0.354 N 
ATOM     43  C   UNL A   1      39.349  32.285  34.095  1.00  0.00     0.074 A 
ATOM     44  C   UNL A   1      38.277  33.257  34.071  1.00  0.00     0.031 C 
ATOM     45  C   UNL A   1      38.855  29.495  28.306  1.00  0.00     0.029 A 
ATOM     46  C   UNL A   1      39.841  29.209  29.343  1.00  0.00     0.049 A 
ATOM     47  H   UNL A   1      39.967  30.067  31.239  1.00  0.00     0.167 HD
ATOM     48  C   UNL A   1      40.165  32.073  35.157  1.00  0.00     0.034 A 
ATOM     49  C   UNL A   1      40.853  28.324  29.239  1.00  0.00     0.034 A 
ATOM     50  C   UNL A   1      41.229  31.100  35.165  1.00  0.00     0.049 A 
ATOM     51  C   UNL A   1      41.774  28.136  30.421  1.00  0.00     0.074 A 
ATOM     52  C   UNL A   1      42.117  30.799  36.184  1.00  0.00     0.029 A 
ATOM     53  N   UNL A   1      41.550  30.265  34.102  1.00  0.00    -0.354 N 
ATOM     54  N   UNL A   1      41.766  28.748  31.584  1.00  0.00    -0.248 NA
ATOM     55  C   UNL A   1      42.827  27.122  30.285  1.00  0.00     0.031 C 
ATOM     56  C   UNL A   1      43.009  29.829  35.718  1.00  0.00     0.029 A 
ATOM     57  C   UNL A   1      42.627  29.459  34.439  1.00  0.00     0.049 A 
ATOM     58  H   UNL A   1      41.081  30.247  33.237  1.00  0.00     0.167 HD
ATOM     59  C   UNL A   1      42.781  28.157  32.331  1.00  0.00     0.074 A 
ATOM     60  C   UNL A   1      43.366  27.131  31.494  1.00  0.00     0.031 C 
ATOM     61  C   UNL A   1      43.194  28.432  33.595  1.00  0.00     0.034 A 
BRANCH  48  62
ATOM     62  C   UNL A   1      39.934  32.916  36.388  1.00  0.00     0.023 A 
ATOM     63  C   UNL A   1      39.123  32.464  37.444  1.00  0.00     0.031 A 
ATOM     64  C   UNL A   1      40.515  34.190  36.506  1.00  0.00     0.131 A 
ATOM     65  C   UNL A   1      38.857  33.304  38.535  1.00  0.00     0.055 A 
ATOM     66  C   UNL A   1      40.315  34.988  37.635  1.00  0.00     0.041 A 
ATOM     67  F   UNL A   1      41.279  34.689  35.521  1.00  0.00    -0.206 F 
ATOM     68  C   UNL A   1      39.471  34.551  38.653  1.00  0.00     0.022 A 
BRANCH  65  69
ATOM     69  S   UNL A   1      37.592  32.795  39.731  1.00  0.00     0.124 S 
ATOM     70  O   UNL A   1      38.243  31.663  40.384  1.00  0.00    -0.237 OA
ATOM     71  O   UNL A   1      37.424  33.994  40.544  1.00  0.00    -0.237 OA
ATOM     72  O   UNL A   1      36.448  32.447  38.889  1.00  0.00    -0.744 OA
ENDBRANCH  65  69
ENDBRANCH  48  62
BRANCH  49  73
ATOM     73  C   UNL A   1      41.070  27.556  27.977  1.00  0.00     0.023 A 
ATOM     74  C   UNL A   1      40.787  26.183  27.904  1.00  0.00     0.031 A 
ATOM     75  C   UNL A   1      41.645  28.169  26.848  1.00  0.00     0.131 A 
ATOM     76  C   UNL A   1      41.150  25.453  26.760  1.00  0.00     0.055 A 
ATOM     77  C   UNL A   1      41.936  27.452  25.686  1.00  0.00     0.041 A 
ATOM     78  F   UNL A   1      41.934  29.480  26.859  1.00  0.00    -0.206 F 
ATOM     79  C   UNL A   1      41.709  26.080  25.646  1.00  0.00     0.022 A 
BRANCH  76  80
ATOM     80  S   UNL A   1      41.011  23.644  26.808  1.00  0.00     0.124 S 
ATOM     81  O   UNL A   1      39.585  23.451  26.575  1.00  0.00    -0.237 OA
ATOM     82  O   UNL A   1      41.900  23.244  25.721  1.00  0.00    -0.237 OA
ATOM     83  O   UNL A   1      41.477  23.303  28.150  1.00  0.00    -0.744 OA
ENDBRANCH  76  80
ENDBRANCH  49  73
BRANCH  61  84
ATOM     84  C   UNL A   1      44.279  27.554  34.172  1.00  0.00     0.023 A 
ATOM     85  C   UNL A   1      43.999  26.305  34.754  1.00  0.00     0.031 A 
ATOM     86  C   UNL A   1      45.616  27.991  34.161  1.00  0.00     0.131 A 
ATOM     87  C   UNL A   1      45.027  25.573  35.367  1.00  0.00     0.055 A 
ATOM     88  C   UNL A   1      46.647  27.226  34.707  1.00  0.00     0.041 A 
ATOM     89  F   UNL A   1      45.944  29.176  33.621  1.00  0.00    -0.206 F 
ATOM     90  C   UNL A   1      46.352  26.017  35.331  1.00  0.00     0.022 A 
BRANCH  87  91
ATOM     91  S   UNL A   1      44.592  24.094  36.321  1.00  0.00     0.124 S 
ATOM     92  O   UNL A   1      44.154  24.667  37.589  1.00  0.00    -0.237 OA
ATOM     93  O   UNL A   1      43.548  23.490  35.500  1.00  0.00    -0.237 OA
ATOM     94  O   UNL A   1      45.845  23.343  36.380  1.00  0.00    -0.744 OA
ENDBRANCH  87  91
ENDBRANCH  61  84
ENDBRANCH  35  36
ENDBRANCH  27  30
ENDBRANCH  25  26
ENDBRANCH  24  25
ENDBRANCH  23  24
ENDBRANCH   1  23
TORSDOF 20
ENDMDL
MODEL 2
REMARK VINA RESULT:     -10.8      1.566      7.684
REMARK SMILES C[C@H](CSc1ccc(C(=O)N(C)C)cn1)C(=O)NCCCCCCNC(=O)c1ccc(-c2c3nc(c(-c4cc(S(=O)(=O)[O-])ccc4F)c4ccc([nH]4)c(-c4cc(S(=O)(=O)[O-])ccc4F)c4nc(c(-c5cc(S(=O)(=O)[O-])ccc5F)c5ccc2[nH]5)C=C4)C=C3)cc1
REMARK SMILES IDX 21 1 20 2 19 3 18 4 16 5 17 6 2 8 1 9 3 10 4 11 5 12 6 13
REMARK SMILES IDX 15 14 7 15 14 16 8 17 9 18 10 19 11 20 12 21 13 22 22 23
REMARK SMILES IDX 23 24 24 25 25 26 26 27 27 29 28 30 29 31 90 32 30 33 89 34
REMARK SMILES IDX 31 35 32 36 33 37 83 38 34 39 88 40 82 41 84 42 35 43 87 44
REMARK SMILES IDX 81 45 80 46 36 48 68 49 48 50 67 51 49 52 52 53 66 54 85 55
REMARK SMILES IDX 50 56 51 57 65 59 86 60 53 61 37 62 38 63 46 64 39 65 45 66
REMARK SMILES IDX 47 67 44 68 40 69 41 70 42 71 43 72 69 73 70 74 78 75 71 76
REMARK SMILES IDX 77 77 79 78 76 79 72 80 73 81 74 82 75 83 54 84 55 85 63 86
REMARK SMILES IDX 56 87 62 88 64 89 61 90 57 91 58 92 59 93 60 94
REMARK H PARENT 18 7 25 28 84 47 52 58
REMARK Flexibility Score: inf
ROOT
ATOM      1  C   UNL A   1      32.144  29.785  25.705  1.00  0.00     0.002 C 
ENDROOT
BRANCH   1   2
ATOM      2  C   UNL A   1      32.376  29.100  27.056  1.00  0.00     0.021 C 
BRANCH   2   3
ATOM      3  C   UNL A   1      33.655  28.268  27.065  1.00  0.00     0.116 C 
BRANCH   3   4
ATOM      4  N   UNL A   1      33.870  27.695  25.745  1.00  0.00    -0.356 N 
ATOM      5  C   UNL A   1      33.589  26.463  25.247  1.00  0.00     0.223 C 
ATOM      6  O   UNL A   1      33.970  26.202  24.103  1.00  0.00    -0.275 OA
ATOM      7  H   UNL A   1      34.294  28.308  25.102  1.00  0.00     0.163 HD
BRANCH   5   8
ATOM      8  C   UNL A   1      32.749  25.467  26.029  1.00  0.00     0.085 C 
ATOM      9  C   UNL A   1      33.341  24.084  25.749  1.00  0.00     0.019 C 
BRANCH   8  10
ATOM     10  C   UNL A   1      31.241  25.743  25.858  1.00  0.00     0.089 C 
BRANCH  10  11
ATOM     11  S   UNL A   1      30.495  25.312  24.237  1.00  0.00    -0.106 SA
BRANCH  11  12
ATOM     12  C   UNL A   1      29.871  26.901  23.729  1.00  0.00     0.096 A 
ATOM     13  C   UNL A   1      28.500  27.125  23.797  1.00  0.00     0.036 A 
ATOM     14  N   UNL A   1      30.719  27.773  23.153  1.00  0.00    -0.249 NA
ATOM     15  C   UNL A   1      27.957  28.250  23.164  1.00  0.00     0.018 A 
ATOM     16  C   UNL A   1      30.164  28.871  22.568  1.00  0.00     0.126 A 
ATOM     17  C   UNL A   1      28.792  29.127  22.477  1.00  0.00     0.058 A 
BRANCH  17  18
ATOM     18  C   UNL A   1      28.381  30.326  21.692  1.00  0.00     0.254 C 
ATOM     19  O   UNL A   1      27.972  30.106  20.548  1.00  0.00    -0.269 OA
ATOM     20  N   UNL A   1      28.413  31.639  22.179  1.00  0.00    -0.345 N 
ATOM     21  C   UNL A   1      28.627  32.102  23.540  1.00  0.00     0.146 C 
ATOM     22  C   UNL A   1      28.099  32.677  21.205  1.00  0.00     0.146 C 
ENDBRANCH  17  18
ENDBRANCH  11  12
ENDBRANCH  10  11
ENDBRANCH   8  10
ENDBRANCH   5   8
ENDBRANCH   3   4
ENDBRANCH   2   3
ENDBRANCH   1   2
BRANCH   1  23
ATOM     23  C   UNL A   1      31.365  31.102  25.800  1.00  0.00     0.002 C 
BRANCH  23  24
ATOM     24  C   UNL A   1      31.588  31.873  27.104  1.00  0.00     0.021 C 
BRANCH  24  25
ATOM     25  C   UNL A   1      32.864  32.706  27.116  1.00  0.00     0.116 C 
BRANCH  25  26
ATOM     26  N   UNL A   1      32.620  34.042  27.636  1.00  0.00    -0.352 N 
ATOM     27  C   UNL A   1      33.143  34.636  28.751  1.00  0.00     0.251 C 
ATOM     28  H   UNL A   1      31.993  34.594  27.114  1.00  0.00     0.163 HD
ATOM     29  O   UNL A   1      32.641  35.675  29.184  1.00  0.00    -0.269 OA
BRANCH  27  30
ATOM     30  C   UNL A   1      34.295  34.015  29.432  1.00  0.00     0.039 A 
ATOM     31  C   UNL A   1      35.586  34.397  29.068  1.00  0.00     0.014 A 
ATOM     32  C   UNL A   1      34.096  33.051  30.427  1.00  0.00     0.014 A 
ATOM     33  C   UNL A   1      36.680  33.836  29.726  1.00  0.00     0.010 A 
ATOM     34  C   UNL A   1      35.184  32.556  31.137  1.00  0.00     0.010 A 
ATOM     35  C   UNL A   1      36.489  32.927  30.781  1.00  0.00    -0.014 A 
BRANCH  35  36
ATOM     36  C   UNL A   1      37.646  32.319  31.485  1.00  0.00     0.031 A 
ATOM     37  C   UNL A   1      38.385  31.169  30.854  1.00  0.00     0.074 A 
ATOM     38  C   UNL A   1      38.013  32.781  32.697  1.00  0.00     0.049 A 
ATOM     39  N   UNL A   1      39.378  30.462  31.328  1.00  0.00    -0.248 NA
ATOM     40  C   UNL A   1      37.924  30.739  29.523  1.00  0.00     0.031 C 
ATOM     41  C   UNL A   1      37.350  33.868  33.423  1.00  0.00     0.029 A 
ATOM     42  N   UNL A   1      39.028  32.396  33.536  1.00  0.00    -0.354 N 
ATOM     43  C   UNL A   1      39.665  29.511  30.354  1.00  0.00     0.074 A 
ATOM     44  C   UNL A   1      38.684  29.677  29.303  1.00  0.00     0.031 C 
ATOM     45  C   UNL A   1      37.993  34.077  34.584  1.00  0.00     0.029 A 
ATOM     46  C   UNL A   1      39.081  33.113  34.709  1.00  0.00     0.049 A 
ATOM     47  H   UNL A   1      39.662  31.674  33.317  1.00  0.00     0.167 HD
ATOM     48  C   UNL A   1      40.675  28.607  30.320  1.00  0.00     0.034 A 
ATOM     49  C   UNL A   1      39.903  32.993  35.771  1.00  0.00     0.034 A 
ATOM     50  C   UNL A   1      41.645  28.454  31.375  1.00  0.00     0.049 A 
ATOM     51  C   UNL A   1      40.994  31.951  35.727  1.00  0.00     0.074 A 
ATOM     52  C   UNL A   1      42.710  27.572  31.448  1.00  0.00     0.029 A 
ATOM     53  N   UNL A   1      41.672  29.203  32.545  1.00  0.00    -0.354 N 
ATOM     54  N   UNL A   1      41.268  31.076  34.785  1.00  0.00    -0.248 NA
ATOM     55  C   UNL A   1      41.902  31.894  36.879  1.00  0.00     0.031 C 
ATOM     56  C   UNL A   1      43.342  27.746  32.683  1.00  0.00     0.029 A 
ATOM     57  C   UNL A   1      42.727  28.795  33.347  1.00  0.00     0.049 A 
ATOM     58  H   UNL A   1      41.035  29.919  32.772  1.00  0.00     0.167 HD
ATOM     59  C   UNL A   1      42.407  30.400  35.214  1.00  0.00     0.074 A 
ATOM     60  C   UNL A   1      42.777  30.981  36.487  1.00  0.00     0.031 C 
ATOM     61  C   UNL A   1      43.090  29.392  34.611  1.00  0.00     0.034 A 
BRANCH  48  62
ATOM     62  C   UNL A   1      40.768  27.717  29.104  1.00  0.00     0.023 A 
ATOM     63  C   UNL A   1      41.685  27.982  28.071  1.00  0.00     0.031 A 
ATOM     64  C   UNL A   1      39.926  26.600  28.964  1.00  0.00     0.131 A 
ATOM     65  C   UNL A   1      41.689  27.187  26.915  1.00  0.00     0.055 A 
ATOM     66  C   UNL A   1      39.994  25.763  27.849  1.00  0.00     0.041 A 
ATOM     67  F   UNL A   1      39.013  26.308  29.904  1.00  0.00    -0.206 F 
ATOM     68  C   UNL A   1      40.871  26.062  26.809  1.00  0.00     0.022 A 
BRANCH  65  69
ATOM     69  S   UNL A   1      42.683  27.728  25.498  1.00  0.00     0.124 S 
ATOM     70  O   UNL A   1      43.996  27.908  26.111  1.00  0.00    -0.237 OA
ATOM     71  O   UNL A   1      42.557  26.605  24.575  1.00  0.00    -0.237 OA
ATOM     72  O   UNL A   1      42.027  28.963  25.071  1.00  0.00    -0.744 OA
ENDBRANCH  65  69
ENDBRANCH  48  62
BRANCH  49  73
ATOM     73  C   UNL A   1      39.731  33.863  36.972  1.00  0.00     0.023 A 
ATOM     74  C   UNL A   1      39.147  33.370  38.150  1.00  0.00     0.031 A 
ATOM     75  C   UNL A   1      40.073  35.227  36.931  1.00  0.00     0.131 A 
ATOM     76  C   UNL A   1      38.850  34.247  39.205  1.00  0.00     0.055 A 
ATOM     77  C   UNL A   1      39.842  36.080  38.012  1.00  0.00     0.041 A 
ATOM     78  F   UNL A   1      40.637  35.755  35.832  1.00  0.00    -0.206 F 
ATOM     79  C   UNL A   1      39.206  35.596  39.151  1.00  0.00     0.022 A 
BRANCH  76  80
ATOM     80  S   UNL A   1      37.861  33.626  40.595  1.00  0.00     0.124 S 
ATOM     81  O   UNL A   1      36.641  33.200  39.922  1.00  0.00    -0.237 OA
ATOM     82  O   UNL A   1      38.712  32.563  41.119  1.00  0.00    -0.237 OA
ATOM     83  O   UNL A   1      37.721  34.795  41.460  1.00  0.00    -0.744 OA
ENDBRANCH  76  80
ENDBRANCH  49  73
BRANCH  61  84
ATOM     84  C   UNL A   1      44.352  28.913  35.290  1.00  0.00     0.023 A 
ATOM     85  C   UNL A   1      44.341  27.878  36.241  1.00  0.00     0.031 A 
ATOM     86  C   UNL A   1      45.583  29.526  34.995  1.00  0.00     0.131 A 
ATOM     87  C   UNL A   1      45.523  27.539  36.918  1.00  0.00     0.055 A 
ATOM     88  C   UNL A   1      46.769  29.135  35.618  1.00  0.00     0.041 A 
ATOM     89  F   UNL A   1      45.654  30.522  34.097  1.00  0.00    -0.206 F 
ATOM     90  C   UNL A   1      46.740  28.147  36.599  1.00  0.00     0.022 A 
BRANCH  87  91
ATOM     91  S   UNL A   1      45.427  26.378  38.307  1.00  0.00     0.124 S 
ATOM     92  O   UNL A   1      46.187  25.239  37.805  1.00  0.00    -0.237 OA
ATOM     93  O   UNL A   1      46.051  27.134  39.389  1.00  0.00    -0.237 OA
ATOM     94  O   UNL A   1      43.992  26.146  38.463  1.00  0.00    -0.744 OA
ENDBRANCH  87  91
ENDBRANCH  61  84
ENDBRANCH  35  36
ENDBRANCH  27  30
ENDBRANCH  25  26
ENDBRANCH  24  25
ENDBRANCH  23  24
ENDBRANCH   1  23
TORSDOF 20
ENDMDL
MODEL 3
REMARK VINA RESULT:     -10.3      2.207      8.616
REMARK SMILES C[C@H](CSc1ccc(C(=O)N(C)C)cn1)C(=O)NCCCCCCNC(=O)c1ccc(-c2c3nc(c(-c4cc(S(=O)(=O)[O-])ccc4F)c4ccc([nH]4)c(-c4cc(S(=O)(=O)[O-])ccc4F)c4nc(c(-c5cc(S(=O)(=O)[O-])ccc5F)c5ccc2[nH]5)C=C4)C=C3)cc1
REMARK SMILES IDX 21 1 20 2 19 3 18 4 16 5 17 6 2 8 1 9 3 10 4 11 5 12 6 13
REMARK SMILES IDX 15 14 7 15 14 16 8 17 9 18 10 19 11 20 12 21 13 22 22 23
REMARK SMILES IDX 23 24 24 25 25 26 26 27 27 29 28 30 29 31 90 32 30 33 89 34
REMARK SMILES IDX 31 35 32 36 33 37 83 38 34 39 88 40 82 41 84 42 35 43 87 44
REMARK SMILES IDX 81 45 80 46 36 48 68 49 48 50 67 51 49 52 52 53 66 54 85 55
REMARK SMILES IDX 50 56 51 57 65 59 86 60 53 61 37 62 38 63 46 64 39 65 45 66
REMARK SMILES IDX 47 67 44 68 40 69 41 70 42 71 43 72 69 73 70 74 78 75 71 76
REMARK SMILES IDX 77 77 79 78 76 79 72 80 73 81 74 82 75 83 54 84 55 85 63 86
REMARK SMILES IDX 56 87 62 88 64 89 61 90 57 91 58 92 59 93 60 94
REMARK H PARENT 18 7 25 28 84 47 52 58
REMARK Flexibility Score: inf
ROOT
ATOM      1  C   UNL A   1      31.242  29.858  25.595  1.00  0.00     0.002 C 
ENDROOT
BRANCH   1   2
ATOM      2  C   UNL A   1      32.100  29.149  24.541  1.00  0.00     0.021 C 
BRANCH   2   3
ATOM      3  C   UNL A   1      32.793  27.912  25.104  1.00  0.00     0.116 C 
BRANCH   3   4
ATOM      4  N   UNL A   1      31.844  27.141  25.893  1.00  0.00    -0.356 N 
ATOM      5  C   UNL A   1      30.744  26.432  25.529  1.00  0.00     0.223 C 
ATOM      6  O   UNL A   1      30.049  25.945  26.423  1.00  0.00    -0.275 OA
ATOM      7  H   UNL A   1      32.032  27.132  26.859  1.00  0.00     0.163 HD
BRANCH   5   8
ATOM      8  C   UNL A   1      30.426  26.162  24.067  1.00  0.00     0.085 C 
ATOM      9  C   UNL A   1      28.952  26.521  23.870  1.00  0.00     0.019 C 
BRANCH   8  10
ATOM     10  C   UNL A   1      30.987  24.799  23.610  1.00  0.00     0.089 C 
BRANCH  10  11
ATOM     11  S   UNL A   1      32.352  24.830  22.384  1.00  0.00    -0.106 SA
BRANCH  11  12
ATOM     12  C   UNL A   1      33.659  24.075  23.329  1.00  0.00     0.096 A 
ATOM     13  C   UNL A   1      33.582  24.119  24.717  1.00  0.00     0.036 A 
ATOM     14  N   UNL A   1      34.749  23.628  22.678  1.00  0.00    -0.249 NA
ATOM     15  C   UNL A   1      34.708  23.776  25.477  1.00  0.00     0.018 A 
ATOM     16  C   UNL A   1      35.819  23.276  23.445  1.00  0.00     0.126 A 
ATOM     17  C   UNL A   1      35.885  23.398  24.837  1.00  0.00     0.058 A 
BRANCH  17  18
ATOM     18  C   UNL A   1      37.190  23.071  25.481  1.00  0.00     0.254 C 
ATOM     19  O   UNL A   1      37.731  23.993  26.096  1.00  0.00    -0.269 OA
ATOM     20  N   UNL A   1      37.796  21.809  25.443  1.00  0.00    -0.345 N 
ATOM     21  C   UNL A   1      37.242  20.544  24.989  1.00  0.00     0.146 C 
ATOM     22  C   UNL A   1      39.133  21.738  26.019  1.00  0.00     0.146 C 
ENDBRANCH  17  18
ENDBRANCH  11  12
ENDBRANCH  10  11
ENDBRANCH   8  10
ENDBRANCH   5   8
ENDBRANCH   3   4
ENDBRANCH   2   3
ENDBRANCH   1   2
BRANCH   1  23
ATOM     23  C   UNL A   1      32.053  30.503  26.726  1.00  0.00     0.002 C 
BRANCH  23  24
ATOM     24  C   UNL A   1      31.785  31.998  26.919  1.00  0.00     0.021 C 
BRANCH  24  25
ATOM     25  C   UNL A   1      33.050  32.831  27.086  1.00  0.00     0.116 C 
BRANCH  25  26
ATOM     26  N   UNL A   1      32.759  34.120  27.695  1.00  0.00    -0.352 N 
ATOM     27  C   UNL A   1      33.231  34.638  28.870  1.00  0.00     0.251 C 
ATOM     28  H   UNL A   1      32.139  34.697  27.194  1.00  0.00     0.163 HD
ATOM     29  O   UNL A   1      32.692  35.631  29.362  1.00  0.00    -0.269 OA
BRANCH  27  30
ATOM     30  C   UNL A   1      34.373  33.989  29.544  1.00  0.00     0.039 A 
ATOM     31  C   UNL A   1      35.667  34.419  29.250  1.00  0.00     0.014 A 
ATOM     32  C   UNL A   1      34.161  32.952  30.459  1.00  0.00     0.014 A 
ATOM     33  C   UNL A   1      36.750  33.831  29.903  1.00  0.00     0.010 A 
ATOM     34  C   UNL A   1      35.236  32.427  31.168  1.00  0.00     0.010 A 
ATOM     35  C   UNL A   1      36.544  32.845  30.884  1.00  0.00    -0.014 A 
BRANCH  35  36
ATOM     36  C   UNL A   1      37.689  32.208  31.581  1.00  0.00     0.031 A 
ATOM     37  C   UNL A   1      38.429  31.075  30.921  1.00  0.00     0.074 A 
ATOM     38  C   UNL A   1      38.044  32.629  32.811  1.00  0.00     0.049 A 
ATOM     39  N   UNL A   1      39.413  30.348  31.383  1.00  0.00    -0.248 NA
ATOM     40  C   UNL A   1      37.981  30.691  29.572  1.00  0.00     0.031 C 
ATOM     41  C   UNL A   1      37.379  33.696  33.564  1.00  0.00     0.029 A 
ATOM     42  N   UNL A   1      39.048  32.212  33.648  1.00  0.00    -0.354 N 
ATOM     43  C   UNL A   1      39.706  29.427  30.382  1.00  0.00     0.074 A 
ATOM     44  C   UNL A   1      38.737  29.632  29.327  1.00  0.00     0.031 C 
ATOM     45  C   UNL A   1      38.010  33.864  34.738  1.00  0.00     0.029 A 
ATOM     46  C   UNL A   1      39.091  32.890  34.845  1.00  0.00     0.049 A 
ATOM     47  H   UNL A   1      39.681  31.494  33.413  1.00  0.00     0.167 HD
ATOM     48  C   UNL A   1      40.711  28.518  30.331  1.00  0.00     0.034 A 
ATOM     49  C   UNL A   1      39.901  32.732  35.911  1.00  0.00     0.034 A 
ATOM     50  C   UNL A   1      41.668  28.326  31.391  1.00  0.00     0.049 A 
ATOM     51  C   UNL A   1      40.987  31.685  35.846  1.00  0.00     0.074 A 
ATOM     52  C   UNL A   1      42.728  27.436  31.447  1.00  0.00     0.029 A 
ATOM     53  N   UNL A   1      41.686  29.037  32.585  1.00  0.00    -0.354 N 
ATOM     54  N   UNL A   1      41.266  30.839  34.879  1.00  0.00    -0.248 NA
ATOM     55  C   UNL A   1      41.881  31.586  37.006  1.00  0.00     0.031 C 
ATOM     56  C   UNL A   1      43.346  27.567  32.695  1.00  0.00     0.029 A 
ATOM     57  C   UNL A   1      42.729  28.598  33.385  1.00  0.00     0.049 A 
ATOM     58  H   UNL A   1      41.051  29.748  32.827  1.00  0.00     0.167 HD
ATOM     59  C   UNL A   1      42.397  30.144  35.299  1.00  0.00     0.074 A 
ATOM     60  C   UNL A   1      42.756  30.681  36.594  1.00  0.00     0.031 C 
ATOM     61  C   UNL A   1      43.081  29.152  34.672  1.00  0.00     0.034 A 
BRANCH  48  62
ATOM     62  C   UNL A   1      40.813  27.667  29.088  1.00  0.00     0.023 A 
ATOM     63  C   UNL A   1      41.749  27.955  28.078  1.00  0.00     0.031 A 
ATOM     64  C   UNL A   1      39.962  26.565  28.898  1.00  0.00     0.131 A 
ATOM     65  C   UNL A   1      41.762  27.199  26.897  1.00  0.00     0.055 A 
ATOM     66  C   UNL A   1      40.037  25.764  27.758  1.00  0.00     0.041 A 
ATOM     67  F   UNL A   1      39.031  26.254  29.815  1.00  0.00    -0.206 F 
ATOM     68  C   UNL A   1      40.934  26.087  26.742  1.00  0.00     0.022 A 
BRANCH  65  69
ATOM     69  S   UNL A   1      42.784  27.773  25.513  1.00  0.00     0.124 S 
ATOM     70  O   UNL A   1      42.749  26.617  24.622  1.00  0.00    -0.237 OA
ATOM     71  O   UNL A   1      42.063  28.956  25.056  1.00  0.00    -0.237 OA
ATOM     72  O   UNL A   1      44.082  28.035  26.133  1.00  0.00    -0.744 OA
ENDBRANCH  65  69
ENDBRANCH  48  62
BRANCH  49  73
ATOM     73  C   UNL A   1      39.720  33.564  37.138  1.00  0.00     0.023 A 
ATOM     74  C   UNL A   1      39.158  33.024  38.306  1.00  0.00     0.031 A 
ATOM     75  C   UNL A   1      40.029  34.936  37.132  1.00  0.00     0.131 A 
ATOM     76  C   UNL A   1      38.851  33.864  39.388  1.00  0.00     0.055 A 
ATOM     77  C   UNL A   1      39.789  35.753  38.238  1.00  0.00     0.041 A 
ATOM     78  F   UNL A   1      40.570  35.507  36.043  1.00  0.00    -0.206 F 
ATOM     79  C   UNL A   1      39.175  35.222  39.368  1.00  0.00     0.022 A 
BRANCH  76  80
ATOM     80  S   UNL A   1      37.889  33.182  40.768  1.00  0.00     0.124 S 
ATOM     81  O   UNL A   1      36.557  33.092  40.185  1.00  0.00    -0.237 OA
ATOM     82  O   UNL A   1      38.571  31.915  41.013  1.00  0.00    -0.237 OA
ATOM     83  O   UNL A   1      38.045  34.185  41.819  1.00  0.00    -0.744 OA
ENDBRANCH  76  80
ENDBRANCH  49  73
BRANCH  61  84
ATOM     84  C   UNL A   1      44.333  28.644  35.349  1.00  0.00     0.023 A 
ATOM     85  C   UNL A   1      44.299  27.612  36.303  1.00  0.00     0.031 A 
ATOM     86  C   UNL A   1      45.578  29.225  35.049  1.00  0.00     0.131 A 
ATOM     87  C   UNL A   1      45.474  27.246  36.978  1.00  0.00     0.055 A 
ATOM     88  C   UNL A   1      46.755  28.807  35.670  1.00  0.00     0.041 A 
ATOM     89  F   UNL A   1      45.671  30.216  34.148  1.00  0.00    -0.206 F 
ATOM     90  C   UNL A   1      46.705  27.824  36.654  1.00  0.00     0.022 A 
BRANCH  87  91
ATOM     91  S   UNL A   1      45.353  26.092  38.372  1.00  0.00     0.124 S 
ATOM     92  O   UNL A   1      44.584  24.996  37.793  1.00  0.00    -0.237 OA
ATOM     93  O   UNL A   1      46.754  25.805  38.661  1.00  0.00    -0.237 OA
ATOM     94  O   UNL A   1      44.656  26.866  39.398  1.00  0.00    -0.744 OA
ENDBRANCH  87  91
ENDBRANCH  61  84
ENDBRANCH  35  36
ENDBRANCH  27  30
ENDBRANCH  25  26
ENDBRANCH  24  25
ENDBRANCH  23  24
ENDBRANCH   1  23
TORSDOF 20
ENDMDL
