MODEL 1
REMARK VINA RESULT:     -11.8      0.000      0.000
REMARK SMILES Cc1ccc(S(=O)(=O)n2cc(C(=O)C(=O)NCC(=O)N[C@H](Cc3c[nH]c4ccccc34)C(=O)NCCCCCCNC(=O)c3ccc(-c4c5nc(c(-c6cc(S(=O)(=O)[O-])ccc6F)c6ccc([nH]6)c(-c6cc(S(=O)(=O)[O-])ccc6F)c6nc(c(-c7cc(S(=O)(=O)[O-])ccc7F)c7ccc4[nH]7)C=C6)C=C5)cc3)c3ccccc32)cc1
REMARK SMILES IDX 35 1 34 2 32 3 33 4 21 6 20 7 18 8 19 9 17 11 16 12 14 13
REMARK SMILES IDX 15 14 12 16 13 17 11 18 9 19 10 20 112 21 107 22 111 23
REMARK SMILES IDX 108 24 110 25 109 26 6 27 7 28 8 29 5 30 1 31 2 32 3 33
REMARK SMILES IDX 114 34 4 35 113 36 22 37 23 38 24 39 31 40 25 41 26 42 30 43
REMARK SMILES IDX 27 45 29 46 28 47 36 48 37 49 38 50 39 51 40 52 41 53 42 54
REMARK SMILES IDX 43 56 44 57 45 58 106 59 46 60 105 61 47 62 48 63 49 64
REMARK SMILES IDX 99 65 50 66 104 67 98 68 100 69 51 70 103 71 97 72 96 73
REMARK SMILES IDX 52 75 84 76 64 77 83 78 65 79 68 80 82 81 101 82 66 83 67 84
REMARK SMILES IDX 81 86 102 87 69 88 53 89 54 90 62 91 55 92 61 93 63 94 60 95
REMARK SMILES IDX 56 96 57 97 58 98 59 99 85 100 86 101 94 102 87 103 93 104
REMARK SMILES IDX 95 105 92 106 88 107 89 108 90 109 91 110 70 111 71 112
REMARK SMILES IDX 79 113 72 114 78 115 80 116 77 117 73 118 74 119 75 120
REMARK SMILES IDX 76 121
REMARK H PARENT 34 5 20 10 16 15 25 44 41 55 100 74 68 85
REMARK Flexibility Score: inf
ROOT
ATOM      1  C   UNL A   1      39.015  30.891  29.822  1.00  0.00     0.116 C 
ENDROOT
BRANCH   1   2
ATOM      2  N   UNL A   1      37.997  30.093  30.474  1.00  0.00    -0.354 N 
ATOM      3  C   UNL A   1      36.816  30.402  31.059  1.00  0.00     0.242 C 
ATOM      4  O   UNL A   1      36.256  29.481  31.666  1.00  0.00    -0.273 OA
ATOM      5  H   UNL A   1      38.205  29.131  30.494  1.00  0.00     0.163 HD
BRANCH   3   6
ATOM      6  C   UNL A   1      36.144  31.783  30.992  1.00  0.00     0.175 C 
BRANCH   6   7
ATOM      7  N   UNL A   1      36.245  32.256  29.599  1.00  0.00    -0.342 N 
ATOM      8  C   UNL A   1      35.640  31.791  28.472  1.00  0.00     0.240 C 
ATOM      9  O   UNL A   1      35.966  32.324  27.405  1.00  0.00    -0.273 OA
ATOM     10  H   UNL A   1      36.840  33.029  29.464  1.00  0.00     0.164 HD
BRANCH   8  11
ATOM     11  C   UNL A   1      34.452  30.810  28.522  1.00  0.00     0.216 C 
BRANCH  11  12
ATOM     12  N   UNL A   1      33.270  31.096  27.719  1.00  0.00    -0.340 N 
ATOM     13  C   UNL A   1      32.693  30.307  26.738  1.00  0.00     0.292 C 
ATOM     14  O   UNL A   1      31.629  30.586  26.202  1.00  0.00    -0.265 OA
ATOM     15  H   UNL A   1      32.826  31.957  27.896  1.00  0.00     0.164 HD
BRANCH  13  16
ATOM     16  C   UNL A   1      33.400  29.019  26.338  1.00  0.00     0.252 C 
ATOM     17  O   UNL A   1      34.629  29.066  26.275  1.00  0.00    -0.283 OA
BRANCH  16  18
ATOM     18  C   UNL A   1      32.639  27.857  25.869  1.00  0.00     0.054 A 
ATOM     19  N   UNL A   1      31.341  26.018  25.671  1.00  0.00    -0.240 N 
ATOM     20  C   UNL A   1      31.761  27.014  26.555  1.00  0.00     0.117 A 
ATOM     21  C   UNL A   1      31.706  26.430  24.379  1.00  0.00     0.065 A 
ATOM     22  C   UNL A   1      32.752  27.333  24.547  1.00  0.00     0.012 A 
ATOM     23  C   UNL A   1      31.397  25.889  23.117  1.00  0.00     0.028 A 
ATOM     24  C   UNL A   1      33.629  27.564  23.466  1.00  0.00     0.011 A 
ATOM     25  C   UNL A   1      32.310  26.086  22.081  1.00  0.00     0.002 A 
ATOM     26  C   UNL A   1      33.435  26.880  22.263  1.00  0.00     0.001 A 
BRANCH  19  27
ATOM     27  S   UNL A   1      31.659  24.308  25.926  1.00  0.00     0.268 S 
ATOM     28  O   UNL A   1      30.552  23.647  25.255  1.00  0.00    -0.201 OA
ATOM     29  O   UNL A   1      31.820  24.210  27.371  1.00  0.00    -0.201 OA
BRANCH  27  30
ATOM     30  C   UNL A   1      33.117  23.517  25.342  1.00  0.00     0.088 A 
ATOM     31  C   UNL A   1      37.118  22.114  24.511  1.00  0.00     0.044 C 
ATOM     32  C   UNL A   1      35.710  22.556  24.795  1.00  0.00    -0.051 A 
ATOM     33  C   UNL A   1      35.516  23.443  25.845  1.00  0.00     0.005 A 
ATOM     34  C   UNL A   1      34.597  22.155  24.022  1.00  0.00     0.005 A 
ATOM     35  C   UNL A   1      34.238  23.902  26.115  1.00  0.00     0.022 A 
ATOM     36  C   UNL A   1      33.288  22.635  24.288  1.00  0.00     0.022 A 
ENDBRANCH  27  30
ENDBRANCH  19  27
ENDBRANCH  16  18
ENDBRANCH  13  16
ENDBRANCH  11  12
ENDBRANCH   8  11
ENDBRANCH   6   7
BRANCH   6  37
ATOM     37  C   UNL A   1      36.591  32.862  32.000  1.00  0.00     0.072 C 
BRANCH  37  38
ATOM     38  C   UNL A   1      35.593  33.727  32.724  1.00  0.00    -0.020 A 
ATOM     39  C   UNL A   1      35.425  33.959  34.075  1.00  0.00     0.087 A 
ATOM     40  C   UNL A   1      34.610  34.560  32.070  1.00  0.00     0.003 A 
ATOM     41  N   UNL A   1      34.593  35.036  34.243  1.00  0.00    -0.361 N 
ATOM     42  C   UNL A   1      34.058  35.401  33.036  1.00  0.00     0.046 A 
ATOM     43  C   UNL A   1      34.168  34.707  30.736  1.00  0.00     0.010 A 
ATOM     44  H   UNL A   1      34.407  35.480  35.102  1.00  0.00     0.166 HD
ATOM     45  C   UNL A   1      33.141  36.414  32.739  1.00  0.00     0.026 A 
ATOM     46  C   UNL A   1      33.206  35.681  30.429  1.00  0.00     0.001 A 
ATOM     47  C   UNL A   1      32.718  36.534  31.415  1.00  0.00     0.002 A 
ENDBRANCH  37  38
ENDBRANCH   6  37
ENDBRANCH   3   6
ENDBRANCH   1   2
BRANCH   1  48
ATOM     48  C   UNL A   1      40.141  30.041  29.233  1.00  0.00     0.021 C 
BRANCH  48  49
ATOM     49  C   UNL A   1      39.736  29.130  28.064  1.00  0.00     0.002 C 
BRANCH  49  50
ATOM     50  C   UNL A   1      39.158  27.758  28.435  1.00  0.00     0.002 C 
BRANCH  50  51
ATOM     51  C   UNL A   1      39.662  26.577  27.606  1.00  0.00     0.021 C 
BRANCH  51  52
ATOM     52  C   UNL A   1      40.659  25.680  28.334  1.00  0.00     0.116 C 
BRANCH  52  53
ATOM     53  N   UNL A   1      40.310  24.279  28.339  1.00  0.00    -0.352 N 
ATOM     54  C   UNL A   1      41.082  23.184  27.963  1.00  0.00     0.251 C 
ATOM     55  H   UNL A   1      39.399  24.069  28.651  1.00  0.00     0.163 HD
ATOM     56  O   UNL A   1      40.562  22.094  27.765  1.00  0.00    -0.269 OA
BRANCH  54  57
ATOM     57  C   UNL A   1      42.564  23.296  27.986  1.00  0.00     0.039 A 
ATOM     58  C   UNL A   1      43.191  22.986  29.202  1.00  0.00     0.014 A 
ATOM     59  C   UNL A   1      43.302  23.886  26.963  1.00  0.00     0.014 A 
ATOM     60  C   UNL A   1      44.472  23.470  29.469  1.00  0.00     0.010 A 
ATOM     61  C   UNL A   1      44.541  24.433  27.248  1.00  0.00     0.010 A 
ATOM     62  C   UNL A   1      45.095  24.279  28.518  1.00  0.00    -0.014 A 
BRANCH  62  63
ATOM     63  C   UNL A   1      46.246  25.119  28.824  1.00  0.00     0.031 A 
ATOM     64  C   UNL A   1      47.459  25.093  27.987  1.00  0.00     0.074 A 
ATOM     65  C   UNL A   1      46.207  25.940  29.896  1.00  0.00     0.049 A 
ATOM     66  N   UNL A   1      48.646  25.320  28.440  1.00  0.00    -0.248 NA
ATOM     67  C   UNL A   1      47.432  24.776  26.564  1.00  0.00     0.031 C 
ATOM     68  C   UNL A   1      47.159  26.989  30.248  1.00  0.00     0.029 A 
ATOM     69  N   UNL A   1      45.406  25.824  31.018  1.00  0.00    -0.354 N 
ATOM     70  C   UNL A   1      49.478  25.462  27.358  1.00  0.00     0.074 A 
ATOM     71  C   UNL A   1      48.697  25.042  26.216  1.00  0.00     0.031 C 
ATOM     72  C   UNL A   1      47.056  27.245  31.562  1.00  0.00     0.029 A 
ATOM     73  C   UNL A   1      46.128  26.280  32.125  1.00  0.00     0.049 A 
ATOM     74  H   UNL A   1      44.485  25.477  31.034  1.00  0.00     0.167 HD
ATOM     75  C   UNL A   1      50.693  26.059  27.505  1.00  0.00     0.034 A 
ATOM     76  C   UNL A   1      46.383  25.463  33.189  1.00  0.00     0.034 A 
ATOM     77  C   UNL A   1      50.936  26.488  28.876  1.00  0.00     0.049 A 
ATOM     78  C   UNL A   1      47.860  25.242  33.430  1.00  0.00     0.074 A 
ATOM     79  C   UNL A   1      50.798  27.712  29.511  1.00  0.00     0.029 A 
ATOM     80  N   UNL A   1      51.108  25.541  29.877  1.00  0.00    -0.354 N 
ATOM     81  N   UNL A   1      48.790  25.513  32.556  1.00  0.00    -0.248 NA
ATOM     82  C   UNL A   1      48.408  24.691  34.666  1.00  0.00     0.031 C 
ATOM     83  C   UNL A   1      50.825  27.485  30.911  1.00  0.00     0.029 A 
ATOM     84  C   UNL A   1      51.015  26.130  31.123  1.00  0.00     0.049 A 
ATOM     85  H   UNL A   1      51.273  24.583  29.720  1.00  0.00     0.167 HD
ATOM     86  C   UNL A   1      50.019  25.181  33.067  1.00  0.00     0.074 A 
ATOM     87  C   UNL A   1      49.726  24.692  34.402  1.00  0.00     0.031 C 
ATOM     88  C   UNL A   1      51.166  25.338  32.336  1.00  0.00     0.034 A 
BRANCH  75  89
ATOM     89  C   UNL A   1      51.505  26.525  26.328  1.00  0.00     0.023 A 
ATOM     90  C   UNL A   1      51.535  27.895  25.996  1.00  0.00     0.031 A 
ATOM     91  C   UNL A   1      52.239  25.668  25.487  1.00  0.00     0.131 A 
ATOM     92  C   UNL A   1      52.182  28.350  24.835  1.00  0.00     0.055 A 
ATOM     93  C   UNL A   1      52.844  26.113  24.304  1.00  0.00     0.041 A 
ATOM     94  F   UNL A   1      52.404  24.372  25.792  1.00  0.00    -0.206 F 
ATOM     95  C   UNL A   1      52.806  27.460  23.965  1.00  0.00     0.022 A 
BRANCH  92  96
ATOM     96  S   UNL A   1      52.192  30.129  24.478  1.00  0.00     0.124 S 
ATOM     97  O   UNL A   1      51.796  30.166  23.074  1.00  0.00    -0.237 OA
ATOM     98  O   UNL A   1      51.218  30.642  25.436  1.00  0.00    -0.237 OA
ATOM     99  O   UNL A   1      53.577  30.519  24.738  1.00  0.00    -0.744 OA
ENDBRANCH  92  96
ENDBRANCH  75  89
BRANCH  76 100
ATOM    100  C   UNL A   1      45.293  24.472  33.435  1.00  0.00     0.023 A 
ATOM    101  C   UNL A   1      45.696  23.140  33.681  1.00  0.00     0.031 A 
ATOM    102  C   UNL A   1      44.009  24.853  33.843  1.00  0.00     0.131 A 
ATOM    103  C   UNL A   1      44.920  22.304  34.496  1.00  0.00     0.055 A 
ATOM    104  C   UNL A   1      43.193  23.978  34.575  1.00  0.00     0.041 A 
ATOM    105  F   UNL A   1      43.575  26.109  33.661  1.00  0.00    -0.206 F 
ATOM    106  C   UNL A   1      43.667  22.717  34.949  1.00  0.00     0.022 A 
BRANCH 103 107
ATOM    107  S   UNL A   1      45.709  20.825  35.212  1.00  0.00     0.124 S 
ATOM    108  O   UNL A   1      44.750  19.778  34.880  1.00  0.00    -0.237 OA
ATOM    109  O   UNL A   1      46.988  20.765  34.503  1.00  0.00    -0.237 OA
ATOM    110  O   UNL A   1      45.830  21.149  36.631  1.00  0.00    -0.744 OA
ENDBRANCH 103 107
ENDBRANCH  76 100
BRANCH  88 111
ATOM    111  C   UNL A   1      52.549  24.848  32.718  1.00  0.00     0.023 A 
ATOM    112  C   UNL A   1      53.604  25.702  33.069  1.00  0.00     0.031 A 
ATOM    113  C   UNL A   1      52.830  23.462  32.815  1.00  0.00     0.131 A 
ATOM    114  C   UNL A   1      54.873  25.193  33.406  1.00  0.00     0.055 A 
ATOM    115  C   UNL A   1      54.067  22.957  33.228  1.00  0.00     0.041 A 
ATOM    116  F   UNL A   1      51.911  22.530  32.519  1.00  0.00    -0.206 F 
ATOM    117  C   UNL A   1      55.106  23.826  33.512  1.00  0.00     0.022 A 
BRANCH 114 118
ATOM    118  S   UNL A   1      56.232  26.368  33.640  1.00  0.00     0.124 S 
ATOM    119  O   UNL A   1      56.063  26.746  35.041  1.00  0.00    -0.237 OA
ATOM    120  O   UNL A   1      57.405  25.555  33.342  1.00  0.00    -0.237 OA
ATOM    121  O   UNL A   1      55.945  27.426  32.674  1.00  0.00    -0.744 OA
ENDBRANCH 114 118
ENDBRANCH  88 111
ENDBRANCH  62  63
ENDBRANCH  54  57
ENDBRANCH  52  53
ENDBRANCH  51  52
ENDBRANCH  50  51
ENDBRANCH  49  50
ENDBRANCH  48  49
ENDBRANCH   1  48
TORSDOF 25
ENDMDL
MODEL 2
REMARK VINA RESULT:     -11.6      2.900      6.629
REMARK SMILES Cc1ccc(S(=O)(=O)n2cc(C(=O)C(=O)NCC(=O)N[C@H](Cc3c[nH]c4ccccc34)C(=O)NCCCCCCNC(=O)c3ccc(-c4c5nc(c(-c6cc(S(=O)(=O)[O-])ccc6F)c6ccc([nH]6)c(-c6cc(S(=O)(=O)[O-])ccc6F)c6nc(c(-c7cc(S(=O)(=O)[O-])ccc7F)c7ccc4[nH]7)C=C6)C=C5)cc3)c3ccccc32)cc1
REMARK SMILES IDX 35 1 34 2 32 3 33 4 21 6 20 7 18 8 19 9 17 11 16 12 14 13
REMARK SMILES IDX 15 14 12 16 13 17 11 18 9 19 10 20 112 21 107 22 111 23
REMARK SMILES IDX 108 24 110 25 109 26 6 27 7 28 8 29 5 30 1 31 2 32 3 33
REMARK SMILES IDX 114 34 4 35 113 36 22 37 23 38 24 39 31 40 25 41 26 42 30 43
REMARK SMILES IDX 27 45 29 46 28 47 36 48 37 49 38 50 39 51 40 52 41 53 42 54
REMARK SMILES IDX 43 56 44 57 45 58 106 59 46 60 105 61 47 62 48 63 49 64
REMARK SMILES IDX 99 65 50 66 104 67 98 68 100 69 51 70 103 71 97 72 96 73
REMARK SMILES IDX 52 75 84 76 64 77 83 78 65 79 68 80 82 81 101 82 66 83 67 84
REMARK SMILES IDX 81 86 102 87 69 88 53 89 54 90 62 91 55 92 61 93 63 94 60 95
REMARK SMILES IDX 56 96 57 97 58 98 59 99 85 100 86 101 94 102 87 103 93 104
REMARK SMILES IDX 95 105 92 106 88 107 89 108 90 109 91 110 70 111 71 112
REMARK SMILES IDX 79 113 72 114 78 115 80 116 77 117 73 118 74 119 75 120
REMARK SMILES IDX 76 121
REMARK H PARENT 34 5 20 10 16 15 25 44 41 55 100 74 68 85
REMARK Flexibility Score: inf
ROOT
ATOM      1  C   UNL A   1      37.515  33.782  29.514  1.00  0.00     0.116 C 
ENDROOT
BRANCH   1   2
ATOM      2  N   UNL A   1      37.789  32.538  28.826  1.00  0.00    -0.354 N 
ATOM      3  C   UNL A   1      37.238  31.304  28.895  1.00  0.00     0.242 C 
ATOM      4  O   UNL A   1      37.826  30.413  28.269  1.00  0.00    -0.273 OA
ATOM      5  H   UNL A   1      38.524  32.604  28.173  1.00  0.00     0.163 HD
BRANCH   3   6
ATOM      6  C   UNL A   1      35.953  30.964  29.667  1.00  0.00     0.175 C 
BRANCH   6   7
ATOM      7  N   UNL A   1      34.905  31.897  29.212  1.00  0.00    -0.342 N 
ATOM      8  C   UNL A   1      34.076  31.823  28.135  1.00  0.00     0.240 C 
ATOM      9  O   UNL A   1      33.336  32.792  27.933  1.00  0.00    -0.273 OA
ATOM     10  H   UNL A   1      34.786  32.696  29.775  1.00  0.00     0.164 HD
BRANCH   8  11
ATOM     11  C   UNL A   1      33.893  30.523  27.327  1.00  0.00     0.216 C 
BRANCH  11  12
ATOM     12  N   UNL A   1      32.747  29.671  27.615  1.00  0.00    -0.340 N 
ATOM     13  C   UNL A   1      32.576  28.333  27.298  1.00  0.00     0.292 C 
ATOM     14  O   UNL A   1      31.622  27.675  27.690  1.00  0.00    -0.265 OA
ATOM     15  H   UNL A   1      32.000  30.099  28.093  1.00  0.00     0.164 HD
BRANCH  13  16
ATOM     16  C   UNL A   1      33.644  27.648  26.456  1.00  0.00     0.252 C 
ATOM     17  O   UNL A   1      34.789  28.090  26.558  1.00  0.00    -0.283 OA
BRANCH  16  18
ATOM     18  C   UNL A   1      33.280  26.651  25.445  1.00  0.00     0.054 A 
ATOM     19  N   UNL A   1      32.243  25.372  23.898  1.00  0.00    -0.240 N 
ATOM     20  C   UNL A   1      32.123  26.529  24.670  1.00  0.00     0.117 A 
ATOM     21  C   UNL A   1      33.586  24.968  23.961  1.00  0.00     0.065 A 
ATOM     22  C   UNL A   1      34.098  25.526  25.129  1.00  0.00     0.012 A 
ATOM     23  C   UNL A   1      34.282  23.968  23.257  1.00  0.00     0.028 A 
ATOM     24  C   UNL A   1      35.244  24.946  25.712  1.00  0.00     0.011 A 
ATOM     25  C   UNL A   1      35.378  23.373  23.881  1.00  0.00     0.002 A 
ATOM     26  C   UNL A   1      35.831  23.828  25.113  1.00  0.00     0.001 A 
BRANCH  19  27
ATOM     27  S   UNL A   1      31.142  24.008  24.031  1.00  0.00     0.268 S 
ATOM     28  O   UNL A   1      30.175  24.239  22.971  1.00  0.00    -0.201 OA
ATOM     29  O   UNL A   1      30.736  24.041  25.430  1.00  0.00    -0.201 OA
BRANCH  27  30
ATOM     30  C   UNL A   1      31.672  22.341  23.844  1.00  0.00     0.088 A 
ATOM     31  C   UNL A   1      33.155  18.307  24.276  1.00  0.00     0.044 C 
ATOM     32  C   UNL A   1      32.605  19.692  24.094  1.00  0.00    -0.051 A 
ATOM     33  C   UNL A   1      32.455  20.477  25.230  1.00  0.00     0.005 A 
ATOM     34  C   UNL A   1      32.286  20.246  22.835  1.00  0.00     0.005 A 
ATOM     35  C   UNL A   1      31.985  21.772  25.101  1.00  0.00     0.022 A 
ATOM     36  C   UNL A   1      31.817  21.578  22.697  1.00  0.00     0.022 A 
ENDBRANCH  27  30
ENDBRANCH  19  27
ENDBRANCH  16  18
ENDBRANCH  13  16
ENDBRANCH  11  12
ENDBRANCH   8  11
ENDBRANCH   6   7
BRANCH   6  37
ATOM     37  C   UNL A   1      36.023  30.886  31.206  1.00  0.00     0.072 C 
BRANCH  37  38
ATOM     38  C   UNL A   1      35.628  32.050  32.075  1.00  0.00    -0.020 A 
ATOM     39  C   UNL A   1      34.552  32.912  31.981  1.00  0.00     0.087 A 
ATOM     40  C   UNL A   1      36.334  32.453  33.269  1.00  0.00     0.003 A 
ATOM     41  N   UNL A   1      34.443  33.619  33.151  1.00  0.00    -0.361 N 
ATOM     42  C   UNL A   1      35.537  33.380  33.940  1.00  0.00     0.046 A 
ATOM     43  C   UNL A   1      37.561  32.083  33.865  1.00  0.00     0.010 A 
ATOM     44  H   UNL A   1      33.693  34.210  33.388  1.00  0.00     0.166 HD
ATOM     45  C   UNL A   1      35.863  33.908  35.194  1.00  0.00     0.026 A 
ATOM     46  C   UNL A   1      37.930  32.646  35.096  1.00  0.00     0.001 A 
ATOM     47  C   UNL A   1      37.081  33.530  35.757  1.00  0.00     0.002 A 
ENDBRANCH  37  38
ENDBRANCH   6  37
ENDBRANCH   3   6
ENDBRANCH   1   2
BRANCH   1  48
ATOM     48  C   UNL A   1      38.788  34.503  29.956  1.00  0.00     0.021 C 
BRANCH  48  49
ATOM     49  C   UNL A   1      39.327  34.102  31.338  1.00  0.00     0.002 C 
BRANCH  49  50
ATOM     50  C   UNL A   1      40.591  33.233  31.353  1.00  0.00     0.002 C 
BRANCH  50  51
ATOM     51  C   UNL A   1      40.367  31.734  31.556  1.00  0.00     0.021 C 
BRANCH  51  52
ATOM     52  C   UNL A   1      41.077  31.154  32.775  1.00  0.00     0.116 C 
BRANCH  52  53
ATOM     53  N   UNL A   1      40.482  29.946  33.295  1.00  0.00    -0.352 N 
ATOM     54  C   UNL A   1      40.952  28.638  33.224  1.00  0.00     0.251 C 
ATOM     55  H   UNL A   1      39.624  30.063  33.765  1.00  0.00     0.163 HD
ATOM     56  O   UNL A   1      40.211  27.696  33.469  1.00  0.00    -0.269 OA
BRANCH  54  57
ATOM     57  C   UNL A   1      42.406  28.397  33.031  1.00  0.00     0.039 A 
ATOM     58  C   UNL A   1      43.033  29.153  32.029  1.00  0.00     0.014 A 
ATOM     59  C   UNL A   1      43.092  27.340  33.625  1.00  0.00     0.014 A 
ATOM     60  C   UNL A   1      44.234  28.712  31.471  1.00  0.00     0.010 A 
ATOM     61  C   UNL A   1      44.242  26.855  33.027  1.00  0.00     0.010 A 
ATOM     62  C   UNL A   1      44.775  27.504  31.913  1.00  0.00    -0.014 A 
BRANCH  62  63
ATOM     63  C   UNL A   1      45.799  26.778  31.175  1.00  0.00     0.031 A 
ATOM     64  C   UNL A   1      47.208  26.784  31.609  1.00  0.00     0.074 A 
ATOM     65  C   UNL A   1      45.458  26.082  30.068  1.00  0.00     0.049 A 
ATOM     66  N   UNL A   1      48.207  26.685  30.798  1.00  0.00    -0.248 NA
ATOM     67  C   UNL A   1      47.606  26.937  33.003  1.00  0.00     0.031 C 
ATOM     68  C   UNL A   1      46.285  25.141  29.318  1.00  0.00     0.029 A 
ATOM     69  N   UNL A   1      44.352  26.274  29.260  1.00  0.00    -0.354 N 
ATOM     70  C   UNL A   1      49.332  26.473  31.554  1.00  0.00     0.074 A 
ATOM     71  C   UNL A   1      48.923  26.713  32.922  1.00  0.00     0.031 C 
ATOM     72  C   UNL A   1      45.794  25.029  28.073  1.00  0.00     0.029 A 
ATOM     73  C   UNL A   1      44.715  25.992  27.940  1.00  0.00     0.049 A 
ATOM     74  H   UNL A   1      43.460  26.562  29.563  1.00  0.00     0.167 HD
ATOM     75  C   UNL A   1      50.460  25.973  30.978  1.00  0.00     0.034 A 
ATOM     76  C   UNL A   1      44.614  26.938  26.960  1.00  0.00     0.034 A 
ATOM     77  C   UNL A   1      50.286  25.719  29.554  1.00  0.00     0.049 A 
ATOM     78  C   UNL A   1      45.942  27.277  26.320  1.00  0.00     0.074 A 
ATOM     79  C   UNL A   1      49.992  24.568  28.840  1.00  0.00     0.029 A 
ATOM     80  N   UNL A   1      50.122  26.782  28.676  1.00  0.00    -0.354 N 
ATOM     81  N   UNL A   1      47.100  26.967  26.835  1.00  0.00    -0.248 NA
ATOM     82  C   UNL A   1      46.075  27.997  25.057  1.00  0.00     0.031 C 
ATOM     83  C   UNL A   1      49.588  24.953  27.536  1.00  0.00     0.029 A 
ATOM     84  C   UNL A   1      49.670  26.332  27.450  1.00  0.00     0.049 A 
ATOM     85  H   UNL A   1      50.302  27.724  28.896  1.00  0.00     0.167 HD
ATOM     86  C   UNL A   1      48.108  27.431  26.028  1.00  0.00     0.074 A 
ATOM     87  C   UNL A   1      47.411  28.048  24.913  1.00  0.00     0.031 C 
ATOM     88  C   UNL A   1      49.426  27.264  26.358  1.00  0.00     0.034 A 
BRANCH  75  89
ATOM     89  C   UNL A   1      51.602  25.429  31.791  1.00  0.00     0.023 A 
ATOM     90  C   UNL A   1      51.631  24.061  32.130  1.00  0.00     0.031 A 
ATOM     91  C   UNL A   1      52.665  26.211  32.280  1.00  0.00     0.131 A 
ATOM     92  C   UNL A   1      52.615  23.544  32.987  1.00  0.00     0.055 A 
ATOM     93  C   UNL A   1      53.620  25.706  33.173  1.00  0.00     0.041 A 
ATOM     94  F   UNL A   1      52.820  27.487  31.897  1.00  0.00    -0.206 F 
ATOM     95  C   UNL A   1      53.591  24.368  33.542  1.00  0.00     0.022 A 
BRANCH  92  96
ATOM     96  S   UNL A   1      52.599  21.769  33.369  1.00  0.00     0.124 S 
ATOM     97  O   UNL A   1      53.994  21.514  33.717  1.00  0.00    -0.237 OA
ATOM     98  O   UNL A   1      51.639  21.698  34.465  1.00  0.00    -0.237 OA
ATOM     99  O   UNL A   1      52.154  21.157  32.118  1.00  0.00    -0.744 OA
ENDBRANCH  92  96
ENDBRANCH  75  89
BRANCH  76 100
ATOM    100  C   UNL A   1      43.476  27.881  27.178  1.00  0.00     0.023 A 
ATOM    101  C   UNL A   1      42.193  27.301  27.298  1.00  0.00     0.031 A 
ATOM    102  C   UNL A   1      43.658  29.176  27.677  1.00  0.00     0.131 A 
ATOM    103  C   UNL A   1      41.206  27.919  28.080  1.00  0.00     0.055 A 
ATOM    104  C   UNL A   1      42.634  29.833  28.375  1.00  0.00     0.041 A 
ATOM    105  F   UNL A   1      44.858  29.772  27.616  1.00  0.00    -0.206 F 
ATOM    106  C   UNL A   1      41.421  29.185  28.624  1.00  0.00     0.022 A 
BRANCH 103 107
ATOM    107  S   UNL A   1      39.793  26.912  28.637  1.00  0.00     0.124 S 
ATOM    108  O   UNL A   1      40.410  25.606  28.835  1.00  0.00    -0.237 OA
ATOM    109  O   UNL A   1      39.361  27.603  29.852  1.00  0.00    -0.237 OA
ATOM    110  O   UNL A   1      38.843  27.004  27.530  1.00  0.00    -0.744 OA
ENDBRANCH 103 107
ENDBRANCH  76 100
BRANCH  88 111
ATOM    111  C   UNL A   1      50.615  27.879  25.646  1.00  0.00     0.023 A 
ATOM    112  C   UNL A   1      51.446  27.168  24.770  1.00  0.00     0.031 A 
ATOM    113  C   UNL A   1      50.907  29.260  25.776  1.00  0.00     0.131 A 
ATOM    114  C   UNL A   1      52.544  27.787  24.142  1.00  0.00     0.055 A 
ATOM    115  C   UNL A   1      51.949  29.892  25.090  1.00  0.00     0.041 A 
ATOM    116  F   UNL A   1      50.188  30.065  26.573  1.00  0.00    -0.206 F 
ATOM    117  C   UNL A   1      52.789  29.150  24.276  1.00  0.00     0.022 A 
BRANCH 114 118
ATOM    118  S   UNL A   1      53.687  26.747  23.196  1.00  0.00     0.124 S 
ATOM    119  O   UNL A   1      53.480  25.438  23.810  1.00  0.00    -0.237 OA
ATOM    120  O   UNL A   1      53.188  26.893  21.833  1.00  0.00    -0.237 OA
ATOM    121  O   UNL A   1      54.994  27.351  23.448  1.00  0.00    -0.744 OA
ENDBRANCH 114 118
ENDBRANCH  88 111
ENDBRANCH  62  63
ENDBRANCH  54  57
ENDBRANCH  52  53
ENDBRANCH  51  52
ENDBRANCH  50  51
ENDBRANCH  49  50
ENDBRANCH  48  49
ENDBRANCH   1  48
TORSDOF 25
ENDMDL
MODEL 3
REMARK VINA RESULT:     -11.5      5.977     10.699
REMARK SMILES Cc1ccc(S(=O)(=O)n2cc(C(=O)C(=O)NCC(=O)N[C@H](Cc3c[nH]c4ccccc34)C(=O)NCCCCCCNC(=O)c3ccc(-c4c5nc(c(-c6cc(S(=O)(=O)[O-])ccc6F)c6ccc([nH]6)c(-c6cc(S(=O)(=O)[O-])ccc6F)c6nc(c(-c7cc(S(=O)(=O)[O-])ccc7F)c7ccc4[nH]7)C=C6)C=C5)cc3)c3ccccc32)cc1
REMARK SMILES IDX 35 1 34 2 32 3 33 4 21 6 20 7 18 8 19 9 17 11 16 12 14 13
REMARK SMILES IDX 15 14 12 16 13 17 11 18 9 19 10 20 112 21 107 22 111 23
REMARK SMILES IDX 108 24 110 25 109 26 6 27 7 28 8 29 5 30 1 31 2 32 3 33
REMARK SMILES IDX 114 34 4 35 113 36 22 37 23 38 24 39 31 40 25 41 26 42 30 43
REMARK SMILES IDX 27 45 29 46 28 47 36 48 37 49 38 50 39 51 40 52 41 53 42 54
REMARK SMILES IDX 43 56 44 57 45 58 106 59 46 60 105 61 47 62 48 63 49 64
REMARK SMILES IDX 99 65 50 66 104 67 98 68 100 69 51 70 103 71 97 72 96 73
REMARK SMILES IDX 52 75 84 76 64 77 83 78 65 79 68 80 82 81 101 82 66 83 67 84
REMARK SMILES IDX 81 86 102 87 69 88 53 89 54 90 62 91 55 92 61 93 63 94 60 95
REMARK SMILES IDX 56 96 57 97 58 98 59 99 85 100 86 101 94 102 87 103 93 104
REMARK SMILES IDX 95 105 92 106 88 107 89 108 90 109 91 110 70 111 71 112
REMARK SMILES IDX 79 113 72 114 78 115 80 116 77 117 73 118 74 119 75 120
REMARK SMILES IDX 76 121
REMARK H PARENT 34 5 20 10 16 15 25 44 41 55 100 74 68 85
REMARK Flexibility Score: inf
ROOT
ATOM      1  C   UNL A   1      42.728  24.945  29.365  1.00  0.00     0.116 C 
ENDROOT
BRANCH   1   2
ATOM      2  N   UNL A   1      43.691  24.168  28.613  1.00  0.00    -0.354 N 
ATOM      3  C   UNL A   1      43.587  23.375  27.520  1.00  0.00     0.242 C 
ATOM      4  O   UNL A   1      44.598  22.726  27.225  1.00  0.00    -0.273 OA
ATOM      5  H   UNL A   1      44.608  24.230  28.966  1.00  0.00     0.163 HD
BRANCH   3   6
ATOM      6  C   UNL A   1      42.330  23.259  26.644  1.00  0.00     0.175 C 
BRANCH   6   7
ATOM      7  N   UNL A   1      42.149  21.832  26.318  1.00  0.00    -0.342 N 
ATOM      8  C   UNL A   1      41.012  21.085  26.265  1.00  0.00     0.240 C 
ATOM      9  O   UNL A   1      41.150  19.876  26.044  1.00  0.00    -0.273 OA
ATOM     10  H   UNL A   1      42.978  21.345  26.104  1.00  0.00     0.164 HD
BRANCH   8  11
ATOM     11  C   UNL A   1      39.609  21.723  26.256  1.00  0.00     0.216 C 
BRANCH  11  12
ATOM     12  N   UNL A   1      38.501  20.979  25.671  1.00  0.00    -0.340 N 
ATOM     13  C   UNL A   1      37.268  21.462  25.266  1.00  0.00     0.292 C 
ATOM     14  O   UNL A   1      36.446  20.773  24.676  1.00  0.00    -0.265 OA
ATOM     15  H   UNL A   1      38.647  20.013  25.550  1.00  0.00     0.164 HD
BRANCH  13  16
ATOM     16  C   UNL A   1      36.939  22.924  25.537  1.00  0.00     0.252 C 
ATOM     17  O   UNL A   1      37.789  23.571  26.149  1.00  0.00    -0.283 OA
BRANCH  16  18
ATOM     18  C   UNL A   1      35.606  23.461  25.252  1.00  0.00     0.054 A 
ATOM     19  N   UNL A   1      33.817  24.578  24.441  1.00  0.00    -0.240 N 
ATOM     20  C   UNL A   1      35.174  24.322  24.239  1.00  0.00     0.117 A 
ATOM     21  C   UNL A   1      33.351  23.637  25.373  1.00  0.00     0.065 A 
ATOM     22  C   UNL A   1      34.472  23.215  26.082  1.00  0.00     0.012 A 
ATOM     23  C   UNL A   1      32.048  23.344  25.815  1.00  0.00     0.028 A 
ATOM     24  C   UNL A   1      34.291  22.646  27.360  1.00  0.00     0.011 A 
ATOM     25  C   UNL A   1      31.895  22.835  27.105  1.00  0.00     0.002 A 
ATOM     26  C   UNL A   1      33.002  22.527  27.885  1.00  0.00     0.001 A 
BRANCH  19  27
ATOM     27  S   UNL A   1      33.177  26.184  24.758  1.00  0.00     0.268 S 
ATOM     28  O   UNL A   1      34.098  27.067  24.062  1.00  0.00    -0.201 OA
ATOM     29  O   UNL A   1      33.066  26.219  26.210  1.00  0.00    -0.201 OA
BRANCH  27  30
ATOM     30  C   UNL A   1      31.565  26.678  24.256  1.00  0.00     0.088 A 
ATOM     31  C   UNL A   1      27.960  28.733  23.054  1.00  0.00     0.044 C 
ATOM     32  C   UNL A   1      29.202  27.983  23.440  1.00  0.00    -0.051 A 
ATOM     33  C   UNL A   1      30.376  28.713  23.578  1.00  0.00     0.005 A 
ATOM     34  C   UNL A   1      29.223  26.597  23.715  1.00  0.00     0.005 A 
ATOM     35  C   UNL A   1      31.535  28.064  23.968  1.00  0.00     0.022 A 
ATOM     36  C   UNL A   1      30.405  25.931  24.129  1.00  0.00     0.022 A 
ENDBRANCH  27  30
ENDBRANCH  19  27
ENDBRANCH  16  18
ENDBRANCH  13  16
ENDBRANCH  11  12
ENDBRANCH   8  11
ENDBRANCH   6   7
BRANCH   6  37
ATOM     37  C   UNL A   1      42.228  24.152  25.390  1.00  0.00     0.072 C 
BRANCH  37  38
ATOM     38  C   UNL A   1      42.504  25.631  25.449  1.00  0.00    -0.020 A 
ATOM     39  C   UNL A   1      43.522  26.374  24.886  1.00  0.00     0.087 A 
ATOM     40  C   UNL A   1      41.654  26.593  26.112  1.00  0.00     0.003 A 
ATOM     41  N   UNL A   1      43.198  27.706  24.961  1.00  0.00    -0.361 N 
ATOM     42  C   UNL A   1      42.078  27.866  25.733  1.00  0.00     0.046 A 
ATOM     43  C   UNL A   1      40.533  26.499  26.967  1.00  0.00     0.010 A 
ATOM     44  H   UNL A   1      43.696  28.435  24.527  1.00  0.00     0.166 HD
ATOM     45  C   UNL A   1      41.416  29.040  26.106  1.00  0.00     0.026 A 
ATOM     46  C   UNL A   1      39.890  27.669  27.397  1.00  0.00     0.001 A 
ATOM     47  C   UNL A   1      40.315  28.918  26.954  1.00  0.00     0.002 A 
ENDBRANCH  37  38
ENDBRANCH   6  37
ENDBRANCH   3   6
ENDBRANCH   1   2
BRANCH   1  48
ATOM     48  C   UNL A   1      43.148  26.406  29.526  1.00  0.00     0.021 C 
BRANCH  48  49
ATOM     49  C   UNL A   1      44.340  26.649  30.465  1.00  0.00     0.002 C 
BRANCH  49  50
ATOM     50  C   UNL A   1      44.185  27.784  31.485  1.00  0.00     0.002 C 
BRANCH  50  51
ATOM     51  C   UNL A   1      43.718  27.367  32.880  1.00  0.00     0.021 C 
BRANCH  51  52
ATOM     52  C   UNL A   1      44.331  28.183  34.015  1.00  0.00     0.116 C 
BRANCH  52  53
ATOM     53  N   UNL A   1      45.502  27.587  34.614  1.00  0.00    -0.352 N 
ATOM     54  C   UNL A   1      46.812  27.569  34.143  1.00  0.00     0.251 C 
ATOM     55  H   UNL A   1      45.354  27.131  35.474  1.00  0.00     0.163 HD
ATOM     56  O   UNL A   1      47.634  26.799  34.621  1.00  0.00    -0.269 OA
BRANCH  54  57
ATOM     57  C   UNL A   1      47.257  28.617  33.188  1.00  0.00     0.039 A 
ATOM     58  C   UNL A   1      46.930  29.940  33.523  1.00  0.00     0.014 A 
ATOM     59  C   UNL A   1      47.764  28.334  31.922  1.00  0.00     0.014 A 
ATOM     60  C   UNL A   1      46.893  30.921  32.531  1.00  0.00     0.010 A 
ATOM     61  C   UNL A   1      47.657  29.282  30.920  1.00  0.00     0.010 A 
ATOM     62  C   UNL A   1      47.162  30.553  31.213  1.00  0.00    -0.014 A 
BRANCH  62  63
ATOM     63  C   UNL A   1      46.809  31.384  30.070  1.00  0.00     0.031 A 
ATOM     64  C   UNL A   1      47.659  32.513  29.651  1.00  0.00     0.074 A 
ATOM     65  C   UNL A   1      45.681  31.121  29.375  1.00  0.00     0.049 A 
ATOM     66  N   UNL A   1      47.203  33.580  29.085  1.00  0.00    -0.248 NA
ATOM     67  C   UNL A   1      49.101  32.542  29.867  1.00  0.00     0.031 C 
ATOM     68  C   UNL A   1      45.263  31.700  28.102  1.00  0.00     0.029 A 
ATOM     69  N   UNL A   1      44.561  30.437  29.816  1.00  0.00    -0.354 N 
ATOM     70  C   UNL A   1      48.281  34.288  28.613  1.00  0.00     0.074 A 
ATOM     71  C   UNL A   1      49.442  33.644  29.187  1.00  0.00     0.031 C 
ATOM     72  C   UNL A   1      43.933  31.564  27.979  1.00  0.00     0.029 A 
ATOM     73  C   UNL A   1      43.432  31.012  29.225  1.00  0.00     0.049 A 
ATOM     74  H   UNL A   1      44.560  29.675  30.440  1.00  0.00     0.167 HD
ATOM     75  C   UNL A   1      48.104  35.252  27.668  1.00  0.00     0.034 A 
ATOM     76  C   UNL A   1      42.432  31.549  29.984  1.00  0.00     0.034 A 
ATOM     77  C   UNL A   1      46.709  35.391  27.275  1.00  0.00     0.049 A 
ATOM     78  C   UNL A   1      42.223  33.027  29.735  1.00  0.00     0.074 A 
ATOM     79  C   UNL A   1      45.985  34.890  26.203  1.00  0.00     0.029 A 
ATOM     80  N   UNL A   1      45.780  35.889  28.179  1.00  0.00    -0.354 N 
ATOM     81  N   UNL A   1      43.086  33.793  29.123  1.00  0.00    -0.248 NA
ATOM     82  C   UNL A   1      41.036  33.763  30.159  1.00  0.00     0.031 C 
ATOM     83  C   UNL A   1      44.606  35.035  26.500  1.00  0.00     0.029 A 
ATOM     84  C   UNL A   1      44.494  35.654  27.733  1.00  0.00     0.049 A 
ATOM     85  H   UNL A   1      46.008  36.346  29.021  1.00  0.00     0.167 HD
ATOM     86  C   UNL A   1      42.613  35.079  29.076  1.00  0.00     0.074 A 
ATOM     87  C   UNL A   1      41.313  35.002  29.718  1.00  0.00     0.031 C 
ATOM     88  C   UNL A   1      43.343  36.091  28.512  1.00  0.00     0.034 A 
BRANCH  75  89
ATOM     89  C   UNL A   1      49.253  35.834  26.891  1.00  0.00     0.023 A 
ATOM     90  C   UNL A   1      50.053  36.839  27.472  1.00  0.00     0.031 A 
ATOM     91  C   UNL A   1      49.585  35.461  25.576  1.00  0.00     0.131 A 
ATOM     92  C   UNL A   1      51.056  37.488  26.734  1.00  0.00     0.055 A 
ATOM     93  C   UNL A   1      50.553  36.141  24.824  1.00  0.00     0.041 A 
ATOM     94  F   UNL A   1      48.991  34.416  24.981  1.00  0.00    -0.206 F 
ATOM     95  C   UNL A   1      51.286  37.171  25.398  1.00  0.00     0.022 A 
BRANCH  92  96
ATOM     96  S   UNL A   1      52.057  38.763  27.551  1.00  0.00     0.124 S 
ATOM     97  O   UNL A   1      51.057  39.770  27.894  1.00  0.00    -0.237 OA
ATOM     98  O   UNL A   1      52.641  38.029  28.668  1.00  0.00    -0.237 OA
ATOM     99  O   UNL A   1      53.006  39.166  26.514  1.00  0.00    -0.744 OA
ENDBRANCH  92  96
ENDBRANCH  75  89
BRANCH  76 100
ATOM    100  C   UNL A   1      42.247  30.842  31.286  1.00  0.00     0.023 A 
ATOM    101  C   UNL A   1      42.686  31.525  32.442  1.00  0.00     0.031 A 
ATOM    102  C   UNL A   1      41.325  29.801  31.451  1.00  0.00     0.131 A 
ATOM    103  C   UNL A   1      42.054  31.309  33.675  1.00  0.00     0.055 A 
ATOM    104  C   UNL A   1      40.767  29.521  32.707  1.00  0.00     0.041 A 
ATOM    105  F   UNL A   1      40.851  29.130  30.392  1.00  0.00    -0.206 F 
ATOM    106  C   UNL A   1      41.091  30.310  33.815  1.00  0.00     0.022 A 
BRANCH 103 107
ATOM    107  S   UNL A   1      42.273  32.558  34.985  1.00  0.00     0.124 S 
ATOM    108  O   UNL A   1      40.902  33.000  35.216  1.00  0.00    -0.237 OA
ATOM    109  O   UNL A   1      42.885  31.789  36.069  1.00  0.00    -0.237 OA
ATOM    110  O   UNL A   1      43.164  33.545  34.379  1.00  0.00    -0.744 OA
ENDBRANCH 103 107
ENDBRANCH  76 100
BRANCH  88 111
ATOM    111  C   UNL A   1      43.012  37.570  28.555  1.00  0.00     0.023 A 
ATOM    112  C   UNL A   1      43.427  38.428  29.583  1.00  0.00     0.031 A 
ATOM    113  C   UNL A   1      42.311  38.190  27.490  1.00  0.00     0.131 A 
ATOM    114  C   UNL A   1      43.082  39.793  29.578  1.00  0.00     0.055 A 
ATOM    115  C   UNL A   1      42.039  39.562  27.447  1.00  0.00     0.041 A 
ATOM    116  F   UNL A   1      41.863  37.493  26.435  1.00  0.00    -0.206 F 
ATOM    117  C   UNL A   1      42.411  40.372  28.505  1.00  0.00     0.022 A 
BRANCH 114 118
ATOM    118  S   UNL A   1      43.477  40.781  31.044  1.00  0.00     0.124 S 
ATOM    119  O   UNL A   1      44.508  39.969  31.684  1.00  0.00    -0.237 OA
ATOM    120  O   UNL A   1      43.933  42.039  30.461  1.00  0.00    -0.237 OA
ATOM    121  O   UNL A   1      42.208  40.854  31.765  1.00  0.00    -0.744 OA
ENDBRANCH 114 118
ENDBRANCH  88 111
ENDBRANCH  62  63
ENDBRANCH  54  57
ENDBRANCH  52  53
ENDBRANCH  51  52
ENDBRANCH  50  51
ENDBRANCH  49  50
ENDBRANCH  48  49
ENDBRANCH   1  48
TORSDOF 25
ENDMDL
