MODEL 1
REMARK VINA RESULT:     -11.5      0.000      0.000
REMARK SMILES O=C(Cc1ccc(F)c(F)c1)NC1(C(=O)NCCCCCCNC(=O)c2ccc(-c3c4nc(c(-c5cc(S(=O)(=O)[O-])ccc5F)c5ccc([nH]5)c(-c5cc(S(=O)(=O)[O-])ccc5F)c5nc(c(-c6cc(S(=O)(=O)[O-])ccc6F)c6ccc3[nH]6)C=C5)C=C4)cc2)CCCC1
REMARK SMILES IDX 19 1 18 2 17 3 16 4 14 5 15 6 13 8 89 9 92 10 90 11 91 12
REMARK SMILES IDX 12 13 1 14 2 15 3 17 4 18 5 19 11 20 6 21 9 22 7 23 10 24
REMARK SMILES IDX 8 25 20 26 21 27 22 28 23 29 24 30 25 32 26 33 27 34 88 35
REMARK SMILES IDX 28 36 87 37 29 38 30 39 31 40 81 41 32 42 86 43 80 44 82 45
REMARK SMILES IDX 33 46 85 47 79 48 78 49 34 51 66 52 46 53 65 54 47 55 50 56
REMARK SMILES IDX 64 57 83 58 48 59 49 60 63 62 84 63 51 64 35 65 36 66 44 67
REMARK SMILES IDX 37 68 43 69 45 70 42 71 38 72 39 73 40 74 41 75 67 76 68 77
REMARK SMILES IDX 76 78 69 79 75 80 77 81 74 82 70 83 71 84 72 85 73 86 52 87
REMARK SMILES IDX 53 88 61 89 54 90 60 91 62 92 59 93 55 94 56 95 57 96 58 97
REMARK H PARENT 16 7 12 16 23 31 82 50 50 61
REMARK Flexibility Score: inf
ROOT
ATOM      1  C   UNL A   1      33.189  29.796  26.260  1.00  0.00     0.002 C 
ENDROOT
BRANCH   1   2
ATOM      2  C   UNL A   1      32.899  28.725  25.204  1.00  0.00     0.021 C 
BRANCH   2   3
ATOM      3  C   UNL A   1      33.722  27.451  25.391  1.00  0.00     0.116 C 
BRANCH   3   4
ATOM      4  N   UNL A   1      33.045  26.558  26.296  1.00  0.00    -0.354 N 
ATOM      5  C   UNL A   1      32.121  25.599  26.023  1.00  0.00     0.245 C 
ATOM      6  O   UNL A   1      31.226  25.473  26.872  1.00  0.00    -0.272 OA
ATOM      7  H   UNL A   1      33.284  26.655  27.246  1.00  0.00     0.163 HD
BRANCH   5   8
ATOM      8  C   UNL A   1      32.113  24.753  24.689  1.00  0.00     0.119 C 
ATOM      9  C   UNL A   1      31.162  23.554  24.617  1.00  0.00     0.038 C 
ATOM     10  C   UNL A   1      33.522  24.196  24.417  1.00  0.00     0.038 C 
ATOM     11  C   UNL A   1      32.006  22.281  24.597  1.00  0.00     0.003 C 
ATOM     12  C   UNL A   1      33.472  22.687  24.580  1.00  0.00     0.003 C 
BRANCH   8  13
ATOM     13  N   UNL A   1      31.785  25.716  23.612  1.00  0.00    -0.341 N 
ATOM     14  O   UNL A   1      29.559  25.920  24.086  1.00  0.00    -0.275 OA
ATOM     15  C   UNL A   1      30.563  26.340  23.511  1.00  0.00     0.225 C 
ATOM     16  H   UNL A   1      32.474  25.920  22.937  1.00  0.00     0.164 HD
BRANCH  15  17
ATOM     17  C   UNL A   1      30.496  27.565  22.610  1.00  0.00     0.135 C 
BRANCH  17  18
ATOM     18  C   UNL A   1      29.494  28.680  22.885  1.00  0.00    -0.036 A 
ATOM     19  C   UNL A   1      28.121  28.621  22.594  1.00  0.00     0.007 A 
ATOM     20  C   UNL A   1      29.997  29.884  23.417  1.00  0.00     0.046 A 
ATOM     21  C   UNL A   1      27.258  29.665  22.947  1.00  0.00     0.043 A 
ATOM     22  C   UNL A   1      29.141  30.941  23.721  1.00  0.00     0.159 A 
ATOM     23  C   UNL A   1      27.775  30.820  23.515  1.00  0.00     0.158 A 
ATOM     24  F   UNL A   1      29.652  32.075  24.220  1.00  0.00    -0.204 F 
ATOM     25  F   UNL A   1      26.948  31.821  23.848  1.00  0.00    -0.204 F 
ENDBRANCH  17  18
ENDBRANCH  15  17
ENDBRANCH   8  13
ENDBRANCH   5   8
ENDBRANCH   3   4
ENDBRANCH   2   3
ENDBRANCH   1   2
BRANCH   1  26
ATOM     26  C   UNL A   1      31.970  30.216  27.089  1.00  0.00     0.002 C 
BRANCH  26  27
ATOM     27  C   UNL A   1      31.549  31.679  26.921  1.00  0.00     0.021 C 
BRANCH  27  28
ATOM     28  C   UNL A   1      32.711  32.647  26.715  1.00  0.00     0.116 C 
BRANCH  28  29
ATOM     29  N   UNL A   1      32.522  33.878  27.468  1.00  0.00    -0.352 N 
ATOM     30  C   UNL A   1      33.161  34.311  28.604  1.00  0.00     0.251 C 
ATOM     31  H   UNL A   1      31.838  34.489  27.111  1.00  0.00     0.163 HD
ATOM     32  O   UNL A   1      32.700  35.247  29.247  1.00  0.00    -0.269 OA
BRANCH  30  33
ATOM     33  C   UNL A   1      34.392  33.627  29.050  1.00  0.00     0.039 A 
ATOM     34  C   UNL A   1      35.630  34.205  28.766  1.00  0.00     0.014 A 
ATOM     35  C   UNL A   1      34.317  32.423  29.759  1.00  0.00     0.014 A 
ATOM     36  C   UNL A   1      36.794  33.618  29.267  1.00  0.00     0.010 A 
ATOM     37  C   UNL A   1      35.472  31.878  30.314  1.00  0.00     0.010 A 
ATOM     38  C   UNL A   1      36.718  32.479  30.087  1.00  0.00    -0.014 A 
BRANCH  38  39
ATOM     39  C   UNL A   1      37.925  31.934  30.760  1.00  0.00     0.031 A 
ATOM     40  C   UNL A   1      38.745  30.865  30.100  1.00  0.00     0.074 A 
ATOM     41  C   UNL A   1      38.226  32.349  32.006  1.00  0.00     0.049 A 
ATOM     42  N   UNL A   1      39.761  30.191  30.574  1.00  0.00    -0.248 NA
ATOM     43  C   UNL A   1      38.353  30.488  28.734  1.00  0.00     0.031 C 
ATOM     44  C   UNL A   1      37.478  33.357  32.762  1.00  0.00     0.029 A 
ATOM     45  N   UNL A   1      39.222  31.965  32.867  1.00  0.00    -0.354 N 
ATOM     46  C   UNL A   1      40.134  29.309  29.565  1.00  0.00     0.074 A 
ATOM     47  C   UNL A   1      39.188  29.491  28.483  1.00  0.00     0.031 C 
ATOM     48  C   UNL A   1      38.047  33.517  33.966  1.00  0.00     0.029 A 
ATOM     49  C   UNL A   1      39.161  32.584  34.094  1.00  0.00     0.049 A 
ATOM     50  H   UNL A   1      39.916  31.307  32.629  1.00  0.00     0.167 HD
ATOM     51  C   UNL A   1      41.181  28.447  29.539  1.00  0.00     0.034 A 
ATOM     52  C   UNL A   1      39.896  32.400  35.209  1.00  0.00     0.034 A 
ATOM     53  C   UNL A   1      42.101  28.271  30.638  1.00  0.00     0.049 A 
ATOM     54  C   UNL A   1      41.008  31.384  35.186  1.00  0.00     0.074 A 
ATOM     55  C   UNL A   1      43.221  27.461  30.705  1.00  0.00     0.029 A 
ATOM     56  N   UNL A   1      41.996  28.900  31.874  1.00  0.00    -0.354 N 
ATOM     57  N   UNL A   1      41.384  30.597  34.204  1.00  0.00    -0.248 NA
ATOM     58  C   UNL A   1      41.793  31.232  36.417  1.00  0.00     0.031 C 
ATOM     59  C   UNL A   1      43.742  27.536  32.000  1.00  0.00     0.029 A 
ATOM     60  C   UNL A   1      43.000  28.459  32.723  1.00  0.00     0.049 A 
ATOM     61  H   UNL A   1      41.308  29.563  32.111  1.00  0.00     0.167 HD
ATOM     62  C   UNL A   1      42.460  29.865  34.697  1.00  0.00     0.074 A 
ATOM     63  C   UNL A   1      42.686  30.323  36.054  1.00  0.00     0.031 C 
ATOM     64  C   UNL A   1      43.196  28.902  34.085  1.00  0.00     0.034 A 
BRANCH  51  65
ATOM     65  C   UNL A   1      41.359  27.613  28.291  1.00  0.00     0.023 A 
ATOM     66  C   UNL A   1      40.981  26.258  28.253  1.00  0.00     0.031 A 
ATOM     67  C   UNL A   1      41.949  28.160  27.139  1.00  0.00     0.131 A 
ATOM     68  C   UNL A   1      41.277  25.478  27.126  1.00  0.00     0.055 A 
ATOM     69  C   UNL A   1      42.158  27.401  25.985  1.00  0.00     0.041 A 
ATOM     70  F   UNL A   1      42.352  29.441  27.118  1.00  0.00    -0.206 F 
ATOM     71  C   UNL A   1      41.840  26.046  25.981  1.00  0.00     0.022 A 
BRANCH  68  72
ATOM     72  S   UNL A   1      41.077  23.679  27.245  1.00  0.00     0.124 S 
ATOM     73  O   UNL A   1      41.704  23.398  28.536  1.00  0.00    -0.237 OA
ATOM     74  O   UNL A   1      39.629  23.519  27.190  1.00  0.00    -0.237 OA
ATOM     75  O   UNL A   1      41.807  23.175  26.084  1.00  0.00    -0.744 OA
ENDBRANCH  68  72
ENDBRANCH  51  65
BRANCH  52  76
ATOM     76  C   UNL A   1      39.572  33.162  36.449  1.00  0.00     0.023 A 
ATOM     77  C   UNL A   1      38.759  32.612  37.451  1.00  0.00     0.031 A 
ATOM     78  C   UNL A   1      40.061  34.468  36.640  1.00  0.00     0.131 A 
ATOM     79  C   UNL A   1      38.431  33.375  38.582  1.00  0.00     0.055 A 
ATOM     80  C   UNL A   1      39.779  35.202  37.792  1.00  0.00     0.041 A 
ATOM     81  F   UNL A   1      40.846  35.042  35.714  1.00  0.00    -0.206 F 
ATOM     82  C   UNL A   1      38.949  34.659  38.769  1.00  0.00     0.022 A 
BRANCH  79  83
ATOM     83  S   UNL A   1      37.251  32.693  39.779  1.00  0.00     0.124 S 
ATOM     84  O   UNL A   1      37.878  31.422  40.123  1.00  0.00    -0.237 OA
ATOM     85  O   UNL A   1      37.254  33.715  40.821  1.00  0.00    -0.237 OA
ATOM     86  O   UNL A   1      36.010  32.591  39.013  1.00  0.00    -0.744 OA
ENDBRANCH  79  83
ENDBRANCH  52  76
BRANCH  64  87
ATOM     87  C   UNL A   1      44.323  28.289  34.880  1.00  0.00     0.023 A 
ATOM     88  C   UNL A   1      44.088  27.281  35.830  1.00  0.00     0.031 A 
ATOM     89  C   UNL A   1      45.648  28.714  34.680  1.00  0.00     0.131 A 
ATOM     90  C   UNL A   1      45.155  26.763  36.580  1.00  0.00     0.055 A 
ATOM     91  C   UNL A   1      46.714  28.152  35.384  1.00  0.00     0.041 A 
ATOM     92  F   UNL A   1      45.930  29.678  33.790  1.00  0.00    -0.206 F 
ATOM     93  C   UNL A   1      46.469  27.178  36.348  1.00  0.00     0.022 A 
BRANCH  90  94
ATOM     94  S   UNL A   1      44.794  25.595  37.920  1.00  0.00     0.124 S 
ATOM     95  O   UNL A   1      43.767  26.308  38.673  1.00  0.00    -0.237 OA
ATOM     96  O   UNL A   1      44.345  24.412  37.192  1.00  0.00    -0.237 OA
ATOM     97  O   UNL A   1      46.077  25.451  38.604  1.00  0.00    -0.744 OA
ENDBRANCH  90  94
ENDBRANCH  64  87
ENDBRANCH  38  39
ENDBRANCH  30  33
ENDBRANCH  28  29
ENDBRANCH  27  28
ENDBRANCH  26  27
ENDBRANCH   1  26
TORSDOF 19
ENDMDL
MODEL 2
REMARK VINA RESULT:     -11.5      5.229      8.021
REMARK SMILES O=C(Cc1ccc(F)c(F)c1)NC1(C(=O)NCCCCCCNC(=O)c2ccc(-c3c4nc(c(-c5cc(S(=O)(=O)[O-])ccc5F)c5ccc([nH]5)c(-c5cc(S(=O)(=O)[O-])ccc5F)c5nc(c(-c6cc(S(=O)(=O)[O-])ccc6F)c6ccc3[nH]6)C=C5)C=C4)cc2)CCCC1
REMARK SMILES IDX 19 1 18 2 17 3 16 4 14 5 15 6 13 8 89 9 92 10 90 11 91 12
REMARK SMILES IDX 12 13 1 14 2 15 3 17 4 18 5 19 11 20 6 21 9 22 7 23 10 24
REMARK SMILES IDX 8 25 20 26 21 27 22 28 23 29 24 30 25 32 26 33 27 34 88 35
REMARK SMILES IDX 28 36 87 37 29 38 30 39 31 40 81 41 32 42 86 43 80 44 82 45
REMARK SMILES IDX 33 46 85 47 79 48 78 49 34 51 66 52 46 53 65 54 47 55 50 56
REMARK SMILES IDX 64 57 83 58 48 59 49 60 63 62 84 63 51 64 35 65 36 66 44 67
REMARK SMILES IDX 37 68 43 69 45 70 42 71 38 72 39 73 40 74 41 75 67 76 68 77
REMARK SMILES IDX 76 78 69 79 75 80 77 81 74 82 70 83 71 84 72 85 73 86 52 87
REMARK SMILES IDX 53 88 61 89 54 90 60 91 62 92 59 93 55 94 56 95 57 96 58 97
REMARK H PARENT 16 7 12 16 23 31 82 50 50 61
REMARK Flexibility Score: inf
ROOT
ATOM      1  C   UNL A   1      34.149  19.858  24.777  1.00  0.00     0.002 C 
ENDROOT
BRANCH   1   2
ATOM      2  C   UNL A   1      32.703  19.914  25.283  1.00  0.00     0.021 C 
BRANCH   2   3
ATOM      3  C   UNL A   1      31.955  21.169  24.836  1.00  0.00     0.116 C 
BRANCH   3   4
ATOM      4  N   UNL A   1      31.532  21.925  25.987  1.00  0.00    -0.354 N 
ATOM      5  C   UNL A   1      31.896  23.176  26.372  1.00  0.00     0.245 C 
ATOM      6  O   UNL A   1      32.006  23.340  27.596  1.00  0.00    -0.272 OA
ATOM      7  H   UNL A   1      30.888  21.472  26.579  1.00  0.00     0.163 HD
BRANCH   5   8
ATOM      8  C   UNL A   1      32.248  24.332  25.354  1.00  0.00     0.119 C 
ATOM      9  C   UNL A   1      33.322  24.047  24.302  1.00  0.00     0.038 C 
ATOM     10  C   UNL A   1      32.726  25.576  26.125  1.00  0.00     0.038 C 
ATOM     11  C   UNL A   1      34.543  24.908  24.624  1.00  0.00     0.003 C 
ATOM     12  C   UNL A   1      34.201  25.779  25.824  1.00  0.00     0.003 C 
BRANCH   8  13
ATOM     13  N   UNL A   1      30.970  24.672  24.685  1.00  0.00    -0.341 N 
ATOM     14  O   UNL A   1      30.142  26.020  26.334  1.00  0.00    -0.275 OA
ATOM     15  C   UNL A   1      30.100  25.622  25.170  1.00  0.00     0.225 C 
ATOM     16  H   UNL A   1      30.732  24.197  23.856  1.00  0.00     0.164 HD
BRANCH  15  17
ATOM     17  C   UNL A   1      29.043  26.134  24.203  1.00  0.00     0.135 C 
BRANCH  17  18
ATOM     18  C   UNL A   1      29.232  27.455  23.469  1.00  0.00    -0.036 A 
ATOM     19  C   UNL A   1      30.463  27.948  23.001  1.00  0.00     0.007 A 
ATOM     20  C   UNL A   1      28.096  28.270  23.300  1.00  0.00     0.046 A 
ATOM     21  C   UNL A   1      30.535  29.140  22.270  1.00  0.00     0.043 A 
ATOM     22  C   UNL A   1      28.182  29.481  22.615  1.00  0.00     0.159 A 
ATOM     23  C   UNL A   1      29.390  29.899  22.077  1.00  0.00     0.158 A 
ATOM     24  F   UNL A   1      27.083  30.236  22.477  1.00  0.00    -0.204 F 
ATOM     25  F   UNL A   1      29.463  31.042  21.382  1.00  0.00    -0.204 F 
ENDBRANCH  17  18
ENDBRANCH  15  17
ENDBRANCH   8  13
ENDBRANCH   5   8
ENDBRANCH   3   4
ENDBRANCH   2   3
ENDBRANCH   1   2
BRANCH   1  26
ATOM     26  C   UNL A   1      35.076  20.917  25.384  1.00  0.00     0.002 C 
BRANCH  26  27
ATOM     27  C   UNL A   1      36.058  21.555  24.397  1.00  0.00     0.021 C 
BRANCH  27  28
ATOM     28  C   UNL A   1      37.291  22.175  25.050  1.00  0.00     0.116 C 
BRANCH  28  29
ATOM     29  N   UNL A   1      38.182  21.158  25.587  1.00  0.00    -0.352 N 
ATOM     30  C   UNL A   1      39.381  21.308  26.240  1.00  0.00     0.251 C 
ATOM     31  H   UNL A   1      37.882  20.229  25.464  1.00  0.00     0.163 HD
ATOM     32  O   UNL A   1      40.119  20.342  26.393  1.00  0.00    -0.269 OA
BRANCH  30  33
ATOM     33  C   UNL A   1      39.776  22.643  26.735  1.00  0.00     0.039 A 
ATOM     34  C   UNL A   1      40.787  22.738  27.694  1.00  0.00     0.014 A 
ATOM     35  C   UNL A   1      39.157  23.795  26.241  1.00  0.00     0.014 A 
ATOM     36  C   UNL A   1      41.235  23.998  28.096  1.00  0.00     0.010 A 
ATOM     37  C   UNL A   1      39.651  25.047  26.593  1.00  0.00     0.010 A 
ATOM     38  C   UNL A   1      40.706  25.160  27.510  1.00  0.00    -0.014 A 
BRANCH  38  39
ATOM     39  C   UNL A   1      41.277  26.499  27.805  1.00  0.00     0.031 A 
ATOM     40  C   UNL A   1      42.706  26.807  27.464  1.00  0.00     0.074 A 
ATOM     41  C   UNL A   1      40.524  27.406  28.458  1.00  0.00     0.049 A 
ATOM     42  N   UNL A   1      43.411  27.873  27.742  1.00  0.00    -0.248 NA
ATOM     43  C   UNL A   1      43.446  25.765  26.737  1.00  0.00     0.031 C 
ATOM     44  C   UNL A   1      39.133  27.203  28.872  1.00  0.00     0.029 A 
ATOM     45  N   UNL A   1      40.820  28.667  28.907  1.00  0.00    -0.354 N 
ATOM     46  C   UNL A   1      44.679  27.635  27.223  1.00  0.00     0.074 A 
ATOM     47  C   UNL A   1      44.659  26.294  26.676  1.00  0.00     0.031 C 
ATOM     48  C   UNL A   1      38.697  28.303  29.504  1.00  0.00     0.029 A 
ATOM     49  C   UNL A   1      39.790  29.264  29.595  1.00  0.00     0.049 A 
ATOM     50  H   UNL A   1      41.691  29.103  28.753  1.00  0.00     0.167 HD
ATOM     51  C   UNL A   1      45.749  28.468  27.187  1.00  0.00     0.034 A 
ATOM     52  C   UNL A   1      39.738  30.440  30.254  1.00  0.00     0.034 A 
ATOM     53  C   UNL A   1      45.750  29.795  27.754  1.00  0.00     0.049 A 
ATOM     54  C   UNL A   1      40.961  31.319  30.268  1.00  0.00     0.074 A 
ATOM     55  C   UNL A   1      46.760  30.741  27.737  1.00  0.00     0.029 A 
ATOM     56  N   UNL A   1      44.695  30.360  28.462  1.00  0.00    -0.354 N 
ATOM     57  N   UNL A   1      42.136  31.103  29.723  1.00  0.00    -0.248 NA
ATOM     58  C   UNL A   1      40.851  32.596  30.982  1.00  0.00     0.031 C 
ATOM     59  C   UNL A   1      46.349  31.838  28.500  1.00  0.00     0.029 A 
ATOM     60  C   UNL A   1      45.049  31.618  28.927  1.00  0.00     0.049 A 
ATOM     61  H   UNL A   1      43.822  29.929  28.612  1.00  0.00     0.167 HD
ATOM     62  C   UNL A   1      42.902  32.227  30.019  1.00  0.00     0.074 A 
ATOM     63  C   UNL A   1      42.048  33.126  30.768  1.00  0.00     0.031 C 
ATOM     64  C   UNL A   1      44.196  32.493  29.700  1.00  0.00     0.034 A 
BRANCH  51  65
ATOM     65  C   UNL A   1      47.010  27.946  26.537  1.00  0.00     0.023 A 
ATOM     66  C   UNL A   1      47.262  28.134  25.166  1.00  0.00     0.031 A 
ATOM     67  C   UNL A   1      47.955  27.219  27.283  1.00  0.00     0.131 A 
ATOM     68  C   UNL A   1      48.376  27.529  24.567  1.00  0.00     0.055 A 
ATOM     69  C   UNL A   1      49.110  26.695  26.698  1.00  0.00     0.041 A 
ATOM     70  F   UNL A   1      47.762  26.985  28.591  1.00  0.00    -0.206 F 
ATOM     71  C   UNL A   1      49.317  26.832  25.329  1.00  0.00     0.022 A 
BRANCH  68  72
ATOM     72  S   UNL A   1      48.482  27.517  22.757  1.00  0.00     0.124 S 
ATOM     73  O   UNL A   1      47.263  28.232  22.385  1.00  0.00    -0.237 OA
ATOM     74  O   UNL A   1      49.736  28.222  22.511  1.00  0.00    -0.237 OA
ATOM     75  O   UNL A   1      48.488  26.095  22.422  1.00  0.00    -0.744 OA
ENDBRANCH  68  72
ENDBRANCH  51  65
BRANCH  52  76
ATOM     76  C   UNL A   1      38.501  30.827  30.992  1.00  0.00     0.023 A 
ATOM     77  C   UNL A   1      37.452  31.502  30.351  1.00  0.00     0.031 A 
ATOM     78  C   UNL A   1      38.361  30.539  32.362  1.00  0.00     0.131 A 
ATOM     79  C   UNL A   1      36.324  31.898  31.086  1.00  0.00     0.055 A 
ATOM     80  C   UNL A   1      37.213  30.885  33.076  1.00  0.00     0.041 A 
ATOM     81  F   UNL A   1      39.333  29.892  33.024  1.00  0.00    -0.206 F 
ATOM     82  C   UNL A   1      36.189  31.580  32.440  1.00  0.00     0.022 A 
BRANCH  79  83
ATOM     83  S   UNL A   1      35.061  32.908  30.264  1.00  0.00     0.124 S 
ATOM     84  O   UNL A   1      35.845  34.052  29.812  1.00  0.00    -0.237 OA
ATOM     85  O   UNL A   1      34.582  32.005  29.223  1.00  0.00    -0.237 OA
ATOM     86  O   UNL A   1      34.103  33.189  31.331  1.00  0.00    -0.744 OA
ENDBRANCH  79  83
ENDBRANCH  52  76
BRANCH  64  87
ATOM     87  C   UNL A   1      44.756  33.818  30.154  1.00  0.00     0.023 A 
ATOM     88  C   UNL A   1      44.621  34.979  29.373  1.00  0.00     0.031 A 
ATOM     89  C   UNL A   1      45.428  33.923  31.384  1.00  0.00     0.131 A 
ATOM     90  C   UNL A   1      45.191  36.185  29.808  1.00  0.00     0.055 A 
ATOM     91  C   UNL A   1      45.939  35.139  31.841  1.00  0.00     0.041 A 
ATOM     92  F   UNL A   1      45.592  32.846  32.169  1.00  0.00    -0.206 F 
ATOM     93  C   UNL A   1      45.831  36.277  31.047  1.00  0.00     0.022 A 
BRANCH  90  94
ATOM     94  S   UNL A   1      45.155  37.618  28.696  1.00  0.00     0.124 S 
ATOM     95  O   UNL A   1      45.088  36.981  27.385  1.00  0.00    -0.237 OA
ATOM     96  O   UNL A   1      43.948  38.318  29.127  1.00  0.00    -0.237 OA
ATOM     97  O   UNL A   1      46.409  38.310  28.987  1.00  0.00    -0.744 OA
ENDBRANCH  90  94
ENDBRANCH  64  87
ENDBRANCH  38  39
ENDBRANCH  30  33
ENDBRANCH  28  29
ENDBRANCH  27  28
ENDBRANCH  26  27
ENDBRANCH   1  26
TORSDOF 19
ENDMDL
MODEL 3
REMARK VINA RESULT:     -11.5      5.348     10.265
REMARK SMILES O=C(Cc1ccc(F)c(F)c1)NC1(C(=O)NCCCCCCNC(=O)c2ccc(-c3c4nc(c(-c5cc(S(=O)(=O)[O-])ccc5F)c5ccc([nH]5)c(-c5cc(S(=O)(=O)[O-])ccc5F)c5nc(c(-c6cc(S(=O)(=O)[O-])ccc6F)c6ccc3[nH]6)C=C5)C=C4)cc2)CCCC1
REMARK SMILES IDX 19 1 18 2 17 3 16 4 14 5 15 6 13 8 89 9 92 10 90 11 91 12
REMARK SMILES IDX 12 13 1 14 2 15 3 17 4 18 5 19 11 20 6 21 9 22 7 23 10 24
REMARK SMILES IDX 8 25 20 26 21 27 22 28 23 29 24 30 25 32 26 33 27 34 88 35
REMARK SMILES IDX 28 36 87 37 29 38 30 39 31 40 81 41 32 42 86 43 80 44 82 45
REMARK SMILES IDX 33 46 85 47 79 48 78 49 34 51 66 52 46 53 65 54 47 55 50 56
REMARK SMILES IDX 64 57 83 58 48 59 49 60 63 62 84 63 51 64 35 65 36 66 44 67
REMARK SMILES IDX 37 68 43 69 45 70 42 71 38 72 39 73 40 74 41 75 67 76 68 77
REMARK SMILES IDX 76 78 69 79 75 80 77 81 74 82 70 83 71 84 72 85 73 86 52 87
REMARK SMILES IDX 53 88 61 89 54 90 60 91 62 92 59 93 55 94 56 95 57 96 58 97
REMARK H PARENT 16 7 12 16 23 31 82 50 50 61
REMARK Flexibility Score: inf
ROOT
ATOM      1  C   UNL A   1      34.267  23.964  26.123  1.00  0.00     0.002 C 
ENDROOT
BRANCH   1   2
ATOM      2  C   UNL A   1      34.278  24.692  24.775  1.00  0.00     0.021 C 
BRANCH   2   3
ATOM      3  C   UNL A   1      34.041  26.196  24.897  1.00  0.00     0.116 C 
BRANCH   3   4
ATOM      4  N   UNL A   1      33.661  26.739  23.618  1.00  0.00    -0.354 N 
ATOM      5  C   UNL A   1      32.463  26.667  22.979  1.00  0.00     0.245 C 
ATOM      6  O   UNL A   1      32.531  26.549  21.746  1.00  0.00    -0.272 OA
ATOM      7  H   UNL A   1      34.366  27.232  23.140  1.00  0.00     0.163 HD
BRANCH   5   8
ATOM      8  C   UNL A   1      31.075  26.642  23.730  1.00  0.00     0.119 C 
ATOM      9  C   UNL A   1      31.025  27.227  25.145  1.00  0.00     0.038 C 
ATOM     10  C   UNL A   1      30.573  25.192  23.850  1.00  0.00     0.038 C 
ATOM     11  C   UNL A   1      30.785  26.078  26.124  1.00  0.00     0.003 C 
ATOM     12  C   UNL A   1      30.611  24.800  25.317  1.00  0.00     0.003 C 
BRANCH   8  13
ATOM     13  N   UNL A   1      30.137  27.379  22.851  1.00  0.00    -0.341 N 
ATOM     14  O   UNL A   1      28.227  26.888  24.007  1.00  0.00    -0.275 OA
ATOM     15  C   UNL A   1      28.810  27.571  23.164  1.00  0.00     0.225 C 
ATOM     16  H   UNL A   1      30.477  27.750  22.005  1.00  0.00     0.164 HD
BRANCH  15  17
ATOM     17  C   UNL A   1      28.074  28.649  22.382  1.00  0.00     0.135 C 
BRANCH  17  18
ATOM     18  C   UNL A   1      28.345  30.125  22.646  1.00  0.00    -0.036 A 
ATOM     19  C   UNL A   1      28.947  30.640  23.808  1.00  0.00     0.007 A 
ATOM     20  C   UNL A   1      27.905  31.047  21.676  1.00  0.00     0.046 A 
ATOM     21  C   UNL A   1      29.226  32.006  23.935  1.00  0.00     0.043 A 
ATOM     22  C   UNL A   1      28.140  32.412  21.831  1.00  0.00     0.159 A 
ATOM     23  C   UNL A   1      28.823  32.885  22.941  1.00  0.00     0.158 A 
ATOM     24  F   UNL A   1      27.702  33.263  20.894  1.00  0.00    -0.204 F 
ATOM     25  F   UNL A   1      29.086  34.193  23.069  1.00  0.00    -0.204 F 
ENDBRANCH  17  18
ENDBRANCH  15  17
ENDBRANCH   8  13
ENDBRANCH   5   8
ENDBRANCH   3   4
ENDBRANCH   2   3
ENDBRANCH   1   2
BRANCH   1  26
ATOM     26  C   UNL A   1      35.116  22.688  26.163  1.00  0.00     0.002 C 
BRANCH  26  27
ATOM     27  C   UNL A   1      35.525  22.143  24.792  1.00  0.00     0.021 C 
BRANCH  27  28
ATOM     28  C   UNL A   1      37.024  22.209  24.511  1.00  0.00     0.116 C 
BRANCH  28  29
ATOM     29  N   UNL A   1      37.720  21.046  25.040  1.00  0.00    -0.352 N 
ATOM     30  C   UNL A   1      38.883  20.984  25.768  1.00  0.00     0.251 C 
ATOM     31  H   UNL A   1      37.296  20.179  24.849  1.00  0.00     0.163 HD
ATOM     32  O   UNL A   1      39.461  19.912  25.909  1.00  0.00    -0.269 OA
BRANCH  30  33
ATOM     33  C   UNL A   1      39.437  22.220  26.358  1.00  0.00     0.039 A 
ATOM     34  C   UNL A   1      40.534  22.129  27.217  1.00  0.00     0.014 A 
ATOM     35  C   UNL A   1      38.879  23.465  26.051  1.00  0.00     0.014 A 
ATOM     36  C   UNL A   1      41.125  23.297  27.703  1.00  0.00     0.010 A 
ATOM     37  C   UNL A   1      39.511  24.628  26.482  1.00  0.00     0.010 A 
ATOM     38  C   UNL A   1      40.649  24.555  27.297  1.00  0.00    -0.014 A 
BRANCH  38  39
ATOM     39  C   UNL A   1      41.360  25.804  27.673  1.00  0.00     0.031 A 
ATOM     40  C   UNL A   1      40.647  26.886  28.431  1.00  0.00     0.074 A 
ATOM     41  C   UNL A   1      42.626  25.991  27.251  1.00  0.00     0.049 A 
ATOM     42  N   UNL A   1      41.063  28.084  28.749  1.00  0.00    -0.248 NA
ATOM     43  C   UNL A   1      39.274  26.587  28.864  1.00  0.00     0.031 C 
ATOM     44  C   UNL A   1      43.407  25.024  26.476  1.00  0.00     0.029 A 
ATOM     45  N   UNL A   1      43.474  27.060  27.394  1.00  0.00    -0.354 N 
ATOM     46  C   UNL A   1      40.005  28.685  29.423  1.00  0.00     0.074 A 
ATOM     47  C   UNL A   1      38.908  27.740  29.404  1.00  0.00     0.031 C 
ATOM     48  C   UNL A   1      44.618  25.539  26.221  1.00  0.00     0.029 A 
ATOM     49  C   UNL A   1      44.683  26.894  26.760  1.00  0.00     0.049 A 
ATOM     50  H   UNL A   1      43.237  27.871  27.902  1.00  0.00     0.167 HD
ATOM     51  C   UNL A   1      39.965  29.902  30.021  1.00  0.00     0.034 A 
ATOM     52  C   UNL A   1      45.716  27.745  26.599  1.00  0.00     0.034 A 
ATOM     53  C   UNL A   1      41.067  30.835  30.013  1.00  0.00     0.049 A 
ATOM     54  C   UNL A   1      45.623  29.121  27.206  1.00  0.00     0.074 A 
ATOM     55  C   UNL A   1      41.154  32.074  30.623  1.00  0.00     0.029 A 
ATOM     56  N   UNL A   1      42.270  30.642  29.343  1.00  0.00    -0.354 N 
ATOM     57  N   UNL A   1      44.638  29.654  27.890  1.00  0.00    -0.248 NA
ATOM     58  C   UNL A   1      46.779  30.006  27.022  1.00  0.00     0.031 C 
ATOM     59  C   UNL A   1      42.369  32.662  30.255  1.00  0.00     0.029 A 
ATOM     60  C   UNL A   1      43.082  31.757  29.484  1.00  0.00     0.049 A 
ATOM     61  H   UNL A   1      42.511  29.830  28.841  1.00  0.00     0.167 HD
ATOM     62  C   UNL A   1      45.062  30.936  28.229  1.00  0.00     0.074 A 
ATOM     63  C   UNL A   1      46.401  31.084  27.695  1.00  0.00     0.031 C 
ATOM     64  C   UNL A   1      44.405  31.903  28.919  1.00  0.00     0.034 A 
BRANCH  51  65
ATOM     65  C   UNL A   1      38.676  30.296  30.704  1.00  0.00     0.023 A 
ATOM     66  C   UNL A   1      37.621  30.896  29.992  1.00  0.00     0.031 A 
ATOM     67  C   UNL A   1      38.508  30.108  32.087  1.00  0.00     0.131 A 
ATOM     68  C   UNL A   1      36.491  31.366  30.675  1.00  0.00     0.055 A 
ATOM     69  C   UNL A   1      37.340  30.496  32.748  1.00  0.00     0.041 A 
ATOM     70  F   UNL A   1      39.486  29.561  32.827  1.00  0.00    -0.206 F 
ATOM     71  C   UNL A   1      36.331  31.147  32.045  1.00  0.00     0.022 A 
BRANCH  68  72
ATOM     72  S   UNL A   1      35.318  32.420  29.779  1.00  0.00     0.124 S 
ATOM     73  O   UNL A   1      34.355  32.748  30.829  1.00  0.00    -0.237 OA
ATOM     74  O   UNL A   1      36.165  33.517  29.324  1.00  0.00    -0.237 OA
ATOM     75  O   UNL A   1      34.805  31.546  28.726  1.00  0.00    -0.744 OA
ENDBRANCH  68  72
ENDBRANCH  51  65
BRANCH  52  76
ATOM     76  C   UNL A   1      46.901  27.336  25.793  1.00  0.00     0.023 A 
ATOM     77  C   UNL A   1      47.061  27.760  24.466  1.00  0.00     0.031 A 
ATOM     78  C   UNL A   1      47.887  26.493  26.340  1.00  0.00     0.131 A 
ATOM     79  C   UNL A   1      48.162  27.314  23.718  1.00  0.00     0.055 A 
ATOM     80  C   UNL A   1      49.009  26.097  25.610  1.00  0.00     0.041 A 
ATOM     81  F   UNL A   1      47.784  26.059  27.606  1.00  0.00    -0.206 F 
ATOM     82  C   UNL A   1      49.146  26.500  24.285  1.00  0.00     0.022 A 
BRANCH  79  83
ATOM     83  S   UNL A   1      48.254  27.751  21.960  1.00  0.00     0.124 S 
ATOM     84  O   UNL A   1      48.454  26.447  21.340  1.00  0.00    -0.237 OA
ATOM     85  O   UNL A   1      46.956  28.378  21.736  1.00  0.00    -0.237 OA
ATOM     86  O   UNL A   1      49.399  28.657  21.894  1.00  0.00    -0.744 OA
ENDBRANCH  79  83
ENDBRANCH  52  76
BRANCH  64  87
ATOM     87  C   UNL A   1      45.137  33.204  29.144  1.00  0.00     0.023 A 
ATOM     88  C   UNL A   1      45.012  34.281  28.250  1.00  0.00     0.031 A 
ATOM     89  C   UNL A   1      45.965  33.370  30.268  1.00  0.00     0.131 A 
ATOM     90  C   UNL A   1      45.740  35.460  28.469  1.00  0.00     0.055 A 
ATOM     91  C   UNL A   1      46.639  34.567  30.514  1.00  0.00     0.041 A 
ATOM     92  F   UNL A   1      46.127  32.372  31.152  1.00  0.00    -0.206 F 
ATOM     93  C   UNL A   1      46.536  35.617  29.607  1.00  0.00     0.022 A 
BRANCH  90  94
ATOM     94  S   UNL A   1      45.695  36.761  27.206  1.00  0.00     0.124 S 
ATOM     95  O   UNL A   1      44.264  37.022  27.092  1.00  0.00    -0.237 OA
ATOM     96  O   UNL A   1      46.490  37.821  27.818  1.00  0.00    -0.237 OA
ATOM     97  O   UNL A   1      46.305  36.127  26.038  1.00  0.00    -0.744 OA
ENDBRANCH  90  94
ENDBRANCH  64  87
ENDBRANCH  38  39
ENDBRANCH  30  33
ENDBRANCH  28  29
ENDBRANCH  27  28
ENDBRANCH  26  27
ENDBRANCH   1  26
TORSDOF 19
ENDMDL
