MODEL 1
REMARK VINA RESULT:     -11.9      0.000      0.000
REMARK SMILES C=Cc1cc(Cl)cc2c1O[C@H](C(F)(F)F)C(C(=O)NCCCCCCNC(=O)c1ccc(-c3c4nc(c(-c5cc(S(=O)(=O)[O-])ccc5F)c5ccc([nH]5)c(-c5cc(S(=O)(=O)[O-])ccc5F)c5nc(c(-c6cc(S(=O)(=O)[O-])ccc6F)c6ccc3[nH]6)C=C5)C=C4)cc1)=C2
REMARK SMILES IDX 23 1 22 2 21 3 20 4 19 5 17 6 18 7 16 9 3 10 4 11 9 12 5 13
REMARK SMILES IDX 8 14 10 15 6 16 7 17 92 18 11 19 2 20 1 21 12 22 13 23 14 24
REMARK SMILES IDX 15 25 24 26 25 27 26 28 27 29 28 31 29 32 30 33 91 34 31 35
REMARK SMILES IDX 90 36 32 37 33 38 34 39 84 40 35 41 89 42 83 43 85 44 36 45
REMARK SMILES IDX 88 46 82 47 81 48 37 50 69 51 49 52 68 53 50 54 53 55 67 56
REMARK SMILES IDX 86 57 51 58 52 59 66 61 87 62 54 63 38 64 39 65 47 66 40 67
REMARK SMILES IDX 46 68 48 69 45 70 41 71 42 72 43 73 44 74 70 75 71 76 79 77
REMARK SMILES IDX 72 78 78 79 80 80 77 81 73 82 74 83 75 84 76 85 55 86 56 87
REMARK SMILES IDX 64 88 57 89 63 90 65 91 62 92 58 93 59 94 60 95 61 96
REMARK H PARENT 19 8 26 30 85 49 53 60
REMARK Flexibility Score: inf
ROOT
ATOM      1  C   UNL A   1      31.374  27.860  26.197  1.00  0.00     0.002 C 
ENDROOT
BRANCH   1   2
ATOM      2  C   UNL A   1      31.365  28.155  24.691  1.00  0.00     0.002 C 
BRANCH   2   3
ATOM      3  C   UNL A   1      30.247  27.484  23.886  1.00  0.00     0.021 C 
BRANCH   3   4
ATOM      4  C   UNL A   1      30.571  26.068  23.418  1.00  0.00     0.116 C 
BRANCH   4   5
ATOM      5  N   UNL A   1      31.508  26.065  22.306  1.00  0.00    -0.352 N 
ATOM      6  C   UNL A   1      32.614  25.379  21.940  1.00  0.00     0.251 C 
ATOM      7  O   UNL A   1      33.096  25.706  20.850  1.00  0.00    -0.270 OA
ATOM      8  H   UNL A   1      31.273  26.749  21.638  1.00  0.00     0.163 HD
BRANCH   6   9
ATOM      9  C   UNL A   1      33.272  24.297  22.735  1.00  0.00     0.067 C 
ATOM     10  C   UNL A   1      35.075  21.043  24.730  1.00  0.00     0.018 A 
ATOM     11  C   UNL A   1      34.357  19.848  24.868  1.00  0.00     0.032 A 
ATOM     12  C   UNL A   1      34.481  22.117  24.045  1.00  0.00     0.135 A 
ATOM     13  C   UNL A   1      33.086  19.728  24.306  1.00  0.00     0.042 A 
ATOM     14  C   UNL A   1      33.211  21.991  23.472  1.00  0.00     0.019 A 
ATOM     15  O   UNL A   1      35.218  23.259  23.903  1.00  0.00    -0.475 OA
ATOM     16  Cl  UNL A   1      32.217  18.252  24.474  1.00  0.00    -0.084 Cl
ATOM     17  C   UNL A   1      32.512  20.789  23.606  1.00  0.00     0.032 A 
ATOM     18  C   UNL A   1      32.654  23.101  22.707  1.00  0.00     0.025 C 
ATOM     19  C   UNL A   1      34.511  24.480  23.564  1.00  0.00     0.314 C 
BRANCH  10  20
ATOM     20  C   UNL A   1      36.407  21.193  25.335  1.00  0.00     0.004 C 
ATOM     21  C   UNL A   1      37.485  20.503  24.947  1.00  0.00     0.009 C 
ENDBRANCH  10  20
BRANCH  19  22
ATOM     22  C   UNL A   1      34.251  25.283  24.851  1.00  0.00     0.429 C 
ATOM     23  F   UNL A   1      34.277  26.614  24.599  1.00  0.00    -0.167 F 
ATOM     24  F   UNL A   1      33.038  25.017  25.390  1.00  0.00    -0.167 F 
ATOM     25  F   UNL A   1      35.172  25.031  25.809  1.00  0.00    -0.167 F 
ENDBRANCH  19  22
ENDBRANCH   6   9
ENDBRANCH   4   5
ENDBRANCH   3   4
ENDBRANCH   2   3
ENDBRANCH   1   2
BRANCH   1  26
ATOM     26  C   UNL A   1      32.497  28.518  27.001  1.00  0.00     0.021 C 
BRANCH  26  27
ATOM     27  C   UNL A   1      33.295  29.578  26.251  1.00  0.00     0.116 C 
BRANCH  27  28
ATOM     28  N   UNL A   1      33.068  30.918  26.765  1.00  0.00    -0.352 N 
ATOM     29  C   UNL A   1      33.831  31.650  27.644  1.00  0.00     0.251 C 
ATOM     30  H   UNL A   1      32.252  31.364  26.438  1.00  0.00     0.163 HD
ATOM     31  O   UNL A   1      33.406  32.713  28.088  1.00  0.00    -0.269 OA
BRANCH  29  32
ATOM     32  C   UNL A   1      35.146  31.127  28.079  1.00  0.00     0.039 A 
ATOM     33  C   UNL A   1      35.244  29.887  28.715  1.00  0.00     0.014 A 
ATOM     34  C   UNL A   1      36.291  31.903  27.874  1.00  0.00     0.014 A 
ATOM     35  C   UNL A   1      36.451  29.498  29.285  1.00  0.00     0.010 A 
ATOM     36  C   UNL A   1      37.521  31.471  28.380  1.00  0.00     0.010 A 
ATOM     37  C   UNL A   1      37.603  30.288  29.130  1.00  0.00    -0.014 A 
BRANCH  37  38
ATOM     38  C   UNL A   1      38.881  29.850  29.753  1.00  0.00     0.031 A 
ATOM     39  C   UNL A   1      39.288  30.347  31.113  1.00  0.00     0.074 A 
ATOM     40  C   UNL A   1      39.655  28.962  29.099  1.00  0.00     0.049 A 
ATOM     41  N   UNL A   1      40.356  30.049  31.809  1.00  0.00    -0.248 NA
ATOM     42  C   UNL A   1      38.388  31.301  31.780  1.00  0.00     0.031 C 
ATOM     43  C   UNL A   1      39.361  28.418  27.773  1.00  0.00     0.029 A 
ATOM     44  N   UNL A   1      40.831  28.349  29.457  1.00  0.00    -0.354 N 
ATOM     45  C   UNL A   1      40.263  30.784  32.985  1.00  0.00     0.074 A 
ATOM     46  C   UNL A   1      39.051  31.568  32.898  1.00  0.00     0.031 C 
ATOM     47  C   UNL A   1      40.303  27.524  27.446  1.00  0.00     0.029 A 
ATOM     48  C   UNL A   1      41.308  27.477  28.507  1.00  0.00     0.049 A 
ATOM     49  H   UNL A   1      41.288  28.519  30.312  1.00  0.00     0.167 HD
ATOM     50  C   UNL A   1      41.106  30.790  34.046  1.00  0.00     0.034 A 
ATOM     51  C   UNL A   1      42.434  26.734  28.477  1.00  0.00     0.034 A 
ATOM     52  C   UNL A   1      42.301  29.988  34.129  1.00  0.00     0.049 A 
ATOM     53  C   UNL A   1      43.357  26.764  29.666  1.00  0.00     0.074 A 
ATOM     54  C   UNL A   1      43.206  29.913  35.174  1.00  0.00     0.029 A 
ATOM     55  N   UNL A   1      42.754  29.121  33.146  1.00  0.00    -0.354 N 
ATOM     56  N   UNL A   1      43.229  27.432  30.788  1.00  0.00    -0.248 NA
ATOM     57  C   UNL A   1      44.572  25.940  29.596  1.00  0.00     0.031 C 
ATOM     58  C   UNL A   1      44.231  29.043  34.802  1.00  0.00     0.029 A 
ATOM     59  C   UNL A   1      43.935  28.523  33.551  1.00  0.00     0.049 A 
ATOM     60  H   UNL A   1      42.303  28.957  32.286  1.00  0.00     0.167 HD
ATOM     61  C   UNL A   1      44.339  27.102  31.560  1.00  0.00     0.074 A 
ATOM     62  C   UNL A   1      45.110  26.147  30.791  1.00  0.00     0.031 C 
ATOM     63  C   UNL A   1      44.690  27.559  32.788  1.00  0.00     0.034 A 
BRANCH  50  64
ATOM     64  C   UNL A   1      40.779  31.665  35.231  1.00  0.00     0.023 A 
ATOM     65  C   UNL A   1      39.659  31.375  36.033  1.00  0.00     0.031 A 
ATOM     66  C   UNL A   1      41.479  32.861  35.468  1.00  0.00     0.131 A 
ATOM     67  C   UNL A   1      39.247  32.292  37.008  1.00  0.00     0.055 A 
ATOM     68  C   UNL A   1      41.085  33.754  36.466  1.00  0.00     0.041 A 
ATOM     69  F   UNL A   1      42.553  33.181  34.729  1.00  0.00    -0.206 F 
ATOM     70  C   UNL A   1      39.956  33.477  37.232  1.00  0.00     0.022 A 
BRANCH  67  71
ATOM     71  S   UNL A   1      37.741  32.015  37.980  1.00  0.00     0.124 S 
ATOM     72  O   UNL A   1      38.226  32.200  39.346  1.00  0.00    -0.237 OA
ATOM     73  O   UNL A   1      36.860  33.067  37.483  1.00  0.00    -0.237 OA
ATOM     74  O   UNL A   1      37.352  30.650  37.642  1.00  0.00    -0.744 OA
ENDBRANCH  67  71
ENDBRANCH  50  64
BRANCH  51  75
ATOM     75  C   UNL A   1      42.704  25.882  27.282  1.00  0.00     0.023 A 
ATOM     76  C   UNL A   1      42.198  24.570  27.206  1.00  0.00     0.031 A 
ATOM     77  C   UNL A   1      43.564  26.316  26.260  1.00  0.00     0.131 A 
ATOM     78  C   UNL A   1      42.621  23.716  26.180  1.00  0.00     0.055 A 
ATOM     79  C   UNL A   1      43.923  25.485  25.196  1.00  0.00     0.041 A 
ATOM     80  F   UNL A   1      44.084  27.553  26.294  1.00  0.00    -0.206 F 
ATOM     81  C   UNL A   1      43.467  24.171  25.165  1.00  0.00     0.022 A 
BRANCH  78  82
ATOM     82  S   UNL A   1      42.218  21.947  26.223  1.00  0.00     0.124 S 
ATOM     83  O   UNL A   1      42.670  21.566  27.557  1.00  0.00    -0.237 OA
ATOM     84  O   UNL A   1      40.769  21.963  26.027  1.00  0.00    -0.237 OA
ATOM     85  O   UNL A   1      42.985  21.393  25.112  1.00  0.00    -0.744 OA
ENDBRANCH  78  82
ENDBRANCH  51  75
BRANCH  63  86
ATOM     86  C   UNL A   1      45.970  27.053  33.408  1.00  0.00     0.023 A 
ATOM     87  C   UNL A   1      47.213  27.498  32.918  1.00  0.00     0.031 A 
ATOM     88  C   UNL A   1      45.959  26.022  34.361  1.00  0.00     0.131 A 
ATOM     89  C   UNL A   1      48.393  26.881  33.353  1.00  0.00     0.055 A 
ATOM     90  C   UNL A   1      47.141  25.440  34.824  1.00  0.00     0.041 A 
ATOM     91  F   UNL A   1      44.798  25.557  34.850  1.00  0.00    -0.206 F 
ATOM     92  C   UNL A   1      48.363  25.859  34.308  1.00  0.00     0.022 A 
BRANCH  89  93
ATOM     93  S   UNL A   1      49.999  27.317  32.630  1.00  0.00     0.124 S 
ATOM     94  O   UNL A   1      50.202  26.235  31.671  1.00  0.00    -0.237 OA
ATOM     95  O   UNL A   1      49.729  28.627  32.045  1.00  0.00    -0.237 OA
ATOM     96  O   UNL A   1      50.911  27.315  33.771  1.00  0.00    -0.744 OA
ENDBRANCH  89  93
ENDBRANCH  63  86
ENDBRANCH  37  38
ENDBRANCH  29  32
ENDBRANCH  27  28
ENDBRANCH  26  27
ENDBRANCH   1  26
TORSDOF 18
ENDMDL
MODEL 2
REMARK VINA RESULT:     -11.8      1.971      7.533
REMARK SMILES C=Cc1cc(Cl)cc2c1O[C@H](C(F)(F)F)C(C(=O)NCCCCCCNC(=O)c1ccc(-c3c4nc(c(-c5cc(S(=O)(=O)[O-])ccc5F)c5ccc([nH]5)c(-c5cc(S(=O)(=O)[O-])ccc5F)c5nc(c(-c6cc(S(=O)(=O)[O-])ccc6F)c6ccc3[nH]6)C=C5)C=C4)cc1)=C2
REMARK SMILES IDX 23 1 22 2 21 3 20 4 19 5 17 6 18 7 16 9 3 10 4 11 9 12 5 13
REMARK SMILES IDX 8 14 10 15 6 16 7 17 92 18 11 19 2 20 1 21 12 22 13 23 14 24
REMARK SMILES IDX 15 25 24 26 25 27 26 28 27 29 28 31 29 32 30 33 91 34 31 35
REMARK SMILES IDX 90 36 32 37 33 38 34 39 84 40 35 41 89 42 83 43 85 44 36 45
REMARK SMILES IDX 88 46 82 47 81 48 37 50 69 51 49 52 68 53 50 54 53 55 67 56
REMARK SMILES IDX 86 57 51 58 52 59 66 61 87 62 54 63 38 64 39 65 47 66 40 67
REMARK SMILES IDX 46 68 48 69 45 70 41 71 42 72 43 73 44 74 70 75 71 76 79 77
REMARK SMILES IDX 72 78 78 79 80 80 77 81 73 82 74 83 75 84 76 85 55 86 56 87
REMARK SMILES IDX 64 88 57 89 63 90 65 91 62 92 58 93 59 94 60 95 61 96
REMARK H PARENT 19 8 26 30 85 49 53 60
REMARK Flexibility Score: inf
ROOT
ATOM      1  C   UNL A   1      31.409  27.354  26.466  1.00  0.00     0.002 C 
ENDROOT
BRANCH   1   2
ATOM      2  C   UNL A   1      31.411  28.077  25.112  1.00  0.00     0.002 C 
BRANCH   2   3
ATOM      3  C   UNL A   1      30.402  27.562  24.080  1.00  0.00     0.021 C 
BRANCH   3   4
ATOM      4  C   UNL A   1      30.661  26.137  23.603  1.00  0.00     0.116 C 
BRANCH   4   5
ATOM      5  N   UNL A   1      31.547  26.103  22.451  1.00  0.00    -0.352 N 
ATOM      6  C   UNL A   1      32.610  25.378  22.035  1.00  0.00     0.251 C 
ATOM      7  O   UNL A   1      33.053  25.690  20.924  1.00  0.00    -0.270 OA
ATOM      8  H   UNL A   1      31.307  26.796  21.794  1.00  0.00     0.163 HD
BRANCH   6   9
ATOM      9  C   UNL A   1      33.263  24.270  22.798  1.00  0.00     0.067 C 
ATOM     10  C   UNL A   1      35.049  20.952  24.701  1.00  0.00     0.018 A 
ATOM     11  C   UNL A   1      34.319  19.762  24.818  1.00  0.00     0.032 A 
ATOM     12  C   UNL A   1      34.460  22.048  24.046  1.00  0.00     0.135 A 
ATOM     13  C   UNL A   1      33.041  19.669  24.266  1.00  0.00     0.042 A 
ATOM     14  C   UNL A   1      33.183  21.950  23.483  1.00  0.00     0.019 A 
ATOM     15  O   UNL A   1      35.208  23.185  23.924  1.00  0.00    -0.475 OA
ATOM     16  Cl  UNL A   1      32.158  18.199  24.408  1.00  0.00    -0.084 Cl
ATOM     17  C   UNL A   1      32.472  20.752  23.596  1.00  0.00     0.032 A 
ATOM     18  C   UNL A   1      32.632  23.082  22.748  1.00  0.00     0.025 C 
ATOM     19  C   UNL A   1      34.512  24.421  23.620  1.00  0.00     0.314 C 
BRANCH  10  20
ATOM     20  C   UNL A   1      36.387  21.075  25.297  1.00  0.00     0.004 C 
ATOM     21  C   UNL A   1      37.412  20.267  25.002  1.00  0.00     0.009 C 
ENDBRANCH  10  20
BRANCH  19  22
ATOM     22  C   UNL A   1      34.272  25.197  24.927  1.00  0.00     0.429 C 
ATOM     23  F   UNL A   1      34.208  26.529  24.689  1.00  0.00    -0.167 F 
ATOM     24  F   UNL A   1      33.106  24.857  25.524  1.00  0.00    -0.167 F 
ATOM     25  F   UNL A   1      35.254  24.991  25.834  1.00  0.00    -0.167 F 
ENDBRANCH  19  22
ENDBRANCH   6   9
ENDBRANCH   4   5
ENDBRANCH   3   4
ENDBRANCH   2   3
ENDBRANCH   1   2
BRANCH   1  26
ATOM     26  C   UNL A   1      32.193  28.036  27.589  1.00  0.00     0.021 C 
BRANCH  26  27
ATOM     27  C   UNL A   1      33.527  28.644  27.172  1.00  0.00     0.116 C 
BRANCH  27  28
ATOM     28  N   UNL A   1      33.586  30.077  27.403  1.00  0.00    -0.352 N 
ATOM     29  C   UNL A   1      34.596  30.822  27.965  1.00  0.00     0.251 C 
ATOM     30  H   UNL A   1      32.792  30.585  27.119  1.00  0.00     0.163 HD
ATOM     31  O   UNL A   1      34.413  32.009  28.222  1.00  0.00    -0.269 OA
BRANCH  29  32
ATOM     32  C   UNL A   1      35.887  30.175  28.292  1.00  0.00     0.039 A 
ATOM     33  C   UNL A   1      36.087  29.577  29.538  1.00  0.00     0.014 A 
ATOM     34  C   UNL A   1      36.918  30.194  27.348  1.00  0.00     0.014 A 
ATOM     35  C   UNL A   1      37.358  29.144  29.899  1.00  0.00     0.010 A 
ATOM     36  C   UNL A   1      38.176  29.685  27.687  1.00  0.00     0.010 A 
ATOM     37  C   UNL A   1      38.420  29.199  28.980  1.00  0.00    -0.014 A 
BRANCH  37  38
ATOM     38  C   UNL A   1      39.771  28.732  29.392  1.00  0.00     0.031 A 
ATOM     39  C   UNL A   1      40.409  27.536  28.739  1.00  0.00     0.074 A 
ATOM     40  C   UNL A   1      40.441  29.425  30.334  1.00  0.00     0.049 A 
ATOM     41  N   UNL A   1      41.586  27.010  28.963  1.00  0.00    -0.248 NA
ATOM     42  C   UNL A   1      39.629  26.837  27.705  1.00  0.00     0.031 C 
ATOM     43  C   UNL A   1      39.918  30.596  31.037  1.00  0.00     0.029 A 
ATOM     44  N   UNL A   1      41.703  29.261  30.852  1.00  0.00    -0.354 N 
ATOM     45  C   UNL A   1      41.684  25.916  28.111  1.00  0.00     0.074 A 
ATOM     46  C   UNL A   1      40.435  25.832  27.387  1.00  0.00     0.031 C 
ATOM     47  C   UNL A   1      40.861  31.070  31.862  1.00  0.00     0.029 A 
ATOM     48  C   UNL A   1      42.034  30.201  31.800  1.00  0.00     0.049 A 
ATOM     49  H   UNL A   1      42.311  28.540  30.571  1.00  0.00     0.167 HD
ATOM     50  C   UNL A   1      42.729  25.071  27.939  1.00  0.00     0.034 A 
ATOM     51  C   UNL A   1      43.146  30.343  32.551  1.00  0.00     0.034 A 
ATOM     52  C   UNL A   1      43.977  25.178  28.654  1.00  0.00     0.049 A 
ATOM     53  C   UNL A   1      44.290  29.386  32.346  1.00  0.00     0.074 A 
ATOM     54  C   UNL A   1      45.100  24.378  28.531  1.00  0.00     0.029 A 
ATOM     55  N   UNL A   1      44.273  26.139  29.609  1.00  0.00    -0.354 N 
ATOM     56  N   UNL A   1      44.381  28.384  31.503  1.00  0.00    -0.248 NA
ATOM     57  C   UNL A   1      45.483  29.574  33.181  1.00  0.00     0.031 C 
ATOM     58  C   UNL A   1      46.054  24.822  29.448  1.00  0.00     0.029 A 
ATOM     59  C   UNL A   1      45.553  25.940  30.097  1.00  0.00     0.049 A 
ATOM     60  H   UNL A   1      43.663  26.855  29.898  1.00  0.00     0.167 HD
ATOM     61  C   UNL A   1      45.642  27.830  31.699  1.00  0.00     0.074 A 
ATOM     62  C   UNL A   1      46.292  28.630  32.716  1.00  0.00     0.031 C 
ATOM     63  C   UNL A   1      46.203  26.750  31.099  1.00  0.00     0.034 A 
BRANCH  50  64
ATOM     64  C   UNL A   1      42.606  23.958  26.929  1.00  0.00     0.023 A 
ATOM     65  C   UNL A   1      42.043  22.724  27.304  1.00  0.00     0.031 A 
ATOM     66  C   UNL A   1      43.182  24.067  25.651  1.00  0.00     0.131 A 
ATOM     67  C   UNL A   1      42.106  21.635  26.426  1.00  0.00     0.055 A 
ATOM     68  C   UNL A   1      43.210  22.989  24.765  1.00  0.00     0.041 A 
ATOM     69  F   UNL A   1      43.731  25.224  25.246  1.00  0.00    -0.206 F 
ATOM     70  C   UNL A   1      42.682  21.761  25.158  1.00  0.00     0.022 A 
BRANCH  67  71
ATOM     71  S   UNL A   1      41.503  19.996  26.918  1.00  0.00     0.124 S 
ATOM     72  O   UNL A   1      40.780  20.299  28.151  1.00  0.00    -0.237 OA
ATOM     73  O   UNL A   1      40.667  19.625  25.780  1.00  0.00    -0.237 OA
ATOM     74  O   UNL A   1      42.721  19.212  27.092  1.00  0.00    -0.744 OA
ENDBRANCH  67  71
ENDBRANCH  50  64
BRANCH  51  75
ATOM     75  C   UNL A   1      43.215  31.466  33.531  1.00  0.00     0.023 A 
ATOM     76  C   UNL A   1      42.819  31.275  34.869  1.00  0.00     0.031 A 
ATOM     77  C   UNL A   1      43.557  32.765  33.125  1.00  0.00     0.131 A 
ATOM     78  C   UNL A   1      42.698  32.376  35.726  1.00  0.00     0.055 A 
ATOM     79  C   UNL A   1      43.508  33.850  34.004  1.00  0.00     0.041 A 
ATOM     80  F   UNL A   1      43.926  33.002  31.856  1.00  0.00    -0.206 F 
ATOM     81  C   UNL A   1      43.057  33.660  35.306  1.00  0.00     0.022 A 
BRANCH  78  82
ATOM     82  S   UNL A   1      41.917  32.199  37.355  1.00  0.00     0.124 S 
ATOM     83  O   UNL A   1      40.510  32.424  37.042  1.00  0.00    -0.237 OA
ATOM     84  O   UNL A   1      42.274  30.828  37.713  1.00  0.00    -0.237 OA
ATOM     85  O   UNL A   1      42.561  33.234  38.158  1.00  0.00    -0.744 OA
ENDBRANCH  78  82
ENDBRANCH  51  75
BRANCH  63  86
ATOM     86  C   UNL A   1      47.595  26.338  31.510  1.00  0.00     0.023 A 
ATOM     87  C   UNL A   1      47.777  25.454  32.591  1.00  0.00     0.031 A 
ATOM     88  C   UNL A   1      48.730  26.940  30.942  1.00  0.00     0.131 A 
ATOM     89  C   UNL A   1      49.063  25.231  33.098  1.00  0.00     0.055 A 
ATOM     90  C   UNL A   1      50.015  26.680  31.423  1.00  0.00     0.041 A 
ATOM     91  F   UNL A   1      48.606  27.797  29.917  1.00  0.00    -0.206 F 
ATOM     92  C   UNL A   1      50.183  25.835  32.516  1.00  0.00     0.022 A 
BRANCH  89  93
ATOM     93  S   UNL A   1      49.323  24.225  34.586  1.00  0.00     0.124 S 
ATOM     94  O   UNL A   1      50.527  23.476  34.237  1.00  0.00    -0.237 OA
ATOM     95  O   UNL A   1      49.499  25.242  35.619  1.00  0.00    -0.237 OA
ATOM     96  O   UNL A   1      48.104  23.429  34.690  1.00  0.00    -0.744 OA
ENDBRANCH  89  93
ENDBRANCH  63  86
ENDBRANCH  37  38
ENDBRANCH  29  32
ENDBRANCH  27  28
ENDBRANCH  26  27
ENDBRANCH   1  26
TORSDOF 18
ENDMDL
MODEL 3
REMARK VINA RESULT:     -11.6      1.512      1.920
REMARK SMILES C=Cc1cc(Cl)cc2c1O[C@H](C(F)(F)F)C(C(=O)NCCCCCCNC(=O)c1ccc(-c3c4nc(c(-c5cc(S(=O)(=O)[O-])ccc5F)c5ccc([nH]5)c(-c5cc(S(=O)(=O)[O-])ccc5F)c5nc(c(-c6cc(S(=O)(=O)[O-])ccc6F)c6ccc3[nH]6)C=C5)C=C4)cc1)=C2
REMARK SMILES IDX 23 1 22 2 21 3 20 4 19 5 17 6 18 7 16 9 3 10 4 11 9 12 5 13
REMARK SMILES IDX 8 14 10 15 6 16 7 17 92 18 11 19 2 20 1 21 12 22 13 23 14 24
REMARK SMILES IDX 15 25 24 26 25 27 26 28 27 29 28 31 29 32 30 33 91 34 31 35
REMARK SMILES IDX 90 36 32 37 33 38 34 39 84 40 35 41 89 42 83 43 85 44 36 45
REMARK SMILES IDX 88 46 82 47 81 48 37 50 69 51 49 52 68 53 50 54 53 55 67 56
REMARK SMILES IDX 86 57 51 58 52 59 66 61 87 62 54 63 38 64 39 65 47 66 40 67
REMARK SMILES IDX 46 68 48 69 45 70 41 71 42 72 43 73 44 74 70 75 71 76 79 77
REMARK SMILES IDX 72 78 78 79 80 80 77 81 73 82 74 83 75 84 76 85 55 86 56 87
REMARK SMILES IDX 64 88 57 89 63 90 65 91 62 92 58 93 59 94 60 95 61 96
REMARK H PARENT 19 8 26 30 85 49 53 60
REMARK Flexibility Score: inf
ROOT
ATOM      1  C   UNL A   1      31.386  27.714  25.878  1.00  0.00     0.002 C 
ENDROOT
BRANCH   1   2
ATOM      2  C   UNL A   1      31.229  28.402  24.515  1.00  0.00     0.002 C 
BRANCH   2   3
ATOM      3  C   UNL A   1      30.362  27.662  23.491  1.00  0.00     0.021 C 
BRANCH   3   4
ATOM      4  C   UNL A   1      30.756  26.205  23.266  1.00  0.00     0.116 C 
BRANCH   4   5
ATOM      5  N   UNL A   1      31.636  26.052  22.119  1.00  0.00    -0.352 N 
ATOM      6  C   UNL A   1      32.675  25.263  21.761  1.00  0.00     0.251 C 
ATOM      7  O   UNL A   1      33.123  25.472  20.628  1.00  0.00    -0.270 OA
ATOM      8  H   UNL A   1      31.415  26.698  21.410  1.00  0.00     0.163 HD
BRANCH   6   9
ATOM      9  C   UNL A   1      33.296  24.200  22.609  1.00  0.00     0.067 C 
ATOM     10  C   UNL A   1      35.006  20.995  24.758  1.00  0.00     0.018 A 
ATOM     11  C   UNL A   1      34.279  19.806  24.899  1.00  0.00     0.032 A 
ATOM     12  C   UNL A   1      34.444  22.052  24.022  1.00  0.00     0.135 A 
ATOM     13  C   UNL A   1      33.031  19.676  24.290  1.00  0.00     0.042 A 
ATOM     14  C   UNL A   1      33.197  21.915  23.403  1.00  0.00     0.019 A 
ATOM     15  O   UNL A   1      35.191  23.188  23.880  1.00  0.00    -0.475 OA
ATOM     16  Cl  UNL A   1      32.150  18.206  24.462  1.00  0.00    -0.084 Cl
ATOM     17  C   UNL A   1      32.488  20.719  23.541  1.00  0.00     0.032 A 
ATOM     18  C   UNL A   1      32.675  23.006  22.587  1.00  0.00     0.025 C 
ATOM     19  C   UNL A   1      34.502  24.402  23.482  1.00  0.00     0.314 C 
BRANCH  10  20
ATOM     20  C   UNL A   1      36.313  21.158  25.412  1.00  0.00     0.004 C 
ATOM     21  C   UNL A   1      37.476  20.797  24.856  1.00  0.00     0.009 C 
ENDBRANCH  10  20
BRANCH  19  22
ATOM     22  C   UNL A   1      34.194  25.239  24.735  1.00  0.00     0.429 C 
ATOM     23  F   UNL A   1      35.163  25.079  25.669  1.00  0.00    -0.167 F 
ATOM     24  F   UNL A   1      34.133  26.565  24.470  1.00  0.00    -0.167 F 
ATOM     25  F   UNL A   1      33.017  24.896  25.306  1.00  0.00    -0.167 F 
ENDBRANCH  19  22
ENDBRANCH   6   9
ENDBRANCH   4   5
ENDBRANCH   3   4
ENDBRANCH   2   3
ENDBRANCH   1   2
BRANCH   1  26
ATOM     26  C   UNL A   1      32.389  28.357  26.839  1.00  0.00     0.021 C 
BRANCH  26  27
ATOM     27  C   UNL A   1      33.346  29.357  26.203  1.00  0.00     0.116 C 
BRANCH  27  28
ATOM     28  N   UNL A   1      32.905  30.732  26.359  1.00  0.00    -0.352 N 
ATOM     29  C   UNL A   1      33.395  31.711  27.192  1.00  0.00     0.251 C 
ATOM     30  H   UNL A   1      32.148  31.001  25.789  1.00  0.00     0.163 HD
ATOM     31  O   UNL A   1      32.799  32.778  27.302  1.00  0.00    -0.269 OA
BRANCH  29  32
ATOM     32  C   UNL A   1      34.620  31.451  27.981  1.00  0.00     0.039 A 
ATOM     33  C   UNL A   1      35.679  32.362  27.972  1.00  0.00     0.014 A 
ATOM     34  C   UNL A   1      34.720  30.266  28.716  1.00  0.00     0.014 A 
ATOM     35  C   UNL A   1      36.891  32.017  28.560  1.00  0.00     0.010 A 
ATOM     36  C   UNL A   1      35.915  29.957  29.375  1.00  0.00     0.010 A 
ATOM     37  C   UNL A   1      37.026  30.808  29.264  1.00  0.00    -0.014 A 
BRANCH  37  38
ATOM     38  C   UNL A   1      38.333  30.461  29.882  1.00  0.00     0.031 A 
ATOM     39  C   UNL A   1      38.692  30.953  31.258  1.00  0.00     0.074 A 
ATOM     40  C   UNL A   1      39.181  29.659  29.210  1.00  0.00     0.049 A 
ATOM     41  N   UNL A   1      39.779  30.726  31.952  1.00  0.00    -0.248 NA
ATOM     42  C   UNL A   1      37.713  31.809  31.946  1.00  0.00     0.031 C 
ATOM     43  C   UNL A   1      38.939  29.129  27.868  1.00  0.00     0.029 A 
ATOM     44  N   UNL A   1      40.403  29.137  29.558  1.00  0.00    -0.354 N 
ATOM     45  C   UNL A   1      39.620  31.418  33.147  1.00  0.00     0.074 A 
ATOM     46  C   UNL A   1      38.347  32.100  33.074  1.00  0.00     0.031 C 
ATOM     47  C   UNL A   1      39.954  28.326  27.522  1.00  0.00     0.029 A 
ATOM     48  C   UNL A   1      40.955  28.334  28.587  1.00  0.00     0.049 A 
ATOM     49  H   UNL A   1      40.841  29.321  30.420  1.00  0.00     0.167 HD
ATOM     50  C   UNL A   1      40.456  31.465  34.213  1.00  0.00     0.034 A 
ATOM     51  C   UNL A   1      42.139  27.689  28.544  1.00  0.00     0.034 A 
ATOM     52  C   UNL A   1      41.713  30.765  34.282  1.00  0.00     0.049 A 
ATOM     53  C   UNL A   1      43.053  27.764  29.738  1.00  0.00     0.074 A 
ATOM     54  C   UNL A   1      42.618  30.736  35.329  1.00  0.00     0.029 A 
ATOM     55  N   UNL A   1      42.241  29.966  33.277  1.00  0.00    -0.354 N 
ATOM     56  N   UNL A   1      42.865  28.387  30.878  1.00  0.00    -0.248 NA
ATOM     57  C   UNL A   1      44.333  27.047  29.654  1.00  0.00     0.031 C 
ATOM     58  C   UNL A   1      43.714  29.966  34.940  1.00  0.00     0.029 A 
ATOM     59  C   UNL A   1      43.466  29.457  33.674  1.00  0.00     0.049 A 
ATOM     60  H   UNL A   1      41.809  29.788  32.411  1.00  0.00     0.167 HD
ATOM     61  C   UNL A   1      43.996  28.131  31.647  1.00  0.00     0.074 A 
ATOM     62  C   UNL A   1      44.847  27.266  30.857  1.00  0.00     0.031 C 
ATOM     63  C   UNL A   1      44.303  28.582  32.889  1.00  0.00     0.034 A 
BRANCH  50  64
ATOM     64  C   UNL A   1      40.052  32.277  35.419  1.00  0.00     0.023 A 
ATOM     65  C   UNL A   1      39.178  31.729  36.377  1.00  0.00     0.031 A 
ATOM     66  C   UNL A   1      40.406  33.633  35.536  1.00  0.00     0.131 A 
ATOM     67  C   UNL A   1      38.654  32.546  37.387  1.00  0.00     0.055 A 
ATOM     68  C   UNL A   1      39.910  34.433  36.567  1.00  0.00     0.041 A 
ATOM     69  F   UNL A   1      41.237  34.200  34.647  1.00  0.00    -0.206 F 
ATOM     70  C   UNL A   1      39.019  33.892  37.490  1.00  0.00     0.022 A 
BRANCH  67  71
ATOM     71  S   UNL A   1      37.432  31.911  38.568  1.00  0.00     0.124 S 
ATOM     72  O   UNL A   1      37.193  30.562  38.057  1.00  0.00    -0.237 OA
ATOM     73  O   UNL A   1      38.162  31.981  39.829  1.00  0.00    -0.237 OA
ATOM     74  O   UNL A   1      36.307  32.830  38.435  1.00  0.00    -0.744 OA
ENDBRANCH  67  71
ENDBRANCH  50  64
BRANCH  51  75
ATOM     75  C   UNL A   1      42.484  26.896  27.328  1.00  0.00     0.023 A 
ATOM     76  C   UNL A   1      42.299  25.501  27.305  1.00  0.00     0.031 A 
ATOM     77  C   UNL A   1      43.112  27.496  26.224  1.00  0.00     0.131 A 
ATOM     78  C   UNL A   1      42.809  24.746  26.241  1.00  0.00     0.055 A 
ATOM     79  C   UNL A   1      43.551  26.748  25.129  1.00  0.00     0.041 A 
ATOM     80  F   UNL A   1      43.324  28.821  26.204  1.00  0.00    -0.206 F 
ATOM     81  C   UNL A   1      43.418  25.363  25.145  1.00  0.00     0.022 A 
BRANCH  78  82
ATOM     82  S   UNL A   1      42.843  22.933  26.325  1.00  0.00     0.124 S 
ATOM     83  O   UNL A   1      42.673  22.562  24.925  1.00  0.00    -0.237 OA
ATOM     84  O   UNL A   1      44.168  22.684  26.890  1.00  0.00    -0.237 OA
ATOM     85  O   UNL A   1      41.726  22.609  27.207  1.00  0.00    -0.744 OA
ENDBRANCH  78  82
ENDBRANCH  51  75
BRANCH  63  86
ATOM     86  C   UNL A   1      45.618  28.168  33.503  1.00  0.00     0.023 A 
ATOM     87  C   UNL A   1      45.683  27.027  34.327  1.00  0.00     0.031 A 
ATOM     88  C   UNL A   1      46.756  28.986  33.406  1.00  0.00     0.131 A 
ATOM     89  C   UNL A   1      46.849  26.760  35.054  1.00  0.00     0.055 A 
ATOM     90  C   UNL A   1      47.931  28.690  34.100  1.00  0.00     0.041 A 
ATOM     91  F   UNL A   1      46.739  30.090  32.642  1.00  0.00    -0.206 F 
ATOM     92  C   UNL A   1      47.975  27.582  34.940  1.00  0.00     0.022 A 
BRANCH  89  93
ATOM     93  S   UNL A   1      46.919  25.392  36.244  1.00  0.00     0.124 S 
ATOM     94  O   UNL A   1      47.935  25.860  37.183  1.00  0.00    -0.237 OA
ATOM     95  O   UNL A   1      45.554  25.365  36.764  1.00  0.00    -0.237 OA
ATOM     96  O   UNL A   1      47.303  24.240  35.434  1.00  0.00    -0.744 OA
ENDBRANCH  89  93
ENDBRANCH  63  86
ENDBRANCH  37  38
ENDBRANCH  29  32
ENDBRANCH  27  28
ENDBRANCH  26  27
ENDBRANCH   1  26
TORSDOF 18
ENDMDL
