MODEL 1
REMARK VINA RESULT:     -11.8      0.000      0.000
REMARK SMILES CNC(=O)NC1=[NH+]N=CN[C@@H]1C(=O)NCCCCCCNC(=O)c1ccc(-c2c3nc(c(-c4cc(S(=O)(=O)[O-])ccc4F)c4ccc([nH]4)c(-c4cc(S(=O)(=O)[O-])ccc4F)c4nc(c(-c5cc(S(=O)(=O)[O-])ccc5F)c5ccc2[nH]5)C=C4)C=C3)cc1
REMARK SMILES IDX 19 1 18 2 17 3 16 4 15 5 14 6 12 7 13 8 11 10 1 11 2 12 3 13
REMARK SMILES IDX 4 15 5 16 6 17 7 19 8 20 10 22 9 23 20 25 21 26 22 27 23 29
REMARK SMILES IDX 24 30 25 31 86 32 26 33 85 34 27 35 28 36 29 37 79 38 30 39
REMARK SMILES IDX 84 40 78 41 80 42 31 43 83 44 77 45 76 46 32 48 64 49 44 50
REMARK SMILES IDX 63 51 45 52 48 53 62 54 81 55 46 56 47 57 61 59 82 60 49 61
REMARK SMILES IDX 33 62 34 63 42 64 35 65 41 66 43 67 40 68 36 69 37 70 38 71
REMARK SMILES IDX 39 72 65 73 66 74 74 75 67 76 73 77 75 78 72 79 68 80 69 81
REMARK SMILES IDX 70 82 71 83 50 84 51 85 59 86 52 87 58 88 60 89 57 90 53 91
REMARK SMILES IDX 54 92 55 93 56 94
REMARK H PARENT 14 9 2 14 5 18 7 21 10 24 21 28 80 47 48 58
REMARK Flexibility Score: inf
ROOT
ATOM      1  C   UNL A   1      31.556  31.893  26.622  1.00  0.00     0.021 C 
ENDROOT
BRANCH   1   2
ATOM      2  C   UNL A   1      31.777  30.473  26.097  1.00  0.00     0.002 C 
BRANCH   2   3
ATOM      3  C   UNL A   1      32.290  29.477  27.143  1.00  0.00     0.002 C 
BRANCH   3   4
ATOM      4  C   UNL A   1      31.399  28.244  27.337  1.00  0.00     0.021 C 
BRANCH   4   5
ATOM      5  C   UNL A   1      31.982  26.975  26.721  1.00  0.00     0.116 C 
BRANCH   5   6
ATOM      6  N   UNL A   1      30.985  26.283  25.929  1.00  0.00    -0.354 N 
ATOM      7  C   UNL A   1      31.016  25.925  24.614  1.00  0.00     0.255 C 
ATOM      8  O   UNL A   1      29.966  25.494  24.121  1.00  0.00    -0.272 OA
ATOM      9  H   UNL A   1      30.164  26.034  26.412  1.00  0.00     0.163 HD
BRANCH   7  10
ATOM     10  C   UNL A   1      32.278  26.072  23.751  1.00  0.00     0.287 C 
ATOM     11  C   UNL A   1      33.504  28.944  22.585  1.00  0.00     0.147 C 
ATOM     12  N   UNL A   1      32.084  29.151  22.798  1.00  0.00    -0.321 N 
ATOM     13  C   UNL A   1      31.033  28.457  22.286  1.00  0.00     0.406 C 
ATOM     14  H   UNL A   1      31.850  29.898  23.396  1.00  0.00     0.167 HD
ATOM     15  O   UNL A   1      29.913  28.956  22.272  1.00  0.00    -0.221 OA
ATOM     16  N   UNL A   1      31.278  27.228  21.748  1.00  0.00    -0.191 N 
ATOM     17  C   UNL A   1      31.983  26.164  22.255  1.00  0.00     0.309 C 
ATOM     18  H   UNL A   1      30.890  27.081  20.855  1.00  0.00     0.317 HD
ATOM     19  N   UNL A   1      32.382  25.303  21.369  1.00  0.00    -0.148 N 
ATOM     20  N   UNL A   1      33.257  24.273  21.758  1.00  0.00    -0.077 NA
ATOM     21  H   UNL A   1      32.074  25.370  20.436  1.00  0.00     0.342 HD
ATOM     22  N   UNL A   1      33.229  25.004  24.015  1.00  0.00    -0.352 N 
ATOM     23  C   UNL A   1      33.629  24.207  22.993  1.00  0.00     0.241 C 
ATOM     24  H   UNL A   1      33.579  24.863  24.924  1.00  0.00     0.163 HD
ENDBRANCH   7  10
ENDBRANCH   5   6
ENDBRANCH   4   5
ENDBRANCH   3   4
ENDBRANCH   2   3
ENDBRANCH   1   2
BRANCH   1  25
ATOM     25  C   UNL A   1      32.786  32.514  27.275  1.00  0.00     0.116 C 
BRANCH  25  26
ATOM     26  N   UNL A   1      32.572  33.917  27.587  1.00  0.00    -0.352 N 
ATOM     27  C   UNL A   1      33.097  34.663  28.612  1.00  0.00     0.251 C 
ATOM     28  H   UNL A   1      31.965  34.398  26.980  1.00  0.00     0.163 HD
ATOM     29  O   UNL A   1      32.611  35.754  28.885  1.00  0.00    -0.269 OA
BRANCH  27  30
ATOM     30  C   UNL A   1      34.239  34.130  29.383  1.00  0.00     0.039 A 
ATOM     31  C   UNL A   1      33.991  33.304  30.480  1.00  0.00     0.014 A 
ATOM     32  C   UNL A   1      35.551  34.450  29.020  1.00  0.00     0.014 A 
ATOM     33  C   UNL A   1      35.065  32.757  31.185  1.00  0.00     0.010 A 
ATOM     34  C   UNL A   1      36.617  33.842  29.674  1.00  0.00     0.010 A 
ATOM     35  C   UNL A   1      36.385  32.996  30.769  1.00  0.00    -0.014 A 
BRANCH  35  36
ATOM     36  C   UNL A   1      37.536  32.379  31.477  1.00  0.00     0.031 A 
ATOM     37  C   UNL A   1      38.296  31.250  30.836  1.00  0.00     0.074 A 
ATOM     38  C   UNL A   1      37.861  32.802  32.715  1.00  0.00     0.049 A 
ATOM     39  N   UNL A   1      39.285  30.540  31.315  1.00  0.00    -0.248 NA
ATOM     40  C   UNL A   1      37.866  30.847  29.488  1.00  0.00     0.031 C 
ATOM     41  C   UNL A   1      37.171  33.866  33.450  1.00  0.00     0.029 A 
ATOM     42  N   UNL A   1      38.846  32.391  33.575  1.00  0.00    -0.354 N 
ATOM     43  C   UNL A   1      39.590  29.603  30.334  1.00  0.00     0.074 A 
ATOM     44  C   UNL A   1      38.634  29.793  29.263  1.00  0.00     0.031 C 
ATOM     45  C   UNL A   1      37.774  34.040  34.637  1.00  0.00     0.029 A 
ATOM     46  C   UNL A   1      38.856  33.071  34.772  1.00  0.00     0.049 A 
ATOM     47  H   UNL A   1      39.486  31.676  33.357  1.00  0.00     0.167 HD
ATOM     48  C   UNL A   1      40.588  28.686  30.318  1.00  0.00     0.034 A 
ATOM     49  C   UNL A   1      39.638  32.920  35.859  1.00  0.00     0.034 A 
ATOM     50  C   UNL A   1      41.535  28.518  31.395  1.00  0.00     0.049 A 
ATOM     51  C   UNL A   1      40.717  31.866  35.834  1.00  0.00     0.074 A 
ATOM     52  C   UNL A   1      42.615  27.657  31.464  1.00  0.00     0.029 A 
ATOM     53  N   UNL A   1      41.507  29.216  32.596  1.00  0.00    -0.354 N 
ATOM     54  N   UNL A   1      41.026  31.022  34.876  1.00  0.00    -0.248 NA
ATOM     55  C   UNL A   1      41.558  31.753  37.031  1.00  0.00     0.031 C 
ATOM     56  C   UNL A   1      43.191  27.778  32.734  1.00  0.00     0.029 A 
ATOM     57  C   UNL A   1      42.528  28.778  33.426  1.00  0.00     0.049 A 
ATOM     58  H   UNL A   1      40.856  29.919  32.825  1.00  0.00     0.167 HD
ATOM     59  C   UNL A   1      42.121  30.300  35.346  1.00  0.00     0.074 A 
ATOM     60  C   UNL A   1      42.425  30.821  36.663  1.00  0.00     0.031 C 
ATOM     61  C   UNL A   1      42.813  29.299  34.743  1.00  0.00     0.034 A 
BRANCH  48  62
ATOM     62  C   UNL A   1      40.686  27.782  29.111  1.00  0.00     0.023 A 
ATOM     63  C   UNL A   1      41.614  28.018  28.082  1.00  0.00     0.031 A 
ATOM     64  C   UNL A   1      39.822  26.680  28.975  1.00  0.00     0.131 A 
ATOM     65  C   UNL A   1      41.605  27.216  26.931  1.00  0.00     0.055 A 
ATOM     66  C   UNL A   1      39.878  25.833  27.866  1.00  0.00     0.041 A 
ATOM     67  F   UNL A   1      38.898  26.416  29.912  1.00  0.00    -0.206 F 
ATOM     68  C   UNL A   1      40.763  26.107  26.828  1.00  0.00     0.022 A 
BRANCH  65  69
ATOM     69  S   UNL A   1      42.604  27.734  25.508  1.00  0.00     0.124 S 
ATOM     70  O   UNL A   1      43.900  27.985  26.133  1.00  0.00    -0.237 OA
ATOM     71  O   UNL A   1      42.531  26.572  24.630  1.00  0.00    -0.237 OA
ATOM     72  O   UNL A   1      41.914  28.928  25.022  1.00  0.00    -0.744 OA
ENDBRANCH  65  69
ENDBRANCH  48  62
BRANCH  49  73
ATOM     73  C   UNL A   1      39.429  33.770  37.066  1.00  0.00     0.023 A 
ATOM     74  C   UNL A   1      38.793  33.260  38.210  1.00  0.00     0.031 A 
ATOM     75  C   UNL A   1      39.818  35.122  37.079  1.00  0.00     0.131 A 
ATOM     76  C   UNL A   1      38.519  34.107  39.295  1.00  0.00     0.055 A 
ATOM     77  C   UNL A   1      39.598  35.944  38.185  1.00  0.00     0.041 A 
ATOM     78  F   UNL A   1      40.432  35.661  36.013  1.00  0.00    -0.206 F 
ATOM     79  C   UNL A   1      38.931  35.440  39.297  1.00  0.00     0.022 A 
BRANCH  76  80
ATOM     80  S   UNL A   1      37.525  33.461  40.668  1.00  0.00     0.124 S 
ATOM     81  O   UNL A   1      36.405  32.849  39.962  1.00  0.00    -0.237 OA
ATOM     82  O   UNL A   1      38.457  32.542  41.312  1.00  0.00    -0.237 OA
ATOM     83  O   UNL A   1      37.196  34.657  41.442  1.00  0.00    -0.744 OA
ENDBRANCH  76  80
ENDBRANCH  49  73
BRANCH  61  84
ATOM     84  C   UNL A   1      44.001  28.739  35.489  1.00  0.00     0.023 A 
ATOM     85  C   UNL A   1      43.880  27.644  36.363  1.00  0.00     0.031 A 
ATOM     86  C   UNL A   1      45.273  29.318  35.330  1.00  0.00     0.131 A 
ATOM     87  C   UNL A   1      44.996  27.202  37.088  1.00  0.00     0.055 A 
ATOM     88  C   UNL A   1      46.394  28.830  36.002  1.00  0.00     0.041 A 
ATOM     89  F   UNL A   1      45.447  30.370  34.512  1.00  0.00    -0.206 F 
ATOM     90  C   UNL A   1      46.256  27.775  36.899  1.00  0.00     0.022 A 
BRANCH  87  91
ATOM     91  S   UNL A   1      44.761  25.932  38.363  1.00  0.00     0.124 S 
ATOM     92  O   UNL A   1      43.780  25.052  37.736  1.00  0.00    -0.237 OA
ATOM     93  O   UNL A   1      46.107  25.385  38.509  1.00  0.00    -0.237 OA
ATOM     94  O   UNL A   1      44.272  26.687  39.514  1.00  0.00    -0.744 OA
ENDBRANCH  87  91
ENDBRANCH  61  84
ENDBRANCH  35  36
ENDBRANCH  27  30
ENDBRANCH  25  26
ENDBRANCH   1  25
TORSDOF 16
ENDMDL
MODEL 2
REMARK VINA RESULT:     -11.3      1.366      2.315
REMARK SMILES CNC(=O)NC1=[NH+]N=CN[C@@H]1C(=O)NCCCCCCNC(=O)c1ccc(-c2c3nc(c(-c4cc(S(=O)(=O)[O-])ccc4F)c4ccc([nH]4)c(-c4cc(S(=O)(=O)[O-])ccc4F)c4nc(c(-c5cc(S(=O)(=O)[O-])ccc5F)c5ccc2[nH]5)C=C4)C=C3)cc1
REMARK SMILES IDX 19 1 18 2 17 3 16 4 15 5 14 6 12 7 13 8 11 10 1 11 2 12 3 13
REMARK SMILES IDX 4 15 5 16 6 17 7 19 8 20 10 22 9 23 20 25 21 26 22 27 23 29
REMARK SMILES IDX 24 30 25 31 86 32 26 33 85 34 27 35 28 36 29 37 79 38 30 39
REMARK SMILES IDX 84 40 78 41 80 42 31 43 83 44 77 45 76 46 32 48 64 49 44 50
REMARK SMILES IDX 63 51 45 52 48 53 62 54 81 55 46 56 47 57 61 59 82 60 49 61
REMARK SMILES IDX 33 62 34 63 42 64 35 65 41 66 43 67 40 68 36 69 37 70 38 71
REMARK SMILES IDX 39 72 65 73 66 74 74 75 67 76 73 77 75 78 72 79 68 80 69 81
REMARK SMILES IDX 70 82 71 83 50 84 51 85 59 86 52 87 58 88 60 89 57 90 53 91
REMARK SMILES IDX 54 92 55 93 56 94
REMARK H PARENT 14 9 2 14 5 18 7 21 10 24 21 28 80 47 48 58
REMARK Flexibility Score: inf
ROOT
ATOM      1  C   UNL A   1      31.714  31.408  26.427  1.00  0.00     0.021 C 
ENDROOT
BRANCH   1   2
ATOM      2  C   UNL A   1      31.953  29.971  25.957  1.00  0.00     0.002 C 
BRANCH   2   3
ATOM      3  C   UNL A   1      31.835  28.910  27.057  1.00  0.00     0.002 C 
BRANCH   3   4
ATOM      4  C   UNL A   1      32.138  27.480  26.596  1.00  0.00     0.021 C 
BRANCH   4   5
ATOM      5  C   UNL A   1      30.954  26.803  25.908  1.00  0.00     0.116 C 
BRANCH   5   6
ATOM      6  N   UNL A   1      30.470  25.688  26.697  1.00  0.00    -0.354 N 
ATOM      7  C   UNL A   1      30.390  24.366  26.374  1.00  0.00     0.255 C 
ATOM      8  O   UNL A   1      29.777  23.629  27.156  1.00  0.00    -0.272 OA
ATOM      9  H   UNL A   1      30.153  25.919  27.599  1.00  0.00     0.163 HD
BRANCH   7  10
ATOM     10  C   UNL A   1      30.998  23.796  25.084  1.00  0.00     0.287 C 
ATOM     11  C   UNL A   1      32.358  20.771  24.756  1.00  0.00     0.147 C 
ATOM     12  N   UNL A   1      32.469  21.129  26.158  1.00  0.00    -0.321 N 
ATOM     13  C   UNL A   1      33.057  22.221  26.716  1.00  0.00     0.406 C 
ATOM     14  H   UNL A   1      32.062  20.494  26.791  1.00  0.00     0.167 HD
ATOM     15  O   UNL A   1      33.376  22.210  27.900  1.00  0.00    -0.221 OA
ATOM     16  N   UNL A   1      33.323  23.287  25.910  1.00  0.00    -0.191 N 
ATOM     17  C   UNL A   1      32.516  23.942  25.012  1.00  0.00     0.309 C 
ATOM     18  H   UNL A   1      34.239  23.644  25.982  1.00  0.00     0.317 HD
ATOM     19  N   UNL A   1      33.151  24.638  24.117  1.00  0.00    -0.148 N 
ATOM     20  N   UNL A   1      32.430  25.203  23.049  1.00  0.00    -0.077 NA
ATOM     21  H   UNL A   1      34.124  24.769  24.186  1.00  0.00     0.342 HD
ATOM     22  N   UNL A   1      30.376  24.374  23.903  1.00  0.00    -0.352 N 
ATOM     23  C   UNL A   1      31.152  25.022  22.997  1.00  0.00     0.241 C 
ATOM     24  H   UNL A   1      29.406  24.296  23.762  1.00  0.00     0.163 HD
ENDBRANCH   7  10
ENDBRANCH   5   6
ENDBRANCH   4   5
ENDBRANCH   3   4
ENDBRANCH   2   3
ENDBRANCH   1   2
BRANCH   1  25
ATOM     25  C   UNL A   1      32.827  31.968  27.306  1.00  0.00     0.116 C 
BRANCH  25  26
ATOM     26  N   UNL A   1      32.691  33.404  27.484  1.00  0.00    -0.352 N 
ATOM     27  C   UNL A   1      33.289  34.219  28.412  1.00  0.00     0.251 C 
ATOM     28  H   UNL A   1      32.087  33.854  26.851  1.00  0.00     0.163 HD
ATOM     29  O   UNL A   1      32.867  35.355  28.590  1.00  0.00    -0.269 OA
BRANCH  27  30
ATOM     30  C   UNL A   1      34.431  33.705  29.196  1.00  0.00     0.039 A 
ATOM     31  C   UNL A   1      34.204  32.735  30.173  1.00  0.00     0.014 A 
ATOM     32  C   UNL A   1      35.724  34.186  28.965  1.00  0.00     0.014 A 
ATOM     33  C   UNL A   1      35.284  32.210  30.884  1.00  0.00     0.010 A 
ATOM     34  C   UNL A   1      36.805  33.606  29.619  1.00  0.00     0.010 A 
ATOM     35  C   UNL A   1      36.595  32.617  30.592  1.00  0.00    -0.014 A 
BRANCH  35  36
ATOM     36  C   UNL A   1      37.759  32.030  31.304  1.00  0.00     0.031 A 
ATOM     37  C   UNL A   1      38.558  30.930  30.660  1.00  0.00     0.074 A 
ATOM     38  C   UNL A   1      38.060  32.453  32.548  1.00  0.00     0.049 A 
ATOM     39  N   UNL A   1      39.564  30.246  31.142  1.00  0.00    -0.248 NA
ATOM     40  C   UNL A   1      38.152  30.525  29.306  1.00  0.00     0.031 C 
ATOM     41  C   UNL A   1      37.333  33.489  33.286  1.00  0.00     0.029 A 
ATOM     42  N   UNL A   1      39.051  32.064  33.413  1.00  0.00    -0.354 N 
ATOM     43  C   UNL A   1      39.905  29.327  30.156  1.00  0.00     0.074 A 
ATOM     44  C   UNL A   1      38.953  29.497  29.079  1.00  0.00     0.031 C 
ATOM     45  C   UNL A   1      37.920  33.671  34.480  1.00  0.00     0.029 A 
ATOM     46  C   UNL A   1      39.030  32.734  34.616  1.00  0.00     0.049 A 
ATOM     47  H   UNL A   1      39.714  31.371  33.195  1.00  0.00     0.167 HD
ATOM     48  C   UNL A   1      40.931  28.441  30.141  1.00  0.00     0.034 A 
ATOM     49  C   UNL A   1      39.808  32.598  35.708  1.00  0.00     0.034 A 
ATOM     50  C   UNL A   1      41.873  28.292  31.225  1.00  0.00     0.049 A 
ATOM     51  C   UNL A   1      40.918  31.577  35.684  1.00  0.00     0.074 A 
ATOM     52  C   UNL A   1      42.979  27.464  31.297  1.00  0.00     0.029 A 
ATOM     53  N   UNL A   1      41.814  28.979  32.431  1.00  0.00    -0.354 N 
ATOM     54  N   UNL A   1      41.260  30.751  34.722  1.00  0.00    -0.248 NA
ATOM     55  C   UNL A   1      41.752  31.479  36.887  1.00  0.00     0.031 C 
ATOM     56  C   UNL A   1      43.540  27.591  32.572  1.00  0.00     0.029 A 
ATOM     57  C   UNL A   1      42.841  28.566  33.266  1.00  0.00     0.049 A 
ATOM     58  H   UNL A   1      41.141  29.660  32.661  1.00  0.00     0.167 HD
ATOM     59  C   UNL A   1      42.372  30.058  35.195  1.00  0.00     0.074 A 
ATOM     60  C   UNL A   1      42.650  30.577  36.518  1.00  0.00     0.031 C 
ATOM     61  C   UNL A   1      43.100  29.084  34.590  1.00  0.00     0.034 A 
BRANCH  48  62
ATOM     62  C   UNL A   1      41.066  27.550  28.928  1.00  0.00     0.023 A 
ATOM     63  C   UNL A   1      42.068  27.758  27.964  1.00  0.00     0.031 A 
ATOM     64  C   UNL A   1      40.165  26.491  28.719  1.00  0.00     0.131 A 
ATOM     65  C   UNL A   1      42.098  26.974  26.802  1.00  0.00     0.055 A 
ATOM     66  C   UNL A   1      40.254  25.657  27.602  1.00  0.00     0.041 A 
ATOM     67  F   UNL A   1      39.171  26.255  29.590  1.00  0.00    -0.206 F 
ATOM     68  C   UNL A   1      41.215  25.906  26.627  1.00  0.00     0.022 A 
BRANCH  65  69
ATOM     69  S   UNL A   1      43.207  27.466  25.454  1.00  0.00     0.124 S 
ATOM     70  O   UNL A   1      42.293  28.183  24.567  1.00  0.00    -0.237 OA
ATOM     71  O   UNL A   1      44.201  28.280  26.142  1.00  0.00    -0.237 OA
ATOM     72  O   UNL A   1      43.697  26.191  24.931  1.00  0.00    -0.744 OA
ENDBRANCH  65  69
ENDBRANCH  48  62
BRANCH  49  73
ATOM     73  C   UNL A   1      39.563  33.431  36.920  1.00  0.00     0.023 A 
ATOM     74  C   UNL A   1      38.883  32.909  38.033  1.00  0.00     0.031 A 
ATOM     75  C   UNL A   1      39.961  34.780  36.968  1.00  0.00     0.131 A 
ATOM     76  C   UNL A   1      38.579  33.741  39.121  1.00  0.00     0.055 A 
ATOM     77  C   UNL A   1      39.709  35.587  38.078  1.00  0.00     0.041 A 
ATOM     78  F   UNL A   1      40.616  35.330  35.932  1.00  0.00    -0.206 F 
ATOM     79  C   UNL A   1      39.000  35.071  39.158  1.00  0.00     0.022 A 
BRANCH  76  80
ATOM     80  S   UNL A   1      37.533  33.083  40.450  1.00  0.00     0.124 S 
ATOM     81  O   UNL A   1      36.290  32.804  39.738  1.00  0.00    -0.237 OA
ATOM     82  O   UNL A   1      38.296  31.919  40.888  1.00  0.00    -0.237 OA
ATOM     83  O   UNL A   1      37.469  34.183  41.409  1.00  0.00    -0.744 OA
ENDBRANCH  76  80
ENDBRANCH  49  73
BRANCH  61  84
ATOM     84  C   UNL A   1      44.298  28.554  35.342  1.00  0.00     0.023 A 
ATOM     85  C   UNL A   1      44.186  27.509  36.275  1.00  0.00     0.031 A 
ATOM     86  C   UNL A   1      45.571  29.112  35.126  1.00  0.00     0.131 A 
ATOM     87  C   UNL A   1      45.313  27.096  37.001  1.00  0.00     0.055 A 
ATOM     88  C   UNL A   1      46.702  28.650  35.801  1.00  0.00     0.041 A 
ATOM     89  F   UNL A   1      45.737  30.116  34.250  1.00  0.00    -0.206 F 
ATOM     90  C   UNL A   1      46.574  27.646  36.756  1.00  0.00     0.022 A 
BRANCH  87  91
ATOM     91  S   UNL A   1      45.094  25.899  38.347  1.00  0.00     0.124 S 
ATOM     92  O   UNL A   1      44.118  26.574  39.197  1.00  0.00    -0.237 OA
ATOM     93  O   UNL A   1      44.612  24.718  37.637  1.00  0.00    -0.237 OA
ATOM     94  O   UNL A   1      46.433  25.775  38.918  1.00  0.00    -0.744 OA
ENDBRANCH  87  91
ENDBRANCH  61  84
ENDBRANCH  35  36
ENDBRANCH  27  30
ENDBRANCH  25  26
ENDBRANCH   1  25
TORSDOF 16
ENDMDL
MODEL 3
REMARK VINA RESULT:     -11.3      6.425     11.826
REMARK SMILES CNC(=O)NC1=[NH+]N=CN[C@@H]1C(=O)NCCCCCCNC(=O)c1ccc(-c2c3nc(c(-c4cc(S(=O)(=O)[O-])ccc4F)c4ccc([nH]4)c(-c4cc(S(=O)(=O)[O-])ccc4F)c4nc(c(-c5cc(S(=O)(=O)[O-])ccc5F)c5ccc2[nH]5)C=C4)C=C3)cc1
REMARK SMILES IDX 19 1 18 2 17 3 16 4 15 5 14 6 12 7 13 8 11 10 1 11 2 12 3 13
REMARK SMILES IDX 4 15 5 16 6 17 7 19 8 20 10 22 9 23 20 25 21 26 22 27 23 29
REMARK SMILES IDX 24 30 25 31 86 32 26 33 85 34 27 35 28 36 29 37 79 38 30 39
REMARK SMILES IDX 84 40 78 41 80 42 31 43 83 44 77 45 76 46 32 48 64 49 44 50
REMARK SMILES IDX 63 51 45 52 48 53 62 54 81 55 46 56 47 57 61 59 82 60 49 61
REMARK SMILES IDX 33 62 34 63 42 64 35 65 41 66 43 67 40 68 36 69 37 70 38 71
REMARK SMILES IDX 39 72 65 73 66 74 74 75 67 76 73 77 75 78 72 79 68 80 69 81
REMARK SMILES IDX 70 82 71 83 50 84 51 85 59 86 52 87 58 88 60 89 57 90 53 91
REMARK SMILES IDX 54 92 55 93 56 94
REMARK H PARENT 14 9 2 14 5 18 7 21 10 24 21 28 80 47 48 58
REMARK Flexibility Score: inf
ROOT
ATOM      1  C   UNL A   1      38.357  19.948  24.789  1.00  0.00     0.021 C 
ENDROOT
BRANCH   1   2
ATOM      2  C   UNL A   1      37.021  20.694  24.790  1.00  0.00     0.002 C 
BRANCH   2   3
ATOM      3  C   UNL A   1      37.131  22.204  24.551  1.00  0.00     0.002 C 
BRANCH   3   4
ATOM      4  C   UNL A   1      36.364  22.710  23.324  1.00  0.00     0.021 C 
BRANCH   4   5
ATOM      5  C   UNL A   1      35.326  23.779  23.659  1.00  0.00     0.116 C 
BRANCH   5   6
ATOM      6  N   UNL A   1      34.045  23.456  23.064  1.00  0.00    -0.354 N 
ATOM      7  C   UNL A   1      32.850  23.193  23.664  1.00  0.00     0.255 C 
ATOM      8  O   UNL A   1      31.936  22.772  22.944  1.00  0.00    -0.272 OA
ATOM      9  H   UNL A   1      34.036  23.421  22.080  1.00  0.00     0.163 HD
BRANCH   7  10
ATOM     10  C   UNL A   1      32.630  23.373  25.173  1.00  0.00     0.287 C 
ATOM     11  C   UNL A   1      34.029  21.524  27.568  1.00  0.00     0.147 C 
ATOM     12  N   UNL A   1      33.996  20.704  26.372  1.00  0.00    -0.321 N 
ATOM     13  C   UNL A   1      32.929  20.355  25.605  1.00  0.00     0.406 C 
ATOM     14  H   UNL A   1      34.867  20.351  26.076  1.00  0.00     0.167 HD
ATOM     15  O   UNL A   1      33.002  19.391  24.851  1.00  0.00    -0.221 OA
ATOM     16  N   UNL A   1      31.778  21.072  25.745  1.00  0.00    -0.191 N 
ATOM     17  C   UNL A   1      31.576  22.431  25.749  1.00  0.00     0.309 C 
ATOM     18  H   UNL A   1      30.963  20.531  25.863  1.00  0.00     0.317 HD
ATOM     19  N   UNL A   1      30.463  22.814  26.299  1.00  0.00    -0.148 N 
ATOM     20  N   UNL A   1      30.239  24.186  26.512  1.00  0.00    -0.077 NA
ATOM     21  H   UNL A   1      29.783  22.151  26.562  1.00  0.00     0.342 HD
ATOM     22  N   UNL A   1      32.311  24.753  25.503  1.00  0.00    -0.352 N 
ATOM     23  C   UNL A   1      31.146  25.028  26.142  1.00  0.00     0.241 C 
ATOM     24  H   UNL A   1      32.933  25.478  25.266  1.00  0.00     0.163 HD
ENDBRANCH   7  10
ENDBRANCH   5   6
ENDBRANCH   4   5
ENDBRANCH   3   4
ENDBRANCH   2   3
ENDBRANCH   1   2
BRANCH   1  25
ATOM     25  C   UNL A   1      39.049  19.909  26.147  1.00  0.00     0.116 C 
BRANCH  25  26
ATOM     26  N   UNL A   1      40.248  19.088  26.110  1.00  0.00    -0.352 N 
ATOM     27  C   UNL A   1      41.562  19.481  26.079  1.00  0.00     0.251 C 
ATOM     28  H   UNL A   1      40.095  18.117  26.105  1.00  0.00     0.163 HD
ATOM     29  O   UNL A   1      42.435  18.674  25.784  1.00  0.00    -0.269 OA
BRANCH  27  30
ATOM     30  C   UNL A   1      41.905  20.885  26.389  1.00  0.00     0.039 A 
ATOM     31  C   UNL A   1      42.263  21.224  27.695  1.00  0.00     0.014 A 
ATOM     32  C   UNL A   1      41.870  21.861  25.389  1.00  0.00     0.014 A 
ATOM     33  C   UNL A   1      42.636  22.537  27.986  1.00  0.00     0.010 A 
ATOM     34  C   UNL A   1      42.316  23.149  25.664  1.00  0.00     0.010 A 
ATOM     35  C   UNL A   1      42.696  23.502  26.968  1.00  0.00    -0.014 A 
BRANCH  35  36
ATOM     36  C   UNL A   1      43.140  24.892  27.251  1.00  0.00     0.031 A 
ATOM     37  C   UNL A   1      42.212  25.850  27.946  1.00  0.00     0.074 A 
ATOM     38  C   UNL A   1      44.356  25.299  26.836  1.00  0.00     0.049 A 
ATOM     39  N   UNL A   1      42.387  27.116  28.225  1.00  0.00    -0.248 NA
ATOM     40  C   UNL A   1      40.901  25.322  28.354  1.00  0.00     0.031 C 
ATOM     41  C   UNL A   1      45.326  24.466  26.121  1.00  0.00     0.029 A 
ATOM     42  N   UNL A   1      44.983  26.514  26.951  1.00  0.00    -0.354 N 
ATOM     43  C   UNL A   1      41.209  27.537  28.833  1.00  0.00     0.074 A 
ATOM     44  C   UNL A   1      40.304  26.408  28.817  1.00  0.00     0.031 C 
ATOM     45  C   UNL A   1      46.434  25.187  25.887  1.00  0.00     0.029 A 
ATOM     46  C   UNL A   1      46.238  26.544  26.385  1.00  0.00     0.049 A 
ATOM     47  H   UNL A   1      44.574  27.291  27.394  1.00  0.00     0.167 HD
ATOM     48  C   UNL A   1      40.919  28.747  29.373  1.00  0.00     0.034 A 
ATOM     49  C   UNL A   1      47.122  27.554  26.270  1.00  0.00     0.034 A 
ATOM     50  C   UNL A   1      41.840  29.858  29.383  1.00  0.00     0.049 A 
ATOM     51  C   UNL A   1      46.761  28.902  26.843  1.00  0.00     0.074 A 
ATOM     52  C   UNL A   1      41.672  31.110  29.947  1.00  0.00     0.029 A 
ATOM     53  N   UNL A   1      43.098  29.856  28.792  1.00  0.00    -0.354 N 
ATOM     54  N   UNL A   1      45.663  29.269  27.462  1.00  0.00    -0.248 NA
ATOM     55  C   UNL A   1      47.764  29.965  26.714  1.00  0.00     0.031 C 
ATOM     56  C   UNL A   1      42.791  31.888  29.629  1.00  0.00     0.029 A 
ATOM     57  C   UNL A   1      43.699  31.097  28.945  1.00  0.00     0.049 A 
ATOM     58  H   UNL A   1      43.503  29.086  28.330  1.00  0.00     0.167 HD
ATOM     59  C   UNL A   1      45.859  30.600  27.824  1.00  0.00     0.074 A 
ATOM     60  C   UNL A   1      47.185  30.961  27.369  1.00  0.00     0.031 C 
ATOM     61  C   UNL A   1      45.019  31.446  28.475  1.00  0.00     0.034 A 
BRANCH  48  62
ATOM     62  C   UNL A   1      39.544  28.931  29.971  1.00  0.00     0.023 A 
ATOM     63  C   UNL A   1      38.513  29.585  29.273  1.00  0.00     0.031 A 
ATOM     64  C   UNL A   1      39.264  28.468  31.269  1.00  0.00     0.131 A 
ATOM     65  C   UNL A   1      37.283  29.827  29.901  1.00  0.00     0.055 A 
ATOM     66  C   UNL A   1      38.008  28.633  31.856  1.00  0.00     0.041 A 
ATOM     67  F   UNL A   1      40.213  27.857  31.997  1.00  0.00    -0.206 F 
ATOM     68  C   UNL A   1      37.013  29.330  31.178  1.00  0.00     0.022 A 
BRANCH  65  69
ATOM     69  S   UNL A   1      36.096  30.929  29.085  1.00  0.00     0.124 S 
ATOM     70  O   UNL A   1      35.372  29.996  28.223  1.00  0.00    -0.237 OA
ATOM     71  O   UNL A   1      35.346  31.476  30.209  1.00  0.00    -0.237 OA
ATOM     72  O   UNL A   1      36.947  31.884  28.377  1.00  0.00    -0.744 OA
ENDBRANCH  65  69
ENDBRANCH  48  62
BRANCH  49  73
ATOM     73  C   UNL A   1      48.425  27.344  25.575  1.00  0.00     0.023 A 
ATOM     74  C   UNL A   1      48.536  27.497  24.183  1.00  0.00     0.031 A 
ATOM     75  C   UNL A   1      49.570  26.940  26.284  1.00  0.00     0.131 A 
ATOM     76  C   UNL A   1      49.747  27.198  23.540  1.00  0.00     0.055 A 
ATOM     77  C   UNL A   1      50.789  26.702  25.648  1.00  0.00     0.041 A 
ATOM     78  F   UNL A   1      49.521  26.780  27.617  1.00  0.00    -0.206 F 
ATOM     79  C   UNL A   1      50.878  26.817  24.265  1.00  0.00     0.022 A 
BRANCH  76  80
ATOM     80  S   UNL A   1      49.794  27.219  21.727  1.00  0.00     0.124 S 
ATOM     81  O   UNL A   1      49.574  28.632  21.441  1.00  0.00    -0.237 OA
ATOM     82  O   UNL A   1      51.133  26.709  21.451  1.00  0.00    -0.237 OA
ATOM     83  O   UNL A   1      48.699  26.328  21.349  1.00  0.00    -0.744 OA
ENDBRANCH  76  80
ENDBRANCH  49  73
BRANCH  61  84
ATOM     84  C   UNL A   1      45.539  32.833  28.776  1.00  0.00     0.023 A 
ATOM     85  C   UNL A   1      45.318  33.913  27.904  1.00  0.00     0.031 A 
ATOM     86  C   UNL A   1      46.275  33.072  29.950  1.00  0.00     0.131 A 
ATOM     87  C   UNL A   1      45.879  35.167  28.189  1.00  0.00     0.055 A 
ATOM     88  C   UNL A   1      46.772  34.338  30.263  1.00  0.00     0.041 A 
ATOM     89  F   UNL A   1      46.521  32.076  30.817  1.00  0.00    -0.206 F 
ATOM     90  C   UNL A   1      46.587  35.391  29.373  1.00  0.00     0.022 A 
BRANCH  87  91
ATOM     91  S   UNL A   1      45.758  36.481  26.943  1.00  0.00     0.124 S 
ATOM     92  O   UNL A   1      44.317  36.703  26.876  1.00  0.00    -0.237 OA
ATOM     93  O   UNL A   1      46.542  37.555  27.546  1.00  0.00    -0.237 OA
ATOM     94  O   UNL A   1      46.349  35.877  25.751  1.00  0.00    -0.744 OA
ENDBRANCH  87  91
ENDBRANCH  61  84
ENDBRANCH  35  36
ENDBRANCH  27  30
ENDBRANCH  25  26
ENDBRANCH   1  25
TORSDOF 16
ENDMDL
