MODEL 1
REMARK VINA RESULT:     -11.7      0.000      0.000
REMARK SMILES CC[C@H]([NH3+])[C@H](C(=O)NCCCCCCNC(=O)c1ccc(-c2c3nc(c(-c4cc(S(=O)(=O)[O-])ccc4F)c4ccc([nH]4)c(-c4cc(S(=O)(=O)[O-])ccc4F)c4nc(c(-c5cc(S(=O)(=O)[O-])ccc5F)c5ccc2[nH]5)C=C4)C=C3)cc1)C(=O)OCC1c2ccccc2-c2ccccc21
REMARK SMILES IDX 11 1 10 2 9 3 8 4 6 5 7 6 5 8 3 9 2 10 1 11 4 12 81 16 82 17
REMARK SMILES IDX 83 18 84 19 85 20 86 21 97 22 87 23 91 24 92 25 96 26 88 27
REMARK SMILES IDX 90 28 93 29 95 30 89 31 94 32 12 33 13 34 14 35 15 36 16 37
REMARK SMILES IDX 17 39 18 40 19 41 80 42 20 43 79 44 21 45 22 46 23 47 73 48
REMARK SMILES IDX 24 49 78 50 72 51 74 52 25 53 77 54 71 55 70 56 26 58 58 59
REMARK SMILES IDX 38 60 57 61 39 62 42 63 56 64 75 65 40 66 41 67 55 69 76 70
REMARK SMILES IDX 43 71 27 72 28 73 36 74 29 75 35 76 37 77 34 78 30 79 31 80
REMARK SMILES IDX 32 81 33 82 59 83 60 84 68 85 61 86 67 87 69 88 66 89 62 90
REMARK SMILES IDX 63 91 64 92 65 93 44 94 45 95 53 96 46 97 52 98 54 99 51 100
REMARK SMILES IDX 47 101 48 102 49 103 50 104
REMARK H PARENT 8 7 4 13 4 14 4 15 15 38 74 57 42 68
REMARK Flexibility Score: inf
ROOT
ATOM      1  C   UNL A   1      32.819  30.044  27.224  1.00  0.00     0.002 C 
ENDROOT
BRANCH   1   2
ATOM      2  C   UNL A   1      32.899  28.516  27.111  1.00  0.00     0.021 C 
BRANCH   2   3
ATOM      3  C   UNL A   1      34.082  28.027  26.275  1.00  0.00     0.116 C 
BRANCH   3   4
ATOM      4  N   UNL A   1      34.129  28.742  25.009  1.00  0.00    -0.355 N 
ATOM      5  C   UNL A   1      33.757  28.333  23.759  1.00  0.00     0.240 C 
ATOM      6  O   UNL A   1      34.056  29.059  22.811  1.00  0.00    -0.274 OA
ATOM      7  H   UNL A   1      34.482  29.659  25.061  1.00  0.00     0.163 HD
BRANCH   5   8
ATOM      8  C   UNL A   1      32.913  27.086  23.623  1.00  0.00     0.245 C 
BRANCH   8   9
ATOM      9  C   UNL A   1      31.412  27.472  23.654  1.00  0.00     0.204 C 
BRANCH   9  10
ATOM     10  C   UNL A   1      30.617  26.818  24.806  1.00  0.00     0.063 C 
ATOM     11  C   UNL A   1      30.193  25.369  24.595  1.00  0.00     0.010 C 
ENDBRANCH   9  10
BRANCH   9  12
ATOM     12  N   UNL A   1      30.699  27.343  22.375  1.00  0.00    -0.354 N 
ATOM     13  H   UNL A   1      29.715  27.138  22.553  1.00  0.00     0.344 HD
ATOM     14  H   UNL A   1      31.110  26.585  21.831  1.00  0.00     0.344 HD
ATOM     15  H   UNL A   1      30.775  28.215  21.853  1.00  0.00     0.344 HD
ENDBRANCH   9  12
ENDBRANCH   8   9
BRANCH   8  16
ATOM     16  C   UNL A   1      33.281  26.147  22.512  1.00  0.00     0.324 C 
ATOM     17  O   UNL A   1      33.756  26.567  21.457  1.00  0.00    -0.251 OA
BRANCH  16  18
ATOM     18  O   UNL A   1      33.128  24.826  22.793  1.00  0.00    -0.464 OA
BRANCH  18  19
ATOM     19  C   UNL A   1      34.373  24.191  23.128  1.00  0.00     0.246 C 
BRANCH  19  20
ATOM     20  C   UNL A   1      34.269  23.299  24.365  1.00  0.00     0.088 C 
ATOM     21  C   UNL A   1      35.658  22.989  24.930  1.00  0.00    -0.029 A 
ATOM     22  C   UNL A   1      33.721  21.891  24.133  1.00  0.00    -0.029 A 
ATOM     23  C   UNL A   1      36.706  23.865  25.181  1.00  0.00     0.005 A 
ATOM     24  C   UNL A   1      35.812  21.599  25.112  1.00  0.00    -0.014 A 
ATOM     25  C   UNL A   1      34.608  20.931  24.673  1.00  0.00    -0.014 A 
ATOM     26  C   UNL A   1      32.530  21.501  23.541  1.00  0.00     0.005 A 
ATOM     27  C   UNL A   1      37.929  23.333  25.595  1.00  0.00     0.000 A 
ATOM     28  C   UNL A   1      37.020  21.074  25.546  1.00  0.00     0.009 A 
ATOM     29  C   UNL A   1      34.279  19.584  24.685  1.00  0.00     0.009 A 
ATOM     30  C   UNL A   1      32.214  20.138  23.524  1.00  0.00     0.000 A 
ATOM     31  C   UNL A   1      38.085  21.950  25.779  1.00  0.00     0.001 A 
ATOM     32  C   UNL A   1      33.069  19.190  24.112  1.00  0.00     0.001 A 
ENDBRANCH  19  20
ENDBRANCH  18  19
ENDBRANCH  16  18
ENDBRANCH   8  16
ENDBRANCH   5   8
ENDBRANCH   3   4
ENDBRANCH   2   3
ENDBRANCH   1   2
BRANCH   1  33
ATOM     33  C   UNL A   1      31.582  30.672  26.576  1.00  0.00     0.002 C 
BRANCH  33  34
ATOM     34  C   UNL A   1      31.442  32.182  26.789  1.00  0.00     0.021 C 
BRANCH  34  35
ATOM     35  C   UNL A   1      32.752  32.900  27.090  1.00  0.00     0.116 C 
BRANCH  35  36
ATOM     36  N   UNL A   1      32.538  34.150  27.803  1.00  0.00    -0.352 N 
ATOM     37  C   UNL A   1      33.165  34.613  28.931  1.00  0.00     0.251 C 
ATOM     38  H   UNL A   1      31.849  34.743  27.424  1.00  0.00     0.163 HD
ATOM     39  O   UNL A   1      32.725  35.601  29.518  1.00  0.00    -0.269 OA
BRANCH  37  40
ATOM     40  C   UNL A   1      34.350  33.900  29.448  1.00  0.00     0.039 A 
ATOM     41  C   UNL A   1      35.622  34.334  29.070  1.00  0.00     0.014 A 
ATOM     42  C   UNL A   1      34.202  32.825  30.329  1.00  0.00     0.014 A 
ATOM     43  C   UNL A   1      36.750  33.733  29.631  1.00  0.00     0.010 A 
ATOM     44  C   UNL A   1      35.326  32.271  30.937  1.00  0.00     0.010 A 
ATOM     45  C   UNL A   1      36.610  32.725  30.600  1.00  0.00    -0.014 A 
BRANCH  45  46
ATOM     46  C   UNL A   1      37.792  32.141  31.284  1.00  0.00     0.031 A 
ATOM     47  C   UNL A   1      38.551  31.011  30.644  1.00  0.00     0.074 A 
ATOM     48  C   UNL A   1      38.133  32.579  32.512  1.00  0.00     0.049 A 
ATOM     49  N   UNL A   1      39.541  30.304  31.124  1.00  0.00    -0.248 NA
ATOM     50  C   UNL A   1      38.116  30.606  29.300  1.00  0.00     0.031 C 
ATOM     51  C   UNL A   1      37.448  33.645  33.248  1.00  0.00     0.029 A 
ATOM     52  N   UNL A   1      39.127  32.174  33.367  1.00  0.00    -0.354 N 
ATOM     53  C   UNL A   1      39.843  29.362  30.146  1.00  0.00     0.074 A 
ATOM     54  C   UNL A   1      38.890  29.554  29.074  1.00  0.00     0.031 C 
ATOM     55  C   UNL A   1      38.054  33.820  34.433  1.00  0.00     0.029 A 
ATOM     56  C   UNL A   1      39.134  32.848  34.566  1.00  0.00     0.049 A 
ATOM     57  H   UNL A   1      39.774  31.467  33.144  1.00  0.00     0.167 HD
ATOM     58  C   UNL A   1      40.835  28.437  30.137  1.00  0.00     0.034 A 
ATOM     59  C   UNL A   1      39.910  32.688  35.657  1.00  0.00     0.034 A 
ATOM     60  C   UNL A   1      41.782  28.268  31.213  1.00  0.00     0.049 A 
ATOM     61  C   UNL A   1      40.981  31.627  35.640  1.00  0.00     0.074 A 
ATOM     62  C   UNL A   1      42.865  27.408  31.279  1.00  0.00     0.029 A 
ATOM     63  N   UNL A   1      41.753  28.962  32.416  1.00  0.00    -0.354 N 
ATOM     64  N   UNL A   1      41.286  30.779  34.685  1.00  0.00    -0.248 NA
ATOM     65  C   UNL A   1      41.812  31.504  36.844  1.00  0.00     0.031 C 
ATOM     66  C   UNL A   1      43.446  27.532  32.547  1.00  0.00     0.029 A 
ATOM     67  C   UNL A   1      42.774  28.522  33.245  1.00  0.00     0.049 A 
ATOM     68  H   UNL A   1      41.102  29.663  32.646  1.00  0.00     0.167 HD
ATOM     69  C   UNL A   1      42.363  30.040  35.166  1.00  0.00     0.074 A 
ATOM     70  C   UNL A   1      42.662  30.553  36.488  1.00  0.00     0.031 C 
ATOM     71  C   UNL A   1      43.047  29.031  34.569  1.00  0.00     0.034 A 
BRANCH  58  72
ATOM     72  C   UNL A   1      40.924  27.526  28.937  1.00  0.00     0.023 A 
ATOM     73  C   UNL A   1      41.894  27.713  27.937  1.00  0.00     0.031 A 
ATOM     74  C   UNL A   1      40.011  26.467  28.778  1.00  0.00     0.131 A 
ATOM     75  C   UNL A   1      41.882  26.907  26.789  1.00  0.00     0.055 A 
ATOM     76  C   UNL A   1      40.057  25.616  27.671  1.00  0.00     0.041 A 
ATOM     77  F   UNL A   1      39.050  26.250  29.689  1.00  0.00    -0.206 F 
ATOM     78  C   UNL A   1      40.986  25.843  26.661  1.00  0.00     0.022 A 
BRANCH  75  79
ATOM     79  S   UNL A   1      42.961  27.360  25.403  1.00  0.00     0.124 S 
ATOM     80  O   UNL A   1      44.155  27.833  26.101  1.00  0.00    -0.237 OA
ATOM     81  O   UNL A   1      43.098  26.099  24.684  1.00  0.00    -0.237 OA
ATOM     82  O   UNL A   1      42.205  28.397  24.704  1.00  0.00    -0.744 OA
ENDBRANCH  75  79
ENDBRANCH  58  72
BRANCH  59  83
ATOM     83  C   UNL A   1      39.695  33.533  36.867  1.00  0.00     0.023 A 
ATOM     84  C   UNL A   1      40.509  34.646  37.125  1.00  0.00     0.031 A 
ATOM     85  C   UNL A   1      38.695  33.214  37.804  1.00  0.00     0.131 A 
ATOM     86  C   UNL A   1      40.340  35.376  38.311  1.00  0.00     0.055 A 
ATOM     87  C   UNL A   1      38.498  33.974  38.958  1.00  0.00     0.041 A 
ATOM     88  F   UNL A   1      37.886  32.163  37.604  1.00  0.00    -0.206 F 
ATOM     89  C   UNL A   1      39.332  35.056  39.224  1.00  0.00     0.022 A 
BRANCH  86  90
ATOM     90  S   UNL A   1      41.515  36.706  38.687  1.00  0.00     0.124 S 
ATOM     91  O   UNL A   1      42.226  36.841  37.421  1.00  0.00    -0.237 OA
ATOM     92  O   UNL A   1      40.623  37.805  39.043  1.00  0.00    -0.237 OA
ATOM     93  O   UNL A   1      42.302  36.162  39.792  1.00  0.00    -0.744 OA
ENDBRANCH  86  90
ENDBRANCH  59  83
BRANCH  71  94
ATOM     94  C   UNL A   1      44.205  28.441  35.335  1.00  0.00     0.023 A 
ATOM     95  C   UNL A   1      44.019  27.417  36.281  1.00  0.00     0.031 A 
ATOM     96  C   UNL A   1      45.511  28.914  35.117  1.00  0.00     0.131 A 
ATOM     97  C   UNL A   1      45.116  26.934  37.009  1.00  0.00     0.055 A 
ATOM     98  C   UNL A   1      46.606  28.388  35.803  1.00  0.00     0.041 A 
ATOM     99  F   UNL A   1      45.744  29.892  34.227  1.00  0.00    -0.206 F 
ATOM    100  C   UNL A   1      46.411  27.400  36.763  1.00  0.00     0.022 A 
BRANCH  97 101
ATOM    101  S   UNL A   1      44.819  25.736  38.338  1.00  0.00     0.124 S 
ATOM    102  O   UNL A   1      44.274  24.598  37.604  1.00  0.00    -0.237 OA
ATOM    103  O   UNL A   1      46.153  25.553  38.900  1.00  0.00    -0.237 OA
ATOM    104  O   UNL A   1      43.869  26.422  39.212  1.00  0.00    -0.744 OA
ENDBRANCH  97 101
ENDBRANCH  71  94
ENDBRANCH  45  46
ENDBRANCH  37  40
ENDBRANCH  35  36
ENDBRANCH  34  35
ENDBRANCH  33  34
ENDBRANCH   1  33
TORSDOF 23
ENDMDL
MODEL 2
REMARK VINA RESULT:     -11.6      1.395      7.539
REMARK SMILES CC[C@H]([NH3+])[C@H](C(=O)NCCCCCCNC(=O)c1ccc(-c2c3nc(c(-c4cc(S(=O)(=O)[O-])ccc4F)c4ccc([nH]4)c(-c4cc(S(=O)(=O)[O-])ccc4F)c4nc(c(-c5cc(S(=O)(=O)[O-])ccc5F)c5ccc2[nH]5)C=C4)C=C3)cc1)C(=O)OCC1c2ccccc2-c2ccccc21
REMARK SMILES IDX 11 1 10 2 9 3 8 4 6 5 7 6 5 8 3 9 2 10 1 11 4 12 81 16 82 17
REMARK SMILES IDX 83 18 84 19 85 20 86 21 97 22 87 23 91 24 92 25 96 26 88 27
REMARK SMILES IDX 90 28 93 29 95 30 89 31 94 32 12 33 13 34 14 35 15 36 16 37
REMARK SMILES IDX 17 39 18 40 19 41 80 42 20 43 79 44 21 45 22 46 23 47 73 48
REMARK SMILES IDX 24 49 78 50 72 51 74 52 25 53 77 54 71 55 70 56 26 58 58 59
REMARK SMILES IDX 38 60 57 61 39 62 42 63 56 64 75 65 40 66 41 67 55 69 76 70
REMARK SMILES IDX 43 71 27 72 28 73 36 74 29 75 35 76 37 77 34 78 30 79 31 80
REMARK SMILES IDX 32 81 33 82 59 83 60 84 68 85 61 86 67 87 69 88 66 89 62 90
REMARK SMILES IDX 63 91 64 92 65 93 44 94 45 95 53 96 46 97 52 98 54 99 51 100
REMARK SMILES IDX 47 101 48 102 49 103 50 104
REMARK H PARENT 8 7 4 13 4 14 4 15 15 38 74 57 42 68
REMARK Flexibility Score: inf
ROOT
ATOM      1  C   UNL A   1      32.272  29.448  27.282  1.00  0.00     0.002 C 
ENDROOT
BRANCH   1   2
ATOM      2  C   UNL A   1      33.744  29.027  27.180  1.00  0.00     0.021 C 
BRANCH   2   3
ATOM      3  C   UNL A   1      34.009  27.995  26.085  1.00  0.00     0.116 C 
BRANCH   3   4
ATOM      4  N   UNL A   1      34.224  28.662  24.810  1.00  0.00    -0.355 N 
ATOM      5  C   UNL A   1      33.967  28.226  23.541  1.00  0.00     0.240 C 
ATOM      6  O   UNL A   1      34.399  28.905  22.609  1.00  0.00    -0.274 OA
ATOM      7  H   UNL A   1      34.611  29.566  24.871  1.00  0.00     0.163 HD
BRANCH   5   8
ATOM      8  C   UNL A   1      33.086  27.012  23.354  1.00  0.00     0.245 C 
BRANCH   8   9
ATOM      9  C   UNL A   1      31.601  27.453  23.316  1.00  0.00     0.204 C 
BRANCH   9  10
ATOM     10  C   UNL A   1      30.641  26.501  24.064  1.00  0.00     0.063 C 
ATOM     11  C   UNL A   1      30.671  26.572  25.586  1.00  0.00     0.010 C 
ENDBRANCH   9  10
BRANCH   9  12
ATOM     12  N   UNL A   1      31.077  27.798  21.985  1.00  0.00    -0.354 N 
ATOM     13  H   UNL A   1      31.720  27.461  21.269  1.00  0.00     0.344 HD
ATOM     14  H   UNL A   1      30.984  28.811  21.908  1.00  0.00     0.344 HD
ATOM     15  H   UNL A   1      30.165  27.363  21.855  1.00  0.00     0.344 HD
ENDBRANCH   9  12
ENDBRANCH   8   9
BRANCH   8  16
ATOM     16  C   UNL A   1      33.472  26.067  22.253  1.00  0.00     0.324 C 
ATOM     17  O   UNL A   1      33.306  26.367  21.072  1.00  0.00    -0.251 OA
BRANCH  16  18
ATOM     18  O   UNL A   1      34.083  24.922  22.658  1.00  0.00    -0.464 OA
BRANCH  18  19
ATOM     19  C   UNL A   1      33.311  23.751  22.343  1.00  0.00     0.246 C 
BRANCH  19  20
ATOM     20  C   UNL A   1      33.554  22.602  23.322  1.00  0.00     0.088 C 
ATOM     21  C   UNL A   1      32.610  22.702  24.523  1.00  0.00    -0.029 A 
ATOM     22  C   UNL A   1      34.917  22.589  24.015  1.00  0.00    -0.029 A 
ATOM     23  C   UNL A   1      31.239  22.921  24.529  1.00  0.00     0.005 A 
ATOM     24  C   UNL A   1      33.339  22.620  25.726  1.00  0.00    -0.014 A 
ATOM     25  C   UNL A   1      34.746  22.499  25.416  1.00  0.00    -0.014 A 
ATOM     26  C   UNL A   1      36.185  22.608  23.456  1.00  0.00     0.005 A 
ATOM     27  C   UNL A   1      30.601  23.087  25.760  1.00  0.00     0.000 A 
ATOM     28  C   UNL A   1      32.701  22.762  26.949  1.00  0.00     0.009 A 
ATOM     29  C   UNL A   1      35.837  22.361  26.260  1.00  0.00     0.009 A 
ATOM     30  C   UNL A   1      37.288  22.501  24.312  1.00  0.00     0.000 A 
ATOM     31  C   UNL A   1      31.324  23.005  26.960  1.00  0.00     0.001 A 
ATOM     32  C   UNL A   1      37.115  22.355  25.698  1.00  0.00     0.001 A 
ENDBRANCH  19  20
ENDBRANCH  18  19
ENDBRANCH  16  18
ENDBRANCH   8  16
ENDBRANCH   5   8
ENDBRANCH   3   4
ENDBRANCH   2   3
ENDBRANCH   1   2
BRANCH   1  33
ATOM     33  C   UNL A   1      31.796  30.395  26.176  1.00  0.00     0.002 C 
BRANCH  33  34
ATOM     34  C   UNL A   1      31.595  31.848  26.616  1.00  0.00     0.021 C 
BRANCH  34  35
ATOM     35  C   UNL A   1      32.797  32.465  27.321  1.00  0.00     0.116 C 
BRANCH  35  36
ATOM     36  N   UNL A   1      32.575  33.863  27.655  1.00  0.00    -0.352 N 
ATOM     37  C   UNL A   1      33.147  34.609  28.654  1.00  0.00     0.251 C 
ATOM     38  H   UNL A   1      31.926  34.338  27.087  1.00  0.00     0.163 HD
ATOM     39  O   UNL A   1      32.700  35.723  28.922  1.00  0.00    -0.269 OA
BRANCH  37  40
ATOM     40  C   UNL A   1      34.280  34.051  29.418  1.00  0.00     0.039 A 
ATOM     41  C   UNL A   1      34.020  33.240  30.524  1.00  0.00     0.014 A 
ATOM     42  C   UNL A   1      35.597  34.304  29.021  1.00  0.00     0.014 A 
ATOM     43  C   UNL A   1      35.080  32.624  31.193  1.00  0.00     0.010 A 
ATOM     44  C   UNL A   1      36.647  33.639  29.648  1.00  0.00     0.010 A 
ATOM     45  C   UNL A   1      36.398  32.787  30.734  1.00  0.00    -0.014 A 
BRANCH  45  46
ATOM     46  C   UNL A   1      37.531  32.064  31.367  1.00  0.00     0.031 A 
ATOM     47  C   UNL A   1      38.081  32.531  32.686  1.00  0.00     0.074 A 
ATOM     48  C   UNL A   1      38.109  31.035  30.716  1.00  0.00     0.049 A 
ATOM     49  N   UNL A   1      39.123  32.099  33.348  1.00  0.00    -0.248 NA
ATOM     50  C   UNL A   1      37.381  33.653  33.329  1.00  0.00     0.031 C 
ATOM     51  C   UNL A   1      37.685  30.515  29.413  1.00  0.00     0.029 A 
ATOM     52  N   UNL A   1      39.186  30.252  31.049  1.00  0.00    -0.354 N 
ATOM     53  C   UNL A   1      39.213  32.901  34.480  1.00  0.00     0.074 A 
ATOM     54  C   UNL A   1      38.153  33.882  34.382  1.00  0.00     0.031 C 
ATOM     55  C   UNL A   1      38.482  29.490  29.069  1.00  0.00     0.029 A 
ATOM     56  C   UNL A   1      39.502  29.312  30.096  1.00  0.00     0.049 A 
ATOM     57  H   UNL A   1      39.685  30.353  31.891  1.00  0.00     0.167 HD
ATOM     58  C   UNL A   1      40.086  32.814  35.514  1.00  0.00     0.034 A 
ATOM     59  C   UNL A   1      40.512  28.420  30.045  1.00  0.00     0.034 A 
ATOM     60  C   UNL A   1      41.131  31.822  35.599  1.00  0.00     0.049 A 
ATOM     61  C   UNL A   1      41.495  28.368  31.187  1.00  0.00     0.074 A 
ATOM     62  C   UNL A   1      42.028  31.602  36.629  1.00  0.00     0.029 A 
ATOM     63  N   UNL A   1      41.428  30.892  34.610  1.00  0.00    -0.354 N 
ATOM     64  N   UNL A   1      41.534  29.101  32.276  1.00  0.00    -0.248 NA
ATOM     65  C   UNL A   1      42.566  27.368  31.094  1.00  0.00     0.031 C 
ATOM     66  C   UNL A   1      42.910  30.589  36.235  1.00  0.00     0.029 A 
ATOM     67  C   UNL A   1      42.519  30.124  34.990  1.00  0.00     0.049 A 
ATOM     68  H   UNL A   1      40.937  30.794  33.763  1.00  0.00     0.167 HD
ATOM     69  C   UNL A   1      42.620  28.630  33.009  1.00  0.00     0.074 A 
ATOM     70  C   UNL A   1      43.197  27.543  32.246  1.00  0.00     0.031 C 
ATOM     71  C   UNL A   1      43.094  29.055  34.207  1.00  0.00     0.034 A 
BRANCH  58  72
ATOM     72  C   UNL A   1      39.959  33.836  36.618  1.00  0.00     0.023 A 
ATOM     73  C   UNL A   1      39.475  33.491  37.892  1.00  0.00     0.031 A 
ATOM     74  C   UNL A   1      40.308  35.179  36.388  1.00  0.00     0.131 A 
ATOM     75  C   UNL A   1      39.278  34.487  38.860  1.00  0.00     0.055 A 
ATOM     76  C   UNL A   1      40.187  36.151  37.384  1.00  0.00     0.041 A 
ATOM     77  F   UNL A   1      40.758  35.573  35.187  1.00  0.00    -0.206 F 
ATOM     78  C   UNL A   1      39.655  35.811  38.624  1.00  0.00     0.022 A 
BRANCH  75  79
ATOM     79  S   UNL A   1      38.390  34.051  40.381  1.00  0.00     0.124 S 
ATOM     80  O   UNL A   1      37.195  33.402  39.849  1.00  0.00    -0.237 OA
ATOM     81  O   UNL A   1      39.340  33.180  41.063  1.00  0.00    -0.237 OA
ATOM     82  O   UNL A   1      38.156  35.343  41.023  1.00  0.00    -0.744 OA
ENDBRANCH  75  79
ENDBRANCH  58  72
BRANCH  59  83
ATOM     83  C   UNL A   1      40.665  27.518  28.867  1.00  0.00     0.023 A 
ATOM     84  C   UNL A   1      41.633  27.772  27.884  1.00  0.00     0.031 A 
ATOM     85  C   UNL A   1      39.816  26.411  28.688  1.00  0.00     0.131 A 
ATOM     86  C   UNL A   1      41.703  26.956  26.744  1.00  0.00     0.055 A 
ATOM     87  C   UNL A   1      39.922  25.573  27.577  1.00  0.00     0.041 A 
ATOM     88  F   UNL A   1      38.875  26.120  29.600  1.00  0.00    -0.206 F 
ATOM     89  C   UNL A   1      40.863  25.851  26.589  1.00  0.00     0.022 A 
BRANCH  86  90
ATOM     90  S   UNL A   1      42.856  27.412  25.420  1.00  0.00     0.124 S 
ATOM     91  O   UNL A   1      42.100  28.433  24.705  1.00  0.00    -0.237 OA
ATOM     92  O   UNL A   1      44.013  27.881  26.176  1.00  0.00    -0.237 OA
ATOM     93  O   UNL A   1      43.054  26.158  24.696  1.00  0.00    -0.744 OA
ENDBRANCH  86  90
ENDBRANCH  59  83
BRANCH  71  94
ATOM     94  C   UNL A   1      44.280  28.316  34.775  1.00  0.00     0.023 A 
ATOM     95  C   UNL A   1      44.122  27.191  35.604  1.00  0.00     0.031 A 
ATOM     96  C   UNL A   1      45.587  28.746  34.485  1.00  0.00     0.131 A 
ATOM     97  C   UNL A   1      45.250  26.565  36.154  1.00  0.00     0.055 A 
ATOM     98  C   UNL A   1      46.707  28.083  34.989  1.00  0.00     0.041 A 
ATOM     99  F   UNL A   1      45.796  29.816  33.702  1.00  0.00    -0.206 F 
ATOM    100  C   UNL A   1      46.542  26.993  35.837  1.00  0.00     0.022 A 
BRANCH  97 101
ATOM    101  S   UNL A   1      45.005  25.225  37.352  1.00  0.00     0.124 S 
ATOM    102  O   UNL A   1      45.924  25.602  38.421  1.00  0.00    -0.237 OA
ATOM    103  O   UNL A   1      43.585  25.338  37.663  1.00  0.00    -0.237 OA
ATOM    104  O   UNL A   1      45.382  24.025  36.605  1.00  0.00    -0.744 OA
ENDBRANCH  97 101
ENDBRANCH  71  94
ENDBRANCH  45  46
ENDBRANCH  37  40
ENDBRANCH  35  36
ENDBRANCH  34  35
ENDBRANCH  33  34
ENDBRANCH   1  33
TORSDOF 23
ENDMDL
MODEL 3
REMARK VINA RESULT:     -11.3      5.647     11.191
REMARK SMILES CC[C@H]([NH3+])[C@H](C(=O)NCCCCCCNC(=O)c1ccc(-c2c3nc(c(-c4cc(S(=O)(=O)[O-])ccc4F)c4ccc([nH]4)c(-c4cc(S(=O)(=O)[O-])ccc4F)c4nc(c(-c5cc(S(=O)(=O)[O-])ccc5F)c5ccc2[nH]5)C=C4)C=C3)cc1)C(=O)OCC1c2ccccc2-c2ccccc21
REMARK SMILES IDX 11 1 10 2 9 3 8 4 6 5 7 6 5 8 3 9 2 10 1 11 4 12 81 16 82 17
REMARK SMILES IDX 83 18 84 19 85 20 86 21 97 22 87 23 91 24 92 25 96 26 88 27
REMARK SMILES IDX 90 28 93 29 95 30 89 31 94 32 12 33 13 34 14 35 15 36 16 37
REMARK SMILES IDX 17 39 18 40 19 41 80 42 20 43 79 44 21 45 22 46 23 47 73 48
REMARK SMILES IDX 24 49 78 50 72 51 74 52 25 53 77 54 71 55 70 56 26 58 58 59
REMARK SMILES IDX 38 60 57 61 39 62 42 63 56 64 75 65 40 66 41 67 55 69 76 70
REMARK SMILES IDX 43 71 27 72 28 73 36 74 29 75 35 76 37 77 34 78 30 79 31 80
REMARK SMILES IDX 32 81 33 82 59 83 60 84 68 85 61 86 67 87 69 88 66 89 62 90
REMARK SMILES IDX 63 91 64 92 65 93 44 94 45 95 53 96 46 97 52 98 54 99 51 100
REMARK SMILES IDX 47 101 48 102 49 103 50 104
REMARK H PARENT 8 7 4 13 4 14 4 15 15 38 74 57 42 68
REMARK Flexibility Score: inf
ROOT
ATOM      1  C   UNL A   1      36.117  20.788  25.306  1.00  0.00     0.002 C 
ENDROOT
BRANCH   1   2
ATOM      2  C   UNL A   1      35.573  21.923  26.184  1.00  0.00     0.021 C 
BRANCH   2   3
ATOM      3  C   UNL A   1      34.376  21.511  27.040  1.00  0.00     0.116 C 
BRANCH   3   4
ATOM      4  N   UNL A   1      33.503  20.625  26.287  1.00  0.00    -0.355 N 
ATOM      5  C   UNL A   1      32.492  20.925  25.417  1.00  0.00     0.240 C 
ATOM      6  O   UNL A   1      31.778  19.997  25.035  1.00  0.00    -0.274 OA
ATOM      7  H   UNL A   1      33.666  19.663  26.423  1.00  0.00     0.163 HD
BRANCH   5   8
ATOM      8  C   UNL A   1      32.378  22.339  24.895  1.00  0.00     0.245 C 
BRANCH   8   9
ATOM      9  C   UNL A   1      32.847  22.383  23.418  1.00  0.00     0.204 C 
BRANCH   9  10
ATOM     10  C   UNL A   1      33.614  23.669  23.039  1.00  0.00     0.063 C 
ATOM     11  C   UNL A   1      35.135  23.584  23.078  1.00  0.00     0.010 C 
ENDBRANCH   9  10
BRANCH   9  12
ATOM     12  N   UNL A   1      31.818  22.063  22.417  1.00  0.00    -0.354 N 
ATOM     13  H   UNL A   1      32.201  22.195  21.481  1.00  0.00     0.344 HD
ATOM     14  H   UNL A   1      31.015  22.678  22.546  1.00  0.00     0.344 HD
ATOM     15  H   UNL A   1      31.524  21.093  22.530  1.00  0.00     0.344 HD
ENDBRANCH   9  12
ENDBRANCH   8   9
BRANCH   8  16
ATOM     16  C   UNL A   1      31.075  23.042  25.144  1.00  0.00     0.324 C 
ATOM     17  O   UNL A   1      30.448  22.863  26.188  1.00  0.00    -0.251 OA
BRANCH  16  18
ATOM     18  O   UNL A   1      30.702  23.930  24.186  1.00  0.00    -0.464 OA
BRANCH  18  19
ATOM     19  C   UNL A   1      30.383  25.220  24.732  1.00  0.00     0.246 C 
BRANCH  19  20
ATOM     20  C   UNL A   1      31.012  26.369  23.942  1.00  0.00     0.088 C 
ATOM     21  C   UNL A   1      32.174  26.992  24.722  1.00  0.00    -0.029 A 
ATOM     22  C   UNL A   1      30.122  27.589  23.709  1.00  0.00    -0.029 A 
ATOM     23  C   UNL A   1      33.225  26.353  25.365  1.00  0.00     0.005 A 
ATOM     24  C   UNL A   1      32.017  28.391  24.796  1.00  0.00    -0.014 A 
ATOM     25  C   UNL A   1      30.788  28.762  24.132  1.00  0.00    -0.014 A 
ATOM     26  C   UNL A   1      28.862  27.658  23.135  1.00  0.00     0.005 A 
ATOM     27  C   UNL A   1      34.113  27.129  26.113  1.00  0.00     0.000 A 
ATOM     28  C   UNL A   1      32.913  29.163  25.520  1.00  0.00     0.009 A 
ATOM     29  C   UNL A   1      30.230  30.014  23.924  1.00  0.00     0.009 A 
ATOM     30  C   UNL A   1      28.285  28.921  22.955  1.00  0.00     0.000 A 
ATOM     31  C   UNL A   1      33.961  28.522  26.188  1.00  0.00     0.001 A 
ATOM     32  C   UNL A   1      28.971  30.089  23.324  1.00  0.00     0.001 A 
ENDBRANCH  19  20
ENDBRANCH  18  19
ENDBRANCH  16  18
ENDBRANCH   8  16
ENDBRANCH   5   8
ENDBRANCH   3   4
ENDBRANCH   2   3
ENDBRANCH   1   2
BRANCH   1  33
ATOM     33  C   UNL A   1      37.534  21.013  24.769  1.00  0.00     0.002 C 
BRANCH  33  34
ATOM     34  C   UNL A   1      38.494  19.839  24.977  1.00  0.00     0.021 C 
BRANCH  34  35
ATOM     35  C   UNL A   1      39.440  20.000  26.161  1.00  0.00     0.116 C 
BRANCH  35  36
ATOM     36  N   UNL A   1      40.653  19.214  26.001  1.00  0.00    -0.352 N 
ATOM     37  C   UNL A   1      41.956  19.641  25.977  1.00  0.00     0.251 C 
ATOM     38  H   UNL A   1      40.520  18.244  25.896  1.00  0.00     0.163 HD
ATOM     39  O   UNL A   1      42.850  18.868  25.634  1.00  0.00    -0.269 OA
BRANCH  37  40
ATOM     40  C   UNL A   1      42.269  21.039  26.336  1.00  0.00     0.039 A 
ATOM     41  C   UNL A   1      42.574  21.346  27.663  1.00  0.00     0.014 A 
ATOM     42  C   UNL A   1      42.292  22.035  25.355  1.00  0.00     0.014 A 
ATOM     43  C   UNL A   1      42.971  22.643  27.996  1.00  0.00     0.010 A 
ATOM     44  C   UNL A   1      42.750  23.309  25.677  1.00  0.00     0.010 A 
ATOM     45  C   UNL A   1      43.101  23.624  26.999  1.00  0.00    -0.014 A 
BRANCH  45  46
ATOM     46  C   UNL A   1      43.617  24.981  27.313  1.00  0.00     0.031 A 
ATOM     47  C   UNL A   1      42.690  26.031  27.861  1.00  0.00     0.074 A 
ATOM     48  C   UNL A   1      44.899  25.286  27.032  1.00  0.00     0.049 A 
ATOM     49  N   UNL A   1      42.923  27.295  28.102  1.00  0.00    -0.248 NA
ATOM     50  C   UNL A   1      41.312  25.607  28.146  1.00  0.00     0.031 C 
ATOM     51  C   UNL A   1      45.882  24.359  26.465  1.00  0.00     0.029 A 
ATOM     52  N   UNL A   1      45.594  26.461  27.169  1.00  0.00    -0.354 N 
ATOM     53  C   UNL A   1      41.720  27.822  28.558  1.00  0.00     0.074 A 
ATOM     54  C   UNL A   1      40.747  26.752  28.501  1.00  0.00     0.031 C 
ATOM     55  C   UNL A   1      47.055  24.998  26.319  1.00  0.00     0.029 A 
ATOM     56  C   UNL A   1      46.897  26.388  26.733  1.00  0.00     0.049 A 
ATOM     57  H   UNL A   1      45.198  27.280  27.544  1.00  0.00     0.167 HD
ATOM     58  C   UNL A   1      41.457  29.077  29.000  1.00  0.00     0.034 A 
ATOM     59  C   UNL A   1      47.851  27.338  26.656  1.00  0.00     0.034 A 
ATOM     60  C   UNL A   1      42.443  30.130  29.057  1.00  0.00     0.049 A 
ATOM     61  C   UNL A   1      47.524  28.736  27.116  1.00  0.00     0.074 A 
ATOM     62  C   UNL A   1      42.302  31.416  29.548  1.00  0.00     0.029 A 
ATOM     63  N   UNL A   1      43.751  30.021  28.598  1.00  0.00    -0.354 N 
ATOM     64  N   UNL A   1      46.394  29.205  27.593  1.00  0.00    -0.248 NA
ATOM     65  C   UNL A   1      48.601  29.730  27.030  1.00  0.00     0.031 C 
ATOM     66  C   UNL A   1      43.500  32.106  29.321  1.00  0.00     0.029 A 
ATOM     67  C   UNL A   1      44.413  31.230  28.758  1.00  0.00     0.049 A 
ATOM     68  H   UNL A   1      44.147  29.207  28.214  1.00  0.00     0.167 HD
ATOM     69  C   UNL A   1      46.635  30.544  27.888  1.00  0.00     0.074 A 
ATOM     70  C   UNL A   1      48.020  30.802  27.548  1.00  0.00     0.031 C 
ATOM     71  C   UNL A   1      45.790  31.475  28.397  1.00  0.00     0.034 A 
BRANCH  58  72
ATOM     72  C   UNL A   1      40.041  29.380  29.428  1.00  0.00     0.023 A 
ATOM     73  C   UNL A   1      39.689  29.496  30.784  1.00  0.00     0.031 A 
ATOM     74  C   UNL A   1      39.025  29.535  28.469  1.00  0.00     0.131 A 
ATOM     75  C   UNL A   1      38.347  29.680  31.146  1.00  0.00     0.055 A 
ATOM     76  C   UNL A   1      37.703  29.800  28.834  1.00  0.00     0.041 A 
ATOM     77  F   UNL A   1      39.296  29.417  27.160  1.00  0.00    -0.206 F 
ATOM     78  C   UNL A   1      37.354  29.858  30.180  1.00  0.00     0.022 A 
BRANCH  75  79
ATOM     79  S   UNL A   1      37.896  29.538  32.898  1.00  0.00     0.124 S 
ATOM     80  O   UNL A   1      39.168  29.831  33.554  1.00  0.00    -0.237 OA
ATOM     81  O   UNL A   1      36.856  30.551  33.039  1.00  0.00    -0.237 OA
ATOM     82  O   UNL A   1      37.441  28.155  33.025  1.00  0.00    -0.744 OA
ENDBRANCH  75  79
ENDBRANCH  58  72
BRANCH  59  83
ATOM     83  C   UNL A   1      49.197  27.013  26.104  1.00  0.00     0.023 A 
ATOM     84  C   UNL A   1      50.283  26.752  26.953  1.00  0.00     0.031 A 
ATOM     85  C   UNL A   1      49.426  26.998  24.715  1.00  0.00     0.131 A 
ATOM     86  C   UNL A   1      51.558  26.530  26.410  1.00  0.00     0.055 A 
ATOM     87  C   UNL A   1      50.685  26.727  24.179  1.00  0.00     0.041 A 
ATOM     88  F   UNL A   1      48.421  27.236  23.858  1.00  0.00    -0.206 F 
ATOM     89  C   UNL A   1      51.765  26.503  25.029  1.00  0.00     0.022 A 
BRANCH  86  90
ATOM     90  S   UNL A   1      52.965  26.359  27.541  1.00  0.00     0.124 S 
ATOM     91  O   UNL A   1      53.590  27.673  27.439  1.00  0.00    -0.237 OA
ATOM     92  O   UNL A   1      52.301  26.061  28.806  1.00  0.00    -0.237 OA
ATOM     93  O   UNL A   1      53.732  25.255  26.966  1.00  0.00    -0.744 OA
ENDBRANCH  86  90
ENDBRANCH  59  83
BRANCH  71  94
ATOM     94  C   UNL A   1      46.356  32.851  28.644  1.00  0.00     0.023 A 
ATOM     95  C   UNL A   1      46.409  33.822  27.629  1.00  0.00     0.031 A 
ATOM     96  C   UNL A   1      46.855  33.193  29.914  1.00  0.00     0.131 A 
ATOM     97  C   UNL A   1      46.993  35.071  27.887  1.00  0.00     0.055 A 
ATOM     98  C   UNL A   1      47.381  34.458  30.181  1.00  0.00     0.041 A 
ATOM     99  F   UNL A   1      46.832  32.303  30.919  1.00  0.00    -0.206 F 
ATOM    100  C   UNL A   1      47.462  35.401  29.161  1.00  0.00     0.022 A 
BRANCH  97 101
ATOM    101  S   UNL A   1      47.197  36.238  26.513  1.00  0.00     0.124 S 
ATOM    102  O   UNL A   1      48.100  37.229  27.089  1.00  0.00    -0.237 OA
ATOM    103  O   UNL A   1      47.762  35.393  25.466  1.00  0.00    -0.237 OA
ATOM    104  O   UNL A   1      45.837  36.711  26.260  1.00  0.00    -0.744 OA
ENDBRANCH  97 101
ENDBRANCH  71  94
ENDBRANCH  45  46
ENDBRANCH  37  40
ENDBRANCH  35  36
ENDBRANCH  34  35
ENDBRANCH  33  34
ENDBRANCH   1  33
TORSDOF 23
ENDMDL
