MODEL 1
REMARK VINA RESULT:     -11.9      0.000      0.000
REMARK SMILES Cc1cccc(C(=O)N2CCC[C@H]2c2nnc(SCC(=O)Nc3ccc(C(=O)NCCCCCCNC(=O)c4ccc(-c5c6nc(c(-c7cc(S(=O)(=O)[O-])ccc7F)c7ccc([nH]7)c(-c7cc(S(=O)(=O)[O-])ccc7F)c7nc(c(-c8cc(S(=O)(=O)[O-])ccc8F)c8ccc5[nH]8)C=C7)C=C6)cc4)cc3)n2C)c1
REMARK SMILES IDX 30 1 29 2 27 3 28 4 26 6 23 7 24 8 103 9 25 10 102 11 22 12
REMARK SMILES IDX 20 13 21 14 19 16 18 17 17 18 14 19 15 20 104 21 16 22
REMARK SMILES IDX 105 23 13 24 9 25 10 26 11 27 12 28 7 29 8 30 6 31 1 32 2 33
REMARK SMILES IDX 3 34 106 35 4 36 5 37 31 38 32 39 33 40 34 41 35 42 36 43
REMARK SMILES IDX 37 44 38 46 39 47 40 48 101 49 41 50 100 51 42 52 43 53
REMARK SMILES IDX 44 54 94 55 45 56 99 57 93 58 95 59 46 60 98 61 92 62 91 63
REMARK SMILES IDX 47 65 79 66 59 67 78 68 60 69 63 70 77 71 96 72 61 73 62 74
REMARK SMILES IDX 76 76 97 77 64 78 48 79 49 80 57 81 50 82 56 83 58 84 55 85
REMARK SMILES IDX 51 86 52 87 53 88 54 89 80 90 81 91 89 92 82 93 88 94 90 95
REMARK SMILES IDX 87 96 83 97 84 98 85 99 86 100 65 101 66 102 74 103 67 104
REMARK SMILES IDX 73 105 75 106 72 107 68 108 69 109 70 110 71 111
REMARK H PARENT 29 5 22 15 36 45 95 64 63 75
REMARK Flexibility Score: inf
ROOT
ATOM      1  C   UNL A   1      37.186  20.897  24.744  1.00  0.00     0.116 C 
ENDROOT
BRANCH   1   2
ATOM      2  N   UNL A   1      36.345  19.733  24.977  1.00  0.00    -0.352 N 
ATOM      3  C   UNL A   1      35.007  19.500  24.782  1.00  0.00     0.251 C 
ATOM      4  O   UNL A   1      34.581  18.356  24.952  1.00  0.00    -0.269 OA
ATOM      5  H   UNL A   1      36.831  18.963  25.349  1.00  0.00     0.163 HD
BRANCH   3   6
ATOM      6  C   UNL A   1      34.063  20.545  24.298  1.00  0.00     0.039 A 
ATOM      7  C   UNL A   1      32.403  22.686  23.584  1.00  0.00     0.041 A 
ATOM      8  C   UNL A   1      31.854  21.439  23.875  1.00  0.00     0.027 A 
ATOM      9  C   UNL A   1      33.785  22.838  23.512  1.00  0.00     0.027 A 
ATOM     10  C   UNL A   1      32.685  20.361  24.187  1.00  0.00     0.016 A 
ATOM     11  C   UNL A   1      34.610  21.779  23.904  1.00  0.00     0.016 A 
BRANCH   7  12
ATOM     12  N   UNL A   1      31.582  23.792  23.353  1.00  0.00    -0.325 N 
ATOM     13  C   UNL A   1      30.626  24.293  24.202  1.00  0.00     0.234 C 
ATOM     14  O   UNL A   1      29.922  25.235  23.827  1.00  0.00    -0.274 OA
ATOM     15  H   UNL A   1      31.701  24.260  22.496  1.00  0.00     0.169 HD
BRANCH  13  16
ATOM     16  C   UNL A   1      30.617  23.851  25.655  1.00  0.00     0.178 C 
BRANCH  16  17
ATOM     17  S   UNL A   1      32.054  24.171  26.684  1.00  0.00    -0.076 SA
BRANCH  17  18
ATOM     18  C   UNL A   1      32.839  25.560  26.045  1.00  0.00     0.191 A 
ATOM     19  C   UNL A   1      33.212  27.594  25.333  1.00  0.00     0.156 A 
ATOM     20  N   UNL A   1      34.113  26.798  24.792  1.00  0.00    -0.132 NA
ATOM     21  N   UNL A   1      32.361  26.835  26.108  1.00  0.00    -0.307 N 
ATOM     22  N   UNL A   1      33.872  25.517  25.236  1.00  0.00    -0.123 NA
ATOM     23  C   UNL A   1      31.189  27.331  26.781  1.00  0.00     0.154 C 
BRANCH  19  24
ATOM     24  C   UNL A   1      33.078  29.068  25.172  1.00  0.00     0.154 C 
ATOM     25  N   UNL A   1      31.826  29.461  24.544  1.00  0.00    -0.328 N 
ATOM     26  C   UNL A   1      31.074  30.356  25.414  1.00  0.00     0.120 C 
ATOM     27  C   UNL A   1      32.163  30.997  26.261  1.00  0.00     0.024 C 
ATOM     28  C   UNL A   1      33.113  29.825  26.504  1.00  0.00     0.035 C 
BRANCH  25  29
ATOM     29  C   UNL A   1      31.604  29.144  23.217  1.00  0.00     0.254 C 
ATOM     30  O   UNL A   1      32.506  28.886  22.422  1.00  0.00    -0.269 OA
BRANCH  29  31
ATOM     31  C   UNL A   1      30.251  29.326  22.648  1.00  0.00     0.040 A 
ATOM     32  C   UNL A   1      26.721  28.198  23.504  1.00  0.00     0.044 C 
ATOM     33  C   UNL A   1      27.862  28.929  22.865  1.00  0.00    -0.050 A 
ATOM     34  C   UNL A   1      27.629  29.972  21.960  1.00  0.00     0.003 A 
ATOM     35  C   UNL A   1      29.180  28.626  23.219  1.00  0.00     0.017 A 
ATOM     36  C   UNL A   1      28.696  30.683  21.402  1.00  0.00     0.001 A 
ATOM     37  C   UNL A   1      30.009  30.365  21.748  1.00  0.00     0.014 A 
ENDBRANCH  29  31
ENDBRANCH  25  29
ENDBRANCH  19  24
ENDBRANCH  17  18
ENDBRANCH  16  17
ENDBRANCH  13  16
ENDBRANCH   7  12
ENDBRANCH   3   6
ENDBRANCH   1   2
BRANCH   1  38
ATOM     38  C   UNL A   1      38.465  20.834  25.581  1.00  0.00     0.021 C 
BRANCH  38  39
ATOM     39  C   UNL A   1      38.934  22.194  26.119  1.00  0.00     0.002 C 
BRANCH  39  40
ATOM     40  C   UNL A   1      40.455  22.377  26.261  1.00  0.00     0.002 C 
BRANCH  40  41
ATOM     41  C   UNL A   1      41.026  22.134  27.658  1.00  0.00     0.021 C 
BRANCH  41  42
ATOM     42  C   UNL A   1      41.883  20.877  27.760  1.00  0.00     0.116 C 
BRANCH  42  43
ATOM     43  N   UNL A   1      42.474  20.462  26.492  1.00  0.00    -0.352 N 
ATOM     44  C   UNL A   1      43.391  21.135  25.698  1.00  0.00     0.251 C 
ATOM     45  H   UNL A   1      42.184  19.584  26.155  1.00  0.00     0.163 HD
ATOM     46  O   UNL A   1      43.756  20.695  24.624  1.00  0.00    -0.269 OA
BRANCH  44  47
ATOM     47  C   UNL A   1      44.029  22.353  26.254  1.00  0.00     0.039 A 
ATOM     48  C   UNL A   1      44.448  22.299  27.587  1.00  0.00     0.014 A 
ATOM     49  C   UNL A   1      43.975  23.567  25.575  1.00  0.00     0.014 A 
ATOM     50  C   UNL A   1      44.581  23.482  28.308  1.00  0.00     0.010 A 
ATOM     51  C   UNL A   1      44.017  24.738  26.308  1.00  0.00     0.010 A 
ATOM     52  C   UNL A   1      44.254  24.688  27.686  1.00  0.00    -0.014 A 
BRANCH  52  53
ATOM     53  C   UNL A   1      43.993  25.911  28.438  1.00  0.00     0.031 A 
ATOM     54  C   UNL A   1      42.658  26.539  28.418  1.00  0.00     0.074 A 
ATOM     55  C   UNL A   1      44.982  26.471  29.167  1.00  0.00     0.049 A 
ATOM     56  N   UNL A   1      42.449  27.803  28.575  1.00  0.00    -0.248 NA
ATOM     57  C   UNL A   1      41.440  25.780  28.168  1.00  0.00     0.031 C 
ATOM     58  C   UNL A   1      44.866  27.556  30.137  1.00  0.00     0.029 A 
ATOM     59  N   UNL A   1      46.354  26.317  28.981  1.00  0.00    -0.354 N 
ATOM     60  C   UNL A   1      41.094  27.989  28.719  1.00  0.00     0.074 A 
ATOM     61  C   UNL A   1      40.506  26.709  28.394  1.00  0.00     0.031 C 
ATOM     62  C   UNL A   1      46.067  28.140  30.277  1.00  0.00     0.029 A 
ATOM     63  C   UNL A   1      46.962  27.540  29.304  1.00  0.00     0.049 A 
ATOM     64  H   UNL A   1      46.812  25.499  28.678  1.00  0.00     0.167 HD
ATOM     65  C   UNL A   1      40.622  29.163  29.228  1.00  0.00     0.034 A 
ATOM     66  C   UNL A   1      47.696  28.225  28.379  1.00  0.00     0.034 A 
ATOM     67  C   UNL A   1      41.705  30.098  29.522  1.00  0.00     0.049 A 
ATOM     68  C   UNL A   1      47.143  29.597  28.065  1.00  0.00     0.074 A 
ATOM     69  C   UNL A   1      42.375  30.412  30.694  1.00  0.00     0.029 A 
ATOM     70  N   UNL A   1      42.444  30.652  28.485  1.00  0.00    -0.354 N 
ATOM     71  N   UNL A   1      45.940  29.992  28.382  1.00  0.00    -0.248 NA
ATOM     72  C   UNL A   1      47.892  30.627  27.350  1.00  0.00     0.031 C 
ATOM     73  C   UNL A   1      43.564  31.104  30.346  1.00  0.00     0.029 A 
ATOM     74  C   UNL A   1      43.594  31.244  28.969  1.00  0.00     0.049 A 
ATOM     75  H   UNL A   1      42.182  30.628  27.535  1.00  0.00     0.167 HD
ATOM     76  C   UNL A   1      45.732  31.265  27.914  1.00  0.00     0.074 A 
ATOM     77  C   UNL A   1      46.996  31.629  27.301  1.00  0.00     0.031 C 
ATOM     78  C   UNL A   1      44.528  31.899  28.064  1.00  0.00     0.034 A 
BRANCH  65  79
ATOM     79  C   UNL A   1      39.215  29.340  29.751  1.00  0.00     0.023 A 
ATOM     80  C   UNL A   1      38.393  30.349  29.205  1.00  0.00     0.031 A 
ATOM     81  C   UNL A   1      38.639  28.591  30.795  1.00  0.00     0.131 A 
ATOM     82  C   UNL A   1      37.137  30.654  29.760  1.00  0.00     0.055 A 
ATOM     83  C   UNL A   1      37.418  28.935  31.390  1.00  0.00     0.041 A 
ATOM     84  F   UNL A   1      39.211  27.468  31.250  1.00  0.00    -0.206 F 
ATOM     85  C   UNL A   1      36.665  29.983  30.883  1.00  0.00     0.022 A 
BRANCH  82  86
ATOM     86  S   UNL A   1      36.116  31.938  28.983  1.00  0.00     0.124 S 
ATOM     87  O   UNL A   1      34.983  32.033  29.899  1.00  0.00    -0.237 OA
ATOM     88  O   UNL A   1      37.023  33.080  28.955  1.00  0.00    -0.237 OA
ATOM     89  O   UNL A   1      35.800  31.373  27.672  1.00  0.00    -0.744 OA
ENDBRANCH  82  86
ENDBRANCH  65  79
BRANCH  66  90
ATOM     90  C   UNL A   1      48.412  27.333  27.422  1.00  0.00     0.023 A 
ATOM     91  C   UNL A   1      47.968  27.336  26.080  1.00  0.00     0.031 A 
ATOM     92  C   UNL A   1      49.691  26.829  27.686  1.00  0.00     0.131 A 
ATOM     93  C   UNL A   1      48.847  27.003  25.042  1.00  0.00     0.055 A 
ATOM     94  C   UNL A   1      50.546  26.437  26.648  1.00  0.00     0.041 A 
ATOM     95  F   UNL A   1      50.181  26.826  28.935  1.00  0.00    -0.206 F 
ATOM     96  C   UNL A   1      50.144  26.567  25.317  1.00  0.00     0.022 A 
BRANCH  93  97
ATOM     97  S   UNL A   1      48.378  27.405  23.331  1.00  0.00     0.124 S 
ATOM     98  O   UNL A   1      48.245  26.083  22.732  1.00  0.00    -0.237 OA
ATOM     99  O   UNL A   1      47.135  28.154  23.501  1.00  0.00    -0.237 OA
ATOM    100  O   UNL A   1      49.503  28.206  22.852  1.00  0.00    -0.744 OA
ENDBRANCH  93  97
ENDBRANCH  66  90
BRANCH  78 101
ATOM    101  C   UNL A   1      44.130  33.224  27.443  1.00  0.00     0.023 A 
ATOM    102  C   UNL A   1      44.093  34.434  28.150  1.00  0.00     0.031 A 
ATOM    103  C   UNL A   1      43.851  33.318  26.056  1.00  0.00     0.131 A 
ATOM    104  C   UNL A   1      43.723  35.637  27.517  1.00  0.00     0.055 A 
ATOM    105  C   UNL A   1      43.564  34.525  25.412  1.00  0.00     0.041 A 
ATOM    106  F   UNL A   1      43.849  32.238  25.259  1.00  0.00    -0.206 F 
ATOM    107  C   UNL A   1      43.483  35.695  26.147  1.00  0.00     0.022 A 
BRANCH 104 108
ATOM    108  S   UNL A   1      43.501  37.115  28.540  1.00  0.00     0.124 S 
ATOM    109  O   UNL A   1      44.821  37.735  28.462  1.00  0.00    -0.237 OA
ATOM    110  O   UNL A   1      42.428  37.819  27.847  1.00  0.00    -0.237 OA
ATOM    111  O   UNL A   1      43.145  36.578  29.852  1.00  0.00    -0.744 OA
ENDBRANCH 104 108
ENDBRANCH  78 101
ENDBRANCH  52  53
ENDBRANCH  44  47
ENDBRANCH  42  43
ENDBRANCH  41  42
ENDBRANCH  40  41
ENDBRANCH  39  40
ENDBRANCH  38  39
ENDBRANCH   1  38
TORSDOF 23
ENDMDL
MODEL 2
REMARK VINA RESULT:     -11.7      5.405     11.785
REMARK SMILES Cc1cccc(C(=O)N2CCC[C@H]2c2nnc(SCC(=O)Nc3ccc(C(=O)NCCCCCCNC(=O)c4ccc(-c5c6nc(c(-c7cc(S(=O)(=O)[O-])ccc7F)c7ccc([nH]7)c(-c7cc(S(=O)(=O)[O-])ccc7F)c7nc(c(-c8cc(S(=O)(=O)[O-])ccc8F)c8ccc5[nH]8)C=C7)C=C6)cc4)cc3)n2C)c1
REMARK SMILES IDX 30 1 29 2 27 3 28 4 26 6 23 7 24 8 103 9 25 10 102 11 22 12
REMARK SMILES IDX 20 13 21 14 19 16 18 17 17 18 14 19 15 20 104 21 16 22
REMARK SMILES IDX 105 23 13 24 9 25 10 26 11 27 12 28 7 29 8 30 6 31 1 32 2 33
REMARK SMILES IDX 3 34 106 35 4 36 5 37 31 38 32 39 33 40 34 41 35 42 36 43
REMARK SMILES IDX 37 44 38 46 39 47 40 48 101 49 41 50 100 51 42 52 43 53
REMARK SMILES IDX 44 54 94 55 45 56 99 57 93 58 95 59 46 60 98 61 92 62 91 63
REMARK SMILES IDX 47 65 79 66 59 67 78 68 60 69 63 70 77 71 96 72 61 73 62 74
REMARK SMILES IDX 76 76 97 77 64 78 48 79 49 80 57 81 50 82 56 83 58 84 55 85
REMARK SMILES IDX 51 86 52 87 53 88 54 89 80 90 81 91 89 92 82 93 88 94 90 95
REMARK SMILES IDX 87 96 83 97 84 98 85 99 86 100 65 101 66 102 74 103 67 104
REMARK SMILES IDX 73 105 75 106 72 107 68 108 69 109 70 110 71 111
REMARK H PARENT 29 5 22 15 36 45 95 64 63 75
REMARK Flexibility Score: inf
ROOT
ATOM      1  C   UNL A   1      33.698  27.301  26.114  1.00  0.00     0.116 C 
ENDROOT
BRANCH   1   2
ATOM      2  N   UNL A   1      32.360  26.765  25.926  1.00  0.00    -0.352 N 
ATOM      3  C   UNL A   1      31.891  25.496  25.696  1.00  0.00     0.251 C 
ATOM      4  O   UNL A   1      30.673  25.310  25.705  1.00  0.00    -0.269 OA
ATOM      5  H   UNL A   1      31.651  27.446  25.972  1.00  0.00     0.163 HD
BRANCH   3   6
ATOM      6  C   UNL A   1      32.788  24.320  25.516  1.00  0.00     0.039 A 
ATOM      7  C   UNL A   1      34.657  22.240  25.353  1.00  0.00     0.041 A 
ATOM      8  C   UNL A   1      34.142  22.812  24.192  1.00  0.00     0.027 A 
ATOM      9  C   UNL A   1      34.145  22.603  26.595  1.00  0.00     0.027 A 
ATOM     10  C   UNL A   1      33.176  23.818  24.275  1.00  0.00     0.016 A 
ATOM     11  C   UNL A   1      33.239  23.665  26.676  1.00  0.00     0.016 A 
BRANCH   7  12
ATOM     12  N   UNL A   1      35.683  21.294  25.288  1.00  0.00    -0.325 N 
ATOM     13  C   UNL A   1      36.984  21.522  24.915  1.00  0.00     0.234 C 
ATOM     14  O   UNL A   1      37.763  20.568  24.832  1.00  0.00    -0.274 OA
ATOM     15  H   UNL A   1      35.449  20.371  25.536  1.00  0.00     0.169 HD
BRANCH  13  16
ATOM     16  C   UNL A   1      37.501  22.949  24.851  1.00  0.00     0.178 C 
BRANCH  16  17
ATOM     17  S   UNL A   1      37.725  23.874  26.375  1.00  0.00    -0.076 SA
BRANCH  17  18
ATOM     18  C   UNL A   1      39.399  24.236  26.510  1.00  0.00     0.191 A 
ATOM     19  C   UNL A   1      41.514  24.117  27.055  1.00  0.00     0.156 A 
ATOM     20  N   UNL A   1      41.235  25.372  26.759  1.00  0.00    -0.132 NA
ATOM     21  N   UNL A   1      40.360  23.371  26.943  1.00  0.00    -0.307 N 
ATOM     22  N   UNL A   1      39.903  25.445  26.424  1.00  0.00    -0.123 NA
ATOM     23  C   UNL A   1      40.239  21.977  27.280  1.00  0.00     0.154 C 
BRANCH  19  24
ATOM     24  C   UNL A   1      42.828  23.540  27.452  1.00  0.00     0.154 C 
ATOM     25  N   UNL A   1      43.831  23.635  26.402  1.00  0.00    -0.328 N 
ATOM     26  C   UNL A   1      44.992  24.382  26.869  1.00  0.00     0.120 C 
ATOM     27  C   UNL A   1      44.949  24.168  28.374  1.00  0.00     0.024 C 
ATOM     28  C   UNL A   1      43.451  24.238  28.666  1.00  0.00     0.035 C 
BRANCH  25  29
ATOM     29  C   UNL A   1      43.680  22.888  25.249  1.00  0.00     0.254 C 
ATOM     30  O   UNL A   1      43.033  23.268  24.276  1.00  0.00    -0.269 OA
BRANCH  29  31
ATOM     31  C   UNL A   1      44.125  21.478  25.240  1.00  0.00     0.040 A 
ATOM     32  C   UNL A   1      42.687  18.122  26.308  1.00  0.00     0.044 C 
ATOM     33  C   UNL A   1      43.577  19.150  25.678  1.00  0.00    -0.050 A 
ATOM     34  C   UNL A   1      44.641  18.767  24.852  1.00  0.00     0.003 A 
ATOM     35  C   UNL A   1      43.315  20.511  25.850  1.00  0.00     0.017 A 
ATOM     36  C   UNL A   1      45.442  19.730  24.228  1.00  0.00     0.001 A 
ATOM     37  C   UNL A   1      45.182  21.087  24.417  1.00  0.00     0.014 A 
ENDBRANCH  29  31
ENDBRANCH  25  29
ENDBRANCH  19  24
ENDBRANCH  17  18
ENDBRANCH  16  17
ENDBRANCH  13  16
ENDBRANCH   7  12
ENDBRANCH   3   6
ENDBRANCH   1   2
BRANCH   1  38
ATOM     38  C   UNL A   1      33.700  28.443  27.133  1.00  0.00     0.021 C 
BRANCH  38  39
ATOM     39  C   UNL A   1      34.910  29.383  27.023  1.00  0.00     0.002 C 
BRANCH  39  40
ATOM     40  C   UNL A   1      35.498  29.887  28.353  1.00  0.00     0.002 C 
BRANCH  40  41
ATOM     41  C   UNL A   1      35.172  31.336  28.717  1.00  0.00     0.021 C 
BRANCH  41  42
ATOM     42  C   UNL A   1      35.570  31.715  30.140  1.00  0.00     0.116 C 
BRANCH  42  43
ATOM     43  N   UNL A   1      34.464  32.225  30.944  1.00  0.00    -0.352 N 
ATOM     44  C   UNL A   1      34.511  32.931  32.138  1.00  0.00     0.251 C 
ATOM     45  H   UNL A   1      33.563  32.046  30.592  1.00  0.00     0.163 HD
ATOM     46  O   UNL A   1      33.501  33.245  32.738  1.00  0.00    -0.269 OA
BRANCH  44  47
ATOM     47  C   UNL A   1      35.831  33.420  32.605  1.00  0.00     0.039 A 
ATOM     48  C   UNL A   1      36.475  34.372  31.806  1.00  0.00     0.014 A 
ATOM     49  C   UNL A   1      36.513  32.779  33.635  1.00  0.00     0.014 A 
ATOM     50  C   UNL A   1      37.858  34.502  31.885  1.00  0.00     0.010 A 
ATOM     51  C   UNL A   1      37.893  32.839  33.653  1.00  0.00     0.010 A 
ATOM     52  C   UNL A   1      38.567  33.651  32.733  1.00  0.00    -0.014 A 
BRANCH  52  53
ATOM     53  C   UNL A   1      40.006  33.442  32.611  1.00  0.00     0.031 A 
ATOM     54  C   UNL A   1      40.542  32.318  31.821  1.00  0.00     0.074 A 
ATOM     55  C   UNL A   1      40.858  34.293  33.222  1.00  0.00     0.049 A 
ATOM     56  N   UNL A   1      41.673  31.741  32.055  1.00  0.00    -0.248 NA
ATOM     57  C   UNL A   1      39.807  31.718  30.715  1.00  0.00     0.031 C 
ATOM     58  C   UNL A   1      42.305  34.378  33.051  1.00  0.00     0.029 A 
ATOM     59  N   UNL A   1      40.591  35.103  34.324  1.00  0.00    -0.354 N 
ATOM     60  C   UNL A   1      41.941  30.901  31.000  1.00  0.00     0.074 A 
ATOM     61  C   UNL A   1      40.722  30.875  30.225  1.00  0.00     0.031 C 
ATOM     62  C   UNL A   1      42.835  34.971  34.133  1.00  0.00     0.029 A 
ATOM     63  C   UNL A   1      41.763  35.166  35.093  1.00  0.00     0.049 A 
ATOM     64  H   UNL A   1      39.737  35.550  34.525  1.00  0.00     0.167 HD
ATOM     65  C   UNL A   1      43.207  30.425  30.818  1.00  0.00     0.034 A 
ATOM     66  C   UNL A   1      41.776  34.735  36.388  1.00  0.00     0.034 A 
ATOM     67  C   UNL A   1      44.114  30.893  31.863  1.00  0.00     0.049 A 
ATOM     68  C   UNL A   1      42.735  33.590  36.634  1.00  0.00     0.074 A 
ATOM     69  C   UNL A   1      45.026  31.935  31.910  1.00  0.00     0.029 A 
ATOM     70  N   UNL A   1      43.955  30.448  33.169  1.00  0.00    -0.354 N 
ATOM     71  N   UNL A   1      43.269  32.867  35.688  1.00  0.00    -0.248 NA
ATOM     72  C   UNL A   1      43.150  33.155  37.964  1.00  0.00     0.031 C 
ATOM     73  C   UNL A   1      45.365  32.159  33.269  1.00  0.00     0.029 A 
ATOM     74  C   UNL A   1      44.689  31.229  34.041  1.00  0.00     0.049 A 
ATOM     75  H   UNL A   1      43.398  29.680  33.436  1.00  0.00     0.167 HD
ATOM     76  C   UNL A   1      44.050  31.883  36.242  1.00  0.00     0.074 A 
ATOM     77  C   UNL A   1      43.965  32.126  37.671  1.00  0.00     0.031 C 
ATOM     78  C   UNL A   1      44.684  30.949  35.470  1.00  0.00     0.034 A 
BRANCH  65  79
ATOM     79  C   UNL A   1      43.686  29.801  29.527  1.00  0.00     0.023 A 
ATOM     80  C   UNL A   1      44.518  30.545  28.663  1.00  0.00     0.031 A 
ATOM     81  C   UNL A   1      43.337  28.516  29.071  1.00  0.00     0.131 A 
ATOM     82  C   UNL A   1      44.862  30.070  27.385  1.00  0.00     0.055 A 
ATOM     83  C   UNL A   1      43.625  28.067  27.775  1.00  0.00     0.041 A 
ATOM     84  F   UNL A   1      42.747  27.623  29.877  1.00  0.00    -0.206 F 
ATOM     85  C   UNL A   1      44.379  28.853  26.917  1.00  0.00     0.022 A 
BRANCH  82  86
ATOM     86  S   UNL A   1      45.968  31.062  26.341  1.00  0.00     0.124 S 
ATOM     87  O   UNL A   1      45.038  31.968  25.675  1.00  0.00    -0.237 OA
ATOM     88  O   UNL A   1      46.865  31.661  27.323  1.00  0.00    -0.237 OA
ATOM     89  O   UNL A   1      46.590  30.068  25.467  1.00  0.00    -0.744 OA
ENDBRANCH  82  86
ENDBRANCH  65  79
BRANCH  66  90
ATOM     90  C   UNL A   1      40.480  34.952  37.092  1.00  0.00     0.023 A 
ATOM     91  C   UNL A   1      39.586  33.859  37.152  1.00  0.00     0.031 A 
ATOM     92  C   UNL A   1      40.290  36.003  37.997  1.00  0.00     0.131 A 
ATOM     93  C   UNL A   1      38.653  33.763  38.193  1.00  0.00     0.055 A 
ATOM     94  C   UNL A   1      39.314  35.931  39.000  1.00  0.00     0.041 A 
ATOM     95  F   UNL A   1      41.123  37.054  38.010  1.00  0.00    -0.206 F 
ATOM     96  C   UNL A   1      38.522  34.788  39.131  1.00  0.00     0.022 A 
BRANCH  93  97
ATOM     97  S   UNL A   1      37.812  32.175  38.474  1.00  0.00     0.124 S 
ATOM     98  O   UNL A   1      36.409  32.571  38.486  1.00  0.00    -0.237 OA
ATOM     99  O   UNL A   1      38.236  31.374  37.328  1.00  0.00    -0.237 OA
ATOM    100  O   UNL A   1      38.353  31.728  39.756  1.00  0.00    -0.744 OA
ENDBRANCH  93  97
ENDBRANCH  66  90
BRANCH  78 101
ATOM    101  C   UNL A   1      45.424  29.725  35.973  1.00  0.00     0.023 A 
ATOM    102  C   UNL A   1      44.854  28.445  36.044  1.00  0.00     0.031 A 
ATOM    103  C   UNL A   1      46.796  29.802  36.325  1.00  0.00     0.131 A 
ATOM    104  C   UNL A   1      45.595  27.343  36.512  1.00  0.00     0.055 A 
ATOM    105  C   UNL A   1      47.552  28.691  36.710  1.00  0.00     0.041 A 
ATOM    106  F   UNL A   1      47.467  30.964  36.304  1.00  0.00    -0.206 F 
ATOM    107  C   UNL A   1      46.948  27.452  36.822  1.00  0.00     0.022 A 
BRANCH 104 108
ATOM    108  S   UNL A   1      44.730  25.771  36.767  1.00  0.00     0.124 S 
ATOM    109  O   UNL A   1      43.342  26.208  36.886  1.00  0.00    -0.237 OA
ATOM    110  O   UNL A   1      45.060  25.030  35.554  1.00  0.00    -0.237 OA
ATOM    111  O   UNL A   1      45.322  25.246  37.997  1.00  0.00    -0.744 OA
ENDBRANCH 104 108
ENDBRANCH  78 101
ENDBRANCH  52  53
ENDBRANCH  44  47
ENDBRANCH  42  43
ENDBRANCH  41  42
ENDBRANCH  40  41
ENDBRANCH  39  40
ENDBRANCH  38  39
ENDBRANCH   1  38
TORSDOF 23
ENDMDL
MODEL 3
REMARK VINA RESULT:     -11.7      8.731     17.024
REMARK SMILES Cc1cccc(C(=O)N2CCC[C@H]2c2nnc(SCC(=O)Nc3ccc(C(=O)NCCCCCCNC(=O)c4ccc(-c5c6nc(c(-c7cc(S(=O)(=O)[O-])ccc7F)c7ccc([nH]7)c(-c7cc(S(=O)(=O)[O-])ccc7F)c7nc(c(-c8cc(S(=O)(=O)[O-])ccc8F)c8ccc5[nH]8)C=C7)C=C6)cc4)cc3)n2C)c1
REMARK SMILES IDX 30 1 29 2 27 3 28 4 26 6 23 7 24 8 103 9 25 10 102 11 22 12
REMARK SMILES IDX 20 13 21 14 19 16 18 17 17 18 14 19 15 20 104 21 16 22
REMARK SMILES IDX 105 23 13 24 9 25 10 26 11 27 12 28 7 29 8 30 6 31 1 32 2 33
REMARK SMILES IDX 3 34 106 35 4 36 5 37 31 38 32 39 33 40 34 41 35 42 36 43
REMARK SMILES IDX 37 44 38 46 39 47 40 48 101 49 41 50 100 51 42 52 43 53
REMARK SMILES IDX 44 54 94 55 45 56 99 57 93 58 95 59 46 60 98 61 92 62 91 63
REMARK SMILES IDX 47 65 79 66 59 67 78 68 60 69 63 70 77 71 96 72 61 73 62 74
REMARK SMILES IDX 76 76 97 77 64 78 48 79 49 80 57 81 50 82 56 83 58 84 55 85
REMARK SMILES IDX 51 86 52 87 53 88 54 89 80 90 81 91 89 92 82 93 88 94 90 95
REMARK SMILES IDX 87 96 83 97 84 98 85 99 86 100 65 101 66 102 74 103 67 104
REMARK SMILES IDX 73 105 75 106 72 107 68 108 69 109 70 110 71 111
REMARK H PARENT 29 5 22 15 36 45 95 64 63 75
REMARK Flexibility Score: inf
ROOT
ATOM      1  C   UNL A   1      44.615  43.099  34.420  1.00  0.00     0.116 C 
ENDROOT
BRANCH   1   2
ATOM      2  N   UNL A   1      44.118  44.309  33.787  1.00  0.00    -0.352 N 
ATOM      3  C   UNL A   1      43.586  44.558  32.546  1.00  0.00     0.251 C 
ATOM      4  O   UNL A   1      43.121  45.677  32.321  1.00  0.00    -0.269 OA
ATOM      5  H   UNL A   1      44.173  45.107  34.360  1.00  0.00     0.163 HD
BRANCH   3   6
ATOM      6  C   UNL A   1      43.475  43.517  31.488  1.00  0.00     0.039 A 
ATOM      7  C   UNL A   1      43.233  41.367  29.707  1.00  0.00     0.041 A 
ATOM      8  C   UNL A   1      44.306  42.248  29.601  1.00  0.00     0.027 A 
ATOM      9  C   UNL A   1      42.204  41.628  30.608  1.00  0.00     0.027 A 
ATOM     10  C   UNL A   1      44.401  43.345  30.460  1.00  0.00     0.016 A 
ATOM     11  C   UNL A   1      42.345  42.680  31.518  1.00  0.00     0.016 A 
BRANCH   7  12
ATOM     12  N   UNL A   1      43.169  40.220  28.912  1.00  0.00    -0.325 N 
ATOM     13  C   UNL A   1      43.194  40.173  27.540  1.00  0.00     0.234 C 
ATOM     14  O   UNL A   1      43.051  39.086  26.972  1.00  0.00    -0.274 OA
ATOM     15  H   UNL A   1      43.099  39.359  29.384  1.00  0.00     0.169 HD
BRANCH  13  16
ATOM     16  C   UNL A   1      43.637  41.400  26.762  1.00  0.00     0.178 C 
BRANCH  16  17
ATOM     17  S   UNL A   1      45.067  41.289  25.681  1.00  0.00    -0.076 SA
BRANCH  17  18
ATOM     18  C   UNL A   1      45.048  42.675  24.666  1.00  0.00     0.191 A 
ATOM     19  C   UNL A   1      45.646  44.196  23.213  1.00  0.00     0.156 A 
ATOM     20  N   UNL A   1      44.715  44.714  23.990  1.00  0.00    -0.132 NA
ATOM     21  N   UNL A   1      45.910  42.911  23.636  1.00  0.00    -0.307 N 
ATOM     22  N   UNL A   1      44.345  43.758  24.908  1.00  0.00    -0.123 NA
ATOM     23  C   UNL A   1      46.936  42.056  23.100  1.00  0.00     0.154 C 
BRANCH  19  24
ATOM     24  C   UNL A   1      46.336  44.837  22.059  1.00  0.00     0.154 C 
ATOM     25  N   UNL A   1      45.438  45.134  20.953  1.00  0.00    -0.328 N 
ATOM     26  C   UNL A   1      45.458  46.559  20.646  1.00  0.00     0.120 C 
ATOM     27  C   UNL A   1      46.833  46.991  21.133  1.00  0.00     0.024 C 
ATOM     28  C   UNL A   1      46.990  46.176  22.416  1.00  0.00     0.035 C 
BRANCH  25  29
ATOM     29  C   UNL A   1      44.878  44.095  20.235  1.00  0.00     0.254 C 
ATOM     30  O   UNL A   1      45.516  43.117  19.850  1.00  0.00    -0.269 OA
BRANCH  29  31
ATOM     31  C   UNL A   1      43.505  44.240  19.708  1.00  0.00     0.040 A 
ATOM     32  C   UNL A   1      41.901  45.423  16.468  1.00  0.00     0.044 C 
ATOM     33  C   UNL A   1      42.078  44.804  17.821  1.00  0.00    -0.050 A 
ATOM     34  C   UNL A   1      41.025  44.119  18.440  1.00  0.00     0.003 A 
ATOM     35  C   UNL A   1      43.323  44.842  18.456  1.00  0.00     0.017 A 
ATOM     36  C   UNL A   1      41.209  43.502  19.682  1.00  0.00     0.001 A 
ATOM     37  C   UNL A   1      42.450  43.558  20.317  1.00  0.00     0.014 A 
ENDBRANCH  29  31
ENDBRANCH  25  29
ENDBRANCH  19  24
ENDBRANCH  17  18
ENDBRANCH  16  17
ENDBRANCH  13  16
ENDBRANCH   7  12
ENDBRANCH   3   6
ENDBRANCH   1   2
BRANCH   1  38
ATOM     38  C   UNL A   1      46.104  42.893  34.130  1.00  0.00     0.021 C 
BRANCH  38  39
ATOM     39  C   UNL A   1      46.396  41.817  33.073  1.00  0.00     0.002 C 
BRANCH  39  40
ATOM     40  C   UNL A   1      45.381  40.664  32.983  1.00  0.00     0.002 C 
BRANCH  40  41
ATOM     41  C   UNL A   1      45.551  39.546  34.013  1.00  0.00     0.021 C 
BRANCH  41  42
ATOM     42  C   UNL A   1      44.526  39.592  35.141  1.00  0.00     0.116 C 
BRANCH  42  43
ATOM     43  N   UNL A   1      45.118  39.658  36.473  1.00  0.00    -0.352 N 
ATOM     44  C   UNL A   1      44.970  38.778  37.535  1.00  0.00     0.251 C 
ATOM     45  H   UNL A   1      45.704  40.431  36.640  1.00  0.00     0.163 HD
ATOM     46  O   UNL A   1      45.478  38.990  38.620  1.00  0.00    -0.269 OA
BRANCH  44  47
ATOM     47  C   UNL A   1      44.283  37.489  37.279  1.00  0.00     0.039 A 
ATOM     48  C   UNL A   1      45.087  36.398  36.934  1.00  0.00     0.014 A 
ATOM     49  C   UNL A   1      42.900  37.428  37.130  1.00  0.00     0.014 A 
ATOM     50  C   UNL A   1      44.531  35.342  36.218  1.00  0.00     0.010 A 
ATOM     51  C   UNL A   1      42.363  36.428  36.343  1.00  0.00     0.010 A 
ATOM     52  C   UNL A   1      43.192  35.423  35.833  1.00  0.00    -0.014 A 
BRANCH  52  53
ATOM     53  C   UNL A   1      42.627  34.582  34.782  1.00  0.00     0.031 A 
ATOM     54  C   UNL A   1      42.728  34.975  33.364  1.00  0.00     0.074 A 
ATOM     55  C   UNL A   1      42.011  33.426  35.111  1.00  0.00     0.049 A 
ATOM     56  N   UNL A   1      41.875  34.639  32.456  1.00  0.00    -0.248 NA
ATOM     57  C   UNL A   1      43.795  35.832  32.863  1.00  0.00     0.031 C 
ATOM     58  C   UNL A   1      41.575  32.363  34.210  1.00  0.00     0.029 A 
ATOM     59  N   UNL A   1      41.435  33.100  36.336  1.00  0.00    -0.354 N 
ATOM     60  C   UNL A   1      42.402  34.989  31.235  1.00  0.00     0.074 A 
ATOM     61  C   UNL A   1      43.567  35.785  31.547  1.00  0.00     0.031 C 
ATOM     62  C   UNL A   1      40.614  31.649  34.816  1.00  0.00     0.029 A 
ATOM     63  C   UNL A   1      40.305  32.310  36.072  1.00  0.00     0.049 A 
ATOM     64  H   UNL A   1      41.760  33.374  37.225  1.00  0.00     0.167 HD
ATOM     65  C   UNL A   1      41.879  34.457  30.093  1.00  0.00     0.034 A 
ATOM     66  C   UNL A   1      39.061  32.709  36.469  1.00  0.00     0.034 A 
ATOM     67  C   UNL A   1      40.751  33.574  30.378  1.00  0.00     0.049 A 
ATOM     68  C   UNL A   1      38.095  32.904  35.321  1.00  0.00     0.074 A 
ATOM     69  C   UNL A   1      40.649  32.197  30.496  1.00  0.00     0.029 A 
ATOM     70  N   UNL A   1      39.566  34.101  30.874  1.00  0.00    -0.354 N 
ATOM     71  N   UNL A   1      38.453  32.995  34.069  1.00  0.00    -0.248 NA
ATOM     72  C   UNL A   1      36.651  33.033  35.493  1.00  0.00     0.031 C 
ATOM     73  C   UNL A   1      39.417  31.902  31.134  1.00  0.00     0.029 A 
ATOM     74  C   UNL A   1      38.755  33.096  31.365  1.00  0.00     0.049 A 
ATOM     75  H   UNL A   1      39.335  35.059  30.874  1.00  0.00     0.167 HD
ATOM     76  C   UNL A   1      37.348  33.217  33.286  1.00  0.00     0.074 A 
ATOM     77  C   UNL A   1      36.240  33.203  34.224  1.00  0.00     0.031 C 
ATOM     78  C   UNL A   1      37.451  33.407  31.935  1.00  0.00     0.034 A 
BRANCH  65  79
ATOM     79  C   UNL A   1      42.585  34.489  28.757  1.00  0.00     0.023 A 
ATOM     80  C   UNL A   1      43.454  33.434  28.406  1.00  0.00     0.031 A 
ATOM     81  C   UNL A   1      42.484  35.529  27.813  1.00  0.00     0.131 A 
ATOM     82  C   UNL A   1      44.250  33.492  27.248  1.00  0.00     0.055 A 
ATOM     83  C   UNL A   1      43.323  35.620  26.693  1.00  0.00     0.041 A 
ATOM     84  F   UNL A   1      41.538  36.473  27.908  1.00  0.00    -0.206 F 
ATOM     85  C   UNL A   1      44.224  34.605  26.413  1.00  0.00     0.022 A 
BRANCH  82  86
ATOM     86  S   UNL A   1      45.317  32.082  26.836  1.00  0.00     0.124 S 
ATOM     87  O   UNL A   1      46.560  32.420  27.522  1.00  0.00    -0.237 OA
ATOM     88  O   UNL A   1      44.564  30.957  27.378  1.00  0.00    -0.237 OA
ATOM     89  O   UNL A   1      45.389  32.127  25.376  1.00  0.00    -0.744 OA
ENDBRANCH  82  86
ENDBRANCH  65  79
BRANCH  66  90
ATOM     90  C   UNL A   1      39.073  33.488  37.740  1.00  0.00     0.023 A 
ATOM     91  C   UNL A   1      39.277  32.768  38.938  1.00  0.00     0.031 A 
ATOM     92  C   UNL A   1      39.286  34.872  37.763  1.00  0.00     0.131 A 
ATOM     93  C   UNL A   1      39.837  33.399  40.057  1.00  0.00     0.055 A 
ATOM     94  C   UNL A   1      39.788  35.510  38.906  1.00  0.00     0.041 A 
ATOM     95  F   UNL A   1      39.137  35.606  36.651  1.00  0.00    -0.206 F 
ATOM     96  C   UNL A   1      40.109  34.767  40.043  1.00  0.00     0.022 A 
BRANCH  93  97
ATOM     97  S   UNL A   1      40.459  32.372  41.424  1.00  0.00     0.124 S 
ATOM     98  O   UNL A   1      40.738  33.368  42.451  1.00  0.00    -0.237 OA
ATOM     99  O   UNL A   1      39.338  31.476  41.696  1.00  0.00    -0.237 OA
ATOM    100  O   UNL A   1      41.630  31.715  40.847  1.00  0.00    -0.744 OA
ENDBRANCH  93  97
ENDBRANCH  66  90
BRANCH  78 101
ATOM    101  C   UNL A   1      36.333  33.827  31.002  1.00  0.00     0.023 A 
ATOM    102  C   UNL A   1      35.300  34.703  31.370  1.00  0.00     0.031 A 
ATOM    103  C   UNL A   1      36.326  33.410  29.646  1.00  0.00     0.131 A 
ATOM    104  C   UNL A   1      34.292  35.065  30.455  1.00  0.00     0.055 A 
ATOM    105  C   UNL A   1      35.370  33.835  28.719  1.00  0.00     0.041 A 
ATOM    106  F   UNL A   1      37.252  32.570  29.160  1.00  0.00    -0.206 F 
ATOM    107  C   UNL A   1      34.334  34.657  29.125  1.00  0.00     0.022 A 
BRANCH 104 108
ATOM    108  S   UNL A   1      32.886  36.033  31.063  1.00  0.00     0.124 S 
ATOM    109  O   UNL A   1      33.554  37.165  31.698  1.00  0.00    -0.237 OA
ATOM    110  O   UNL A   1      32.157  36.334  29.835  1.00  0.00    -0.237 OA
ATOM    111  O   UNL A   1      32.207  35.119  31.980  1.00  0.00    -0.744 OA
ENDBRANCH 104 108
ENDBRANCH  78 101
ENDBRANCH  52  53
ENDBRANCH  44  47
ENDBRANCH  42  43
ENDBRANCH  41  42
ENDBRANCH  40  41
ENDBRANCH  39  40
ENDBRANCH  38  39
ENDBRANCH   1  38
TORSDOF 23
ENDMDL
