MODEL 1
REMARK VINA RESULT:     -11.5      0.000      0.000
REMARK SMILES O=C(NCCCCCCNC(=O)[C@H]1CC[C@H]2CCCC[C@@H]2[N@H+]1[C@@H]1CCCSC1)c1ccc(-c2c3nc(c(-c4cc(S(=O)(=O)[O-])ccc4F)c4ccc([nH]4)c(-c4cc(S(=O)(=O)[O-])ccc4F)c4nc(c(-c5cc(S(=O)(=O)[O-])ccc5F)c5ccc2[nH]5)C=C4)C=C3)cc1
REMARK SMILES IDX 5 1 4 2 3 3 1 4 2 5 29 7 30 8 91 9 31 10 90 11 32 12 33 13
REMARK SMILES IDX 34 14 84 15 35 16 89 17 83 18 85 19 36 20 88 21 82 22 81 23
REMARK SMILES IDX 37 25 69 26 49 27 68 28 50 29 53 30 67 31 86 32 51 33 52 34
REMARK SMILES IDX 66 36 87 37 54 38 38 39 39 40 47 41 40 42 46 43 48 44 45 45
REMARK SMILES IDX 41 46 42 47 43 48 44 49 70 50 71 51 79 52 72 53 78 54 80 55
REMARK SMILES IDX 77 56 73 57 74 58 75 59 76 60 55 61 56 62 64 63 57 64 63 65
REMARK SMILES IDX 65 66 62 67 58 68 59 69 60 70 61 71 6 72 7 73 8 74 9 75
REMARK SMILES IDX 10 76 11 77 12 79 13 80 14 81 22 82 15 83 21 84 16 86 20 87
REMARK SMILES IDX 17 88 19 89 18 90 23 91 24 92 28 93 25 94 27 95 26 96
REMARK H PARENT 3 6 85 24 53 35 10 78 22 85
REMARK Flexibility Score: inf
ROOT
ATOM      1  C   UNL A   1      32.765  28.022  26.788  1.00  0.00     0.021 C 
ENDROOT
BRANCH   1   2
ATOM      2  C   UNL A   1      33.875  28.922  26.263  1.00  0.00     0.116 C 
BRANCH   2   3
ATOM      3  N   UNL A   1      33.714  30.300  26.694  1.00  0.00    -0.352 N 
ATOM      4  O   UNL A   1      34.077  32.107  27.994  1.00  0.00    -0.269 OA
ATOM      5  C   UNL A   1      34.461  31.007  27.604  1.00  0.00     0.251 C 
ATOM      6  H   UNL A   1      32.970  30.794  26.277  1.00  0.00     0.163 HD
BRANCH   5   7
ATOM      7  C   UNL A   1      35.722  30.432  28.118  1.00  0.00     0.039 A 
ATOM      8  C   UNL A   1      36.915  30.589  27.405  1.00  0.00     0.014 A 
ATOM      9  C   UNL A   1      35.716  29.748  29.337  1.00  0.00     0.014 A 
ATOM     10  C   UNL A   1      38.078  29.975  27.855  1.00  0.00     0.010 A 
ATOM     11  C   UNL A   1      36.904  29.198  29.828  1.00  0.00     0.010 A 
ATOM     12  C   UNL A   1      38.092  29.301  29.086  1.00  0.00    -0.014 A 
BRANCH  12  13
ATOM     13  C   UNL A   1      39.381  28.807  29.635  1.00  0.00     0.031 A 
ATOM     14  C   UNL A   1      40.070  29.518  30.764  1.00  0.00     0.074 A 
ATOM     15  C   UNL A   1      39.927  27.705  29.082  1.00  0.00     0.049 A 
ATOM     16  N   UNL A   1      41.220  29.245  31.325  1.00  0.00    -0.248 NA
ATOM     17  C   UNL A   1      39.387  30.689  31.332  1.00  0.00     0.031 C 
ATOM     18  C   UNL A   1      39.341  26.943  27.975  1.00  0.00     0.029 A 
ATOM     19  N   UNL A   1      41.091  27.036  29.361  1.00  0.00    -0.354 N 
ATOM     20  C   UNL A   1      41.414  30.220  32.297  1.00  0.00     0.074 A 
ATOM     21  C   UNL A   1      40.266  31.102  32.236  1.00  0.00     0.031 C 
ATOM     22  C   UNL A   1      40.134  25.903  27.686  1.00  0.00     0.029 A 
ATOM     23  C   UNL A   1      41.323  25.966  28.526  1.00  0.00     0.049 A 
ATOM     24  H   UNL A   1      41.701  27.295  30.088  1.00  0.00     0.167 HD
ATOM     25  C   UNL A   1      42.454  30.359  33.156  1.00  0.00     0.034 A 
ATOM     26  C   UNL A   1      42.391  25.153  28.417  1.00  0.00     0.034 A 
ATOM     27  C   UNL A   1      43.584  29.460  33.198  1.00  0.00     0.049 A 
ATOM     28  C   UNL A   1      43.555  25.369  29.345  1.00  0.00     0.074 A 
ATOM     29  C   UNL A   1      44.653  29.464  34.078  1.00  0.00     0.029 A 
ATOM     30  N   UNL A   1      43.805  28.412  32.312  1.00  0.00    -0.354 N 
ATOM     31  N   UNL A   1      43.695  26.262  30.298  1.00  0.00    -0.248 NA
ATOM     32  C   UNL A   1      44.706  24.473  29.183  1.00  0.00     0.031 C 
ATOM     33  C   UNL A   1      45.558  28.476  33.674  1.00  0.00     0.029 A 
ATOM     34  C   UNL A   1      45.018  27.800  32.592  1.00  0.00     0.049 A 
ATOM     35  H   UNL A   1      43.190  28.144  31.592  1.00  0.00     0.167 HD
ATOM     36  C   UNL A   1      44.945  26.023  30.859  1.00  0.00     0.074 A 
ATOM     37  C   UNL A   1      45.506  24.888  30.155  1.00  0.00     0.031 C 
ATOM     38  C   UNL A   1      45.573  26.682  31.865  1.00  0.00     0.034 A 
BRANCH  25  39
ATOM     39  C   UNL A   1      42.455  31.550  34.083  1.00  0.00     0.023 A 
ATOM     40  C   UNL A   1      41.780  31.539  35.316  1.00  0.00     0.031 A 
ATOM     41  C   UNL A   1      43.166  32.713  33.733  1.00  0.00     0.131 A 
ATOM     42  C   UNL A   1      41.790  32.683  36.131  1.00  0.00     0.055 A 
ATOM     43  C   UNL A   1      43.230  33.822  34.578  1.00  0.00     0.041 A 
ATOM     44  F   UNL A   1      43.814  32.788  32.560  1.00  0.00    -0.206 F 
ATOM     45  C   UNL A   1      42.530  33.815  35.781  1.00  0.00     0.022 A 
BRANCH  42  46
ATOM     46  S   UNL A   1      40.735  32.711  37.605  1.00  0.00     0.124 S 
ATOM     47  O   UNL A   1      40.484  34.141  37.765  1.00  0.00    -0.237 OA
ATOM     48  O   UNL A   1      39.592  31.905  37.192  1.00  0.00    -0.237 OA
ATOM     49  O   UNL A   1      41.576  32.114  38.642  1.00  0.00    -0.744 OA
ENDBRANCH  42  46
ENDBRANCH  25  39
BRANCH  26  50
ATOM     50  C   UNL A   1      42.436  24.110  27.353  1.00  0.00     0.023 A 
ATOM     51  C   UNL A   1      41.773  22.884  27.508  1.00  0.00     0.031 A 
ATOM     52  C   UNL A   1      43.183  24.311  26.176  1.00  0.00     0.131 A 
ATOM     53  C   UNL A   1      41.910  21.888  26.530  1.00  0.00     0.055 A 
ATOM     54  C   UNL A   1      43.263  23.341  25.177  1.00  0.00     0.041 A 
ATOM     55  F   UNL A   1      43.838  25.466  25.976  1.00  0.00    -0.206 F 
ATOM     56  C   UNL A   1      42.636  22.113  25.358  1.00  0.00     0.022 A 
BRANCH  53  57
ATOM     57  S   UNL A   1      41.208  20.248  26.861  1.00  0.00     0.124 S 
ATOM     58  O   UNL A   1      40.884  20.345  28.279  1.00  0.00    -0.237 OA
ATOM     59  O   UNL A   1      40.074  20.215  25.944  1.00  0.00    -0.237 OA
ATOM     60  O   UNL A   1      42.302  19.338  26.531  1.00  0.00    -0.744 OA
ENDBRANCH  53  57
ENDBRANCH  26  50
BRANCH  38  61
ATOM     61  C   UNL A   1      46.928  26.165  32.275  1.00  0.00     0.023 A 
ATOM     62  C   UNL A   1      47.074  25.217  33.302  1.00  0.00     0.031 A 
ATOM     63  C   UNL A   1      48.089  26.635  31.635  1.00  0.00     0.131 A 
ATOM     64  C   UNL A   1      48.357  24.803  33.692  1.00  0.00     0.055 A 
ATOM     65  C   UNL A   1      49.358  26.175  31.987  1.00  0.00     0.041 A 
ATOM     66  F   UNL A   1      48.007  27.545  30.652  1.00  0.00    -0.206 F 
ATOM     67  C   UNL A   1      49.497  25.261  33.028  1.00  0.00     0.022 A 
BRANCH  64  68
ATOM     68  S   UNL A   1      48.519  23.710  35.129  1.00  0.00     0.124 S 
ATOM     69  O   UNL A   1      47.286  23.986  35.861  1.00  0.00    -0.237 OA
ATOM     70  O   UNL A   1      48.613  22.391  34.513  1.00  0.00    -0.237 OA
ATOM     71  O   UNL A   1      49.743  24.177  35.779  1.00  0.00    -0.744 OA
ENDBRANCH  64  68
ENDBRANCH  38  61
ENDBRANCH  12  13
ENDBRANCH   5   7
ENDBRANCH   2   3
ENDBRANCH   1   2
BRANCH   1  72
ATOM     72  C   UNL A   1      32.635  26.676  26.073  1.00  0.00     0.002 C 
BRANCH  72  73
ATOM     73  C   UNL A   1      32.198  26.750  24.606  1.00  0.00     0.002 C 
BRANCH  73  74
ATOM     74  C   UNL A   1      30.796  26.212  24.303  1.00  0.00     0.021 C 
BRANCH  74  75
ATOM     75  C   UNL A   1      30.760  24.833  23.654  1.00  0.00     0.116 C 
BRANCH  75  76
ATOM     76  N   UNL A   1      30.236  23.816  24.550  1.00  0.00    -0.351 N 
ATOM     77  C   UNL A   1      30.868  23.050  25.489  1.00  0.00     0.278 C 
ATOM     78  H   UNL A   1      29.269  23.651  24.467  1.00  0.00     0.163 HD
ATOM     79  O   UNL A   1      30.166  22.329  26.205  1.00  0.00    -0.268 OA
BRANCH  77  80
ATOM     80  C   UNL A   1      32.401  23.109  25.636  1.00  0.00     0.274 C 
ATOM     81  C   UNL A   1      32.819  23.030  27.115  1.00  0.00     0.076 C 
ATOM     82  N   UNL A   1      33.119  22.186  24.714  1.00  0.00    -0.319 N 
ATOM     83  C   UNL A   1      34.324  22.807  27.293  1.00  0.00     0.016 C 
ATOM     84  C   UNL A   1      34.586  22.340  24.823  1.00  0.00     0.188 C 
ATOM     85  H   UNL A   1      32.849  22.501  23.782  1.00  0.00     0.349 HD
ATOM     86  C   UNL A   1      35.062  23.208  26.018  1.00  0.00     0.048 C 
ATOM     87  C   UNL A   1      35.157  22.966  23.537  1.00  0.00     0.065 C 
ATOM     88  C   UNL A   1      36.584  23.105  26.135  1.00  0.00     0.010 C 
ATOM     89  C   UNL A   1      36.688  23.008  23.586  1.00  0.00     0.006 C 
ATOM     90  C   UNL A   1      37.239  23.650  24.863  1.00  0.00     0.001 C 
BRANCH  82  91
ATOM     91  C   UNL A   1      32.641  20.770  24.658  1.00  0.00     0.194 C 
ATOM     92  C   UNL A   1      33.304  19.825  25.686  1.00  0.00     0.067 C 
ATOM     93  C   UNL A   1      32.756  20.205  23.216  1.00  0.00     0.134 C 
ATOM     94  C   UNL A   1      32.766  18.396  25.666  1.00  0.00     0.017 C 
ATOM     95  S   UNL A   1      32.074  18.524  23.013  1.00  0.00    -0.156 SA
ATOM     96  C   UNL A   1      32.987  17.695  24.339  1.00  0.00     0.070 C 
ENDBRANCH  82  91
ENDBRANCH  77  80
ENDBRANCH  75  76
ENDBRANCH  74  75
ENDBRANCH  73  74
ENDBRANCH  72  73
ENDBRANCH   1  72
TORSDOF 17
ENDMDL
MODEL 2
REMARK VINA RESULT:     -11.4      5.096      7.839
REMARK SMILES O=C(NCCCCCCNC(=O)[C@H]1CC[C@H]2CCCC[C@@H]2[N@H+]1[C@@H]1CCCSC1)c1ccc(-c2c3nc(c(-c4cc(S(=O)(=O)[O-])ccc4F)c4ccc([nH]4)c(-c4cc(S(=O)(=O)[O-])ccc4F)c4nc(c(-c5cc(S(=O)(=O)[O-])ccc5F)c5ccc2[nH]5)C=C4)C=C3)cc1
REMARK SMILES IDX 5 1 4 2 3 3 1 4 2 5 29 7 30 8 91 9 31 10 90 11 32 12 33 13
REMARK SMILES IDX 34 14 84 15 35 16 89 17 83 18 85 19 36 20 88 21 82 22 81 23
REMARK SMILES IDX 37 25 69 26 49 27 68 28 50 29 53 30 67 31 86 32 51 33 52 34
REMARK SMILES IDX 66 36 87 37 54 38 38 39 39 40 47 41 40 42 46 43 48 44 45 45
REMARK SMILES IDX 41 46 42 47 43 48 44 49 70 50 71 51 79 52 72 53 78 54 80 55
REMARK SMILES IDX 77 56 73 57 74 58 75 59 76 60 55 61 56 62 64 63 57 64 63 65
REMARK SMILES IDX 65 66 62 67 58 68 59 69 60 70 61 71 6 72 7 73 8 74 9 75
REMARK SMILES IDX 10 76 11 77 12 79 13 80 14 81 22 82 15 83 21 84 16 86 20 87
REMARK SMILES IDX 17 88 19 89 18 90 23 91 24 92 28 93 25 94 27 95 26 96
REMARK H PARENT 3 6 85 24 53 35 10 78 22 85
REMARK Flexibility Score: inf
ROOT
ATOM      1  C   UNL A   1      35.322  23.499  24.908  1.00  0.00     0.021 C 
ENDROOT
BRANCH   1   2
ATOM      2  C   UNL A   1      35.816  22.845  26.191  1.00  0.00     0.116 C 
BRANCH   2   3
ATOM      3  N   UNL A   1      36.651  21.685  25.930  1.00  0.00    -0.352 N 
ATOM      4  O   UNL A   1      38.558  20.590  25.429  1.00  0.00    -0.269 OA
ATOM      5  C   UNL A   1      38.019  21.614  25.842  1.00  0.00     0.251 C 
ATOM      6  H   UNL A   1      36.171  20.834  25.799  1.00  0.00     0.163 HD
BRANCH   5   7
ATOM      7  C   UNL A   1      38.838  22.781  26.236  1.00  0.00     0.039 A 
ATOM      8  C   UNL A   1      38.658  24.017  25.607  1.00  0.00     0.014 A 
ATOM      9  C   UNL A   1      39.780  22.643  27.259  1.00  0.00     0.014 A 
ATOM     10  C   UNL A   1      39.489  25.085  25.927  1.00  0.00     0.010 A 
ATOM     11  C   UNL A   1      40.560  23.739  27.634  1.00  0.00     0.010 A 
ATOM     12  C   UNL A   1      40.426  24.967  26.965  1.00  0.00    -0.014 A 
BRANCH  12  13
ATOM     13  C   UNL A   1      41.178  26.167  27.411  1.00  0.00     0.031 A 
ATOM     14  C   UNL A   1      40.520  27.237  28.236  1.00  0.00     0.074 A 
ATOM     15  C   UNL A   1      42.470  26.282  27.044  1.00  0.00     0.049 A 
ATOM     16  N   UNL A   1      41.020  28.367  28.666  1.00  0.00    -0.248 NA
ATOM     17  C   UNL A   1      39.118  27.015  28.622  1.00  0.00     0.031 C 
ATOM     18  C   UNL A   1      43.203  25.302  26.237  1.00  0.00     0.029 A 
ATOM     19  N   UNL A   1      43.396  27.263  27.289  1.00  0.00    -0.354 N 
ATOM     20  C   UNL A   1      39.994  29.004  29.354  1.00  0.00     0.074 A 
ATOM     21  C   UNL A   1      38.836  28.138  29.269  1.00  0.00     0.031 C 
ATOM     22  C   UNL A   1      44.465  25.719  26.074  1.00  0.00     0.029 A 
ATOM     23  C   UNL A   1      44.613  27.031  26.691  1.00  0.00     0.049 A 
ATOM     24  H   UNL A   1      43.208  28.057  27.840  1.00  0.00     0.167 HD
ATOM     25  C   UNL A   1      40.025  30.199  29.994  1.00  0.00     0.034 A 
ATOM     26  C   UNL A   1      45.713  27.804  26.608  1.00  0.00     0.034 A 
ATOM     27  C   UNL A   1      41.197  31.039  30.068  1.00  0.00     0.049 A 
ATOM     28  C   UNL A   1      45.696  29.151  27.279  1.00  0.00     0.074 A 
ATOM     29  C   UNL A   1      41.359  32.231  30.754  1.00  0.00     0.029 A 
ATOM     30  N   UNL A   1      42.400  30.792  29.417  1.00  0.00    -0.354 N 
ATOM     31  N   UNL A   1      44.734  29.712  27.976  1.00  0.00    -0.248 NA
ATOM     32  C   UNL A   1      46.907  29.969  27.152  1.00  0.00     0.031 C 
ATOM     33  C   UNL A   1      42.625  32.743  30.451  1.00  0.00     0.029 A 
ATOM     34  C   UNL A   1      43.286  31.834  29.642  1.00  0.00     0.049 A 
ATOM     35  H   UNL A   1      42.593  29.993  28.875  1.00  0.00     0.167 HD
ATOM     36  C   UNL A   1      45.233  30.945  28.383  1.00  0.00     0.074 A 
ATOM     37  C   UNL A   1      46.587  31.033  27.875  1.00  0.00     0.031 C 
ATOM     38  C   UNL A   1      44.627  31.916  29.110  1.00  0.00     0.034 A 
BRANCH  25  39
ATOM     39  C   UNL A   1      38.746  30.701  30.620  1.00  0.00     0.023 A 
ATOM     40  C   UNL A   1      37.745  31.341  29.869  1.00  0.00     0.031 A 
ATOM     41  C   UNL A   1      38.516  30.513  31.996  1.00  0.00     0.131 A 
ATOM     42  C   UNL A   1      36.585  31.812  30.504  1.00  0.00     0.055 A 
ATOM     43  C   UNL A   1      37.332  30.923  32.609  1.00  0.00     0.041 A 
ATOM     44  F   UNL A   1      39.444  29.926  32.768  1.00  0.00    -0.206 F 
ATOM     45  C   UNL A   1      36.361  31.586  31.865  1.00  0.00     0.022 A 
BRANCH  42  46
ATOM     46  S   UNL A   1      35.419  32.820  29.550  1.00  0.00     0.124 S 
ATOM     47  O   UNL A   1      35.148  31.957  28.403  1.00  0.00    -0.237 OA
ATOM     48  O   UNL A   1      34.316  33.001  30.486  1.00  0.00    -0.237 OA
ATOM     49  O   UNL A   1      36.180  34.030  29.243  1.00  0.00    -0.744 OA
ENDBRANCH  42  46
ENDBRANCH  25  39
BRANCH  26  50
ATOM     50  C   UNL A   1      46.890  27.355  25.811  1.00  0.00     0.023 A 
ATOM     51  C   UNL A   1      47.086  27.797  24.494  1.00  0.00     0.031 A 
ATOM     52  C   UNL A   1      47.818  26.441  26.344  1.00  0.00     0.131 A 
ATOM     53  C   UNL A   1      48.152  27.286  23.738  1.00  0.00     0.055 A 
ATOM     54  C   UNL A   1      48.913  25.985  25.610  1.00  0.00     0.041 A 
ATOM     55  F   UNL A   1      47.678  25.985  27.599  1.00  0.00    -0.206 F 
ATOM     56  C   UNL A   1      49.076  26.397  24.291  1.00  0.00     0.022 A 
BRANCH  53  57
ATOM     57  S   UNL A   1      48.254  27.723  21.980  1.00  0.00     0.124 S 
ATOM     58  O   UNL A   1      46.969  28.379  21.763  1.00  0.00    -0.237 OA
ATOM     59  O   UNL A   1      49.428  28.588  21.952  1.00  0.00    -0.237 OA
ATOM     60  O   UNL A   1      48.415  26.431  21.318  1.00  0.00    -0.744 OA
ENDBRANCH  53  57
ENDBRANCH  26  50
BRANCH  38  61
ATOM     61  C   UNL A   1      45.444  33.145  29.418  1.00  0.00     0.023 A 
ATOM     62  C   UNL A   1      45.411  34.278  28.586  1.00  0.00     0.031 A 
ATOM     63  C   UNL A   1      46.273  33.179  30.553  1.00  0.00     0.131 A 
ATOM     64  C   UNL A   1      46.228  35.381  28.876  1.00  0.00     0.055 A 
ATOM     65  C   UNL A   1      47.038  34.302  30.869  1.00  0.00     0.041 A 
ATOM     66  F   UNL A   1      46.346  32.122  31.378  1.00  0.00    -0.206 F 
ATOM     67  C   UNL A   1      47.027  35.407  30.022  1.00  0.00     0.022 A 
BRANCH  64  68
ATOM     68  S   UNL A   1      46.290  36.754  27.694  1.00  0.00     0.124 S 
ATOM     69  O   UNL A   1      44.875  37.082  27.538  1.00  0.00    -0.237 OA
ATOM     70  O   UNL A   1      47.099  37.741  28.401  1.00  0.00    -0.237 OA
ATOM     71  O   UNL A   1      46.923  36.164  26.515  1.00  0.00    -0.744 OA
ENDBRANCH  64  68
ENDBRANCH  38  61
ENDBRANCH  12  13
ENDBRANCH   5   7
ENDBRANCH   2   3
ENDBRANCH   1   2
BRANCH   1  72
ATOM     72  C   UNL A   1      34.890  22.522  23.814  1.00  0.00     0.002 C 
BRANCH  72  73
ATOM     73  C   UNL A   1      33.377  22.332  23.661  1.00  0.00     0.002 C 
BRANCH  73  74
ATOM     74  C   UNL A   1      32.503  23.356  24.392  1.00  0.00     0.021 C 
BRANCH  74  75
ATOM     75  C   UNL A   1      31.156  23.641  23.735  1.00  0.00     0.116 C 
BRANCH  75  76
ATOM     76  N   UNL A   1      31.300  24.291  22.443  1.00  0.00    -0.351 N 
ATOM     77  C   UNL A   1      31.901  25.471  22.106  1.00  0.00     0.278 C 
ATOM     78  H   UNL A   1      30.900  23.801  21.688  1.00  0.00     0.163 HD
ATOM     79  O   UNL A   1      31.984  25.747  20.905  1.00  0.00    -0.268 OA
BRANCH  77  80
ATOM     80  C   UNL A   1      32.452  26.403  23.202  1.00  0.00     0.274 C 
ATOM     81  C   UNL A   1      33.629  27.243  22.673  1.00  0.00     0.076 C 
ATOM     82  N   UNL A   1      31.392  27.161  23.922  1.00  0.00    -0.319 N 
ATOM     83  C   UNL A   1      34.027  28.372  23.631  1.00  0.00     0.016 C 
ATOM     84  C   UNL A   1      31.956  27.972  25.023  1.00  0.00     0.188 C 
ATOM     85  H   UNL A   1      30.809  26.439  24.345  1.00  0.00     0.349 HD
ATOM     86  C   UNL A   1      33.505  28.070  25.033  1.00  0.00     0.048 C 
ATOM     87  C   UNL A   1      31.517  27.405  26.386  1.00  0.00     0.065 C 
ATOM     88  C   UNL A   1      33.934  29.099  26.080  1.00  0.00     0.010 C 
ATOM     89  C   UNL A   1      31.984  28.313  27.529  1.00  0.00     0.006 C 
ATOM     90  C   UNL A   1      33.478  28.646  27.469  1.00  0.00     0.001 C 
BRANCH  82  91
ATOM     91  C   UNL A   1      30.370  27.865  23.088  1.00  0.00     0.194 C 
ATOM     92  C   UNL A   1      30.759  29.300  22.666  1.00  0.00     0.067 C 
ATOM     93  C   UNL A   1      28.980  27.837  23.778  1.00  0.00     0.134 C 
ATOM     94  C   UNL A   1      29.739  29.988  21.760  1.00  0.00     0.017 C 
ATOM     95  S   UNL A   1      27.631  28.555  22.778  1.00  0.00    -0.156 SA
ATOM     96  C   UNL A   1      28.383  30.162  22.417  1.00  0.00     0.070 C 
ENDBRANCH  82  91
ENDBRANCH  77  80
ENDBRANCH  75  76
ENDBRANCH  74  75
ENDBRANCH  73  74
ENDBRANCH  72  73
ENDBRANCH   1  72
TORSDOF 17
ENDMDL
MODEL 3
REMARK VINA RESULT:     -11.3      1.980      7.859
REMARK SMILES O=C(NCCCCCCNC(=O)[C@H]1CC[C@H]2CCCC[C@@H]2[N@H+]1[C@@H]1CCCSC1)c1ccc(-c2c3nc(c(-c4cc(S(=O)(=O)[O-])ccc4F)c4ccc([nH]4)c(-c4cc(S(=O)(=O)[O-])ccc4F)c4nc(c(-c5cc(S(=O)(=O)[O-])ccc5F)c5ccc2[nH]5)C=C4)C=C3)cc1
REMARK SMILES IDX 5 1 4 2 3 3 1 4 2 5 29 7 30 8 91 9 31 10 90 11 32 12 33 13
REMARK SMILES IDX 34 14 84 15 35 16 89 17 83 18 85 19 36 20 88 21 82 22 81 23
REMARK SMILES IDX 37 25 69 26 49 27 68 28 50 29 53 30 67 31 86 32 51 33 52 34
REMARK SMILES IDX 66 36 87 37 54 38 38 39 39 40 47 41 40 42 46 43 48 44 45 45
REMARK SMILES IDX 41 46 42 47 43 48 44 49 70 50 71 51 79 52 72 53 78 54 80 55
REMARK SMILES IDX 77 56 73 57 74 58 75 59 76 60 55 61 56 62 64 63 57 64 63 65
REMARK SMILES IDX 65 66 62 67 58 68 59 69 60 70 61 71 6 72 7 73 8 74 9 75
REMARK SMILES IDX 10 76 11 77 12 79 13 80 14 81 22 82 15 83 21 84 16 86 20 87
REMARK SMILES IDX 17 88 19 89 18 90 23 91 24 92 28 93 25 94 27 95 26 96
REMARK H PARENT 3 6 85 24 53 35 10 78 22 85
REMARK Flexibility Score: inf
ROOT
ATOM      1  C   UNL A   1      32.971  27.688  25.826  1.00  0.00     0.021 C 
ENDROOT
BRANCH   1   2
ATOM      2  C   UNL A   1      33.695  28.927  25.319  1.00  0.00     0.116 C 
BRANCH   2   3
ATOM      3  N   UNL A   1      33.036  30.156  25.729  1.00  0.00    -0.352 N 
ATOM      4  O   UNL A   1      32.534  31.859  27.120  1.00  0.00    -0.269 OA
ATOM      5  C   UNL A   1      33.308  30.956  26.810  1.00  0.00     0.251 C 
ATOM      6  H   UNL A   1      32.294  30.454  25.154  1.00  0.00     0.163 HD
BRANCH   5   7
ATOM      7  C   UNL A   1      34.532  30.718  27.606  1.00  0.00     0.039 A 
ATOM      8  C   UNL A   1      34.678  29.540  28.346  1.00  0.00     0.014 A 
ATOM      9  C   UNL A   1      35.553  31.673  27.595  1.00  0.00     0.014 A 
ATOM     10  C   UNL A   1      35.794  29.364  29.155  1.00  0.00     0.010 A 
ATOM     11  C   UNL A   1      36.710  31.457  28.347  1.00  0.00     0.010 A 
ATOM     12  C   UNL A   1      36.836  30.304  29.140  1.00  0.00    -0.014 A 
BRANCH  12  13
ATOM     13  C   UNL A   1      38.095  30.012  29.871  1.00  0.00     0.031 A 
ATOM     14  C   UNL A   1      39.117  29.062  29.314  1.00  0.00     0.074 A 
ATOM     15  C   UNL A   1      38.294  30.613  31.062  1.00  0.00     0.049 A 
ATOM     16  N   UNL A   1      40.244  28.664  29.846  1.00  0.00    -0.248 NA
ATOM     17  C   UNL A   1      38.837  28.480  27.993  1.00  0.00     0.031 C 
ATOM     18  C   UNL A   1      37.359  31.547  31.696  1.00  0.00     0.029 A 
ATOM     19  N   UNL A   1      39.332  30.530  31.954  1.00  0.00    -0.354 N 
ATOM     20  C   UNL A   1      40.800  27.767  28.941  1.00  0.00     0.074 A 
ATOM     21  C   UNL A   1      39.875  27.669  27.831  1.00  0.00     0.031 C 
ATOM     22  C   UNL A   1      37.875  31.966  32.859  1.00  0.00     0.029 A 
ATOM     23  C   UNL A   1      39.134  31.272  33.096  1.00  0.00     0.049 A 
ATOM     24  H   UNL A   1      40.139  29.992  31.793  1.00  0.00     0.167 HD
ATOM     25  C   UNL A   1      41.973  27.093  29.036  1.00  0.00     0.034 A 
ATOM     26  C   UNL A   1      39.861  31.354  34.227  1.00  0.00     0.034 A 
ATOM     27  C   UNL A   1      42.879  27.216  30.154  1.00  0.00     0.049 A 
ATOM     28  C   UNL A   1      41.128  30.549  34.326  1.00  0.00     0.074 A 
ATOM     29  C   UNL A   1      44.128  26.639  30.315  1.00  0.00     0.029 A 
ATOM     30  N   UNL A   1      42.629  27.945  31.310  1.00  0.00    -0.354 N 
ATOM     31  N   UNL A   1      41.668  29.750  33.434  1.00  0.00    -0.248 NA
ATOM     32  C   UNL A   1      41.882  30.652  35.580  1.00  0.00     0.031 C 
ATOM     33  C   UNL A   1      44.592  26.949  31.597  1.00  0.00     0.029 A 
ATOM     34  C   UNL A   1      43.674  27.787  32.208  1.00  0.00     0.049 A 
ATOM     35  H   UNL A   1      41.827  28.493  31.468  1.00  0.00     0.167 HD
ATOM     36  C   UNL A   1      42.835  29.268  34.016  1.00  0.00     0.074 A 
ATOM     37  C   UNL A   1      42.932  29.885  35.324  1.00  0.00     0.031 C 
ATOM     38  C   UNL A   1      43.744  28.393  33.518  1.00  0.00     0.034 A 
BRANCH  25  39
ATOM     39  C   UNL A   1      42.325  26.123  27.934  1.00  0.00     0.023 A 
ATOM     40  C   UNL A   1      41.797  24.822  27.886  1.00  0.00     0.031 A 
ATOM     41  C   UNL A   1      43.190  26.521  26.897  1.00  0.00     0.131 A 
ATOM     42  C   UNL A   1      42.176  23.949  26.853  1.00  0.00     0.055 A 
ATOM     43  C   UNL A   1      43.509  25.673  25.836  1.00  0.00     0.041 A 
ATOM     44  F   UNL A   1      43.739  27.745  26.900  1.00  0.00    -0.206 F 
ATOM     45  C   UNL A   1      43.010  24.374  25.815  1.00  0.00     0.022 A 
BRANCH  42  46
ATOM     46  S   UNL A   1      41.651  22.216  26.941  1.00  0.00     0.124 S 
ATOM     47  O   UNL A   1      41.536  22.012  28.383  1.00  0.00    -0.237 OA
ATOM     48  O   UNL A   1      40.398  22.227  26.196  1.00  0.00    -0.237 OA
ATOM     49  O   UNL A   1      42.749  21.491  26.303  1.00  0.00    -0.744 OA
ENDBRANCH  42  46
ENDBRANCH  25  39
BRANCH  26  50
ATOM     50  C   UNL A   1      39.376  32.172  35.375  1.00  0.00     0.023 A 
ATOM     51  C   UNL A   1      39.782  33.505  35.539  1.00  0.00     0.031 A 
ATOM     52  C   UNL A   1      38.529  31.617  36.352  1.00  0.00     0.131 A 
ATOM     53  C   UNL A   1      39.382  34.221  36.678  1.00  0.00     0.055 A 
ATOM     54  C   UNL A   1      38.082  32.353  37.449  1.00  0.00     0.041 A 
ATOM     55  F   UNL A   1      38.110  30.345  36.244  1.00  0.00    -0.206 F 
ATOM     56  C   UNL A   1      38.522  33.660  37.625  1.00  0.00     0.022 A 
BRANCH  53  57
ATOM     57  S   UNL A   1      40.090  35.867  36.957  1.00  0.00     0.124 S 
ATOM     58  O   UNL A   1      41.515  35.567  37.040  1.00  0.00    -0.237 OA
ATOM     59  O   UNL A   1      39.655  36.589  35.767  1.00  0.00    -0.237 OA
ATOM     60  O   UNL A   1      39.468  36.296  38.208  1.00  0.00    -0.744 OA
ENDBRANCH  53  57
ENDBRANCH  26  50
BRANCH  38  61
ATOM     61  C   UNL A   1      44.935  28.080  34.387  1.00  0.00     0.023 A 
ATOM     62  C   UNL A   1      44.907  27.032  35.322  1.00  0.00     0.031 A 
ATOM     63  C   UNL A   1      46.109  28.847  34.284  1.00  0.00     0.131 A 
ATOM     64  C   UNL A   1      46.016  26.807  36.152  1.00  0.00     0.055 A 
ATOM     65  C   UNL A   1      47.230  28.582  35.070  1.00  0.00     0.041 A 
ATOM     66  F   UNL A   1      46.187  29.865  33.411  1.00  0.00    -0.206 F 
ATOM     67  C   UNL A   1      47.183  27.563  36.018  1.00  0.00     0.022 A 
BRANCH  64  68
ATOM     68  S   UNL A   1      45.887  25.559  37.461  1.00  0.00     0.124 S 
ATOM     69  O   UNL A   1      47.065  24.734  37.209  1.00  0.00    -0.237 OA
ATOM     70  O   UNL A   1      45.923  26.370  38.673  1.00  0.00    -0.237 OA
ATOM     71  O   UNL A   1      44.606  24.909  37.188  1.00  0.00    -0.744 OA
ENDBRANCH  64  68
ENDBRANCH  38  61
ENDBRANCH  12  13
ENDBRANCH   5   7
ENDBRANCH   2   3
ENDBRANCH   1   2
BRANCH   1  72
ATOM     72  C   UNL A   1      31.444  27.762  25.756  1.00  0.00     0.002 C 
BRANCH  72  73
ATOM     73  C   UNL A   1      30.835  27.498  24.375  1.00  0.00     0.002 C 
BRANCH  73  74
ATOM     74  C   UNL A   1      29.958  26.247  24.265  1.00  0.00     0.021 C 
BRANCH  74  75
ATOM     75  C   UNL A   1      30.706  24.961  23.930  1.00  0.00     0.116 C 
BRANCH  75  76
ATOM     76  N   UNL A   1      30.218  23.825  24.694  1.00  0.00    -0.351 N 
ATOM     77  C   UNL A   1      30.881  22.960  25.518  1.00  0.00     0.278 C 
ATOM     78  H   UNL A   1      29.253  23.650  24.603  1.00  0.00     0.163 HD
ATOM     79  O   UNL A   1      30.206  22.136  26.144  1.00  0.00    -0.268 OA
BRANCH  77  80
ATOM     80  C   UNL A   1      32.414  23.034  25.652  1.00  0.00     0.274 C 
ATOM     81  C   UNL A   1      32.846  22.951  27.127  1.00  0.00     0.076 C 
ATOM     82  N   UNL A   1      33.134  22.124  24.718  1.00  0.00    -0.319 N 
ATOM     83  C   UNL A   1      34.356  22.743  27.290  1.00  0.00     0.016 C 
ATOM     84  C   UNL A   1      34.600  22.294  24.815  1.00  0.00     0.188 C 
ATOM     85  H   UNL A   1      32.852  22.442  23.790  1.00  0.00     0.349 HD
ATOM     86  C   UNL A   1      35.078  23.159  26.011  1.00  0.00     0.048 C 
ATOM     87  C   UNL A   1      35.153  22.933  23.528  1.00  0.00     0.065 C 
ATOM     88  C   UNL A   1      36.601  23.072  26.114  1.00  0.00     0.010 C 
ATOM     89  C   UNL A   1      36.684  22.991  23.563  1.00  0.00     0.006 C 
ATOM     90  C   UNL A   1      37.239  23.631  24.839  1.00  0.00     0.001 C 
BRANCH  82  91
ATOM     91  C   UNL A   1      32.671  20.703  24.658  1.00  0.00     0.194 C 
ATOM     92  C   UNL A   1      33.360  19.758  25.668  1.00  0.00     0.067 C 
ATOM     93  C   UNL A   1      32.770  20.151  23.210  1.00  0.00     0.134 C 
ATOM     94  C   UNL A   1      32.837  18.323  25.645  1.00  0.00     0.017 C 
ATOM     95  S   UNL A   1      32.103  18.464  23.004  1.00  0.00    -0.156 SA
ATOM     96  C   UNL A   1      33.045  17.635  24.309  1.00  0.00     0.070 C 
ENDBRANCH  82  91
ENDBRANCH  77  80
ENDBRANCH  75  76
ENDBRANCH  74  75
ENDBRANCH  73  74
ENDBRANCH  72  73
ENDBRANCH   1  72
TORSDOF 17
ENDMDL
