MODEL 1
REMARK VINA RESULT:     -13.4      0.000      0.000
REMARK SMILES Cc1cccc(OC2(C(=O)NCCCCCCNC(=O)c3ccc(-c4c5nc(c(-c6cc(S(=O)(=O)[O-])ccc6F)c6ccc([nH]6)c(-c6cc(S(=O)(=O)[O-])ccc6F)c6nc(c(-c7cc(S(=O)(=O)[O-])ccc7F)c7ccc4[nH]7)C=C6)C=C5)cc3)CCN(C(=O)c3cnc[nH]c3=O)CC2)c1
REMARK SMILES IDX 15 1 14 2 13 3 12 4 11 5 9 6 10 7 8 9 84 10 97 11 85 12
REMARK SMILES IDX 96 13 86 14 87 15 88 16 7 17 6 18 1 19 2 20 3 21 98 22 4 23
REMARK SMILES IDX 5 24 89 25 90 26 94 27 91 28 93 29 95 30 92 31 16 33 17 34
REMARK SMILES IDX 18 35 19 36 20 38 21 39 22 40 83 41 23 42 82 43 24 44 25 45
REMARK SMILES IDX 26 46 76 47 27 48 81 49 75 50 77 51 28 52 80 53 74 54 73 55
REMARK SMILES IDX 29 57 61 58 41 59 60 60 42 61 45 62 59 63 78 64 43 65 44 66
REMARK SMILES IDX 58 68 79 69 46 70 30 71 31 72 39 73 32 74 38 75 40 76 37 77
REMARK SMILES IDX 33 78 34 79 35 80 36 81 62 82 63 83 71 84 64 85 70 86 72 87
REMARK SMILES IDX 69 88 65 89 66 90 67 91 68 92 47 93 48 94 56 95 49 96 55 97
REMARK SMILES IDX 57 98 54 99 50 100 51 101 52 102 53 103
REMARK H PARENT 11 8 93 32 18 37 77 56 45 67
REMARK Flexibility Score: inf
ROOT
ATOM      1  C   UNL A   1      31.898  29.879  26.260  1.00  0.00     0.002 C 
ENDROOT
BRANCH   1   2
ATOM      2  C   UNL A   1      31.557  28.913  27.400  1.00  0.00     0.002 C 
BRANCH   2   3
ATOM      3  C   UNL A   1      30.949  27.561  27.016  1.00  0.00     0.021 C 
BRANCH   3   4
ATOM      4  C   UNL A   1      31.914  26.471  26.524  1.00  0.00     0.116 C 
BRANCH   4   5
ATOM      5  N   UNL A   1      32.869  26.928  25.526  1.00  0.00    -0.353 N 
ATOM      6  C   UNL A   1      33.227  26.480  24.287  1.00  0.00     0.264 C 
ATOM      7  O   UNL A   1      33.932  27.271  23.643  1.00  0.00    -0.270 OA
ATOM      8  H   UNL A   1      33.364  27.732  25.804  1.00  0.00     0.163 HD
BRANCH   6   9
ATOM      9  C   UNL A   1      32.756  25.125  23.651  1.00  0.00     0.190 C 
ATOM     10  C   UNL A   1      33.814  24.499  22.730  1.00  0.00     0.080 C 
ATOM     11  C   UNL A   1      32.418  24.137  24.803  1.00  0.00     0.080 C 
ATOM     12  C   UNL A   1      33.524  23.071  22.305  1.00  0.00     0.124 C 
ATOM     13  C   UNL A   1      32.073  22.748  24.244  1.00  0.00     0.124 C 
ATOM     14  N   UNL A   1      33.213  22.274  23.475  1.00  0.00    -0.338 N 
ATOM     15  C   UNL A   1      34.178  21.445  24.015  1.00  0.00     0.261 C 
ATOM     16  O   UNL A   1      35.385  21.655  23.918  1.00  0.00    -0.269 OA
BRANCH   9  17
ATOM     17  O   UNL A   1      31.444  25.389  23.101  1.00  0.00    -0.477 OA
BRANCH  17  18
ATOM     18  C   UNL A   1      30.627  26.463  23.156  1.00  0.00     0.121 A 
ATOM     19  C   UNL A   1      29.985  29.990  21.890  1.00  0.00     0.044 C 
ATOM     20  C   UNL A   1      29.779  28.672  22.581  1.00  0.00    -0.047 A 
ATOM     21  C   UNL A   1      28.544  28.361  23.153  1.00  0.00     0.003 A 
ATOM     22  C   UNL A   1      30.821  27.730  22.624  1.00  0.00     0.049 A 
ATOM     23  C   UNL A   1      28.352  27.119  23.749  1.00  0.00     0.004 A 
ATOM     24  C   UNL A   1      29.384  26.178  23.736  1.00  0.00     0.046 A 
ENDBRANCH  17  18
ENDBRANCH   9  17
BRANCH  15  25
ATOM     25  C   UNL A   1      33.670  20.253  24.718  1.00  0.00     0.123 A 
ATOM     26  C   UNL A   1      33.275  19.177  24.023  1.00  0.00     0.132 A 
ATOM     27  C   UNL A   1      33.518  20.205  26.184  1.00  0.00     0.263 A 
ATOM     28  N   UNL A   1      32.776  18.018  24.573  1.00  0.00    -0.246 NA
ATOM     29  N   UNL A   1      32.969  19.051  26.669  1.00  0.00    -0.312 N 
ATOM     30  O   UNL A   1      33.852  21.109  26.939  1.00  0.00    -0.269 OA
ATOM     31  C   UNL A   1      32.633  18.011  25.855  1.00  0.00     0.199 A 
ATOM     32  H   UNL A   1      32.812  18.969  27.637  1.00  0.00     0.171 HD
ENDBRANCH  15  25
ENDBRANCH   6   9
ENDBRANCH   4   5
ENDBRANCH   3   4
ENDBRANCH   2   3
ENDBRANCH   1   2
BRANCH   1  33
ATOM     33  C   UNL A   1      33.356  30.322  26.166  1.00  0.00     0.021 C 
BRANCH  33  34
ATOM     34  C   UNL A   1      34.170  30.098  27.433  1.00  0.00     0.116 C 
BRANCH  34  35
ATOM     35  N   UNL A   1      34.981  31.250  27.797  1.00  0.00    -0.352 N 
ATOM     36  C   UNL A   1      36.245  31.316  28.369  1.00  0.00     0.251 C 
ATOM     37  H   UNL A   1      34.568  32.123  27.607  1.00  0.00     0.163 HD
ATOM     38  O   UNL A   1      36.690  32.363  28.770  1.00  0.00    -0.269 OA
BRANCH  36  39
ATOM     39  C   UNL A   1      37.099  30.099  28.353  1.00  0.00     0.039 A 
ATOM     40  C   UNL A   1      37.108  29.316  29.518  1.00  0.00     0.014 A 
ATOM     41  C   UNL A   1      38.011  29.855  27.334  1.00  0.00     0.014 A 
ATOM     42  C   UNL A   1      38.172  28.449  29.753  1.00  0.00     0.010 A 
ATOM     43  C   UNL A   1      39.117  29.084  27.611  1.00  0.00     0.010 A 
ATOM     44  C   UNL A   1      39.222  28.427  28.843  1.00  0.00    -0.014 A 
BRANCH  44  45
ATOM     45  C   UNL A   1      40.520  27.825  29.102  1.00  0.00     0.031 A 
ATOM     46  C   UNL A   1      40.785  26.437  28.688  1.00  0.00     0.074 A 
ATOM     47  C   UNL A   1      41.521  28.614  29.547  1.00  0.00     0.049 A 
ATOM     48  N   UNL A   1      41.805  25.745  29.062  1.00  0.00    -0.248 NA
ATOM     49  C   UNL A   1      39.871  25.688  27.833  1.00  0.00     0.031 C 
ATOM     50  C   UNL A   1      42.955  28.349  29.500  1.00  0.00     0.029 A 
ATOM     51  N   UNL A   1      41.399  29.727  30.377  1.00  0.00    -0.354 N 
ATOM     52  C   UNL A   1      41.855  24.614  28.279  1.00  0.00     0.074 A 
ATOM     53  C   UNL A   1      40.587  24.588  27.591  1.00  0.00     0.031 C 
ATOM     54  C   UNL A   1      43.564  29.085  30.442  1.00  0.00     0.029 A 
ATOM     55  C   UNL A   1      42.518  29.711  31.230  1.00  0.00     0.049 A 
ATOM     56  H   UNL A   1      40.673  30.391  30.369  1.00  0.00     0.167 HD
ATOM     57  C   UNL A   1      43.026  23.919  28.208  1.00  0.00     0.034 A 
ATOM     58  C   UNL A   1      42.360  29.553  32.577  1.00  0.00     0.034 A 
ATOM     59  C   UNL A   1      44.010  24.449  29.157  1.00  0.00     0.049 A 
ATOM     60  C   UNL A   1      43.056  28.327  33.128  1.00  0.00     0.074 A 
ATOM     61  C   UNL A   1      45.122  25.265  29.022  1.00  0.00     0.029 A 
ATOM     62  N   UNL A   1      43.739  24.381  30.519  1.00  0.00    -0.354 N 
ATOM     63  N   UNL A   1      43.435  27.306  32.408  1.00  0.00    -0.248 NA
ATOM     64  C   UNL A   1      43.388  28.167  34.536  1.00  0.00     0.031 C 
ATOM     65  C   UNL A   1      45.492  25.721  30.318  1.00  0.00     0.029 A 
ATOM     66  C   UNL A   1      44.625  25.158  31.240  1.00  0.00     0.049 A 
ATOM     67  H   UNL A   1      43.014  23.849  30.919  1.00  0.00     0.167 HD
ATOM     68  C   UNL A   1      44.056  26.375  33.208  1.00  0.00     0.074 A 
ATOM     69  C   UNL A   1      44.005  26.973  34.533  1.00  0.00     0.031 C 
ATOM     70  C   UNL A   1      44.552  25.203  32.697  1.00  0.00     0.034 A 
BRANCH  57  71
ATOM     71  C   UNL A   1      43.386  22.958  27.092  1.00  0.00     0.023 A 
ATOM     72  C   UNL A   1      42.814  21.667  27.091  1.00  0.00     0.031 A 
ATOM     73  C   UNL A   1      44.305  23.200  26.052  1.00  0.00     0.131 A 
ATOM     74  C   UNL A   1      43.224  20.674  26.181  1.00  0.00     0.055 A 
ATOM     75  C   UNL A   1      44.754  22.200  25.179  1.00  0.00     0.041 A 
ATOM     76  F   UNL A   1      44.769  24.425  25.787  1.00  0.00    -0.206 F 
ATOM     77  C   UNL A   1      44.223  20.923  25.247  1.00  0.00     0.022 A 
BRANCH  74  78
ATOM     78  S   UNL A   1      42.432  19.042  26.234  1.00  0.00     0.124 S 
ATOM     79  O   UNL A   1      43.296  18.250  25.365  1.00  0.00    -0.237 OA
ATOM     80  O   UNL A   1      42.476  18.724  27.657  1.00  0.00    -0.237 OA
ATOM     81  O   UNL A   1      41.094  19.298  25.703  1.00  0.00    -0.744 OA
ENDBRANCH  74  78
ENDBRANCH  57  71
BRANCH  58  82
ATOM     82  C   UNL A   1      41.091  30.151  33.086  1.00  0.00     0.023 A 
ATOM     83  C   UNL A   1      41.049  31.560  33.186  1.00  0.00     0.031 A 
ATOM     84  C   UNL A   1      39.871  29.462  33.040  1.00  0.00     0.131 A 
ATOM     85  C   UNL A   1      39.833  32.243  33.043  1.00  0.00     0.055 A 
ATOM     86  C   UNL A   1      38.651  30.150  32.981  1.00  0.00     0.041 A 
ATOM     87  F   UNL A   1      39.844  28.127  32.917  1.00  0.00    -0.206 F 
ATOM     88  C   UNL A   1      38.631  31.547  32.932  1.00  0.00     0.022 A 
BRANCH  85  89
ATOM     89  S   UNL A   1      39.899  34.031  32.716  1.00  0.00     0.124 S 
ATOM     90  O   UNL A   1      39.499  34.590  34.002  1.00  0.00    -0.237 OA
ATOM     91  O   UNL A   1      41.298  34.229  32.343  1.00  0.00    -0.237 OA
ATOM     92  O   UNL A   1      38.946  34.220  31.625  1.00  0.00    -0.744 OA
ENDBRANCH  85  89
ENDBRANCH  58  82
BRANCH  70  93
ATOM     93  C   UNL A   1      45.083  24.003  33.475  1.00  0.00     0.023 A 
ATOM     94  C   UNL A   1      46.391  23.896  33.968  1.00  0.00     0.031 A 
ATOM     95  C   UNL A   1      44.236  22.908  33.802  1.00  0.00     0.131 A 
ATOM     96  C   UNL A   1      46.824  22.761  34.682  1.00  0.00     0.055 A 
ATOM     97  C   UNL A   1      44.648  21.808  34.562  1.00  0.00     0.041 A 
ATOM     98  F   UNL A   1      42.954  22.855  33.412  1.00  0.00    -0.206 F 
ATOM     99  C   UNL A   1      45.956  21.723  35.001  1.00  0.00     0.022 A 
BRANCH  96 100
ATOM    100  S   UNL A   1      48.571  22.660  35.151  1.00  0.00     0.124 S 
ATOM    101  O   UNL A   1      48.484  22.286  36.561  1.00  0.00    -0.237 OA
ATOM    102  O   UNL A   1      49.076  21.627  34.253  1.00  0.00    -0.237 OA
ATOM    103  O   UNL A   1      49.078  24.007  34.897  1.00  0.00    -0.744 OA
ENDBRANCH  96 100
ENDBRANCH  70  93
ENDBRANCH  44  45
ENDBRANCH  36  39
ENDBRANCH  34  35
ENDBRANCH  33  34
ENDBRANCH   1  33
TORSDOF 19
ENDMDL
MODEL 2
REMARK VINA RESULT:     -13.3      1.960      3.983
REMARK SMILES Cc1cccc(OC2(C(=O)NCCCCCCNC(=O)c3ccc(-c4c5nc(c(-c6cc(S(=O)(=O)[O-])ccc6F)c6ccc([nH]6)c(-c6cc(S(=O)(=O)[O-])ccc6F)c6nc(c(-c7cc(S(=O)(=O)[O-])ccc7F)c7ccc4[nH]7)C=C6)C=C5)cc3)CCN(C(=O)c3cnc[nH]c3=O)CC2)c1
REMARK SMILES IDX 15 1 14 2 13 3 12 4 11 5 9 6 10 7 8 9 84 10 97 11 85 12
REMARK SMILES IDX 96 13 86 14 87 15 88 16 7 17 6 18 1 19 2 20 3 21 98 22 4 23
REMARK SMILES IDX 5 24 89 25 90 26 94 27 91 28 93 29 95 30 92 31 16 33 17 34
REMARK SMILES IDX 18 35 19 36 20 38 21 39 22 40 83 41 23 42 82 43 24 44 25 45
REMARK SMILES IDX 26 46 76 47 27 48 81 49 75 50 77 51 28 52 80 53 74 54 73 55
REMARK SMILES IDX 29 57 61 58 41 59 60 60 42 61 45 62 59 63 78 64 43 65 44 66
REMARK SMILES IDX 58 68 79 69 46 70 30 71 31 72 39 73 32 74 38 75 40 76 37 77
REMARK SMILES IDX 33 78 34 79 35 80 36 81 62 82 63 83 71 84 64 85 70 86 72 87
REMARK SMILES IDX 69 88 65 89 66 90 67 91 68 92 47 93 48 94 56 95 49 96 55 97
REMARK SMILES IDX 57 98 54 99 50 100 51 101 52 102 53 103
REMARK H PARENT 11 8 93 32 18 37 77 56 45 67
REMARK Flexibility Score: inf
ROOT
ATOM      1  C   UNL A   1      32.083  28.306  27.299  1.00  0.00     0.002 C 
ENDROOT
BRANCH   1   2
ATOM      2  C   UNL A   1      31.774  27.502  26.031  1.00  0.00     0.002 C 
BRANCH   2   3
ATOM      3  C   UNL A   1      31.985  25.986  26.092  1.00  0.00     0.021 C 
BRANCH   3   4
ATOM      4  C   UNL A   1      31.273  25.135  25.029  1.00  0.00     0.116 C 
BRANCH   4   5
ATOM      5  N   UNL A   1      30.522  24.012  25.570  1.00  0.00    -0.353 N 
ATOM      6  C   UNL A   1      30.808  22.691  25.764  1.00  0.00     0.264 C 
ATOM      7  O   UNL A   1      29.979  22.086  26.460  1.00  0.00    -0.270 OA
ATOM      8  H   UNL A   1      29.614  24.257  25.858  1.00  0.00     0.163 HD
BRANCH   6   9
ATOM      9  C   UNL A   1      32.096  21.964  25.238  1.00  0.00     0.190 C 
ATOM     10  C   UNL A   1      32.614  22.553  23.918  1.00  0.00     0.080 C 
ATOM     11  C   UNL A   1      33.199  22.076  26.328  1.00  0.00     0.080 C 
ATOM     12  C   UNL A   1      33.995  22.073  23.505  1.00  0.00     0.124 C 
ATOM     13  C   UNL A   1      34.526  21.494  25.818  1.00  0.00     0.124 C 
ATOM     14  N   UNL A   1      34.910  22.224  24.619  1.00  0.00    -0.338 N 
ATOM     15  C   UNL A   1      35.780  23.296  24.650  1.00  0.00     0.261 C 
ATOM     16  O   UNL A   1      35.551  24.373  24.104  1.00  0.00    -0.269 OA
BRANCH   9  17
ATOM     17  O   UNL A   1      31.789  20.551  25.280  1.00  0.00    -0.477 OA
BRANCH  17  18
ATOM     18  C   UNL A   1      32.361  19.471  24.705  1.00  0.00     0.121 A 
ATOM     19  C   UNL A   1      34.016  16.101  25.301  1.00  0.00     0.044 C 
ATOM     20  C   UNL A   1      33.388  17.266  24.590  1.00  0.00    -0.047 A 
ATOM     21  C   UNL A   1      33.113  17.195  23.223  1.00  0.00     0.003 A 
ATOM     22  C   UNL A   1      33.042  18.424  25.308  1.00  0.00     0.049 A 
ATOM     23  C   UNL A   1      32.489  18.263  22.588  1.00  0.00     0.004 A 
ATOM     24  C   UNL A   1      32.107  19.383  23.330  1.00  0.00     0.046 A 
ENDBRANCH  17  18
ENDBRANCH   9  17
BRANCH  15  25
ATOM     25  C   UNL A   1      37.043  23.068  25.376  1.00  0.00     0.123 A 
ATOM     26  C   UNL A   1      37.477  23.965  26.272  1.00  0.00     0.132 A 
ATOM     27  C   UNL A   1      37.901  21.897  25.118  1.00  0.00     0.263 A 
ATOM     28  N   UNL A   1      38.643  23.859  26.997  1.00  0.00    -0.246 NA
ATOM     29  N   UNL A   1      39.070  21.872  25.827  1.00  0.00    -0.312 N 
ATOM     30  O   UNL A   1      37.619  20.996  24.339  1.00  0.00    -0.269 OA
ATOM     31  C   UNL A   1      39.386  22.837  26.736  1.00  0.00     0.199 A 
ATOM     32  H   UNL A   1      39.702  21.133  25.678  1.00  0.00     0.171 HD
ENDBRANCH  15  25
ENDBRANCH   6   9
ENDBRANCH   4   5
ENDBRANCH   3   4
ENDBRANCH   2   3
ENDBRANCH   1   2
BRANCH   1  33
ATOM     33  C   UNL A   1      33.555  28.618  27.557  1.00  0.00     0.021 C 
BRANCH  33  34
ATOM     34  C   UNL A   1      34.204  29.517  26.512  1.00  0.00     0.116 C 
BRANCH  34  35
ATOM     35  N   UNL A   1      34.715  30.759  27.072  1.00  0.00    -0.352 N 
ATOM     36  C   UNL A   1      35.842  31.001  27.846  1.00  0.00     0.251 C 
ATOM     37  H   UNL A   1      34.174  31.557  26.869  1.00  0.00     0.163 HD
ATOM     38  O   UNL A   1      36.012  32.072  28.376  1.00  0.00    -0.269 OA
BRANCH  36  39
ATOM     39  C   UNL A   1      36.907  29.966  27.898  1.00  0.00     0.039 A 
ATOM     40  C   UNL A   1      36.902  29.107  29.008  1.00  0.00     0.014 A 
ATOM     41  C   UNL A   1      37.982  29.973  27.019  1.00  0.00     0.014 A 
ATOM     42  C   UNL A   1      38.069  28.432  29.358  1.00  0.00     0.010 A 
ATOM     43  C   UNL A   1      39.166  29.396  27.421  1.00  0.00     0.010 A 
ATOM     44  C   UNL A   1      39.221  28.673  28.618  1.00  0.00    -0.014 A 
BRANCH  44  45
ATOM     45  C   UNL A   1      40.560  28.299  29.041  1.00  0.00     0.031 A 
ATOM     46  C   UNL A   1      41.232  27.142  28.426  1.00  0.00     0.074 A 
ATOM     47  C   UNL A   1      41.239  29.135  29.856  1.00  0.00     0.049 A 
ATOM     48  N   UNL A   1      42.308  26.597  28.875  1.00  0.00    -0.248 NA
ATOM     49  C   UNL A   1      40.699  26.464  27.249  1.00  0.00     0.031 C 
ATOM     50  C   UNL A   1      42.678  29.183  30.087  1.00  0.00     0.029 A 
ATOM     51  N   UNL A   1      40.699  29.956  30.844  1.00  0.00    -0.354 N 
ATOM     52  C   UNL A   1      42.776  25.733  27.912  1.00  0.00     0.074 A 
ATOM     53  C   UNL A   1      41.697  25.626  26.959  1.00  0.00     0.031 C 
ATOM     54  C   UNL A   1      42.908  29.766  31.273  1.00  0.00     0.029 A 
ATOM     55  C   UNL A   1      41.617  29.951  31.910  1.00  0.00     0.049 A 
ATOM     56  H   UNL A   1      39.844  30.441  30.804  1.00  0.00     0.167 HD
ATOM     57  C   UNL A   1      44.077  25.327  27.972  1.00  0.00     0.034 A 
ATOM     58  C   UNL A   1      41.268  29.431  33.123  1.00  0.00     0.034 A 
ATOM     59  C   UNL A   1      44.714  25.788  29.209  1.00  0.00     0.049 A 
ATOM     60  C   UNL A   1      42.138  28.272  33.558  1.00  0.00     0.074 A 
ATOM     61  C   UNL A   1      45.594  26.818  29.502  1.00  0.00     0.029 A 
ATOM     62  N   UNL A   1      44.232  25.327  30.429  1.00  0.00    -0.354 N 
ATOM     63  N   UNL A   1      42.881  27.562  32.752  1.00  0.00    -0.248 NA
ATOM     64  C   UNL A   1      42.245  27.833  34.942  1.00  0.00     0.031 C 
ATOM     65  C   UNL A   1      45.603  26.999  30.914  1.00  0.00     0.029 A 
ATOM     66  C   UNL A   1      44.754  26.061  31.477  1.00  0.00     0.049 A 
ATOM     67  H   UNL A   1      43.603  24.578  30.534  1.00  0.00     0.167 HD
ATOM     68  C   UNL A   1      43.562  26.604  33.467  1.00  0.00     0.074 A 
ATOM     69  C   UNL A   1      43.130  26.828  34.838  1.00  0.00     0.031 C 
ATOM     70  C   UNL A   1      44.416  25.722  32.856  1.00  0.00     0.034 A 
BRANCH  57  71
ATOM     71  C   UNL A   1      44.856  24.769  26.797  1.00  0.00     0.023 A 
ATOM     72  C   UNL A   1      44.632  23.433  26.401  1.00  0.00     0.031 A 
ATOM     73  C   UNL A   1      45.855  25.444  26.069  1.00  0.00     0.131 A 
ATOM     74  C   UNL A   1      45.430  22.803  25.427  1.00  0.00     0.055 A 
ATOM     75  C   UNL A   1      46.687  24.807  25.137  1.00  0.00     0.041 A 
ATOM     76  F   UNL A   1      46.041  26.764  26.173  1.00  0.00    -0.206 F 
ATOM     77  C   UNL A   1      46.486  23.474  24.820  1.00  0.00     0.022 A 
BRANCH  74  78
ATOM     78  S   UNL A   1      45.072  21.086  24.962  1.00  0.00     0.124 S 
ATOM     79  O   UNL A   1      44.806  21.202  23.532  1.00  0.00    -0.237 OA
ATOM     80  O   UNL A   1      46.303  20.401  25.340  1.00  0.00    -0.237 OA
ATOM     81  O   UNL A   1      43.906  20.751  25.779  1.00  0.00    -0.744 OA
ENDBRANCH  74  78
ENDBRANCH  57  71
BRANCH  58  82
ATOM     82  C   UNL A   1      39.820  29.615  33.438  1.00  0.00     0.023 A 
ATOM     83  C   UNL A   1      39.426  30.898  33.879  1.00  0.00     0.031 A 
ATOM     84  C   UNL A   1      38.832  28.769  32.917  1.00  0.00     0.131 A 
ATOM     85  C   UNL A   1      38.130  31.367  33.619  1.00  0.00     0.055 A 
ATOM     86  C   UNL A   1      37.515  29.217  32.736  1.00  0.00     0.041 A 
ATOM     87  F   UNL A   1      39.148  27.551  32.456  1.00  0.00    -0.206 F 
ATOM     88  C   UNL A   1      37.172  30.537  33.040  1.00  0.00     0.022 A 
BRANCH  85  89
ATOM     89  S   UNL A   1      37.827  33.153  33.785  1.00  0.00     0.124 S 
ATOM     90  O   UNL A   1      39.134  33.714  33.458  1.00  0.00    -0.237 OA
ATOM     91  O   UNL A   1      36.771  33.383  32.800  1.00  0.00    -0.237 OA
ATOM     92  O   UNL A   1      37.407  33.307  35.174  1.00  0.00    -0.744 OA
ENDBRANCH  85  89
ENDBRANCH  58  82
BRANCH  70  93
ATOM     93  C   UNL A   1      45.083  24.497  33.474  1.00  0.00     0.023 A 
ATOM     94  C   UNL A   1      46.423  24.446  33.879  1.00  0.00     0.031 A 
ATOM     95  C   UNL A   1      44.341  23.311  33.733  1.00  0.00     0.131 A 
ATOM     96  C   UNL A   1      46.984  23.285  34.446  1.00  0.00     0.055 A 
ATOM     97  C   UNL A   1      44.881  22.177  34.350  1.00  0.00     0.041 A 
ATOM     98  F   UNL A   1      43.044  23.195  33.413  1.00  0.00    -0.206 F 
ATOM     99  C   UNL A   1      46.217  22.154  34.704  1.00  0.00     0.022 A 
BRANCH  96 100
ATOM    100  S   UNL A   1      48.760  23.277  34.803  1.00  0.00     0.124 S 
ATOM    101  O   UNL A   1      49.239  24.381  33.975  1.00  0.00    -0.237 OA
ATOM    102  O   UNL A   1      48.790  23.509  36.243  1.00  0.00    -0.237 OA
ATOM    103  O   UNL A   1      49.195  21.949  34.378  1.00  0.00    -0.744 OA
ENDBRANCH  96 100
ENDBRANCH  70  93
ENDBRANCH  44  45
ENDBRANCH  36  39
ENDBRANCH  34  35
ENDBRANCH  33  34
ENDBRANCH   1  33
TORSDOF 19
ENDMDL
MODEL 3
REMARK VINA RESULT:     -13.2      3.948      6.665
REMARK SMILES Cc1cccc(OC2(C(=O)NCCCCCCNC(=O)c3ccc(-c4c5nc(c(-c6cc(S(=O)(=O)[O-])ccc6F)c6ccc([nH]6)c(-c6cc(S(=O)(=O)[O-])ccc6F)c6nc(c(-c7cc(S(=O)(=O)[O-])ccc7F)c7ccc4[nH]7)C=C6)C=C5)cc3)CCN(C(=O)c3cnc[nH]c3=O)CC2)c1
REMARK SMILES IDX 15 1 14 2 13 3 12 4 11 5 9 6 10 7 8 9 84 10 97 11 85 12
REMARK SMILES IDX 96 13 86 14 87 15 88 16 7 17 6 18 1 19 2 20 3 21 98 22 4 23
REMARK SMILES IDX 5 24 89 25 90 26 94 27 91 28 93 29 95 30 92 31 16 33 17 34
REMARK SMILES IDX 18 35 19 36 20 38 21 39 22 40 83 41 23 42 82 43 24 44 25 45
REMARK SMILES IDX 26 46 76 47 27 48 81 49 75 50 77 51 28 52 80 53 74 54 73 55
REMARK SMILES IDX 29 57 61 58 41 59 60 60 42 61 45 62 59 63 78 64 43 65 44 66
REMARK SMILES IDX 58 68 79 69 46 70 30 71 31 72 39 73 32 74 38 75 40 76 37 77
REMARK SMILES IDX 33 78 34 79 35 80 36 81 62 82 63 83 71 84 64 85 70 86 72 87
REMARK SMILES IDX 69 88 65 89 66 90 67 91 68 92 47 93 48 94 56 95 49 96 55 97
REMARK SMILES IDX 57 98 54 99 50 100 51 101 52 102 53 103
REMARK H PARENT 11 8 93 32 18 37 77 56 45 67
REMARK Flexibility Score: inf
ROOT
ATOM      1  C   UNL A   1      34.878  31.505  27.632  1.00  0.00     0.002 C 
ENDROOT
BRANCH   1   2
ATOM      2  C   UNL A   1      35.375  30.066  27.806  1.00  0.00     0.002 C 
BRANCH   2   3
ATOM      3  C   UNL A   1      34.468  28.943  27.290  1.00  0.00     0.021 C 
BRANCH   3   4
ATOM      4  C   UNL A   1      32.958  29.223  27.250  1.00  0.00     0.116 C 
BRANCH   4   5
ATOM      5  N   UNL A   1      32.129  28.037  27.396  1.00  0.00    -0.353 N 
ATOM      6  C   UNL A   1      31.483  27.221  26.511  1.00  0.00     0.264 C 
ATOM      7  O   UNL A   1      31.050  26.171  27.008  1.00  0.00    -0.270 OA
ATOM      8  H   UNL A   1      32.006  27.764  28.333  1.00  0.00     0.163 HD
BRANCH   6   9
ATOM      9  C   UNL A   1      31.336  27.501  24.974  1.00  0.00     0.190 C 
ATOM     10  C   UNL A   1      30.195  26.701  24.329  1.00  0.00     0.080 C 
ATOM     11  C   UNL A   1      31.082  29.022  24.777  1.00  0.00     0.080 C 
ATOM     12  C   UNL A   1      29.836  27.128  22.918  1.00  0.00     0.124 C 
ATOM     13  C   UNL A   1      30.801  29.339  23.301  1.00  0.00     0.124 C 
ATOM     14  N   UNL A   1      29.643  28.564  22.883  1.00  0.00    -0.338 N 
ATOM     15  C   UNL A   1      28.362  29.084  22.889  1.00  0.00     0.261 C 
ATOM     16  O   UNL A   1      27.399  28.509  23.391  1.00  0.00    -0.269 OA
BRANCH   9  17
ATOM     17  O   UNL A   1      32.666  27.356  24.424  1.00  0.00    -0.477 OA
BRANCH  17  18
ATOM     18  C   UNL A   1      33.475  26.288  24.252  1.00  0.00     0.121 A 
ATOM     19  C   UNL A   1      35.810  23.810  25.945  1.00  0.00     0.044 C 
ATOM     20  C   UNL A   1      34.961  24.469  24.894  1.00  0.00    -0.047 A 
ATOM     21  C   UNL A   1      34.745  23.841  23.666  1.00  0.00     0.003 A 
ATOM     22  C   UNL A   1      34.352  25.708  25.157  1.00  0.00     0.049 A 
ATOM     23  C   UNL A   1      33.919  24.441  22.720  1.00  0.00     0.004 A 
ATOM     24  C   UNL A   1      33.283  25.647  23.022  1.00  0.00     0.046 A 
ENDBRANCH  17  18
ENDBRANCH   9  17
BRANCH  15  25
ATOM     25  C   UNL A   1      28.205  30.391  22.225  1.00  0.00     0.123 A 
ATOM     26  C   UNL A   1      27.964  30.454  20.909  1.00  0.00     0.132 A 
ATOM     27  C   UNL A   1      28.359  31.666  22.949  1.00  0.00     0.263 A 
ATOM     28  N   UNL A   1      27.810  31.617  20.187  1.00  0.00    -0.246 NA
ATOM     29  N   UNL A   1      28.249  32.786  22.172  1.00  0.00    -0.312 N 
ATOM     30  O   UNL A   1      28.565  31.754  24.153  1.00  0.00    -0.269 OA
ATOM     31  C   UNL A   1      27.972  32.718  20.839  1.00  0.00     0.199 A 
ATOM     32  H   UNL A   1      28.373  33.669  22.588  1.00  0.00     0.171 HD
ENDBRANCH  15  25
ENDBRANCH   6   9
ENDBRANCH   4   5
ENDBRANCH   3   4
ENDBRANCH   2   3
ENDBRANCH   1   2
BRANCH   1  33
ATOM     33  C   UNL A   1      34.329  32.184  28.885  1.00  0.00     0.021 C 
BRANCH  33  34
ATOM     34  C   UNL A   1      34.520  33.695  28.922  1.00  0.00     0.116 C 
BRANCH  34  35
ATOM     35  N   UNL A   1      33.666  34.350  29.901  1.00  0.00    -0.352 N 
ATOM     36  C   UNL A   1      33.774  34.424  31.283  1.00  0.00     0.251 C 
ATOM     37  H   UNL A   1      32.886  34.817  29.521  1.00  0.00     0.163 HD
ATOM     38  O   UNL A   1      32.869  34.859  31.953  1.00  0.00    -0.269 OA
BRANCH  36  39
ATOM     39  C   UNL A   1      35.076  34.088  31.915  1.00  0.00     0.039 A 
ATOM     40  C   UNL A   1      36.196  34.817  31.485  1.00  0.00     0.014 A 
ATOM     41  C   UNL A   1      35.233  32.972  32.727  1.00  0.00     0.014 A 
ATOM     42  C   UNL A   1      37.471  34.293  31.677  1.00  0.00     0.010 A 
ATOM     43  C   UNL A   1      36.480  32.397  32.822  1.00  0.00     0.010 A 
ATOM     44  C   UNL A   1      37.589  33.031  32.249  1.00  0.00    -0.014 A 
BRANCH  44  45
ATOM     45  C   UNL A   1      38.803  32.231  32.226  1.00  0.00     0.031 A 
ATOM     46  C   UNL A   1      38.804  30.910  31.576  1.00  0.00     0.074 A 
ATOM     47  C   UNL A   1      39.958  32.798  32.635  1.00  0.00     0.049 A 
ATOM     48  N   UNL A   1      39.745  30.039  31.691  1.00  0.00    -0.248 NA
ATOM     49  C   UNL A   1      37.690  30.440  30.760  1.00  0.00     0.031 C 
ATOM     50  C   UNL A   1      41.319  32.360  32.343  1.00  0.00     0.029 A 
ATOM     51  N   UNL A   1      40.107  33.761  33.630  1.00  0.00    -0.354 N 
ATOM     52  C   UNL A   1      39.528  29.058  30.750  1.00  0.00     0.074 A 
ATOM     53  C   UNL A   1      38.197  29.313  30.255  1.00  0.00     0.031 C 
ATOM     54  C   UNL A   1      42.142  32.843  33.287  1.00  0.00     0.029 A 
ATOM     55  C   UNL A   1      41.306  33.458  34.301  1.00  0.00     0.049 A 
ATOM     56  H   UNL A   1      39.495  34.506  33.825  1.00  0.00     0.167 HD
ATOM     57  C   UNL A   1      40.564  28.239  30.408  1.00  0.00     0.034 A 
ATOM     58  C   UNL A   1      41.291  33.097  35.618  1.00  0.00     0.034 A 
ATOM     59  C   UNL A   1      41.724  28.470  31.274  1.00  0.00     0.049 A 
ATOM     60  C   UNL A   1      41.855  31.717  35.874  1.00  0.00     0.074 A 
ATOM     61  C   UNL A   1      42.921  29.146  31.103  1.00  0.00     0.029 A 
ATOM     62  N   UNL A   1      41.614  28.210  32.635  1.00  0.00    -0.354 N 
ATOM     63  N   UNL A   1      41.986  30.790  34.963  1.00  0.00    -0.248 NA
ATOM     64  C   UNL A   1      42.328  31.281  37.180  1.00  0.00     0.031 C 
ATOM     65  C   UNL A   1      43.511  29.326  32.386  1.00  0.00     0.029 A 
ATOM     66  C   UNL A   1      42.687  28.734  33.329  1.00  0.00     0.049 A 
ATOM     67  H   UNL A   1      40.870  27.717  33.052  1.00  0.00     0.167 HD
ATOM     68  C   UNL A   1      42.552  29.666  35.518  1.00  0.00     0.074 A 
ATOM     69  C   UNL A   1      42.753  30.035  36.910  1.00  0.00     0.031 C 
ATOM     70  C   UNL A   1      42.799  28.542  34.772  1.00  0.00     0.034 A 
BRANCH  57  71
ATOM     71  C   UNL A   1      40.636  27.440  29.121  1.00  0.00     0.023 A 
ATOM     72  C   UNL A   1      41.641  27.751  28.180  1.00  0.00     0.031 A 
ATOM     73  C   UNL A   1      39.743  26.426  28.724  1.00  0.00     0.131 A 
ATOM     74  C   UNL A   1      41.668  27.162  26.901  1.00  0.00     0.055 A 
ATOM     75  C   UNL A   1      39.734  25.876  27.434  1.00  0.00     0.041 A 
ATOM     76  F   UNL A   1      38.875  25.871  29.575  1.00  0.00    -0.206 F 
ATOM     77  C   UNL A   1      40.692  26.253  26.508  1.00  0.00     0.022 A 
BRANCH  74  78
ATOM     78  S   UNL A   1      42.999  27.604  25.750  1.00  0.00     0.124 S 
ATOM     79  O   UNL A   1      43.650  26.317  25.522  1.00  0.00    -0.237 OA
ATOM     80  O   UNL A   1      42.261  28.165  24.625  1.00  0.00    -0.237 OA
ATOM     81  O   UNL A   1      43.794  28.570  26.507  1.00  0.00    -0.744 OA
ENDBRANCH  74  78
ENDBRANCH  57  71
BRANCH  58  82
ATOM     82  C   UNL A   1      40.198  33.761  36.388  1.00  0.00     0.023 A 
ATOM     83  C   UNL A   1      39.129  32.939  36.809  1.00  0.00     0.031 A 
ATOM     84  C   UNL A   1      40.392  34.978  37.057  1.00  0.00     0.131 A 
ATOM     85  C   UNL A   1      38.420  33.246  37.979  1.00  0.00     0.055 A 
ATOM     86  C   UNL A   1      39.622  35.319  38.179  1.00  0.00     0.041 A 
ATOM     87  F   UNL A   1      41.406  35.788  36.722  1.00  0.00    -0.206 F 
ATOM     88  C   UNL A   1      38.666  34.429  38.674  1.00  0.00     0.022 A 
BRANCH  85  89
ATOM     89  S   UNL A   1      37.394  31.938  38.716  1.00  0.00     0.124 S 
ATOM     90  O   UNL A   1      36.098  32.598  38.831  1.00  0.00    -0.237 OA
ATOM     91  O   UNL A   1      37.479  30.874  37.717  1.00  0.00    -0.237 OA
ATOM     92  O   UNL A   1      38.062  31.641  39.979  1.00  0.00    -0.744 OA
ENDBRANCH  85  89
ENDBRANCH  58  82
BRANCH  70  93
ATOM     93  C   UNL A   1      43.234  27.170  35.277  1.00  0.00     0.023 A 
ATOM     94  C   UNL A   1      44.378  26.492  34.838  1.00  0.00     0.031 A 
ATOM     95  C   UNL A   1      42.503  26.500  36.298  1.00  0.00     0.131 A 
ATOM     96  C   UNL A   1      44.730  25.224  35.344  1.00  0.00     0.055 A 
ATOM     97  C   UNL A   1      42.884  25.269  36.844  1.00  0.00     0.041 A 
ATOM     98  F   UNL A   1      41.387  27.014  36.832  1.00  0.00    -0.206 F 
ATOM     99  C   UNL A   1      44.002  24.615  36.360  1.00  0.00     0.022 A 
BRANCH  96 100
ATOM    100  S   UNL A   1      46.150  24.372  34.608  1.00  0.00     0.124 S 
ATOM    101  O   UNL A   1      46.353  23.266  35.540  1.00  0.00    -0.237 OA
ATOM    102  O   UNL A   1      45.642  24.002  33.291  1.00  0.00    -0.237 OA
ATOM    103  O   UNL A   1      47.202  25.385  34.608  1.00  0.00    -0.744 OA
ENDBRANCH  96 100
ENDBRANCH  70  93
ENDBRANCH  44  45
ENDBRANCH  36  39
ENDBRANCH  34  35
ENDBRANCH  33  34
ENDBRANCH   1  33
TORSDOF 19
ENDMDL
