MODEL 1
REMARK VINA RESULT:     -12.2      0.000      0.000
REMARK SMILES C[C@@H](C(=O)NCCCCCCNC(=O)c1ccc(-c2c3nc(c(-c4cc(S(=O)(=O)[O-])ccc4F)c4ccc([nH]4)c(-c4cc(S(=O)(=O)[O-])ccc4F)c4nc(c(-c5cc(S(=O)(=O)[O-])ccc5F)c5ccc2[nH]5)C=C4)C=C3)cc1)c1ccc2c3cc(Cl)ccc3n(C(=O)c3cocn3)c2c1
REMARK SMILES IDX 8 1 7 2 6 3 5 4 3 5 4 6 2 8 1 9 78 10 79 11 98 12 80 13
REMARK SMILES IDX 97 14 81 15 89 16 82 17 88 18 83 19 87 20 84 21 86 22 85 23
REMARK SMILES IDX 90 24 91 25 92 26 93 27 96 28 94 29 95 30 9 31 10 32 11 33
REMARK SMILES IDX 12 34 13 35 14 37 15 38 16 39 77 40 17 41 76 42 18 43 19 44
REMARK SMILES IDX 20 45 70 46 21 47 75 48 69 49 71 50 22 51 74 52 68 53 67 54
REMARK SMILES IDX 23 56 55 57 35 58 54 59 36 60 39 61 53 62 72 63 37 64 38 65
REMARK SMILES IDX 52 67 73 68 40 69 24 70 25 71 33 72 26 73 32 74 34 75 31 76
REMARK SMILES IDX 27 77 28 78 29 79 30 80 56 81 57 82 65 83 58 84 64 85 66 86
REMARK SMILES IDX 63 87 59 88 60 89 61 90 62 91 41 92 42 93 50 94 43 95 49 96
REMARK SMILES IDX 51 97 48 98 44 99 45 100 46 101 47 102
REMARK H PARENT 5 7 12 36 71 55 39 66
REMARK Flexibility Score: inf
ROOT
ATOM      1  C   UNL A   1      32.861  30.055  26.275  1.00  0.00     0.002 C 
ENDROOT
BRANCH   1   2
ATOM      2  C   UNL A   1      33.286  29.164  25.099  1.00  0.00     0.021 C 
BRANCH   2   3
ATOM      3  C   UNL A   1      32.984  27.680  25.321  1.00  0.00     0.116 C 
BRANCH   3   4
ATOM      4  N   UNL A   1      31.626  27.393  24.916  1.00  0.00    -0.356 N 
ATOM      5  C   UNL A   1      31.172  26.856  23.749  1.00  0.00     0.227 C 
ATOM      6  O   UNL A   1      29.965  26.963  23.520  1.00  0.00    -0.274 OA
ATOM      7  H   UNL A   1      30.931  27.618  25.578  1.00  0.00     0.163 HD
BRANCH   5   8
ATOM      8  C   UNL A   1      32.148  26.105  22.824  1.00  0.00     0.105 C 
ATOM      9  C   UNL A   1      31.716  26.197  21.351  1.00  0.00     0.023 C 
BRANCH   8  10
ATOM     10  C   UNL A   1      32.337  24.665  23.305  1.00  0.00    -0.034 A 
ATOM     11  C   UNL A   1      31.232  23.920  23.730  1.00  0.00     0.005 A 
ATOM     12  C   UNL A   1      33.598  24.057  23.294  1.00  0.00     0.032 A 
ATOM     13  C   UNL A   1      31.362  22.570  24.088  1.00  0.00     0.011 A 
ATOM     14  C   UNL A   1      33.740  22.737  23.751  1.00  0.00     0.058 A 
ATOM     15  C   UNL A   1      32.637  21.966  24.083  1.00  0.00     0.008 A 
ATOM     16  N   UNL A   1      34.898  21.979  23.937  1.00  0.00    -0.274 N 
ATOM     17  C   UNL A   1      33.115  20.654  24.352  1.00  0.00     0.009 A 
ATOM     18  C   UNL A   1      34.518  20.683  24.306  1.00  0.00     0.057 A 
ATOM     19  C   UNL A   1      32.452  19.450  24.673  1.00  0.00     0.031 A 
ATOM     20  C   UNL A   1      35.268  19.556  24.695  1.00  0.00     0.029 A 
ATOM     21  C   UNL A   1      33.201  18.321  24.995  1.00  0.00     0.041 A 
ATOM     22  C   UNL A   1      34.588  18.378  25.027  1.00  0.00     0.023 A 
ATOM     23  Cl  UNL A   1      32.395  16.853  25.392  1.00  0.00    -0.084 Cl
BRANCH  16  24
ATOM     24  C   UNL A   1      36.203  22.525  23.834  1.00  0.00     0.284 C 
ATOM     25  O   UNL A   1      36.521  22.928  22.707  1.00  0.00    -0.266 OA
BRANCH  24  26
ATOM     26  C   UNL A   1      37.183  22.595  24.908  1.00  0.00     0.167 A 
ATOM     27  C   UNL A   1      38.079  21.641  25.342  1.00  0.00     0.231 A 
ATOM     28  N   UNL A   1      37.442  23.779  25.590  1.00  0.00    -0.211 NA
ATOM     29  O   UNL A   1      38.887  22.205  26.288  1.00  0.00    -0.451 OA
ATOM     30  C   UNL A   1      38.458  23.493  26.366  1.00  0.00     0.308 A 
ENDBRANCH  24  26
ENDBRANCH  16  24
ENDBRANCH   8  10
ENDBRANCH   5   8
ENDBRANCH   3   4
ENDBRANCH   2   3
ENDBRANCH   1   2
BRANCH   1  31
ATOM     31  C   UNL A   1      31.554  30.821  26.050  1.00  0.00     0.002 C 
BRANCH  31  32
ATOM     32  C   UNL A   1      31.452  32.141  26.817  1.00  0.00     0.021 C 
BRANCH  32  33
ATOM     33  C   UNL A   1      32.795  32.708  27.261  1.00  0.00     0.116 C 
BRANCH  33  34
ATOM     34  N   UNL A   1      32.672  34.087  27.703  1.00  0.00    -0.352 N 
ATOM     35  C   UNL A   1      33.302  34.720  28.746  1.00  0.00     0.251 C 
ATOM     36  H   UNL A   1      32.050  34.645  27.183  1.00  0.00     0.163 HD
ATOM     37  O   UNL A   1      32.903  35.814  29.127  1.00  0.00    -0.269 OA
BRANCH  35  38
ATOM     38  C   UNL A   1      34.447  34.061  29.412  1.00  0.00     0.039 A 
ATOM     39  C   UNL A   1      35.744  34.445  29.064  1.00  0.00     0.014 A 
ATOM     40  C   UNL A   1      34.241  33.065  30.371  1.00  0.00     0.014 A 
ATOM     41  C   UNL A   1      36.834  33.866  29.718  1.00  0.00     0.010 A 
ATOM     42  C   UNL A   1      35.324  32.543  31.072  1.00  0.00     0.010 A 
ATOM     43  C   UNL A   1      36.632  32.933  30.748  1.00  0.00    -0.014 A 
BRANCH  43  44
ATOM     44  C   UNL A   1      37.780  32.344  31.488  1.00  0.00     0.031 A 
ATOM     45  C   UNL A   1      38.584  31.234  30.867  1.00  0.00     0.074 A 
ATOM     46  C   UNL A   1      38.062  32.774  32.734  1.00  0.00     0.049 A 
ATOM     47  N   UNL A   1      39.572  30.544  31.375  1.00  0.00    -0.248 NA
ATOM     48  C   UNL A   1      38.206  30.830  29.505  1.00  0.00     0.031 C 
ATOM     49  C   UNL A   1      37.332  33.821  33.452  1.00  0.00     0.029 A 
ATOM     50  N   UNL A   1      39.034  32.382  33.619  1.00  0.00    -0.354 N 
ATOM     51  C   UNL A   1      39.931  29.620  30.399  1.00  0.00     0.074 A 
ATOM     52  C   UNL A   1      39.007  29.797  29.298  1.00  0.00     0.031 C 
ATOM     53  C   UNL A   1      37.897  34.004  34.656  1.00  0.00     0.029 A 
ATOM     54  C   UNL A   1      38.996  33.058  34.817  1.00  0.00     0.049 A 
ATOM     55  H   UNL A   1      39.696  31.683  33.417  1.00  0.00     0.167 HD
ATOM     56  C   UNL A   1      40.954  28.730  30.407  1.00  0.00     0.034 A 
ATOM     57  C   UNL A   1      39.753  32.921  35.924  1.00  0.00     0.034 A 
ATOM     58  C   UNL A   1      41.869  28.571  31.511  1.00  0.00     0.049 A 
ATOM     59  C   UNL A   1      40.861  31.896  35.925  1.00  0.00     0.074 A 
ATOM     60  C   UNL A   1      42.959  27.724  31.614  1.00  0.00     0.029 A 
ATOM     61  N   UNL A   1      41.798  29.270  32.710  1.00  0.00    -0.354 N 
ATOM     62  N   UNL A   1      41.213  31.060  34.976  1.00  0.00    -0.248 NA
ATOM     63  C   UNL A   1      41.678  31.805  37.142  1.00  0.00     0.031 C 
ATOM     64  C   UNL A   1      43.506  27.864  32.894  1.00  0.00     0.029 A 
ATOM     65  C   UNL A   1      42.807  28.855  33.565  1.00  0.00     0.049 A 
ATOM     66  H   UNL A   1      41.129  29.961  32.921  1.00  0.00     0.167 HD
ATOM     67  C   UNL A   1      42.318  30.370  35.471  1.00  0.00     0.074 A 
ATOM     68  C   UNL A   1      42.579  30.900  36.793  1.00  0.00     0.031 C 
ATOM     69  C   UNL A   1      43.051  29.389  34.885  1.00  0.00     0.034 A 
BRANCH  56  70
ATOM     70  C   UNL A   1      41.117  27.851  29.189  1.00  0.00     0.023 A 
ATOM     71  C   UNL A   1      42.121  28.094  28.234  1.00  0.00     0.031 A 
ATOM     72  C   UNL A   1      40.243  26.773  28.961  1.00  0.00     0.131 A 
ATOM     73  C   UNL A   1      42.177  27.326  27.062  1.00  0.00     0.055 A 
ATOM     74  C   UNL A   1      40.358  25.957  27.833  1.00  0.00     0.041 A 
ATOM     75  F   UNL A   1      39.252  26.503  29.824  1.00  0.00    -0.206 F 
ATOM     76  C   UNL A   1      41.319  26.242  26.867  1.00  0.00     0.022 A 
BRANCH  73  77
ATOM     77  S   UNL A   1      43.288  27.858  25.731  1.00  0.00     0.124 S 
ATOM     78  O   UNL A   1      42.364  27.965  24.603  1.00  0.00    -0.237 OA
ATOM     79  O   UNL A   1      43.817  29.116  26.245  1.00  0.00    -0.237 OA
ATOM     80  O   UNL A   1      44.254  26.766  25.634  1.00  0.00    -0.744 OA
ENDBRANCH  73  77
ENDBRANCH  56  70
BRANCH  57  81
ATOM     81  C   UNL A   1      39.494  33.760  37.130  1.00  0.00     0.023 A 
ATOM     82  C   UNL A   1      38.827  33.234  38.248  1.00  0.00     0.031 A 
ATOM     83  C   UNL A   1      39.858  35.118  37.160  1.00  0.00     0.131 A 
ATOM     84  C   UNL A   1      38.494  34.072  39.323  1.00  0.00     0.055 A 
ATOM     85  C   UNL A   1      39.576  35.934  38.258  1.00  0.00     0.041 A 
ATOM     86  F   UNL A   1      40.500  35.674  36.120  1.00  0.00    -0.206 F 
ATOM     87  C   UNL A   1      38.875  35.415  39.341  1.00  0.00     0.022 A 
BRANCH  84  88
ATOM     88  S   UNL A   1      37.461  33.403  40.655  1.00  0.00     0.124 S 
ATOM     89  O   UNL A   1      36.336  32.850  39.909  1.00  0.00    -0.237 OA
ATOM     90  O   UNL A   1      38.357  32.435  41.277  1.00  0.00    -0.237 OA
ATOM     91  O   UNL A   1      37.153  34.578  41.469  1.00  0.00    -0.744 OA
ENDBRANCH  84  88
ENDBRANCH  57  81
BRANCH  69  92
ATOM     92  C   UNL A   1      44.239  28.868  35.658  1.00  0.00     0.023 A 
ATOM     93  C   UNL A   1      44.131  27.772  36.532  1.00  0.00     0.031 A 
ATOM     94  C   UNL A   1      45.494  29.490  35.530  1.00  0.00     0.131 A 
ATOM     95  C   UNL A   1      45.243  27.369  37.288  1.00  0.00     0.055 A 
ATOM     96  C   UNL A   1      46.611  29.046  36.237  1.00  0.00     0.041 A 
ATOM     97  F   UNL A   1      45.653  30.543  34.711  1.00  0.00    -0.206 F 
ATOM     98  C   UNL A   1      46.486  27.988  37.133  1.00  0.00     0.022 A 
BRANCH  95  99
ATOM     99  S   UNL A   1      45.019  26.086  38.551  1.00  0.00     0.124 S 
ATOM    100  O   UNL A   1      44.212  26.780  39.549  1.00  0.00    -0.237 OA
ATOM    101  O   UNL A   1      44.341  25.030  37.806  1.00  0.00    -0.237 OA
ATOM    102  O   UNL A   1      46.385  25.772  38.966  1.00  0.00    -0.744 OA
ENDBRANCH  95  99
ENDBRANCH  69  92
ENDBRANCH  43  44
ENDBRANCH  35  38
ENDBRANCH  33  34
ENDBRANCH  32  33
ENDBRANCH  31  32
ENDBRANCH   1  31
TORSDOF 19
ENDMDL
MODEL 2
REMARK VINA RESULT:     -12.1      4.960      8.509
REMARK SMILES C[C@@H](C(=O)NCCCCCCNC(=O)c1ccc(-c2c3nc(c(-c4cc(S(=O)(=O)[O-])ccc4F)c4ccc([nH]4)c(-c4cc(S(=O)(=O)[O-])ccc4F)c4nc(c(-c5cc(S(=O)(=O)[O-])ccc5F)c5ccc2[nH]5)C=C4)C=C3)cc1)c1ccc2c3cc(Cl)ccc3n(C(=O)c3cocn3)c2c1
REMARK SMILES IDX 8 1 7 2 6 3 5 4 3 5 4 6 2 8 1 9 78 10 79 11 98 12 80 13
REMARK SMILES IDX 97 14 81 15 89 16 82 17 88 18 83 19 87 20 84 21 86 22 85 23
REMARK SMILES IDX 90 24 91 25 92 26 93 27 96 28 94 29 95 30 9 31 10 32 11 33
REMARK SMILES IDX 12 34 13 35 14 37 15 38 16 39 77 40 17 41 76 42 18 43 19 44
REMARK SMILES IDX 20 45 70 46 21 47 75 48 69 49 71 50 22 51 74 52 68 53 67 54
REMARK SMILES IDX 23 56 55 57 35 58 54 59 36 60 39 61 53 62 72 63 37 64 38 65
REMARK SMILES IDX 52 67 73 68 40 69 24 70 25 71 33 72 26 73 32 74 34 75 31 76
REMARK SMILES IDX 27 77 28 78 29 79 30 80 56 81 57 82 65 83 58 84 64 85 66 86
REMARK SMILES IDX 63 87 59 88 60 89 61 90 62 91 41 92 42 93 50 94 43 95 49 96
REMARK SMILES IDX 51 97 48 98 44 99 45 100 46 101 47 102
REMARK H PARENT 5 7 12 36 71 55 39 66
REMARK Flexibility Score: inf
ROOT
ATOM      1  C   UNL A   1      34.525  22.990  22.885  1.00  0.00     0.002 C 
ENDROOT
BRANCH   1   2
ATOM      2  C   UNL A   1      33.315  22.056  22.746  1.00  0.00     0.021 C 
BRANCH   2   3
ATOM      3  C   UNL A   1      33.180  21.059  23.900  1.00  0.00     0.116 C 
BRANCH   3   4
ATOM      4  N   UNL A   1      31.880  21.201  24.517  1.00  0.00    -0.356 N 
ATOM      5  C   UNL A   1      31.492  22.035  25.522  1.00  0.00     0.227 C 
ATOM      6  O   UNL A   1      30.415  21.785  26.067  1.00  0.00    -0.274 OA
ATOM      7  H   UNL A   1      31.175  20.613  24.160  1.00  0.00     0.163 HD
BRANCH   5   8
ATOM      8  C   UNL A   1      32.361  23.256  25.880  1.00  0.00     0.105 C 
ATOM      9  C   UNL A   1      32.516  23.414  27.401  1.00  0.00     0.023 C 
BRANCH   8  10
ATOM     10  C   UNL A   1      31.820  24.514  25.198  1.00  0.00    -0.034 A 
ATOM     11  C   UNL A   1      31.351  24.449  23.881  1.00  0.00     0.005 A 
ATOM     12  C   UNL A   1      31.748  25.734  25.881  1.00  0.00     0.032 A 
ATOM     13  C   UNL A   1      30.766  25.564  23.264  1.00  0.00     0.011 A 
ATOM     14  C   UNL A   1      31.255  26.873  25.224  1.00  0.00     0.058 A 
ATOM     15  C   UNL A   1      30.704  26.792  23.955  1.00  0.00     0.008 A 
ATOM     16  N   UNL A   1      31.200  28.198  25.661  1.00  0.00    -0.274 N 
ATOM     17  C   UNL A   1      30.170  28.075  23.652  1.00  0.00     0.009 A 
ATOM     18  C   UNL A   1      30.524  28.950  24.692  1.00  0.00     0.057 A 
ATOM     19  C   UNL A   1      29.445  28.565  22.545  1.00  0.00     0.031 A 
ATOM     20  C   UNL A   1      30.267  30.331  24.582  1.00  0.00     0.029 A 
ATOM     21  C   UNL A   1      29.139  29.921  22.472  1.00  0.00     0.041 A 
ATOM     22  C   UNL A   1      29.562  30.795  23.465  1.00  0.00     0.023 A 
ATOM     23  Cl  UNL A   1      28.260  30.521  21.120  1.00  0.00    -0.084 Cl
BRANCH  16  24
ATOM     24  C   UNL A   1      31.822  28.645  26.855  1.00  0.00     0.284 C 
ATOM     25  O   UNL A   1      31.213  28.379  27.901  1.00  0.00    -0.266 OA
BRANCH  24  26
ATOM     26  C   UNL A   1      33.056  29.412  26.936  1.00  0.00     0.167 A 
ATOM     27  C   UNL A   1      33.245  30.734  27.283  1.00  0.00     0.231 A 
ATOM     28  N   UNL A   1      34.303  28.817  26.791  1.00  0.00    -0.211 NA
ATOM     29  O   UNL A   1      34.588  30.975  27.349  1.00  0.00    -0.451 OA
ATOM     30  C   UNL A   1      35.155  29.774  27.062  1.00  0.00     0.308 A 
ENDBRANCH  24  26
ENDBRANCH  16  24
ENDBRANCH   8  10
ENDBRANCH   5   8
ENDBRANCH   3   4
ENDBRANCH   2   3
ENDBRANCH   1   2
BRANCH   1  31
ATOM     31  C   UNL A   1      35.530  22.571  23.962  1.00  0.00     0.002 C 
BRANCH  31  32
ATOM     32  C   UNL A   1      36.063  23.725  24.815  1.00  0.00     0.021 C 
BRANCH  32  33
ATOM     33  C   UNL A   1      36.466  23.319  26.228  1.00  0.00     0.116 C 
BRANCH  33  34
ATOM     34  N   UNL A   1      37.620  22.437  26.221  1.00  0.00    -0.352 N 
ATOM     35  C   UNL A   1      38.949  22.750  26.372  1.00  0.00     0.251 C 
ATOM     36  H   UNL A   1      37.423  21.482  26.090  1.00  0.00     0.163 HD
ATOM     37  O   UNL A   1      39.806  21.919  26.099  1.00  0.00    -0.269 OA
BRANCH  35  38
ATOM     38  C   UNL A   1      39.329  24.100  26.844  1.00  0.00     0.039 A 
ATOM     39  C   UNL A   1      39.092  24.442  28.177  1.00  0.00     0.014 A 
ATOM     40  C   UNL A   1      39.912  25.025  25.973  1.00  0.00     0.014 A 
ATOM     41  C   UNL A   1      39.488  25.695  28.649  1.00  0.00     0.010 A 
ATOM     42  C   UNL A   1      40.373  26.244  26.462  1.00  0.00     0.010 A 
ATOM     43  C   UNL A   1      40.159  26.594  27.804  1.00  0.00    -0.014 A 
BRANCH  43  44
ATOM     44  C   UNL A   1      40.632  27.912  28.304  1.00  0.00     0.031 A 
ATOM     45  C   UNL A   1      42.107  28.191  28.411  1.00  0.00     0.074 A 
ATOM     46  C   UNL A   1      39.735  28.834  28.707  1.00  0.00     0.049 A 
ATOM     47  N   UNL A   1      42.718  29.245  28.887  1.00  0.00    -0.248 NA
ATOM     48  C   UNL A   1      43.013  27.129  27.946  1.00  0.00     0.031 C 
ATOM     49  C   UNL A   1      38.280  28.664  28.682  1.00  0.00     0.029 A 
ATOM     50  N   UNL A   1      39.912  30.093  29.223  1.00  0.00    -0.354 N 
ATOM     51  C   UNL A   1      44.079  28.973  28.784  1.00  0.00     0.074 A 
ATOM     52  C   UNL A   1      44.197  27.627  28.266  1.00  0.00     0.031 C 
ATOM     53  C   UNL A   1      37.699  29.786  29.137  1.00  0.00     0.029 A 
ATOM     54  C   UNL A   1      38.735  30.735  29.532  1.00  0.00     0.049 A 
ATOM     55  H   UNL A   1      40.798  30.499  29.359  1.00  0.00     0.167 HD
ATOM     56  C   UNL A   1      45.130  29.782  29.068  1.00  0.00     0.034 A 
ATOM     57  C   UNL A   1      38.517  31.946  30.083  1.00  0.00     0.034 A 
ATOM     58  C   UNL A   1      44.993  31.124  29.580  1.00  0.00     0.049 A 
ATOM     59  C   UNL A   1      39.703  32.812  30.427  1.00  0.00     0.074 A 
ATOM     60  C   UNL A   1      45.987  32.041  29.872  1.00  0.00     0.029 A 
ATOM     61  N   UNL A   1      43.785  31.740  29.885  1.00  0.00    -0.354 N 
ATOM     62  N   UNL A   1      40.983  32.555  30.284  1.00  0.00    -0.248 NA
ATOM     63  C   UNL A   1      39.414  34.135  30.997  1.00  0.00     0.031 C 
ATOM     64  C   UNL A   1      45.386  33.185  30.411  1.00  0.00     0.029 A 
ATOM     65  C   UNL A   1      44.011  33.013  30.385  1.00  0.00     0.049 A 
ATOM     66  H   UNL A   1      42.897  31.332  29.763  1.00  0.00     0.167 HD
ATOM     67  C   UNL A   1      41.648  33.702  30.713  1.00  0.00     0.074 A 
ATOM     68  C   UNL A   1      40.628  34.652  31.103  1.00  0.00     0.031 C 
ATOM     69  C   UNL A   1      42.982  33.948  30.777  1.00  0.00     0.034 A 
BRANCH  56  70
ATOM     70  C   UNL A   1      46.515  29.220  28.846  1.00  0.00     0.023 A 
ATOM     71  C   UNL A   1      47.049  29.070  27.554  1.00  0.00     0.031 A 
ATOM     72  C   UNL A   1      47.302  28.805  29.934  1.00  0.00     0.131 A 
ATOM     73  C   UNL A   1      48.293  28.446  27.377  1.00  0.00     0.055 A 
ATOM     74  C   UNL A   1      48.578  28.263  29.756  1.00  0.00     0.041 A 
ATOM     75  F   UNL A   1      46.840  28.903  31.190  1.00  0.00    -0.206 F 
ATOM     76  C   UNL A   1      49.073  28.065  28.471  1.00  0.00     0.022 A 
BRANCH  73  77
ATOM     77  S   UNL A   1      48.808  28.005  25.695  1.00  0.00     0.124 S 
ATOM     78  O   UNL A   1      50.079  28.717  25.580  1.00  0.00    -0.237 OA
ATOM     79  O   UNL A   1      48.892  26.551  25.761  1.00  0.00    -0.237 OA
ATOM     80  O   UNL A   1      47.731  28.531  24.858  1.00  0.00    -0.744 OA
ENDBRANCH  73  77
ENDBRANCH  56  70
BRANCH  57  81
ATOM     81  C   UNL A   1      37.127  32.416  30.357  1.00  0.00     0.023 A 
ATOM     82  C   UNL A   1      36.372  33.056  29.361  1.00  0.00     0.031 A 
ATOM     83  C   UNL A   1      36.555  32.284  31.634  1.00  0.00     0.131 A 
ATOM     84  C   UNL A   1      35.112  33.590  29.673  1.00  0.00     0.055 A 
ATOM     85  C   UNL A   1      35.277  32.765  31.924  1.00  0.00     0.041 A 
ATOM     86  F   UNL A   1      37.231  31.677  32.623  1.00  0.00    -0.206 F 
ATOM     87  C   UNL A   1      34.554  33.438  30.944  1.00  0.00     0.022 A 
BRANCH  84  88
ATOM     88  S   UNL A   1      34.256  34.581  28.419  1.00  0.00     0.124 S 
ATOM     89  O   UNL A   1      35.093  34.362  27.244  1.00  0.00    -0.237 OA
ATOM     90  O   UNL A   1      32.936  33.961  28.392  1.00  0.00    -0.237 OA
ATOM     91  O   UNL A   1      34.295  35.934  28.970  1.00  0.00    -0.744 OA
ENDBRANCH  84  88
ENDBRANCH  57  81
BRANCH  69  92
ATOM     92  C   UNL A   1      43.403  35.322  31.238  1.00  0.00     0.023 A 
ATOM     93  C   UNL A   1      43.581  35.625  32.600  1.00  0.00     0.031 A 
ATOM     94  C   UNL A   1      43.614  36.349  30.300  1.00  0.00     0.131 A 
ATOM     95  C   UNL A   1      43.899  36.935  32.988  1.00  0.00     0.055 A 
ATOM     96  C   UNL A   1      43.991  37.634  30.688  1.00  0.00     0.041 A 
ATOM     97  F   UNL A   1      43.456  36.117  28.986  1.00  0.00    -0.206 F 
ATOM     98  C   UNL A   1      44.122  37.937  32.041  1.00  0.00     0.022 A 
BRANCH  95  99
ATOM     99  S   UNL A   1      43.922  37.337  34.757  1.00  0.00     0.124 S 
ATOM    100  O   UNL A   1      45.319  37.098  35.104  1.00  0.00    -0.237 OA
ATOM    101  O   UNL A   1      43.494  38.732  34.766  1.00  0.00    -0.237 OA
ATOM    102  O   UNL A   1      42.969  36.392  35.336  1.00  0.00    -0.744 OA
ENDBRANCH  95  99
ENDBRANCH  69  92
ENDBRANCH  43  44
ENDBRANCH  35  38
ENDBRANCH  33  34
ENDBRANCH  32  33
ENDBRANCH  31  32
ENDBRANCH   1  31
TORSDOF 19
ENDMDL
MODEL 3
REMARK VINA RESULT:     -12.0      5.603     13.112
REMARK SMILES C[C@@H](C(=O)NCCCCCCNC(=O)c1ccc(-c2c3nc(c(-c4cc(S(=O)(=O)[O-])ccc4F)c4ccc([nH]4)c(-c4cc(S(=O)(=O)[O-])ccc4F)c4nc(c(-c5cc(S(=O)(=O)[O-])ccc5F)c5ccc2[nH]5)C=C4)C=C3)cc1)c1ccc2c3cc(Cl)ccc3n(C(=O)c3cocn3)c2c1
REMARK SMILES IDX 8 1 7 2 6 3 5 4 3 5 4 6 2 8 1 9 78 10 79 11 98 12 80 13
REMARK SMILES IDX 97 14 81 15 89 16 82 17 88 18 83 19 87 20 84 21 86 22 85 23
REMARK SMILES IDX 90 24 91 25 92 26 93 27 96 28 94 29 95 30 9 31 10 32 11 33
REMARK SMILES IDX 12 34 13 35 14 37 15 38 16 39 77 40 17 41 76 42 18 43 19 44
REMARK SMILES IDX 20 45 70 46 21 47 75 48 69 49 71 50 22 51 74 52 68 53 67 54
REMARK SMILES IDX 23 56 55 57 35 58 54 59 36 60 39 61 53 62 72 63 37 64 38 65
REMARK SMILES IDX 52 67 73 68 40 69 24 70 25 71 33 72 26 73 32 74 34 75 31 76
REMARK SMILES IDX 27 77 28 78 29 79 30 80 56 81 57 82 65 83 58 84 64 85 66 86
REMARK SMILES IDX 63 87 59 88 60 89 61 90 62 91 41 92 42 93 50 94 43 95 49 96
REMARK SMILES IDX 51 97 48 98 44 99 45 100 46 101 47 102
REMARK H PARENT 5 7 12 36 71 55 39 66
REMARK Flexibility Score: inf
ROOT
ATOM      1  C   UNL A   1      38.247  34.480  29.658  1.00  0.00     0.002 C 
ENDROOT
BRANCH   1   2
ATOM      2  C   UNL A   1      38.090  34.540  31.184  1.00  0.00     0.021 C 
BRANCH   2   3
ATOM      3  C   UNL A   1      37.606  33.224  31.798  1.00  0.00     0.116 C 
BRANCH   3   4
ATOM      4  N   UNL A   1      36.682  33.500  32.876  1.00  0.00    -0.356 N 
ATOM      5  C   UNL A   1      36.755  33.133  34.186  1.00  0.00     0.227 C 
ATOM      6  O   UNL A   1      35.723  33.241  34.851  1.00  0.00    -0.274 OA
ATOM      7  H   UNL A   1      35.888  34.027  32.627  1.00  0.00     0.163 HD
BRANCH   5   8
ATOM      8  C   UNL A   1      38.102  32.672  34.775  1.00  0.00     0.105 C 
ATOM      9  C   UNL A   1      38.041  31.211  35.250  1.00  0.00     0.023 C 
BRANCH   8  10
ATOM     10  C   UNL A   1      38.565  33.639  35.867  1.00  0.00    -0.034 A 
ATOM     11  C   UNL A   1      39.214  34.828  35.518  1.00  0.00     0.005 A 
ATOM     12  C   UNL A   1      38.318  33.376  37.219  1.00  0.00     0.032 A 
ATOM     13  C   UNL A   1      39.566  35.775  36.490  1.00  0.00     0.011 A 
ATOM     14  C   UNL A   1      38.765  34.279  38.198  1.00  0.00     0.058 A 
ATOM     15  C   UNL A   1      39.323  35.499  37.852  1.00  0.00     0.008 A 
ATOM     16  N   UNL A   1      38.734  34.169  39.589  1.00  0.00    -0.274 N 
ATOM     17  C   UNL A   1      39.519  36.223  39.062  1.00  0.00     0.009 A 
ATOM     18  C   UNL A   1      39.197  35.374  40.133  1.00  0.00     0.057 A 
ATOM     19  C   UNL A   1      39.988  37.528  39.322  1.00  0.00     0.031 A 
ATOM     20  C   UNL A   1      39.453  35.771  41.460  1.00  0.00     0.029 A 
ATOM     21  C   UNL A   1      40.179  37.937  40.638  1.00  0.00     0.041 A 
ATOM     22  C   UNL A   1      39.936  37.065  41.692  1.00  0.00     0.023 A 
ATOM     23  Cl  UNL A   1      40.756  39.527  40.958  1.00  0.00    -0.084 Cl
BRANCH  16  24
ATOM     24  C   UNL A   1      38.366  32.977  40.263  1.00  0.00     0.284 C 
ATOM     25  O   UNL A   1      39.293  32.184  40.480  1.00  0.00    -0.266 OA
BRANCH  24  26
ATOM     26  C   UNL A   1      37.016  32.604  40.658  1.00  0.00     0.167 A 
ATOM     27  C   UNL A   1      35.856  32.591  39.913  1.00  0.00     0.231 A 
ATOM     28  N   UNL A   1      36.742  32.044  41.900  1.00  0.00    -0.211 NA
ATOM     29  O   UNL A   1      34.861  32.041  40.670  1.00  0.00    -0.451 OA
ATOM     30  C   UNL A   1      35.474  31.719  41.840  1.00  0.00     0.308 A 
ENDBRANCH  24  26
ENDBRANCH  16  24
ENDBRANCH   8  10
ENDBRANCH   5   8
ENDBRANCH   3   4
ENDBRANCH   2   3
ENDBRANCH   1   2
BRANCH   1  31
ATOM     31  C   UNL A   1      37.480  33.339  28.986  1.00  0.00     0.002 C 
BRANCH  31  32
ATOM     32  C   UNL A   1      36.089  33.722  28.476  1.00  0.00     0.021 C 
BRANCH  32  33
ATOM     33  C   UNL A   1      34.946  33.016  29.196  1.00  0.00     0.116 C 
BRANCH  33  34
ATOM     34  N   UNL A   1      34.220  32.129  28.303  1.00  0.00    -0.352 N 
ATOM     35  C   UNL A   1      34.627  30.945  27.740  1.00  0.00     0.251 C 
ATOM     36  H   UNL A   1      33.308  32.418  28.068  1.00  0.00     0.163 HD
ATOM     37  O   UNL A   1      33.983  30.452  26.823  1.00  0.00    -0.269 OA
BRANCH  35  38
ATOM     38  C   UNL A   1      35.857  30.288  28.237  1.00  0.00     0.039 A 
ATOM     39  C   UNL A   1      36.991  30.271  27.423  1.00  0.00     0.014 A 
ATOM     40  C   UNL A   1      35.887  29.687  29.499  1.00  0.00     0.014 A 
ATOM     41  C   UNL A   1      38.172  29.696  27.896  1.00  0.00     0.010 A 
ATOM     42  C   UNL A   1      37.084  29.182  29.998  1.00  0.00     0.010 A 
ATOM     43  C   UNL A   1      38.237  29.174  29.199  1.00  0.00    -0.014 A 
BRANCH  43  44
ATOM     44  C   UNL A   1      39.500  28.604  29.736  1.00  0.00     0.031 A 
ATOM     45  C   UNL A   1      40.147  29.217  30.949  1.00  0.00     0.074 A 
ATOM     46  C   UNL A   1      40.089  27.570  29.102  1.00  0.00     0.049 A 
ATOM     47  N   UNL A   1      41.280  28.913  31.526  1.00  0.00    -0.248 NA
ATOM     48  C   UNL A   1      39.434  30.340  31.577  1.00  0.00     0.031 C 
ATOM     49  C   UNL A   1      39.574  26.914  27.898  1.00  0.00     0.029 A 
ATOM     50  N   UNL A   1      41.250  26.892  29.376  1.00  0.00    -0.354 N 
ATOM     51  C   UNL A   1      41.421  29.808  32.582  1.00  0.00     0.074 A 
ATOM     52  C   UNL A   1      40.289  30.708  32.518  1.00  0.00     0.031 C 
ATOM     53  C   UNL A   1      40.402  25.915  27.553  1.00  0.00     0.029 A 
ATOM     54  C   UNL A   1      41.529  25.887  28.479  1.00  0.00     0.049 A 
ATOM     55  H   UNL A   1      41.829  27.105  30.143  1.00  0.00     0.167 HD
ATOM     56  C   UNL A   1      42.388  29.855  33.532  1.00  0.00     0.034 A 
ATOM     57  C   UNL A   1      42.582  25.049  28.403  1.00  0.00     0.034 A 
ATOM     58  C   UNL A   1      43.506  28.946  33.583  1.00  0.00     0.049 A 
ATOM     59  C   UNL A   1      43.666  25.147  29.449  1.00  0.00     0.074 A 
ATOM     60  C   UNL A   1      44.525  28.883  34.518  1.00  0.00     0.029 A 
ATOM     61  N   UNL A   1      43.759  27.943  32.655  1.00  0.00    -0.354 N 
ATOM     62  N   UNL A   1      43.761  25.973  30.465  1.00  0.00    -0.248 NA
ATOM     63  C   UNL A   1      44.776  24.191  29.342  1.00  0.00     0.031 C 
ATOM     64  C   UNL A   1      45.425  27.887  34.121  1.00  0.00     0.029 A 
ATOM     65  C   UNL A   1      44.930  27.275  32.981  1.00  0.00     0.049 A 
ATOM     66  H   UNL A   1      43.190  27.736  31.879  1.00  0.00     0.167 HD
ATOM     67  C   UNL A   1      44.925  25.610  31.139  1.00  0.00     0.074 A 
ATOM     68  C   UNL A   1      45.485  24.483  30.422  1.00  0.00     0.031 C 
ATOM     69  C   UNL A   1      45.480  26.156  32.251  1.00  0.00     0.034 A 
BRANCH  56  70
ATOM     70  C   UNL A   1      42.278  30.941  34.577  1.00  0.00     0.023 A 
ATOM     71  C   UNL A   1      42.779  32.236  34.348  1.00  0.00     0.031 A 
ATOM     72  C   UNL A   1      41.693  30.676  35.827  1.00  0.00     0.131 A 
ATOM     73  C   UNL A   1      42.758  33.189  35.377  1.00  0.00     0.055 A 
ATOM     74  C   UNL A   1      41.597  31.656  36.819  1.00  0.00     0.041 A 
ATOM     75  F   UNL A   1      41.216  29.455  36.114  1.00  0.00    -0.206 F 
ATOM     76  C   UNL A   1      42.147  32.916  36.602  1.00  0.00     0.022 A 
BRANCH  73  77
ATOM     77  S   UNL A   1      43.674  34.736  35.141  1.00  0.00     0.124 S 
ATOM     78  O   UNL A   1      44.830  34.279  34.373  1.00  0.00    -0.237 OA
ATOM     79  O   UNL A   1      42.715  35.565  34.421  1.00  0.00    -0.237 OA
ATOM     80  O   UNL A   1      43.974  35.169  36.505  1.00  0.00    -0.744 OA
ENDBRANCH  73  77
ENDBRANCH  56  70
BRANCH  57  81
ATOM     81  C   UNL A   1      42.679  24.050  27.300  1.00  0.00     0.023 A 
ATOM     82  C   UNL A   1      42.018  22.814  27.384  1.00  0.00     0.031 A 
ATOM     83  C   UNL A   1      43.481  24.291  26.170  1.00  0.00     0.131 A 
ATOM     84  C   UNL A   1      42.214  21.845  26.388  1.00  0.00     0.055 A 
ATOM     85  C   UNL A   1      43.626  23.347  25.152  1.00  0.00     0.041 A 
ATOM     86  F   UNL A   1      44.133  25.457  26.036  1.00  0.00    -0.206 F 
ATOM     87  C   UNL A   1      43.003  22.108  25.266  1.00  0.00     0.022 A 
BRANCH  84  88
ATOM     88  S   UNL A   1      41.504  20.194  26.632  1.00  0.00     0.124 S 
ATOM     89  O   UNL A   1      40.092  20.504  26.829  1.00  0.00    -0.237 OA
ATOM     90  O   UNL A   1      41.847  19.529  25.379  1.00  0.00    -0.237 OA
ATOM     91  O   UNL A   1      42.205  19.694  27.812  1.00  0.00    -0.744 OA
ENDBRANCH  84  88
ENDBRANCH  57  81
BRANCH  69  92
ATOM     92  C   UNL A   1      46.731  25.502  32.785  1.00  0.00     0.023 A 
ATOM     93  C   UNL A   1      46.681  24.504  33.775  1.00  0.00     0.031 A 
ATOM     94  C   UNL A   1      47.994  25.895  32.306  1.00  0.00     0.131 A 
ATOM     95  C   UNL A   1      47.872  23.978  34.297  1.00  0.00     0.055 A 
ATOM     96  C   UNL A   1      49.173  25.323  32.784  1.00  0.00     0.041 A 
ATOM     97  F   UNL A   1      48.101  26.845  31.363  1.00  0.00    -0.206 F 
ATOM     98  C   UNL A   1      49.117  24.368  33.796  1.00  0.00     0.022 A 
BRANCH  95  99
ATOM     99  S   UNL A   1      47.778  22.844  35.710  1.00  0.00     0.124 S 
ATOM    100  O   UNL A   1      47.833  21.540  35.057  1.00  0.00    -0.237 OA
ATOM    101  O   UNL A   1      48.954  23.217  36.488  1.00  0.00    -0.237 OA
ATOM    102  O   UNL A   1      46.495  23.174  36.328  1.00  0.00    -0.744 OA
ENDBRANCH  95  99
ENDBRANCH  69  92
ENDBRANCH  43  44
ENDBRANCH  35  38
ENDBRANCH  33  34
ENDBRANCH  32  33
ENDBRANCH  31  32
ENDBRANCH   1  31
TORSDOF 19
ENDMDL
