MODEL 1
REMARK VINA RESULT:     -13.2      0.000      0.000
REMARK SMILES CC[C@H]([NH2+]C1c2ccccc2-c2ccccc21)C(=O)NCCCCCCNC(=O)c1ccc(-c2c3nc(c(-c4cc(S(=O)(=O)[O-])ccc4F)c4ccc([nH]4)c(-c4cc(S(=O)(=O)[O-])ccc4F)c4nc(c(-c5cc(S(=O)(=O)[O-])ccc5F)c5ccc2[nH]5)C=C4)C=C3)cc1
REMARK SMILES IDX 24 1 23 2 22 3 21 4 20 5 18 6 19 7 3 9 2 10 1 11 4 12 5 15
REMARK SMILES IDX 6 16 17 17 7 18 11 19 12 20 16 21 8 22 10 23 13 24 15 25
REMARK SMILES IDX 9 26 14 27 25 28 26 29 27 30 28 31 29 33 30 34 31 35 92 36
REMARK SMILES IDX 32 37 91 38 33 39 34 40 35 41 85 42 36 43 90 44 84 45 86 46
REMARK SMILES IDX 37 47 89 48 83 49 82 50 38 52 70 53 50 54 69 55 51 56 54 57
REMARK SMILES IDX 68 58 87 59 52 60 53 61 67 63 88 64 55 65 39 66 40 67 48 68
REMARK SMILES IDX 41 69 47 70 49 71 46 72 42 73 43 74 44 75 45 76 71 77 72 78
REMARK SMILES IDX 80 79 73 80 79 81 81 82 78 83 74 84 75 85 76 86 77 87 56 88
REMARK SMILES IDX 57 89 65 90 58 91 64 92 66 93 63 94 59 95 60 96 61 97 62 98
REMARK H PARENT 20 8 4 13 4 14 27 32 86 51 54 62
REMARK Flexibility Score: inf
ROOT
ATOM      1  C   UNL A   1      32.122  29.564  27.074  1.00  0.00     0.002 C 
ENDROOT
BRANCH   1   2
ATOM      2  C   UNL A   1      33.573  29.064  27.202  1.00  0.00     0.002 C 
BRANCH   2   3
ATOM      3  C   UNL A   1      34.234  28.185  25.832  1.00  0.00     0.021 C 
BRANCH   3   4
ATOM      4  C   UNL A   1      33.475  26.514  24.626  1.00  0.00     0.116 C 
BRANCH   4   5
ATOM      5  N   UNL A   1      33.284  26.372  23.043  1.00  0.00    -0.351 N 
ATOM      6  C   UNL A   1      33.410  25.292  22.222  1.00  0.00     0.278 C 
ATOM      7  O   UNL A   1      33.395  25.489  21.003  1.00  0.00    -0.268 OA
ATOM      8  H   UNL A   1      33.034  27.207  22.586  1.00  0.00     0.163 HD
BRANCH   6   9
ATOM      9  C   UNL A   1      33.508  23.873  22.792  1.00  0.00     0.273 C 
BRANCH   9  10
ATOM     10  C   UNL A   1      34.941  23.370  23.104  1.00  0.00     0.072 C 
ATOM     11  C   UNL A   1      35.440  23.498  24.549  1.00  0.00     0.011 C 
ENDBRANCH   9  10
BRANCH   9  12
ATOM     12  N   UNL A   1      32.626  22.816  22.199  1.00  0.00    -0.326 N 
ATOM     13  H   UNL A   1      33.233  22.223  21.632  1.00  0.00     0.347 HD
ATOM     14  H   UNL A   1      31.905  23.373  21.741  1.00  0.00     0.347 HD
BRANCH  12  15
ATOM     15  C   UNL A   1      31.825  21.905  23.032  1.00  0.00     0.246 C 
ATOM     16  C   UNL A   1      32.292  20.422  22.983  1.00  0.00     0.022 A 
ATOM     17  C   UNL A   1      31.870  22.230  24.489  1.00  0.00     0.022 A 
ATOM     18  C   UNL A   1      32.050  19.559  21.918  1.00  0.00     0.011 A 
ATOM     19  C   UNL A   1      32.888  19.912  24.187  1.00  0.00    -0.008 A 
ATOM     20  C   UNL A   1      32.874  20.927  25.210  1.00  0.00    -0.008 A 
ATOM     21  C   UNL A   1      31.376  23.652  25.442  1.00  0.00     0.011 A 
ATOM     22  C   UNL A   1      32.383  18.209  22.059  1.00  0.00     0.001 A 
ATOM     23  C   UNL A   1      33.233  18.580  24.313  1.00  0.00     0.009 A 
ATOM     24  C   UNL A   1      33.590  21.149  26.858  1.00  0.00     0.009 A 
ATOM     25  C   UNL A   1      32.052  23.875  27.094  1.00  0.00     0.001 A 
ATOM     26  C   UNL A   1      32.968  17.725  23.241  1.00  0.00     0.001 A 
ATOM     27  C   UNL A   1      33.116  22.608  27.830  1.00  0.00     0.001 A 
ENDBRANCH  12  15
ENDBRANCH   9  12
ENDBRANCH   6   9
ENDBRANCH   4   5
ENDBRANCH   3   4
ENDBRANCH   2   3
ENDBRANCH   1   2
BRANCH   1  28
ATOM     28  C   UNL A   1      32.022  31.071  26.877  1.00  0.00     0.021 C 
BRANCH  28  29
ATOM     29  C   UNL A   1      33.187  31.796  27.534  1.00  0.00     0.116 C 
BRANCH  29  30
ATOM     30  N   UNL A   1      32.999  33.241  27.402  1.00  0.00    -0.352 N 
ATOM     31  C   UNL A   1      33.276  34.173  28.372  1.00  0.00     0.251 C 
ATOM     32  H   UNL A   1      32.644  33.573  26.546  1.00  0.00     0.163 HD
ATOM     33  O   UNL A   1      32.698  35.248  28.431  1.00  0.00    -0.269 OA
BRANCH  31  34
ATOM     34  C   UNL A   1      34.326  33.790  29.328  1.00  0.00     0.039 A 
ATOM     35  C   UNL A   1      34.105  32.776  30.256  1.00  0.00     0.014 A 
ATOM     36  C   UNL A   1      35.599  34.332  29.119  1.00  0.00     0.014 A 
ATOM     37  C   UNL A   1      35.198  32.259  30.948  1.00  0.00     0.010 A 
ATOM     38  C   UNL A   1      36.689  33.734  29.720  1.00  0.00     0.010 A 
ATOM     39  C   UNL A   1      36.499  32.706  30.655  1.00  0.00    -0.014 A 
BRANCH  39  40
ATOM     40  C   UNL A   1      37.691  32.143  31.327  1.00  0.00     0.031 A 
ATOM     41  C   UNL A   1      38.454  31.038  30.643  1.00  0.00     0.074 A 
ATOM     42  C   UNL A   1      38.024  32.558  32.566  1.00  0.00     0.049 A 
ATOM     43  N   UNL A   1      39.456  30.331  31.089  1.00  0.00    -0.248 NA
ATOM     44  C   UNL A   1      37.998  30.648  29.295  1.00  0.00     0.031 C 
ATOM     45  C   UNL A   1      37.309  33.578  33.340  1.00  0.00     0.029 A 
ATOM     46  N   UNL A   1      39.037  32.165  33.402  1.00  0.00    -0.354 N 
ATOM     47  C   UNL A   1      39.731  29.401  30.092  1.00  0.00     0.074 A 
ATOM     48  C   UNL A   1      38.753  29.589  29.047  1.00  0.00     0.031 C 
ATOM     49  C   UNL A   1      37.925  33.749  34.521  1.00  0.00     0.029 A 
ATOM     50  C   UNL A   1      39.041  32.814  34.617  1.00  0.00     0.049 A 
ATOM     51  H   UNL A   1      39.702  31.480  33.157  1.00  0.00     0.167 HD
ATOM     52  C   UNL A   1      40.729  28.490  30.047  1.00  0.00     0.034 A 
ATOM     53  C   UNL A   1      39.843  32.654  35.689  1.00  0.00     0.034 A 
ATOM     54  C   UNL A   1      41.718  28.352  31.082  1.00  0.00     0.049 A 
ATOM     55  C   UNL A   1      40.944  31.623  35.608  1.00  0.00     0.074 A 
ATOM     56  C   UNL A   1      42.836  27.539  31.096  1.00  0.00     0.029 A 
ATOM     57  N   UNL A   1      41.701  29.035  32.291  1.00  0.00    -0.354 N 
ATOM     58  N   UNL A   1      41.255  30.823  34.612  1.00  0.00    -0.248 NA
ATOM     59  C   UNL A   1      41.807  31.474  36.788  1.00  0.00     0.031 C 
ATOM     60  C   UNL A   1      43.446  27.666  32.347  1.00  0.00     0.029 A 
ATOM     61  C   UNL A   1      42.759  28.621  33.080  1.00  0.00     0.049 A 
ATOM     62  H   UNL A   1      41.035  29.713  32.548  1.00  0.00     0.167 HD
ATOM     63  C   UNL A   1      42.361  30.095  35.041  1.00  0.00     0.074 A 
ATOM     64  C   UNL A   1      42.682  30.574  36.369  1.00  0.00     0.031 C 
ATOM     65  C   UNL A   1      43.048  29.112  34.405  1.00  0.00     0.034 A 
BRANCH  52  66
ATOM     66  C   UNL A   1      40.794  27.564  28.860  1.00  0.00     0.023 A 
ATOM     67  C   UNL A   1      41.758  27.714  27.848  1.00  0.00     0.031 A 
ATOM     68  C   UNL A   1      39.889  26.493  28.756  1.00  0.00     0.131 A 
ATOM     69  C   UNL A   1      41.769  26.831  26.757  1.00  0.00     0.055 A 
ATOM     70  C   UNL A   1      39.950  25.577  27.706  1.00  0.00     0.041 A 
ATOM     71  F   UNL A   1      38.929  26.319  29.678  1.00  0.00    -0.206 F 
ATOM     72  C   UNL A   1      40.891  25.747  26.694  1.00  0.00     0.022 A 
BRANCH  69  73
ATOM     73  S   UNL A   1      42.887  27.175  25.372  1.00  0.00     0.124 S 
ATOM     74  O   UNL A   1      44.112  27.557  26.070  1.00  0.00    -0.237 OA
ATOM     75  O   UNL A   1      42.924  25.897  24.670  1.00  0.00    -0.237 OA
ATOM     76  O   UNL A   1      42.221  28.260  24.655  1.00  0.00    -0.744 OA
ENDBRANCH  69  73
ENDBRANCH  52  66
BRANCH  53  77
ATOM     77  C   UNL A   1      39.630  33.443  36.940  1.00  0.00     0.023 A 
ATOM     78  C   UNL A   1      38.998  32.873  38.057  1.00  0.00     0.031 A 
ATOM     79  C   UNL A   1      39.973  34.806  37.009  1.00  0.00     0.131 A 
ATOM     80  C   UNL A   1      38.659  33.675  39.159  1.00  0.00     0.055 A 
ATOM     81  C   UNL A   1      39.698  35.583  38.137  1.00  0.00     0.041 A 
ATOM     82  F   UNL A   1      40.578  35.410  35.973  1.00  0.00    -0.206 F 
ATOM     83  C   UNL A   1      39.018  35.023  39.212  1.00  0.00     0.022 A 
BRANCH  80  84
ATOM     84  S   UNL A   1      37.608  32.964  40.456  1.00  0.00     0.124 S 
ATOM     85  O   UNL A   1      37.848  33.880  41.565  1.00  0.00    -0.237 OA
ATOM     86  O   UNL A   1      36.286  33.032  39.843  1.00  0.00    -0.237 OA
ATOM     87  O   UNL A   1      38.147  31.617  40.630  1.00  0.00    -0.744 OA
ENDBRANCH  80  84
ENDBRANCH  53  77
BRANCH  65  88
ATOM     88  C   UNL A   1      44.223  28.516  35.135  1.00  0.00     0.023 A 
ATOM     89  C   UNL A   1      44.047  27.541  36.131  1.00  0.00     0.031 A 
ATOM     90  C   UNL A   1      45.533  28.919  34.824  1.00  0.00     0.131 A 
ATOM     91  C   UNL A   1      45.160  27.040  36.818  1.00  0.00     0.055 A 
ATOM     92  C   UNL A   1      46.642  28.366  35.464  1.00  0.00     0.041 A 
ATOM     93  F   UNL A   1      45.757  29.849  33.881  1.00  0.00    -0.206 F 
ATOM     94  C   UNL A   1      46.458  27.429  36.477  1.00  0.00     0.022 A 
BRANCH  91  95
ATOM     95  S   UNL A   1      44.882  25.934  38.228  1.00  0.00     0.124 S 
ATOM     96  O   UNL A   1      44.729  24.640  37.571  1.00  0.00    -0.237 OA
ATOM     97  O   UNL A   1      46.100  26.111  39.010  1.00  0.00    -0.237 OA
ATOM     98  O   UNL A   1      43.668  26.465  38.845  1.00  0.00    -0.744 OA
ENDBRANCH  91  95
ENDBRANCH  65  88
ENDBRANCH  39  40
ENDBRANCH  31  34
ENDBRANCH  29  30
ENDBRANCH  28  29
ENDBRANCH   1  28
TORSDOF 19
ENDMDL
MODEL 2
REMARK VINA RESULT:     -12.9      3.809      8.596
REMARK SMILES CC[C@H]([NH2+]C1c2ccccc2-c2ccccc21)C(=O)NCCCCCCNC(=O)c1ccc(-c2c3nc(c(-c4cc(S(=O)(=O)[O-])ccc4F)c4ccc([nH]4)c(-c4cc(S(=O)(=O)[O-])ccc4F)c4nc(c(-c5cc(S(=O)(=O)[O-])ccc5F)c5ccc2[nH]5)C=C4)C=C3)cc1
REMARK SMILES IDX 24 1 23 2 22 3 21 4 20 5 18 6 19 7 3 9 2 10 1 11 4 12 5 15
REMARK SMILES IDX 6 16 17 17 7 18 11 19 12 20 16 21 8 22 10 23 13 24 15 25
REMARK SMILES IDX 9 26 14 27 25 28 26 29 27 30 28 31 29 33 30 34 31 35 92 36
REMARK SMILES IDX 32 37 91 38 33 39 34 40 35 41 85 42 36 43 90 44 84 45 86 46
REMARK SMILES IDX 37 47 89 48 83 49 82 50 38 52 70 53 50 54 69 55 51 56 54 57
REMARK SMILES IDX 68 58 87 59 52 60 53 61 67 63 88 64 55 65 39 66 40 67 48 68
REMARK SMILES IDX 41 69 47 70 49 71 46 72 42 73 43 74 44 75 45 76 71 77 72 78
REMARK SMILES IDX 80 79 73 80 79 81 81 82 78 83 74 84 75 85 76 86 77 87 56 88
REMARK SMILES IDX 57 89 65 90 58 91 64 92 66 93 63 94 59 95 60 96 61 97 62 98
REMARK H PARENT 20 8 4 13 4 14 27 32 86 51 54 62
REMARK Flexibility Score: inf
ROOT
ATOM      1  C   UNL A   1      31.769  28.714  26.294  1.00  0.00     0.002 C 
ENDROOT
BRANCH   1   2
ATOM      2  C   UNL A   1      31.440  29.832  25.289  1.00  0.00     0.002 C 
BRANCH   2   3
ATOM      3  C   UNL A   1      30.525  29.373  23.860  1.00  0.00     0.021 C 
BRANCH   3   4
ATOM      4  C   UNL A   1      30.373  27.497  22.728  1.00  0.00     0.116 C 
BRANCH   4   5
ATOM      5  N   UNL A   1      31.407  26.794  21.730  1.00  0.00    -0.351 N 
ATOM      6  C   UNL A   1      32.719  26.464  21.889  1.00  0.00     0.278 C 
ATOM      7  O   UNL A   1      33.349  26.099  20.892  1.00  0.00    -0.268 OA
ATOM      8  H   UNL A   1      31.031  26.561  20.850  1.00  0.00     0.163 HD
BRANCH   6   9
ATOM      9  C   UNL A   1      33.378  26.490  23.273  1.00  0.00     0.273 C 
BRANCH   9  10
ATOM     10  C   UNL A   1      33.980  27.851  23.707  1.00  0.00     0.072 C 
ATOM     11  C   UNL A   1      34.022  28.976  22.663  1.00  0.00     0.011 C 
ENDBRANCH   9  10
BRANCH   9  12
ATOM     12  N   UNL A   1      34.220  25.316  23.672  1.00  0.00    -0.326 N 
ATOM     13  H   UNL A   1      35.189  25.594  23.513  1.00  0.00     0.347 HD
ATOM     14  H   UNL A   1      33.818  24.567  23.110  1.00  0.00     0.347 HD
BRANCH  12  15
ATOM     15  C   UNL A   1      34.176  24.743  25.026  1.00  0.00     0.246 C 
ATOM     16  C   UNL A   1      32.789  24.166  25.429  1.00  0.00     0.022 A 
ATOM     17  C   UNL A   1      35.098  23.583  25.216  1.00  0.00     0.022 A 
ATOM     18  C   UNL A   1      31.692  24.943  25.791  1.00  0.00     0.011 A 
ATOM     19  C   UNL A   1      32.716  22.736  25.552  1.00  0.00    -0.008 A 
ATOM     20  C   UNL A   1      34.012  22.156  25.303  1.00  0.00    -0.008 A 
ATOM     21  C   UNL A   1      36.866  23.396  25.114  1.00  0.00     0.011 A 
ATOM     22  C   UNL A   1      30.550  24.304  26.282  1.00  0.00     0.001 A 
ATOM     23  C   UNL A   1      31.577  22.109  26.020  1.00  0.00     0.009 A 
ATOM     24  C   UNL A   1      34.687  20.493  25.062  1.00  0.00     0.009 A 
ATOM     25  C   UNL A   1      37.560  21.749  24.907  1.00  0.00     0.001 A 
ATOM     26  C   UNL A   1      30.492  22.905  26.395  1.00  0.00     0.001 A 
ATOM     27  C   UNL A   1      36.487  20.290  24.931  1.00  0.00     0.001 A 
ENDBRANCH  12  15
ENDBRANCH   9  12
ENDBRANCH   6   9
ENDBRANCH   4   5
ENDBRANCH   3   4
ENDBRANCH   2   3
ENDBRANCH   1   2
BRANCH   1  28
ATOM     28  C   UNL A   1      32.711  29.161  27.403  1.00  0.00     0.021 C 
BRANCH  28  29
ATOM     29  C   UNL A   1      33.870  29.978  26.852  1.00  0.00     0.116 C 
BRANCH  29  30
ATOM     30  N   UNL A   1      33.923  31.272  27.532  1.00  0.00    -0.352 N 
ATOM     31  C   UNL A   1      34.690  31.564  28.634  1.00  0.00     0.251 C 
ATOM     32  H   UNL A   1      33.360  31.994  27.171  1.00  0.00     0.163 HD
ATOM     33  O   UNL A   1      34.381  32.433  29.435  1.00  0.00    -0.269 OA
BRANCH  31  34
ATOM     34  C   UNL A   1      35.916  30.764  28.773  1.00  0.00     0.039 A 
ATOM     35  C   UNL A   1      37.099  31.167  28.160  1.00  0.00     0.014 A 
ATOM     36  C   UNL A   1      35.888  29.723  29.707  1.00  0.00     0.014 A 
ATOM     37  C   UNL A   1      38.288  30.545  28.535  1.00  0.00     0.010 A 
ATOM     38  C   UNL A   1      37.083  29.197  30.160  1.00  0.00     0.010 A 
ATOM     39  C   UNL A   1      38.292  29.587  29.565  1.00  0.00    -0.014 A 
BRANCH  39  40
ATOM     40  C   UNL A   1      39.541  28.944  30.033  1.00  0.00     0.031 A 
ATOM     41  C   UNL A   1      40.221  29.493  31.260  1.00  0.00     0.074 A 
ATOM     42  C   UNL A   1      40.094  27.946  29.315  1.00  0.00     0.049 A 
ATOM     43  N   UNL A   1      41.369  29.158  31.784  1.00  0.00    -0.248 NA
ATOM     44  C   UNL A   1      39.541  30.596  31.964  1.00  0.00     0.031 C 
ATOM     45  C   UNL A   1      39.543  27.387  28.076  1.00  0.00     0.029 A 
ATOM     46  N   UNL A   1      41.248  27.232  29.510  1.00  0.00    -0.354 N 
ATOM     47  C   UNL A   1      41.557  30.022  32.857  1.00  0.00     0.074 A 
ATOM     48  C   UNL A   1      40.441  30.937  32.873  1.00  0.00     0.031 C 
ATOM     49  C   UNL A   1      40.345  26.399  27.642  1.00  0.00     0.029 A 
ATOM     50  C   UNL A   1      41.494  26.292  28.535  1.00  0.00     0.049 A 
ATOM     51  H   UNL A   1      41.847  27.379  30.278  1.00  0.00     0.167 HD
ATOM     52  C   UNL A   1      42.563  30.030  33.761  1.00  0.00     0.034 A 
ATOM     53  C   UNL A   1      42.540  25.456  28.373  1.00  0.00     0.034 A 
ATOM     54  C   UNL A   1      43.641  29.080  33.749  1.00  0.00     0.049 A 
ATOM     55  C   UNL A   1      43.649  25.495  29.398  1.00  0.00     0.074 A 
ATOM     56  C   UNL A   1      44.656  28.923  34.676  1.00  0.00     0.029 A 
ATOM     57  N   UNL A   1      43.851  28.132  32.757  1.00  0.00    -0.354 N 
ATOM     58  N   UNL A   1      43.758  26.250  30.469  1.00  0.00    -0.248 NA
ATOM     59  C   UNL A   1      44.772  24.569  29.201  1.00  0.00     0.031 C 
ATOM     60  C   UNL A   1      45.527  27.940  34.199  1.00  0.00     0.029 A 
ATOM     61  C   UNL A   1      45.011  27.424  33.020  1.00  0.00     0.049 A 
ATOM     62  H   UNL A   1      43.263  27.985  31.981  1.00  0.00     0.167 HD
ATOM     63  C   UNL A   1      44.950  25.872  31.080  1.00  0.00     0.074 A 
ATOM     64  C   UNL A   1      45.504  24.801  30.279  1.00  0.00     0.031 C 
ATOM     65  C   UNL A   1      45.543  26.366  32.197  1.00  0.00     0.034 A 
BRANCH  52  66
ATOM     66  C   UNL A   1      42.557  31.101  34.822  1.00  0.00     0.023 A 
ATOM     67  C   UNL A   1      43.103  32.377  34.598  1.00  0.00     0.031 A 
ATOM     68  C   UNL A   1      41.965  30.846  36.072  1.00  0.00     0.131 A 
ATOM     69  C   UNL A   1      43.083  33.336  35.622  1.00  0.00     0.055 A 
ATOM     70  C   UNL A   1      41.884  31.827  37.061  1.00  0.00     0.041 A 
ATOM     71  F   UNL A   1      41.453  29.637  36.351  1.00  0.00    -0.206 F 
ATOM     72  C   UNL A   1      42.450  33.078  36.842  1.00  0.00     0.022 A 
BRANCH  69  73
ATOM     73  S   UNL A   1      43.976  34.893  35.374  1.00  0.00     0.124 S 
ATOM     74  O   UNL A   1      45.313  34.415  35.029  1.00  0.00    -0.237 OA
ATOM     75  O   UNL A   1      43.224  35.520  34.293  1.00  0.00    -0.237 OA
ATOM     76  O   UNL A   1      43.874  35.557  36.671  1.00  0.00    -0.744 OA
ENDBRANCH  69  73
ENDBRANCH  52  66
BRANCH  53  77
ATOM     77  C   UNL A   1      42.625  24.541  27.195  1.00  0.00     0.023 A 
ATOM     78  C   UNL A   1      42.094  23.242  27.246  1.00  0.00     0.031 A 
ATOM     79  C   UNL A   1      43.319  24.917  26.030  1.00  0.00     0.131 A 
ATOM     80  C   UNL A   1      42.329  22.344  26.193  1.00  0.00     0.055 A 
ATOM     81  C   UNL A   1      43.488  24.043  24.954  1.00  0.00     0.041 A 
ATOM     82  F   UNL A   1      43.851  26.145  25.919  1.00  0.00    -0.206 F 
ATOM     83  C   UNL A   1      43.011  22.740  25.041  1.00  0.00     0.022 A 
BRANCH  80  84
ATOM     84  S   UNL A   1      41.863  20.605  26.418  1.00  0.00     0.124 S 
ATOM     85  O   UNL A   1      42.264  20.367  27.800  1.00  0.00    -0.237 OA
ATOM     86  O   UNL A   1      40.427  20.643  26.164  1.00  0.00    -0.237 OA
ATOM     87  O   UNL A   1      42.657  19.907  25.409  1.00  0.00    -0.744 OA
ENDBRANCH  80  84
ENDBRANCH  53  77
BRANCH  65  88
ATOM     88  C   UNL A   1      46.843  25.732  32.619  1.00  0.00     0.023 A 
ATOM     89  C   UNL A   1      48.055  26.063  31.991  1.00  0.00     0.031 A 
ATOM     90  C   UNL A   1      46.870  24.797  33.667  1.00  0.00     0.131 A 
ATOM     91  C   UNL A   1      49.238  25.422  32.382  1.00  0.00     0.055 A 
ATOM     92  C   UNL A   1      48.061  24.212  34.098  1.00  0.00     0.041 A 
ATOM     93  F   UNL A   1      45.738  24.444  34.299  1.00  0.00    -0.206 F 
ATOM     94  C   UNL A   1      49.253  24.515  33.446  1.00  0.00     0.022 A 
BRANCH  91  95
ATOM     95  S   UNL A   1      50.745  25.724  31.421  1.00  0.00     0.124 S 
ATOM     96  O   UNL A   1      51.696  24.820  32.058  1.00  0.00    -0.237 OA
ATOM     97  O   UNL A   1      50.332  25.365  30.069  1.00  0.00    -0.237 OA
ATOM     98  O   UNL A   1      51.005  27.147  31.632  1.00  0.00    -0.744 OA
ENDBRANCH  91  95
ENDBRANCH  65  88
ENDBRANCH  39  40
ENDBRANCH  31  34
ENDBRANCH  29  30
ENDBRANCH  28  29
ENDBRANCH   1  28
TORSDOF 19
ENDMDL
MODEL 3
REMARK VINA RESULT:     -12.9      5.458      8.798
REMARK SMILES CC[C@H]([NH2+]C1c2ccccc2-c2ccccc21)C(=O)NCCCCCCNC(=O)c1ccc(-c2c3nc(c(-c4cc(S(=O)(=O)[O-])ccc4F)c4ccc([nH]4)c(-c4cc(S(=O)(=O)[O-])ccc4F)c4nc(c(-c5cc(S(=O)(=O)[O-])ccc5F)c5ccc2[nH]5)C=C4)C=C3)cc1
REMARK SMILES IDX 24 1 23 2 22 3 21 4 20 5 18 6 19 7 3 9 2 10 1 11 4 12 5 15
REMARK SMILES IDX 6 16 17 17 7 18 11 19 12 20 16 21 8 22 10 23 13 24 15 25
REMARK SMILES IDX 9 26 14 27 25 28 26 29 27 30 28 31 29 33 30 34 31 35 92 36
REMARK SMILES IDX 32 37 91 38 33 39 34 40 35 41 85 42 36 43 90 44 84 45 86 46
REMARK SMILES IDX 37 47 89 48 83 49 82 50 38 52 70 53 50 54 69 55 51 56 54 57
REMARK SMILES IDX 68 58 87 59 52 60 53 61 67 63 88 64 55 65 39 66 40 67 48 68
REMARK SMILES IDX 41 69 47 70 49 71 46 72 42 73 43 74 44 75 45 76 71 77 72 78
REMARK SMILES IDX 80 79 73 80 79 81 81 82 78 83 74 84 75 85 76 86 77 87 56 88
REMARK SMILES IDX 57 89 65 90 58 91 64 92 66 93 63 94 59 95 60 96 61 97 62 98
REMARK H PARENT 20 8 4 13 4 14 27 32 86 51 54 62
REMARK Flexibility Score: inf
ROOT
ATOM      1  C   UNL A   1      35.593  20.733  25.399  1.00  0.00     0.002 C 
ENDROOT
BRANCH   1   2
ATOM      2  C   UNL A   1      34.689  19.762  24.618  1.00  0.00     0.002 C 
BRANCH   2   3
ATOM      3  C   UNL A   1      32.960  20.070  24.673  1.00  0.00     0.021 C 
BRANCH   3   4
ATOM      4  C   UNL A   1      31.779  21.895  24.987  1.00  0.00     0.116 C 
BRANCH   4   5
ATOM      5  N   UNL A   1      30.690  22.254  26.103  1.00  0.00    -0.351 N 
ATOM      6  C   UNL A   1      30.252  23.456  26.570  1.00  0.00     0.278 C 
ATOM      7  O   UNL A   1      29.536  23.459  27.577  1.00  0.00    -0.268 OA
ATOM      8  H   UNL A   1      30.266  21.472  26.525  1.00  0.00     0.163 HD
BRANCH   6   9
ATOM      9  C   UNL A   1      30.587  24.759  25.835  1.00  0.00     0.273 C 
BRANCH   9  10
ATOM     10  C   UNL A   1      31.700  25.627  26.477  1.00  0.00     0.072 C 
ATOM     11  C   UNL A   1      31.429  27.129  26.633  1.00  0.00     0.011 C 
ENDBRANCH   9  10
BRANCH   9  12
ATOM     12  N   UNL A   1      29.451  25.566  25.283  1.00  0.00    -0.326 N 
ATOM     13  H   UNL A   1      29.432  26.434  25.819  1.00  0.00     0.347 HD
ATOM     14  H   UNL A   1      28.671  24.915  25.362  1.00  0.00     0.347 HD
BRANCH  12  15
ATOM     15  C   UNL A   1      29.383  25.958  23.867  1.00  0.00     0.246 C 
ATOM     16  C   UNL A   1      28.702  27.334  23.619  1.00  0.00     0.022 A 
ATOM     17  C   UNL A   1      30.722  26.118  23.224  1.00  0.00     0.022 A 
ATOM     18  C   UNL A   1      27.328  27.550  23.680  1.00  0.00     0.011 A 
ATOM     19  C   UNL A   1      29.566  28.390  23.171  1.00  0.00    -0.008 A 
ATOM     20  C   UNL A   1      30.909  27.892  23.012  1.00  0.00    -0.008 A 
ATOM     21  C   UNL A   1      32.078  25.002  22.927  1.00  0.00     0.011 A 
ATOM     22  C   UNL A   1      26.826  28.793  23.284  1.00  0.00     0.001 A 
ATOM     23  C   UNL A   1      29.066  29.624  22.800  1.00  0.00     0.009 A 
ATOM     24  C   UNL A   1      32.549  28.594  22.705  1.00  0.00     0.009 A 
ATOM     25  C   UNL A   1      33.710  25.680  22.589  1.00  0.00     0.001 A 
ATOM     26  C   UNL A   1      27.684  29.818  22.851  1.00  0.00     0.001 A 
ATOM     27  C   UNL A   1      33.946  27.468  22.426  1.00  0.00     0.001 A 
ENDBRANCH  12  15
ENDBRANCH   9  12
ENDBRANCH   6   9
ENDBRANCH   4   5
ENDBRANCH   3   4
ENDBRANCH   2   3
ENDBRANCH   1   2
BRANCH   1  28
ATOM     28  C   UNL A   1      36.218  21.809  24.522  1.00  0.00     0.021 C 
BRANCH  28  29
ATOM     29  C   UNL A   1      37.486  22.370  25.148  1.00  0.00     0.116 C 
BRANCH  29  30
ATOM     30  N   UNL A   1      38.297  21.272  25.675  1.00  0.00    -0.352 N 
ATOM     31  C   UNL A   1      39.550  21.397  26.222  1.00  0.00     0.251 C 
ATOM     32  H   UNL A   1      37.912  20.367  25.633  1.00  0.00     0.163 HD
ATOM     33  O   UNL A   1      40.364  20.486  26.209  1.00  0.00    -0.269 OA
BRANCH  31  34
ATOM     34  C   UNL A   1      39.839  22.702  26.835  1.00  0.00     0.039 A 
ATOM     35  C   UNL A   1      40.783  22.814  27.853  1.00  0.00     0.014 A 
ATOM     36  C   UNL A   1      39.292  23.828  26.211  1.00  0.00     0.014 A 
ATOM     37  C   UNL A   1      41.226  24.085  28.213  1.00  0.00     0.010 A 
ATOM     38  C   UNL A   1      39.823  25.073  26.490  1.00  0.00     0.010 A 
ATOM     39  C   UNL A   1      40.779  25.217  27.506  1.00  0.00    -0.014 A 
BRANCH  39  40
ATOM     40  C   UNL A   1      41.267  26.579  27.818  1.00  0.00     0.031 A 
ATOM     41  C   UNL A   1      42.680  26.945  27.445  1.00  0.00     0.074 A 
ATOM     42  C   UNL A   1      40.482  27.434  28.505  1.00  0.00     0.049 A 
ATOM     43  N   UNL A   1      43.346  28.035  27.714  1.00  0.00    -0.248 NA
ATOM     44  C   UNL A   1      43.460  25.932  26.709  1.00  0.00     0.031 C 
ATOM     45  C   UNL A   1      39.120  27.149  28.968  1.00  0.00     0.029 A 
ATOM     46  N   UNL A   1      40.717  28.710  28.947  1.00  0.00    -0.354 N 
ATOM     47  C   UNL A   1      44.624  27.827  27.205  1.00  0.00     0.074 A 
ATOM     48  C   UNL A   1      44.661  26.487  26.671  1.00  0.00     0.031 C 
ATOM     49  C   UNL A   1      38.634  28.230  29.601  1.00  0.00     0.029 A 
ATOM     50  C   UNL A   1      39.664  29.262  29.642  1.00  0.00     0.049 A 
ATOM     51  H   UNL A   1      41.562  29.189  28.783  1.00  0.00     0.167 HD
ATOM     52  C   UNL A   1      45.663  28.691  27.170  1.00  0.00     0.034 A 
ATOM     53  C   UNL A   1      39.555  30.457  30.257  1.00  0.00     0.034 A 
ATOM     54  C   UNL A   1      45.587  30.036  27.671  1.00  0.00     0.049 A 
ATOM     55  C   UNL A   1      40.738  31.397  30.203  1.00  0.00     0.074 A 
ATOM     56  C   UNL A   1      46.540  31.036  27.591  1.00  0.00     0.029 A 
ATOM     57  N   UNL A   1      44.501  30.568  28.354  1.00  0.00    -0.354 N 
ATOM     58  N   UNL A   1      41.905  31.222  29.625  1.00  0.00    -0.248 NA
ATOM     59  C   UNL A   1      40.590  32.694  30.876  1.00  0.00     0.031 C 
ATOM     60  C   UNL A   1      46.065  32.141  28.302  1.00  0.00     0.029 A 
ATOM     61  C   UNL A   1      44.783  31.863  28.751  1.00  0.00     0.049 A 
ATOM     62  H   UNL A   1      43.658  30.093  28.531  1.00  0.00     0.167 HD
ATOM     63  C   UNL A   1      42.619  32.397  29.847  1.00  0.00     0.074 A 
ATOM     64  C   UNL A   1      41.739  33.282  30.581  1.00  0.00     0.031 C 
ATOM     65  C   UNL A   1      43.888  32.719  29.489  1.00  0.00     0.034 A 
BRANCH  52  66
ATOM     66  C   UNL A   1      46.969  28.210  26.590  1.00  0.00     0.023 A 
ATOM     67  C   UNL A   1      47.194  28.151  25.204  1.00  0.00     0.031 A 
ATOM     68  C   UNL A   1      48.018  27.831  27.446  1.00  0.00     0.131 A 
ATOM     69  C   UNL A   1      48.423  27.685  24.714  1.00  0.00     0.055 A 
ATOM     70  C   UNL A   1      49.262  27.436  26.954  1.00  0.00     0.041 A 
ATOM     71  F   UNL A   1      47.850  27.840  28.778  1.00  0.00    -0.206 F 
ATOM     72  C   UNL A   1      49.469  27.355  25.580  1.00  0.00     0.022 A 
BRANCH  69  73
ATOM     73  S   UNL A   1      48.606  27.426  22.930  1.00  0.00     0.124 S 
ATOM     74  O   UNL A   1      47.491  28.207  22.401  1.00  0.00    -0.237 OA
ATOM     75  O   UNL A   1      49.939  27.958  22.667  1.00  0.00    -0.237 OA
ATOM     76  O   UNL A   1      48.473  25.979  22.778  1.00  0.00    -0.744 OA
ENDBRANCH  69  73
ENDBRANCH  52  66
BRANCH  53  77
ATOM     77  C   UNL A   1      38.319  30.833  31.007  1.00  0.00     0.023 A 
ATOM     78  C   UNL A   1      37.270  31.521  30.375  1.00  0.00     0.031 A 
ATOM     79  C   UNL A   1      38.204  30.593  32.389  1.00  0.00     0.131 A 
ATOM     80  C   UNL A   1      36.194  32.010  31.132  1.00  0.00     0.055 A 
ATOM     81  C   UNL A   1      37.095  31.019  33.124  1.00  0.00     0.041 A 
ATOM     82  F   UNL A   1      39.173  29.942  33.051  1.00  0.00    -0.206 F 
ATOM     83  C   UNL A   1      36.092  31.751  32.500  1.00  0.00     0.022 A 
BRANCH  80  84
ATOM     84  S   UNL A   1      35.004  33.120  30.329  1.00  0.00     0.124 S 
ATOM     85  O   UNL A   1      34.277  32.198  29.463  1.00  0.00    -0.237 OA
ATOM     86  O   UNL A   1      34.265  33.647  31.471  1.00  0.00    -0.237 OA
ATOM     87  O   UNL A   1      35.855  34.087  29.637  1.00  0.00    -0.744 OA
ENDBRANCH  80  84
ENDBRANCH  53  77
BRANCH  65  88
ATOM     88  C   UNL A   1      44.379  34.091  29.870  1.00  0.00     0.023 A 
ATOM     89  C   UNL A   1      44.178  35.199  29.031  1.00  0.00     0.031 A 
ATOM     90  C   UNL A   1      45.045  34.294  31.091  1.00  0.00     0.131 A 
ATOM     91  C   UNL A   1      44.687  36.451  29.399  1.00  0.00     0.055 A 
ATOM     92  C   UNL A   1      45.488  35.556  31.484  1.00  0.00     0.041 A 
ATOM     93  F   UNL A   1      45.263  33.268  31.930  1.00  0.00    -0.206 F 
ATOM     94  C   UNL A   1      45.321  36.642  30.629  1.00  0.00     0.022 A 
BRANCH  91  95
ATOM     95  S   UNL A   1      44.585  37.812  28.205  1.00  0.00     0.124 S 
ATOM     96  O   UNL A   1      43.450  37.407  27.382  1.00  0.00    -0.237 OA
ATOM     97  O   UNL A   1      44.365  38.969  29.067  1.00  0.00    -0.237 OA
ATOM     98  O   UNL A   1      45.883  37.777  27.535  1.00  0.00    -0.744 OA
ENDBRANCH  91  95
ENDBRANCH  65  88
ENDBRANCH  39  40
ENDBRANCH  31  34
ENDBRANCH  29  30
ENDBRANCH  28  29
ENDBRANCH   1  28
TORSDOF 19
ENDMDL
