MODEL 1
REMARK VINA RESULT:     -11.4      0.000      0.000
REMARK SMILES CC[C@@H](Nc1ccc([N+](=O)[O-])c(N)n1)C(=O)NCCCCCCNC(=O)c1ccc(-c2c3nc(c(-c4cc(S(=O)(=O)[O-])ccc4F)c4ccc([nH]4)c(-c4cc(S(=O)(=O)[O-])ccc4F)c4nc(c(-c5cc(S(=O)(=O)[O-])ccc5F)c5ccc2[nH]5)C=C4)C=C3)cc1
REMARK SMILES IDX 20 1 19 2 18 3 17 4 15 5 16 6 3 8 2 9 1 10 4 11 5 13 6 14
REMARK SMILES IDX 14 15 7 16 12 17 8 18 13 19 9 22 10 23 11 24 21 25 22 26
REMARK SMILES IDX 23 27 24 28 25 29 26 31 27 32 28 33 89 34 29 35 88 36 30 37
REMARK SMILES IDX 31 38 32 39 82 40 33 41 87 42 81 43 83 44 34 45 86 46 80 47
REMARK SMILES IDX 79 48 35 50 67 51 47 52 66 53 48 54 51 55 65 56 84 57 49 58
REMARK SMILES IDX 50 59 64 61 85 62 52 63 36 64 37 65 45 66 38 67 44 68 46 69
REMARK SMILES IDX 43 70 39 71 40 72 41 73 42 74 68 75 69 76 77 77 70 78 76 79
REMARK SMILES IDX 78 80 75 81 71 82 72 83 73 84 74 85 53 86 54 87 62 88 55 89
REMARK SMILES IDX 61 90 63 91 60 92 56 93 57 94 58 95 59 96
REMARK H PARENT 17 7 4 12 13 20 13 21 24 30 83 49 51 60
REMARK Flexibility Score: inf
ROOT
ATOM      1  C   UNL A   1      30.520  28.099  23.990  1.00  0.00     0.002 C 
ENDROOT
BRANCH   1   2
ATOM      2  C   UNL A   1      30.310  26.634  24.389  1.00  0.00     0.021 C 
BRANCH   2   3
ATOM      3  C   UNL A   1      31.235  26.172  25.512  1.00  0.00     0.116 C 
BRANCH   3   4
ATOM      4  N   UNL A   1      30.520  25.278  26.407  1.00  0.00    -0.354 N 
ATOM      5  C   UNL A   1      30.649  23.933  26.585  1.00  0.00     0.242 C 
ATOM      6  O   UNL A   1      29.873  23.381  27.372  1.00  0.00    -0.273 OA
ATOM      7  H   UNL A   1      29.839  25.711  26.971  1.00  0.00     0.163 HD
BRANCH   5   8
ATOM      8  C   UNL A   1      31.739  23.120  25.852  1.00  0.00     0.169 C 
BRANCH   8   9
ATOM      9  C   UNL A   1      33.087  23.359  26.560  1.00  0.00     0.031 C 
ATOM     10  C   UNL A   1      33.281  22.551  27.834  1.00  0.00     0.006 C 
ENDBRANCH   8   9
BRANCH   8  11
ATOM     11  N   UNL A   1      31.414  21.697  25.733  1.00  0.00    -0.358 N 
ATOM     12  H   UNL A   1      30.553  21.420  26.121  1.00  0.00     0.162 HD
BRANCH  11  13
ATOM     13  C   UNL A   1      32.152  20.703  25.153  1.00  0.00     0.129 A 
ATOM     14  C   UNL A   1      32.681  20.752  23.870  1.00  0.00     0.054 A 
ATOM     15  N   UNL A   1      32.289  19.599  25.917  1.00  0.00    -0.208 NA
ATOM     16  C   UNL A   1      33.269  19.613  23.327  1.00  0.00     0.093 A 
ATOM     17  C   UNL A   1      32.900  18.497  25.421  1.00  0.00     0.204 A 
ATOM     18  C   UNL A   1      33.363  18.464  24.111  1.00  0.00     0.311 A 
BRANCH  17  19
ATOM     19  N   UNL A   1      32.916  17.424  26.287  1.00  0.00    -0.378 N 
ATOM     20  H   UNL A   1      32.076  17.098  26.682  1.00  0.00     0.158 HD
ATOM     21  H   UNL A   1      33.768  16.983  26.509  1.00  0.00     0.158 HD
ENDBRANCH  17  19
BRANCH  18  22
ATOM     22  N   UNL A   1      33.958  17.266  23.539  1.00  0.00     0.066 N 
ATOM     23  O   UNL A   1      33.656  16.953  22.376  1.00  0.00    -0.258 OA
ATOM     24  O   UNL A   1      34.704  16.597  24.270  1.00  0.00    -0.258 OA
ENDBRANCH  18  22
ENDBRANCH  11  13
ENDBRANCH   8  11
ENDBRANCH   5   8
ENDBRANCH   3   4
ENDBRANCH   2   3
ENDBRANCH   1   2
BRANCH   1  25
ATOM     25  C   UNL A   1      31.677  28.797  24.712  1.00  0.00     0.002 C 
BRANCH  25  26
ATOM     26  C   UNL A   1      31.314  30.131  25.372  1.00  0.00     0.021 C 
BRANCH  26  27
ATOM     27  C   UNL A   1      32.215  30.536  26.535  1.00  0.00     0.116 C 
BRANCH  27  28
ATOM     28  N   UNL A   1      32.236  31.977  26.730  1.00  0.00    -0.352 N 
ATOM     29  C   UNL A   1      33.090  32.740  27.480  1.00  0.00     0.251 C 
ATOM     30  H   UNL A   1      31.535  32.476  26.253  1.00  0.00     0.163 HD
ATOM     31  O   UNL A   1      32.820  33.927  27.682  1.00  0.00    -0.269 OA
BRANCH  29  32
ATOM     32  C   UNL A   1      34.313  32.147  28.059  1.00  0.00     0.039 A 
ATOM     33  C   UNL A   1      35.416  32.971  28.288  1.00  0.00     0.014 A 
ATOM     34  C   UNL A   1      34.385  30.781  28.357  1.00  0.00     0.014 A 
ATOM     35  C   UNL A   1      36.570  32.441  28.866  1.00  0.00     0.010 A 
ATOM     36  C   UNL A   1      35.515  30.266  28.992  1.00  0.00     0.010 A 
ATOM     37  C   UNL A   1      36.620  31.090  29.251  1.00  0.00    -0.014 A 
BRANCH  37  38
ATOM     38  C   UNL A   1      37.819  30.542  29.937  1.00  0.00     0.031 A 
ATOM     39  C   UNL A   1      38.139  30.944  31.351  1.00  0.00     0.074 A 
ATOM     40  C   UNL A   1      38.636  29.703  29.269  1.00  0.00     0.049 A 
ATOM     41  N   UNL A   1      39.149  30.588  32.103  1.00  0.00    -0.248 NA
ATOM     42  C   UNL A   1      37.213  31.886  31.998  1.00  0.00     0.031 C 
ATOM     43  C   UNL A   1      38.453  29.278  27.879  1.00  0.00     0.029 A 
ATOM     44  N   UNL A   1      39.782  29.060  29.661  1.00  0.00    -0.354 N 
ATOM     45  C   UNL A   1      38.980  31.257  33.310  1.00  0.00     0.074 A 
ATOM     46  C   UNL A   1      37.804  32.090  33.165  1.00  0.00     0.031 C 
ATOM     47  C   UNL A   1      39.435  28.426  27.545  1.00  0.00     0.029 A 
ATOM     48  C   UNL A   1      40.341  28.275  28.679  1.00  0.00     0.049 A 
ATOM     49  H   UNL A   1      40.169  29.151  30.562  1.00  0.00     0.167 HD
ATOM     50  C   UNL A   1      39.721  31.164  34.444  1.00  0.00     0.034 A 
ATOM     51  C   UNL A   1      41.460  27.523  28.689  1.00  0.00     0.034 A 
ATOM     52  C   UNL A   1      40.889  30.328  34.574  1.00  0.00     0.049 A 
ATOM     53  C   UNL A   1      42.274  27.453  29.956  1.00  0.00     0.074 A 
ATOM     54  C   UNL A   1      41.694  30.136  35.685  1.00  0.00     0.029 A 
ATOM     55  N   UNL A   1      41.424  29.542  33.561  1.00  0.00    -0.354 N 
ATOM     56  N   UNL A   1      42.070  28.055  31.105  1.00  0.00    -0.248 NA
ATOM     57  C   UNL A   1      43.459  26.586  29.933  1.00  0.00     0.031 C 
ATOM     58  C   UNL A   1      42.744  29.285  35.327  1.00  0.00     0.029 A 
ATOM     59  C   UNL A   1      42.559  28.886  34.014  1.00  0.00     0.049 A 
ATOM     60  H   UNL A   1      41.051  29.463  32.653  1.00  0.00     0.167 HD
ATOM     61  C   UNL A   1      43.089  27.618  31.947  1.00  0.00     0.074 A 
ATOM     62  C   UNL A   1      43.883  26.679  31.184  1.00  0.00     0.031 C 
ATOM     63  C   UNL A   1      43.350  27.963  33.235  1.00  0.00     0.034 A 
BRANCH  50  64
ATOM     64  C   UNL A   1      39.293  32.002  35.625  1.00  0.00     0.023 A 
ATOM     65  C   UNL A   1      38.561  31.450  36.691  1.00  0.00     0.031 A 
ATOM     66  C   UNL A   1      39.621  33.368  35.690  1.00  0.00     0.131 A 
ATOM     67  C   UNL A   1      38.131  32.270  37.745  1.00  0.00     0.055 A 
ATOM     68  C   UNL A   1      39.253  34.162  36.778  1.00  0.00     0.041 A 
ATOM     69  F   UNL A   1      40.302  33.955  34.692  1.00  0.00    -0.206 F 
ATOM     70  C   UNL A   1      38.494  33.616  37.808  1.00  0.00     0.022 A 
BRANCH  67  71
ATOM     71  S   UNL A   1      36.993  31.576  38.975  1.00  0.00     0.124 S 
ATOM     72  O   UNL A   1      37.786  31.675  40.198  1.00  0.00    -0.237 OA
ATOM     73  O   UNL A   1      35.844  32.469  38.884  1.00  0.00    -0.237 OA
ATOM     74  O   UNL A   1      36.764  30.213  38.499  1.00  0.00    -0.744 OA
ENDBRANCH  67  71
ENDBRANCH  50  64
BRANCH  51  75
ATOM     75  C   UNL A   1      41.894  26.787  27.466  1.00  0.00     0.023 A 
ATOM     76  C   UNL A   1      41.687  25.404  27.340  1.00  0.00     0.031 A 
ATOM     77  C   UNL A   1      42.585  27.446  26.433  1.00  0.00     0.131 A 
ATOM     78  C   UNL A   1      42.222  24.714  26.241  1.00  0.00     0.055 A 
ATOM     79  C   UNL A   1      43.062  26.764  25.311  1.00  0.00     0.041 A 
ATOM     80  F   UNL A   1      42.806  28.768  26.499  1.00  0.00    -0.206 F 
ATOM     81  C   UNL A   1      42.897  25.386  25.221  1.00  0.00     0.022 A 
BRANCH  78  82
ATOM     82  S   UNL A   1      42.125  22.902  26.226  1.00  0.00     0.124 S 
ATOM     83  O   UNL A   1      40.683  22.682  26.231  1.00  0.00    -0.237 OA
ATOM     84  O   UNL A   1      42.820  22.573  24.986  1.00  0.00    -0.237 OA
ATOM     85  O   UNL A   1      42.820  22.514  27.450  1.00  0.00    -0.744 OA
ENDBRANCH  78  82
ENDBRANCH  51  75
BRANCH  63  86
ATOM     86  C   UNL A   1      44.527  27.287  33.893  1.00  0.00     0.023 A 
ATOM     87  C   UNL A   1      44.407  26.020  34.492  1.00  0.00     0.031 A 
ATOM     88  C   UNL A   1      45.774  27.935  33.959  1.00  0.00     0.131 A 
ATOM     89  C   UNL A   1      45.492  25.473  35.193  1.00  0.00     0.055 A 
ATOM     90  C   UNL A   1      46.868  27.355  34.602  1.00  0.00     0.041 A 
ATOM     91  F   UNL A   1      45.945  29.145  33.406  1.00  0.00    -0.206 F 
ATOM     92  C   UNL A   1      46.727  26.126  35.239  1.00  0.00     0.022 A 
BRANCH  89  93
ATOM     93  S   UNL A   1      45.233  23.949  36.142  1.00  0.00     0.124 S 
ATOM     94  O   UNL A   1      46.213  23.048  35.545  1.00  0.00    -0.237 OA
ATOM     95  O   UNL A   1      45.515  24.381  37.508  1.00  0.00    -0.237 OA
ATOM     96  O   UNL A   1      43.836  23.612  35.875  1.00  0.00    -0.744 OA
ENDBRANCH  89  93
ENDBRANCH  63  86
ENDBRANCH  37  38
ENDBRANCH  29  32
ENDBRANCH  27  28
ENDBRANCH  26  27
ENDBRANCH  25  26
ENDBRANCH   1  25
TORSDOF 21
ENDMDL
MODEL 2
REMARK VINA RESULT:     -11.4      3.247      5.014
REMARK SMILES CC[C@@H](Nc1ccc([N+](=O)[O-])c(N)n1)C(=O)NCCCCCCNC(=O)c1ccc(-c2c3nc(c(-c4cc(S(=O)(=O)[O-])ccc4F)c4ccc([nH]4)c(-c4cc(S(=O)(=O)[O-])ccc4F)c4nc(c(-c5cc(S(=O)(=O)[O-])ccc5F)c5ccc2[nH]5)C=C4)C=C3)cc1
REMARK SMILES IDX 20 1 19 2 18 3 17 4 15 5 16 6 3 8 2 9 1 10 4 11 5 13 6 14
REMARK SMILES IDX 14 15 7 16 12 17 8 18 13 19 9 22 10 23 11 24 21 25 22 26
REMARK SMILES IDX 23 27 24 28 25 29 26 31 27 32 28 33 89 34 29 35 88 36 30 37
REMARK SMILES IDX 31 38 32 39 82 40 33 41 87 42 81 43 83 44 34 45 86 46 80 47
REMARK SMILES IDX 79 48 35 50 67 51 47 52 66 53 48 54 51 55 65 56 84 57 49 58
REMARK SMILES IDX 50 59 64 61 85 62 52 63 36 64 37 65 45 66 38 67 44 68 46 69
REMARK SMILES IDX 43 70 39 71 40 72 41 73 42 74 68 75 69 76 77 77 70 78 76 79
REMARK SMILES IDX 78 80 75 81 71 82 72 83 73 84 74 85 53 86 54 87 62 88 55 89
REMARK SMILES IDX 61 90 63 91 60 92 56 93 57 94 58 95 59 96
REMARK H PARENT 17 7 4 12 13 20 13 21 24 30 83 49 51 60
REMARK Flexibility Score: inf
ROOT
ATOM      1  C   UNL A   1      31.950  29.510  25.528  1.00  0.00     0.002 C 
ENDROOT
BRANCH   1   2
ATOM      2  C   UNL A   1      33.295  28.877  25.155  1.00  0.00     0.021 C 
BRANCH   2   3
ATOM      3  C   UNL A   1      33.376  27.388  25.480  1.00  0.00     0.116 C 
BRANCH   3   4
ATOM      4  N   UNL A   1      32.188  26.974  26.207  1.00  0.00    -0.354 N 
ATOM      5  C   UNL A   1      31.093  26.287  25.773  1.00  0.00     0.242 C 
ATOM      6  O   UNL A   1      30.173  26.107  26.577  1.00  0.00    -0.273 OA
ATOM      7  H   UNL A   1      32.172  27.227  27.158  1.00  0.00     0.163 HD
BRANCH   5   8
ATOM      8  C   UNL A   1      31.005  25.728  24.335  1.00  0.00     0.169 C 
BRANCH   8   9
ATOM      9  C   UNL A   1      31.260  24.209  24.383  1.00  0.00     0.031 C 
ATOM     10  C   UNL A   1      31.664  23.597  23.051  1.00  0.00     0.006 C 
ENDBRANCH   8   9
BRANCH   8  11
ATOM     11  N   UNL A   1      29.749  26.064  23.662  1.00  0.00    -0.358 N 
ATOM     12  H   UNL A   1      29.194  25.300  23.385  1.00  0.00     0.162 HD
BRANCH  11  13
ATOM     13  C   UNL A   1      29.247  27.301  23.368  1.00  0.00     0.129 A 
ATOM     14  C   UNL A   1      27.936  27.699  23.588  1.00  0.00     0.054 A 
ATOM     15  N   UNL A   1      30.132  28.128  22.770  1.00  0.00    -0.208 NA
ATOM     16  C   UNL A   1      27.499  28.925  23.093  1.00  0.00     0.093 A 
ATOM     17  C   UNL A   1      29.735  29.343  22.324  1.00  0.00     0.204 A 
ATOM     18  C   UNL A   1      28.411  29.750  22.436  1.00  0.00     0.311 A 
BRANCH  17  19
ATOM     19  N   UNL A   1      30.724  30.056  21.680  1.00  0.00    -0.378 N 
ATOM     20  H   UNL A   1      30.490  30.839  21.132  1.00  0.00     0.158 HD
ATOM     21  H   UNL A   1      31.666  29.782  21.770  1.00  0.00     0.158 HD
ENDBRANCH  17  19
BRANCH  18  22
ATOM     22  N   UNL A   1      27.952  31.022  21.899  1.00  0.00     0.066 N 
ATOM     23  O   UNL A   1      27.580  31.900  22.694  1.00  0.00    -0.258 OA
ATOM     24  O   UNL A   1      27.918  31.139  20.665  1.00  0.00    -0.258 OA
ENDBRANCH  18  22
ENDBRANCH  11  13
ENDBRANCH   8  11
ENDBRANCH   5   8
ENDBRANCH   3   4
ENDBRANCH   2   3
ENDBRANCH   1   2
BRANCH   1  25
ATOM     25  C   UNL A   1      31.917  30.168  26.912  1.00  0.00     0.002 C 
BRANCH  25  26
ATOM     26  C   UNL A   1      31.704  31.685  26.899  1.00  0.00     0.021 C 
BRANCH  26  27
ATOM     27  C   UNL A   1      32.971  32.510  27.108  1.00  0.00     0.116 C 
BRANCH  27  28
ATOM     28  N   UNL A   1      32.675  33.839  27.618  1.00  0.00    -0.352 N 
ATOM     29  C   UNL A   1      33.215  34.500  28.688  1.00  0.00     0.251 C 
ATOM     30  H   UNL A   1      31.986  34.337  27.121  1.00  0.00     0.163 HD
ATOM     31  O   UNL A   1      32.687  35.542  29.085  1.00  0.00    -0.269 OA
BRANCH  29  32
ATOM     32  C   UNL A   1      34.406  33.962  29.377  1.00  0.00     0.039 A 
ATOM     33  C   UNL A   1      34.226  33.054  30.422  1.00  0.00     0.014 A 
ATOM     34  C   UNL A   1      35.697  34.363  29.012  1.00  0.00     0.014 A 
ATOM     35  C   UNL A   1      35.337  32.507  31.065  1.00  0.00     0.010 A 
ATOM     36  C   UNL A   1      36.807  33.769  29.613  1.00  0.00     0.010 A 
ATOM     37  C   UNL A   1      36.638  32.836  30.646  1.00  0.00    -0.014 A 
BRANCH  37  38
ATOM     38  C   UNL A   1      37.821  32.194  31.278  1.00  0.00     0.031 A 
ATOM     39  C   UNL A   1      38.361  32.710  32.584  1.00  0.00     0.074 A 
ATOM     40  C   UNL A   1      38.424  31.163  30.654  1.00  0.00     0.049 A 
ATOM     41  N   UNL A   1      39.394  32.294  33.273  1.00  0.00    -0.248 NA
ATOM     42  C   UNL A   1      37.663  33.858  33.183  1.00  0.00     0.031 C 
ATOM     43  C   UNL A   1      38.017  30.605  29.362  1.00  0.00     0.029 A 
ATOM     44  N   UNL A   1      39.505  30.400  31.015  1.00  0.00    -0.354 N 
ATOM     45  C   UNL A   1      39.468  33.124  34.386  1.00  0.00     0.074 A 
ATOM     46  C   UNL A   1      38.414  34.107  34.246  1.00  0.00     0.031 C 
ATOM     47  C   UNL A   1      38.821  29.576  29.053  1.00  0.00     0.029 A 
ATOM     48  C   UNL A   1      39.825  29.423  30.100  1.00  0.00     0.049 A 
ATOM     49  H   UNL A   1      40.006  30.539  31.851  1.00  0.00     0.167 HD
ATOM     50  C   UNL A   1      40.318  33.055  35.442  1.00  0.00     0.034 A 
ATOM     51  C   UNL A   1      40.818  28.512  30.102  1.00  0.00     0.034 A 
ATOM     52  C   UNL A   1      41.362  32.067  35.569  1.00  0.00     0.049 A 
ATOM     53  C   UNL A   1      41.760  28.470  31.279  1.00  0.00     0.074 A 
ATOM     54  C   UNL A   1      42.259  31.889  36.609  1.00  0.00     0.029 A 
ATOM     55  N   UNL A   1      41.655  31.090  34.626  1.00  0.00    -0.354 N 
ATOM     56  N   UNL A   1      41.783  29.232  32.348  1.00  0.00    -0.248 NA
ATOM     57  C   UNL A   1      42.798  27.431  31.257  1.00  0.00     0.031 C 
ATOM     58  C   UNL A   1      43.127  30.846  36.270  1.00  0.00     0.029 A 
ATOM     59  C   UNL A   1      42.730  30.324  35.049  1.00  0.00     0.049 A 
ATOM     60  H   UNL A   1      41.168  30.960  33.779  1.00  0.00     0.167 HD
ATOM     61  C   UNL A   1      42.823  28.747  33.136  1.00  0.00     0.074 A 
ATOM     62  C   UNL A   1      43.378  27.608  32.434  1.00  0.00     0.031 C 
ATOM     63  C   UNL A   1      43.283  29.201  34.331  1.00  0.00     0.034 A 
BRANCH  50  64
ATOM     64  C   UNL A   1      40.159  34.086  36.532  1.00  0.00     0.023 A 
ATOM     65  C   UNL A   1      39.677  33.741  37.807  1.00  0.00     0.031 A 
ATOM     66  C   UNL A   1      40.494  35.433  36.299  1.00  0.00     0.131 A 
ATOM     67  C   UNL A   1      39.487  34.735  38.779  1.00  0.00     0.055 A 
ATOM     68  C   UNL A   1      40.373  36.405  37.294  1.00  0.00     0.041 A 
ATOM     69  F   UNL A   1      40.940  35.827  35.095  1.00  0.00    -0.206 F 
ATOM     70  C   UNL A   1      39.856  36.060  38.539  1.00  0.00     0.022 A 
BRANCH  67  71
ATOM     71  S   UNL A   1      38.645  34.290  40.322  1.00  0.00     0.124 S 
ATOM     72  O   UNL A   1      37.499  33.531  39.824  1.00  0.00    -0.237 OA
ATOM     73  O   UNL A   1      39.663  33.521  41.028  1.00  0.00    -0.237 OA
ATOM     74  O   UNL A   1      38.314  35.583  40.917  1.00  0.00    -0.744 OA
ENDBRANCH  67  71
ENDBRANCH  50  64
BRANCH  51  75
ATOM     75  C   UNL A   1      40.993  27.573  28.955  1.00  0.00     0.023 A 
ATOM     76  C   UNL A   1      41.998  27.779  27.997  1.00  0.00     0.031 A 
ATOM     77  C   UNL A   1      40.112  26.493  28.764  1.00  0.00     0.131 A 
ATOM     78  C   UNL A   1      42.058  26.960  26.859  1.00  0.00     0.055 A 
ATOM     79  C   UNL A   1      40.214  25.644  27.661  1.00  0.00     0.041 A 
ATOM     80  F   UNL A   1      39.136  26.248  29.652  1.00  0.00    -0.206 F 
ATOM     81  C   UNL A   1      41.181  25.887  26.690  1.00  0.00     0.022 A 
BRANCH  78  82
ATOM     82  S   UNL A   1      43.227  27.392  25.541  1.00  0.00     0.124 S 
ATOM     83  O   UNL A   1      42.381  28.159  24.633  1.00  0.00    -0.237 OA
ATOM     84  O   UNL A   1      44.238  28.149  26.271  1.00  0.00    -0.237 OA
ATOM     85  O   UNL A   1      43.666  26.093  25.037  1.00  0.00    -0.744 OA
ENDBRANCH  78  82
ENDBRANCH  51  75
BRANCH  63  86
ATOM     86  C   UNL A   1      44.422  28.433  34.955  1.00  0.00     0.023 A 
ATOM     87  C   UNL A   1      44.195  27.427  35.911  1.00  0.00     0.031 A 
ATOM     88  C   UNL A   1      45.753  28.740  34.622  1.00  0.00     0.131 A 
ATOM     89  C   UNL A   1      45.281  26.815  36.553  1.00  0.00     0.055 A 
ATOM     90  C   UNL A   1      46.830  28.081  35.216  1.00  0.00     0.041 A 
ATOM     91  F   UNL A   1      46.030  29.692  33.716  1.00  0.00    -0.206 F 
ATOM     92  C   UNL A   1      46.597  27.124  36.200  1.00  0.00     0.022 A 
BRANCH  89  93
ATOM     93  S   UNL A   1      44.950  25.690  37.937  1.00  0.00     0.124 S 
ATOM     94  O   UNL A   1      43.931  26.420  38.685  1.00  0.00    -0.237 OA
ATOM     95  O   UNL A   1      44.495  24.482  37.255  1.00  0.00    -0.237 OA
ATOM     96  O   UNL A   1      46.246  25.575  38.603  1.00  0.00    -0.744 OA
ENDBRANCH  89  93
ENDBRANCH  63  86
ENDBRANCH  37  38
ENDBRANCH  29  32
ENDBRANCH  27  28
ENDBRANCH  26  27
ENDBRANCH  25  26
ENDBRANCH   1  25
TORSDOF 21
ENDMDL
MODEL 3
REMARK VINA RESULT:     -11.3      2.604      4.446
REMARK SMILES CC[C@@H](Nc1ccc([N+](=O)[O-])c(N)n1)C(=O)NCCCCCCNC(=O)c1ccc(-c2c3nc(c(-c4cc(S(=O)(=O)[O-])ccc4F)c4ccc([nH]4)c(-c4cc(S(=O)(=O)[O-])ccc4F)c4nc(c(-c5cc(S(=O)(=O)[O-])ccc5F)c5ccc2[nH]5)C=C4)C=C3)cc1
REMARK SMILES IDX 20 1 19 2 18 3 17 4 15 5 16 6 3 8 2 9 1 10 4 11 5 13 6 14
REMARK SMILES IDX 14 15 7 16 12 17 8 18 13 19 9 22 10 23 11 24 21 25 22 26
REMARK SMILES IDX 23 27 24 28 25 29 26 31 27 32 28 33 89 34 29 35 88 36 30 37
REMARK SMILES IDX 31 38 32 39 82 40 33 41 87 42 81 43 83 44 34 45 86 46 80 47
REMARK SMILES IDX 79 48 35 50 67 51 47 52 66 53 48 54 51 55 65 56 84 57 49 58
REMARK SMILES IDX 50 59 64 61 85 62 52 63 36 64 37 65 45 66 38 67 44 68 46 69
REMARK SMILES IDX 43 70 39 71 40 72 41 73 42 74 68 75 69 76 77 77 70 78 76 79
REMARK SMILES IDX 78 80 75 81 71 82 72 83 73 84 74 85 53 86 54 87 62 88 55 89
REMARK SMILES IDX 61 90 63 91 60 92 56 93 57 94 58 95 59 96
REMARK H PARENT 17 7 4 12 13 20 13 21 24 30 83 49 51 60
REMARK Flexibility Score: inf
ROOT
ATOM      1  C   UNL A   1      33.047  27.593  26.910  1.00  0.00     0.002 C 
ENDROOT
BRANCH   1   2
ATOM      2  C   UNL A   1      33.520  26.904  25.625  1.00  0.00     0.021 C 
BRANCH   2   3
ATOM      3  C   UNL A   1      33.804  25.415  25.804  1.00  0.00     0.116 C 
BRANCH   3   4
ATOM      4  N   UNL A   1      32.639  24.752  26.365  1.00  0.00    -0.354 N 
ATOM      5  C   UNL A   1      31.439  24.458  25.788  1.00  0.00     0.242 C 
ATOM      6  O   UNL A   1      30.572  23.938  26.499  1.00  0.00    -0.273 OA
ATOM      7  H   UNL A   1      32.730  24.472  27.304  1.00  0.00     0.163 HD
BRANCH   5   8
ATOM      8  C   UNL A   1      31.169  24.739  24.293  1.00  0.00     0.169 C 
BRANCH   8   9
ATOM      9  C   UNL A   1      31.314  23.419  23.512  1.00  0.00     0.031 C 
ATOM     10  C   UNL A   1      32.680  23.211  22.877  1.00  0.00     0.006 C 
ENDBRANCH   8   9
BRANCH   8  11
ATOM     11  N   UNL A   1      29.880  25.392  24.054  1.00  0.00    -0.358 N 
ATOM     12  H   UNL A   1      29.082  24.836  24.211  1.00  0.00     0.162 HD
BRANCH  11  13
ATOM     13  C   UNL A   1      29.641  26.672  23.640  1.00  0.00     0.129 A 
ATOM     14  C   UNL A   1      30.622  27.615  23.366  1.00  0.00     0.054 A 
ATOM     15  N   UNL A   1      28.332  26.995  23.570  1.00  0.00    -0.208 NA
ATOM     16  C   UNL A   1      30.255  28.935  23.116  1.00  0.00     0.093 A 
ATOM     17  C   UNL A   1      27.955  28.264  23.283  1.00  0.00     0.204 A 
ATOM     18  C   UNL A   1      28.900  29.264  23.092  1.00  0.00     0.311 A 
BRANCH  17  19
ATOM     19  N   UNL A   1      26.592  28.465  23.305  1.00  0.00    -0.378 N 
ATOM     20  H   UNL A   1      26.058  28.312  22.492  1.00  0.00     0.158 HD
ATOM     21  H   UNL A   1      26.151  28.760  24.135  1.00  0.00     0.158 HD
ENDBRANCH  17  19
BRANCH  18  22
ATOM     22  N   UNL A   1      28.515  30.647  22.853  1.00  0.00     0.066 N 
ATOM     23  O   UNL A   1      29.023  31.533  23.559  1.00  0.00    -0.258 OA
ATOM     24  O   UNL A   1      27.659  30.855  21.980  1.00  0.00    -0.258 OA
ENDBRANCH  18  22
ENDBRANCH  11  13
ENDBRANCH   8  11
ENDBRANCH   5   8
ENDBRANCH   3   4
ENDBRANCH   2   3
ENDBRANCH   1   2
BRANCH   1  25
ATOM     25  C   UNL A   1      31.613  28.129  26.856  1.00  0.00     0.002 C 
BRANCH  25  26
ATOM     26  C   UNL A   1      31.481  29.640  27.073  1.00  0.00     0.021 C 
BRANCH  26  27
ATOM     27  C   UNL A   1      32.418  30.493  26.222  1.00  0.00     0.116 C 
BRANCH  27  28
ATOM     28  N   UNL A   1      32.314  31.906  26.550  1.00  0.00    -0.352 N 
ATOM     29  C   UNL A   1      33.068  32.655  27.413  1.00  0.00     0.251 C 
ATOM     30  H   UNL A   1      31.598  32.394  26.084  1.00  0.00     0.163 HD
ATOM     31  O   UNL A   1      32.694  33.794  27.710  1.00  0.00    -0.269 OA
BRANCH  29  32
ATOM     32  C   UNL A   1      34.306  32.103  28.001  1.00  0.00     0.039 A 
ATOM     33  C   UNL A   1      35.406  32.947  28.166  1.00  0.00     0.014 A 
ATOM     34  C   UNL A   1      34.395  30.756  28.369  1.00  0.00     0.014 A 
ATOM     35  C   UNL A   1      36.574  32.457  28.750  1.00  0.00     0.010 A 
ATOM     36  C   UNL A   1      35.541  30.284  29.009  1.00  0.00     0.010 A 
ATOM     37  C   UNL A   1      36.642  31.129  29.205  1.00  0.00    -0.014 A 
BRANCH  37  38
ATOM     38  C   UNL A   1      37.858  30.628  29.897  1.00  0.00     0.031 A 
ATOM     39  C   UNL A   1      38.188  31.089  31.290  1.00  0.00     0.074 A 
ATOM     40  C   UNL A   1      38.681  29.776  29.252  1.00  0.00     0.049 A 
ATOM     41  N   UNL A   1      39.212  30.779  32.043  1.00  0.00    -0.248 NA
ATOM     42  C   UNL A   1      37.254  32.041  31.911  1.00  0.00     0.031 C 
ATOM     43  C   UNL A   1      38.489  29.294  27.881  1.00  0.00     0.029 A 
ATOM     44  N   UNL A   1      39.842  29.167  29.655  1.00  0.00    -0.354 N 
ATOM     45  C   UNL A   1      39.046  31.492  33.225  1.00  0.00     0.074 A 
ATOM     46  C   UNL A   1      37.855  32.300  33.063  1.00  0.00     0.031 C 
ATOM     47  C   UNL A   1      39.481  28.446  27.569  1.00  0.00     0.029 A 
ATOM     48  C   UNL A   1      40.403  28.353  28.697  1.00  0.00     0.049 A 
ATOM     49  H   UNL A   1      40.238  29.300  30.547  1.00  0.00     0.167 HD
ATOM     50  C   UNL A   1      39.801  31.455  34.352  1.00  0.00     0.034 A 
ATOM     51  C   UNL A   1      41.534  27.620  28.723  1.00  0.00     0.034 A 
ATOM     52  C   UNL A   1      40.985  30.643  34.501  1.00  0.00     0.049 A 
ATOM     53  C   UNL A   1      42.364  27.613  29.982  1.00  0.00     0.074 A 
ATOM     54  C   UNL A   1      41.806  30.508  35.608  1.00  0.00     0.029 A 
ATOM     55  N   UNL A   1      41.521  29.828  33.512  1.00  0.00    -0.354 N 
ATOM     56  N   UNL A   1      42.163  28.256  31.108  1.00  0.00    -0.248 NA
ATOM     57  C   UNL A   1      43.562  26.765  29.977  1.00  0.00     0.031 C 
ATOM     58  C   UNL A   1      42.865  29.660  35.271  1.00  0.00     0.029 A 
ATOM     59  C   UNL A   1      42.672  29.207  33.977  1.00  0.00     0.049 A 
ATOM     60  H   UNL A   1      41.139  29.707  32.613  1.00  0.00     0.167 HD
ATOM     61  C   UNL A   1      43.199  27.869  31.954  1.00  0.00     0.074 A 
ATOM     62  C   UNL A   1      43.999  26.913  31.218  1.00  0.00     0.031 C 
ATOM     63  C   UNL A   1      43.468  28.268  33.224  1.00  0.00     0.034 A 
BRANCH  50  64
ATOM     64  C   UNL A   1      39.374  32.331  35.505  1.00  0.00     0.023 A 
ATOM     65  C   UNL A   1      39.803  33.666  35.613  1.00  0.00     0.031 A 
ATOM     66  C   UNL A   1      38.527  31.830  36.510  1.00  0.00     0.131 A 
ATOM     67  C   UNL A   1      39.434  34.434  36.727  1.00  0.00     0.055 A 
ATOM     68  C   UNL A   1      38.103  32.623  37.579  1.00  0.00     0.041 A 
ATOM     69  F   UNL A   1      38.101  30.557  36.472  1.00  0.00    -0.206 F 
ATOM     70  C   UNL A   1      38.566  33.930  37.697  1.00  0.00     0.022 A 
BRANCH  67  71
ATOM     71  S   UNL A   1      40.196  36.065  36.948  1.00  0.00     0.124 S 
ATOM     72  O   UNL A   1      39.900  36.704  35.667  1.00  0.00    -0.237 OA
ATOM     73  O   UNL A   1      39.484  36.594  38.105  1.00  0.00    -0.237 OA
ATOM     74  O   UNL A   1      41.607  35.756  37.170  1.00  0.00    -0.744 OA
ENDBRANCH  67  71
ENDBRANCH  50  64
BRANCH  51  75
ATOM     75  C   UNL A   1      41.966  26.844  27.524  1.00  0.00     0.023 A 
ATOM     76  C   UNL A   1      41.717  25.466  27.424  1.00  0.00     0.031 A 
ATOM     77  C   UNL A   1      42.695  27.458  26.489  1.00  0.00     0.131 A 
ATOM     78  C   UNL A   1      42.249  24.735  26.350  1.00  0.00     0.055 A 
ATOM     79  C   UNL A   1      43.170  26.737  25.392  1.00  0.00     0.041 A 
ATOM     80  F   UNL A   1      42.957  28.774  26.531  1.00  0.00    -0.206 F 
ATOM     81  C   UNL A   1      42.963  25.363  25.328  1.00  0.00     0.022 A 
BRANCH  78  82
ATOM     82  S   UNL A   1      42.094  22.928  26.372  1.00  0.00     0.124 S 
ATOM     83  O   UNL A   1      40.651  22.752  26.261  1.00  0.00    -0.237 OA
ATOM     84  O   UNL A   1      42.880  22.544  25.204  1.00  0.00    -0.237 OA
ATOM     85  O   UNL A   1      42.672  22.553  27.660  1.00  0.00    -0.744 OA
ENDBRANCH  78  82
ENDBRANCH  51  75
BRANCH  63  86
ATOM     86  C   UNL A   1      44.664  27.636  33.894  1.00  0.00     0.023 A 
ATOM     87  C   UNL A   1      44.550  26.444  34.631  1.00  0.00     0.031 A 
ATOM     88  C   UNL A   1      45.925  28.256  33.830  1.00  0.00     0.131 A 
ATOM     89  C   UNL A   1      45.659  25.948  35.333  1.00  0.00     0.055 A 
ATOM     90  C   UNL A   1      47.039  27.722  34.477  1.00  0.00     0.041 A 
ATOM     91  F   UNL A   1      46.092  29.397  33.142  1.00  0.00    -0.206 F 
ATOM     92  C   UNL A   1      46.906  26.571  35.249  1.00  0.00     0.022 A 
BRANCH  89  93
ATOM     93  S   UNL A   1      45.418  24.541  36.453  1.00  0.00     0.124 S 
ATOM     94  O   UNL A   1      44.069  24.779  36.955  1.00  0.00    -0.237 OA
ATOM     95  O   UNL A   1      45.570  23.399  35.556  1.00  0.00    -0.237 OA
ATOM     96  O   UNL A   1      46.485  24.701  37.439  1.00  0.00    -0.744 OA
ENDBRANCH  89  93
ENDBRANCH  63  86
ENDBRANCH  37  38
ENDBRANCH  29  32
ENDBRANCH  27  28
ENDBRANCH  26  27
ENDBRANCH  25  26
ENDBRANCH   1  25
TORSDOF 21
ENDMDL
