MODEL 1
REMARK VINA RESULT:     -13.4      0.000      0.000
REMARK SMILES Cc1ccccc1C(=O)Nc1cc(NC(=O)c2ccccc2C)cc(C(=O)NCCCCCCNC(=O)c2ccc(-c3c4nc(c(-c5cc(S(=O)(=O)[O-])ccc5F)c5ccc([nH]5)c(-c5cc(S(=O)(=O)[O-])ccc5F)c5nc(c(-c6cc(S(=O)(=O)[O-])ccc6F)c6ccc3[nH]6)C=C5)C=C4)cc2)c1
REMARK SMILES IDX 32 1 31 2 30 3 29 4 28 5 26 6 27 7 25 9 11 10 12 11 101 12
REMARK SMILES IDX 13 13 24 14 10 15 8 16 9 17 7 19 1 20 2 21 3 22 4 23 6 24
REMARK SMILES IDX 5 25 14 26 15 27 16 29 17 30 18 31 22 32 19 33 21 34 23 35
REMARK SMILES IDX 20 36 33 37 34 38 35 39 36 40 37 42 38 43 39 44 100 45 40 46
REMARK SMILES IDX 99 47 41 48 42 49 43 50 93 51 44 52 98 53 92 54 94 55 45 56
REMARK SMILES IDX 97 57 91 58 90 59 46 61 78 62 58 63 77 64 59 65 62 66 76 67
REMARK SMILES IDX 95 68 60 69 61 70 75 72 96 73 63 74 47 75 48 76 56 77 49 78
REMARK SMILES IDX 55 79 57 80 54 81 50 82 51 83 52 84 53 85 79 86 80 87 88 88
REMARK SMILES IDX 81 89 87 90 89 91 86 92 82 93 83 94 84 95 85 96 64 97 65 98
REMARK SMILES IDX 73 99 66 100 72 101 74 102 71 103 67 104 68 105 69 106
REMARK SMILES IDX 70 107
REMARK H PARENT 28 8 10 18 14 28 35 41 94 60 62 71
REMARK Flexibility Score: inf
ROOT
ATOM      1  C   UNL A   1      33.060  30.721  27.238  1.00  0.00     0.002 C 
ENDROOT
BRANCH   1   2
ATOM      2  C   UNL A   1      32.363  29.354  27.218  1.00  0.00     0.002 C 
BRANCH   2   3
ATOM      3  C   UNL A   1      32.970  28.270  26.338  1.00  0.00     0.021 C 
BRANCH   3   4
ATOM      4  C   UNL A   1      32.638  26.843  26.735  1.00  0.00     0.116 C 
BRANCH   4   5
ATOM      5  N   UNL A   1      31.232  26.506  26.862  1.00  0.00    -0.352 N 
ATOM      6  C   UNL A   1      30.508  25.478  26.283  1.00  0.00     0.251 C 
ATOM      7  O   UNL A   1      29.319  25.356  26.536  1.00  0.00    -0.269 OA
ATOM      8  H   UNL A   1      30.713  27.100  27.451  1.00  0.00     0.163 HD
BRANCH   6   9
ATOM      9  C   UNL A   1      31.138  24.506  25.334  1.00  0.00     0.043 A 
ATOM     10  C   UNL A   1      31.726  22.233  24.780  1.00  0.00     0.044 A 
ATOM     11  C   UNL A   1      32.280  22.652  23.570  1.00  0.00     0.052 A 
ATOM     12  C   UNL A   1      31.013  23.133  25.580  1.00  0.00     0.040 A 
ATOM     13  C   UNL A   1      32.381  24.008  23.306  1.00  0.00     0.044 A 
ATOM     14  C   UNL A   1      31.945  24.907  24.271  1.00  0.00     0.040 A 
BRANCH  10  15
ATOM     15  N   UNL A   1      32.013  20.970  25.316  1.00  0.00    -0.322 N 
ATOM     16  C   UNL A   1      33.243  20.440  25.678  1.00  0.00     0.255 C 
ATOM     17  O   UNL A   1      33.290  19.263  26.044  1.00  0.00    -0.269 OA
ATOM     18  H   UNL A   1      31.238  20.380  25.455  1.00  0.00     0.170 HD
BRANCH  16  19
ATOM     19  C   UNL A   1      34.522  21.230  25.673  1.00  0.00     0.043 A 
ATOM     20  C   UNL A   1      34.028  22.824  27.658  1.00  0.00     0.045 C 
ATOM     21  C   UNL A   1      34.832  22.347  26.480  1.00  0.00    -0.038 A 
ATOM     22  C   UNL A   1      36.030  23.053  26.240  1.00  0.00     0.004 A 
ATOM     23  C   UNL A   1      36.975  22.584  25.332  1.00  0.00     0.000 A 
ATOM     24  C   UNL A   1      35.512  20.743  24.798  1.00  0.00     0.014 A 
ATOM     25  C   UNL A   1      36.737  21.401  24.646  1.00  0.00     0.001 A 
ENDBRANCH  16  19
ENDBRANCH  10  15
BRANCH  13  26
ATOM     26  N   UNL A   1      32.955  24.568  22.158  1.00  0.00    -0.322 N 
ATOM     27  C   UNL A   1      32.777  25.786  21.551  1.00  0.00     0.255 C 
ATOM     28  H   UNL A   1      33.605  23.983  21.705  1.00  0.00     0.170 HD
ATOM     29  O   UNL A   1      33.261  25.979  20.437  1.00  0.00    -0.269 OA
BRANCH  27  30
ATOM     30  C   UNL A   1      32.037  26.883  22.215  1.00  0.00     0.043 A 
ATOM     31  C   UNL A   1      30.644  26.720  22.263  1.00  0.00     0.014 A 
ATOM     32  C   UNL A   1      32.638  28.036  22.760  1.00  0.00    -0.038 A 
ATOM     33  C   UNL A   1      29.848  27.653  22.919  1.00  0.00     0.001 A 
ATOM     34  C   UNL A   1      31.819  28.945  23.453  1.00  0.00     0.004 A 
ATOM     35  C   UNL A   1      34.105  28.359  22.661  1.00  0.00     0.045 C 
ATOM     36  C   UNL A   1      30.438  28.752  23.535  1.00  0.00     0.000 A 
ENDBRANCH  27  30
ENDBRANCH  13  26
ENDBRANCH   6   9
ENDBRANCH   4   5
ENDBRANCH   3   4
ENDBRANCH   2   3
ENDBRANCH   1   2
BRANCH   1  37
ATOM     37  C   UNL A   1      34.555  30.740  27.540  1.00  0.00     0.021 C 
BRANCH  37  38
ATOM     38  C   UNL A   1      34.959  31.079  28.971  1.00  0.00     0.116 C 
BRANCH  38  39
ATOM     39  N   UNL A   1      36.187  31.857  29.139  1.00  0.00    -0.352 N 
ATOM     40  C   UNL A   1      37.507  31.412  29.193  1.00  0.00     0.251 C 
ATOM     41  H   UNL A   1      36.063  32.830  29.228  1.00  0.00     0.163 HD
ATOM     42  O   UNL A   1      38.443  32.187  29.353  1.00  0.00    -0.269 OA
BRANCH  40  43
ATOM     43  C   UNL A   1      37.802  29.988  28.876  1.00  0.00     0.039 A 
ATOM     44  C   UNL A   1      37.983  29.132  29.971  1.00  0.00     0.014 A 
ATOM     45  C   UNL A   1      38.319  29.652  27.635  1.00  0.00     0.014 A 
ATOM     46  C   UNL A   1      39.001  28.190  29.918  1.00  0.00     0.010 A 
ATOM     47  C   UNL A   1      39.424  28.834  27.617  1.00  0.00     0.010 A 
ATOM     48  C   UNL A   1      39.809  28.177  28.785  1.00  0.00    -0.014 A 
BRANCH  48  49
ATOM     49  C   UNL A   1      41.088  27.498  28.722  1.00  0.00     0.031 A 
ATOM     50  C   UNL A   1      41.054  26.048  28.486  1.00  0.00     0.074 A 
ATOM     51  C   UNL A   1      42.241  28.185  28.871  1.00  0.00     0.049 A 
ATOM     52  N   UNL A   1      41.853  25.206  29.035  1.00  0.00    -0.248 NA
ATOM     53  C   UNL A   1      40.025  25.417  27.662  1.00  0.00     0.031 C 
ATOM     54  C   UNL A   1      43.603  27.705  28.659  1.00  0.00     0.029 A 
ATOM     55  N   UNL A   1      42.435  29.456  29.384  1.00  0.00    -0.354 N 
ATOM     56  C   UNL A   1      41.653  23.996  28.408  1.00  0.00     0.074 A 
ATOM     57  C   UNL A   1      40.428  24.144  27.663  1.00  0.00     0.031 C 
ATOM     58  C   UNL A   1      44.466  28.554  29.253  1.00  0.00     0.029 A 
ATOM     59  C   UNL A   1      43.687  29.532  29.997  1.00  0.00     0.049 A 
ATOM     60  H   UNL A   1      41.786  30.194  29.325  1.00  0.00     0.167 HD
ATOM     61  C   UNL A   1      42.647  23.067  28.433  1.00  0.00     0.034 A 
ATOM     62  C   UNL A   1      43.806  29.752  31.343  1.00  0.00     0.034 A 
ATOM     63  C   UNL A   1      43.803  23.587  29.157  1.00  0.00     0.049 A 
ATOM     64  C   UNL A   1      44.309  28.526  32.090  1.00  0.00     0.074 A 
ATOM     65  C   UNL A   1      44.948  24.231  28.717  1.00  0.00     0.029 A 
ATOM     66  N   UNL A   1      43.710  23.836  30.520  1.00  0.00    -0.354 N 
ATOM     67  N   UNL A   1      44.344  27.318  31.595  1.00  0.00    -0.248 NA
ATOM     68  C   UNL A   1      44.794  28.580  33.463  1.00  0.00     0.031 C 
ATOM     69  C   UNL A   1      45.505  24.929  29.818  1.00  0.00     0.029 A 
ATOM     70  C   UNL A   1      44.726  24.676  30.935  1.00  0.00     0.049 A 
ATOM     71  H   UNL A   1      43.013  23.466  31.109  1.00  0.00     0.167 HD
ATOM     72  C   UNL A   1      44.789  26.437  32.550  1.00  0.00     0.074 A 
ATOM     73  C   UNL A   1      45.107  27.292  33.683  1.00  0.00     0.031 C 
ATOM     74  C   UNL A   1      44.831  25.084  32.331  1.00  0.00     0.034 A 
BRANCH  61  75
ATOM     75  C   UNL A   1      42.717  21.879  27.505  1.00  0.00     0.023 A 
ATOM     76  C   UNL A   1      43.773  21.822  26.575  1.00  0.00     0.031 A 
ATOM     77  C   UNL A   1      41.798  20.814  27.446  1.00  0.00     0.131 A 
ATOM     78  C   UNL A   1      43.841  20.820  25.594  1.00  0.00     0.055 A 
ATOM     79  C   UNL A   1      41.841  19.832  26.444  1.00  0.00     0.041 A 
ATOM     80  F   UNL A   1      40.847  20.652  28.377  1.00  0.00    -0.206 F 
ATOM     81  C   UNL A   1      42.861  19.837  25.502  1.00  0.00     0.022 A 
BRANCH  78  82
ATOM     82  S   UNL A   1      45.237  20.834  24.440  1.00  0.00     0.124 S 
ATOM     83  O   UNL A   1      45.309  22.242  24.063  1.00  0.00    -0.237 OA
ATOM     84  O   UNL A   1      46.328  20.331  25.269  1.00  0.00    -0.237 OA
ATOM     85  O   UNL A   1      44.806  19.930  23.375  1.00  0.00    -0.744 OA
ENDBRANCH  78  82
ENDBRANCH  61  75
BRANCH  62  86
ATOM     86  C   UNL A   1      42.753  30.672  31.872  1.00  0.00     0.023 A 
ATOM     87  C   UNL A   1      41.596  30.104  32.446  1.00  0.00     0.031 A 
ATOM     88  C   UNL A   1      43.108  31.975  32.249  1.00  0.00     0.131 A 
ATOM     89  C   UNL A   1      40.965  30.750  33.520  1.00  0.00     0.055 A 
ATOM     90  C   UNL A   1      42.479  32.605  33.323  1.00  0.00     0.041 A 
ATOM     91  F   UNL A   1      44.164  32.588  31.693  1.00  0.00    -0.206 F 
ATOM     92  C   UNL A   1      41.457  31.960  34.013  1.00  0.00     0.022 A 
BRANCH  89  93
ATOM     93  S   UNL A   1      39.611  29.935  34.410  1.00  0.00     0.124 S 
ATOM     94  O   UNL A   1      40.212  29.676  35.712  1.00  0.00    -0.237 OA
ATOM     95  O   UNL A   1      38.555  30.942  34.395  1.00  0.00    -0.237 OA
ATOM     96  O   UNL A   1      39.347  28.754  33.591  1.00  0.00    -0.744 OA
ENDBRANCH  89  93
ENDBRANCH  62  86
BRANCH  74  97
ATOM     97  C   UNL A   1      45.075  24.022  33.391  1.00  0.00     0.023 A 
ATOM     98  C   UNL A   1      46.357  23.631  33.788  1.00  0.00     0.031 A 
ATOM     99  C   UNL A   1      44.015  23.374  34.074  1.00  0.00     0.131 A 
ATOM    100  C   UNL A   1      46.559  22.557  34.670  1.00  0.00     0.055 A 
ATOM    101  C   UNL A   1      44.217  22.386  35.045  1.00  0.00     0.041 A 
ATOM    102  F   UNL A   1      42.728  23.668  33.841  1.00  0.00    -0.206 F 
ATOM    103  C   UNL A   1      45.498  21.944  35.323  1.00  0.00     0.022 A 
BRANCH 100 104
ATOM    104  S   UNL A   1      48.243  21.915  34.825  1.00  0.00     0.124 S 
ATOM    105  O   UNL A   1      48.157  20.669  34.067  1.00  0.00    -0.237 OA
ATOM    106  O   UNL A   1      49.040  22.973  34.210  1.00  0.00    -0.237 OA
ATOM    107  O   UNL A   1      48.420  21.757  36.266  1.00  0.00    -0.744 OA
ENDBRANCH 100 104
ENDBRANCH  74  97
ENDBRANCH  48  49
ENDBRANCH  40  43
ENDBRANCH  38  39
ENDBRANCH  37  38
ENDBRANCH   1  37
TORSDOF 20
ENDMDL
MODEL 2
REMARK VINA RESULT:     -13.1      2.340      3.554
REMARK SMILES Cc1ccccc1C(=O)Nc1cc(NC(=O)c2ccccc2C)cc(C(=O)NCCCCCCNC(=O)c2ccc(-c3c4nc(c(-c5cc(S(=O)(=O)[O-])ccc5F)c5ccc([nH]5)c(-c5cc(S(=O)(=O)[O-])ccc5F)c5nc(c(-c6cc(S(=O)(=O)[O-])ccc6F)c6ccc3[nH]6)C=C5)C=C4)cc2)c1
REMARK SMILES IDX 32 1 31 2 30 3 29 4 28 5 26 6 27 7 25 9 11 10 12 11 101 12
REMARK SMILES IDX 13 13 24 14 10 15 8 16 9 17 7 19 1 20 2 21 3 22 4 23 6 24
REMARK SMILES IDX 5 25 14 26 15 27 16 29 17 30 18 31 22 32 19 33 21 34 23 35
REMARK SMILES IDX 20 36 33 37 34 38 35 39 36 40 37 42 38 43 39 44 100 45 40 46
REMARK SMILES IDX 99 47 41 48 42 49 43 50 93 51 44 52 98 53 92 54 94 55 45 56
REMARK SMILES IDX 97 57 91 58 90 59 46 61 78 62 58 63 77 64 59 65 62 66 76 67
REMARK SMILES IDX 95 68 60 69 61 70 75 72 96 73 63 74 47 75 48 76 56 77 49 78
REMARK SMILES IDX 55 79 57 80 54 81 50 82 51 83 52 84 53 85 79 86 80 87 88 88
REMARK SMILES IDX 81 89 87 90 89 91 86 92 82 93 83 94 84 95 85 96 64 97 65 98
REMARK SMILES IDX 73 99 66 100 72 101 74 102 71 103 67 104 68 105 69 106
REMARK SMILES IDX 70 107
REMARK H PARENT 28 8 10 18 14 28 35 41 94 60 62 71
REMARK Flexibility Score: inf
ROOT
ATOM      1  C   UNL A   1      34.179  29.853  26.957  1.00  0.00     0.002 C 
ENDROOT
BRANCH   1   2
ATOM      2  C   UNL A   1      33.174  28.710  27.152  1.00  0.00     0.002 C 
BRANCH   2   3
ATOM      3  C   UNL A   1      33.371  27.454  26.314  1.00  0.00     0.021 C 
BRANCH   3   4
ATOM      4  C   UNL A   1      32.755  26.188  26.878  1.00  0.00     0.116 C 
BRANCH   4   5
ATOM      5  N   UNL A   1      31.308  26.078  26.823  1.00  0.00    -0.352 N 
ATOM      6  C   UNL A   1      30.508  25.251  26.053  1.00  0.00     0.251 C 
ATOM      7  O   UNL A   1      29.293  25.303  26.170  1.00  0.00    -0.269 OA
ATOM      8  H   UNL A   1      30.822  26.685  27.425  1.00  0.00     0.163 HD
BRANCH   6   9
ATOM      9  C   UNL A   1      31.088  24.293  25.060  1.00  0.00     0.043 A 
ATOM     10  C   UNL A   1      31.653  22.029  24.447  1.00  0.00     0.044 A 
ATOM     11  C   UNL A   1      32.139  22.463  23.214  1.00  0.00     0.052 A 
ATOM     12  C   UNL A   1      30.982  22.916  25.296  1.00  0.00     0.040 A 
ATOM     13  C   UNL A   1      32.220  23.823  22.961  1.00  0.00     0.044 A 
ATOM     14  C   UNL A   1      31.834  24.709  23.959  1.00  0.00     0.040 A 
BRANCH  10  15
ATOM     15  N   UNL A   1      31.974  20.761  24.952  1.00  0.00    -0.322 N 
ATOM     16  C   UNL A   1      33.192  20.299  25.430  1.00  0.00     0.255 C 
ATOM     17  O   UNL A   1      33.287  19.110  25.742  1.00  0.00    -0.269 OA
ATOM     18  H   UNL A   1      31.236  20.111  24.971  1.00  0.00     0.170 HD
BRANCH  16  19
ATOM     19  C   UNL A   1      34.399  21.177  25.613  1.00  0.00     0.043 A 
ATOM     20  C   UNL A   1      33.611  22.534  27.678  1.00  0.00     0.045 C 
ATOM     21  C   UNL A   1      34.548  22.232  26.541  1.00  0.00    -0.038 A 
ATOM     22  C   UNL A   1      35.701  23.042  26.476  1.00  0.00     0.004 A 
ATOM     23  C   UNL A   1      36.755  22.731  25.621  1.00  0.00     0.000 A 
ATOM     24  C   UNL A   1      35.496  20.849  24.793  1.00  0.00     0.014 A 
ATOM     25  C   UNL A   1      36.672  21.605  24.813  1.00  0.00     0.001 A 
ENDBRANCH  16  19
ENDBRANCH  10  15
BRANCH  13  26
ATOM     26  N   UNL A   1      32.729  24.399  21.789  1.00  0.00    -0.322 N 
ATOM     27  C   UNL A   1      32.594  25.657  21.260  1.00  0.00     0.255 C 
ATOM     28  H   UNL A   1      33.284  23.791  21.249  1.00  0.00     0.170 HD
ATOM     29  O   UNL A   1      32.986  25.873  20.115  1.00  0.00    -0.269 OA
BRANCH  27  30
ATOM     30  C   UNL A   1      32.011  26.771  22.043  1.00  0.00     0.043 A 
ATOM     31  C   UNL A   1      30.615  26.733  22.184  1.00  0.00     0.014 A 
ATOM     32  C   UNL A   1      32.757  27.824  22.611  1.00  0.00    -0.038 A 
ATOM     33  C   UNL A   1      29.959  27.689  22.953  1.00  0.00     0.001 A 
ATOM     34  C   UNL A   1      32.079  28.755  23.417  1.00  0.00     0.004 A 
ATOM     35  C   UNL A   1      34.238  28.016  22.423  1.00  0.00     0.045 C 
ATOM     36  C   UNL A   1      30.695  28.685  23.589  1.00  0.00     0.000 A 
ENDBRANCH  27  30
ENDBRANCH  13  26
ENDBRANCH   6   9
ENDBRANCH   4   5
ENDBRANCH   3   4
ENDBRANCH   2   3
ENDBRANCH   1   2
BRANCH   1  37
ATOM     37  C   UNL A   1      35.545  29.706  27.618  1.00  0.00     0.021 C 
BRANCH  37  38
ATOM     38  C   UNL A   1      35.796  30.546  28.866  1.00  0.00     0.116 C 
BRANCH  38  39
ATOM     39  N   UNL A   1      34.785  31.552  29.194  1.00  0.00    -0.352 N 
ATOM     40  C   UNL A   1      34.897  32.673  30.015  1.00  0.00     0.251 C 
ATOM     41  H   UNL A   1      33.902  31.418  28.777  1.00  0.00     0.163 HD
ATOM     42  O   UNL A   1      33.951  33.428  30.209  1.00  0.00    -0.269 OA
BRANCH  40  43
ATOM     43  C   UNL A   1      36.239  33.059  30.530  1.00  0.00     0.039 A 
ATOM     44  C   UNL A   1      37.104  33.672  29.614  1.00  0.00     0.014 A 
ATOM     45  C   UNL A   1      36.745  32.440  31.662  1.00  0.00     0.014 A 
ATOM     46  C   UNL A   1      38.444  33.308  29.617  1.00  0.00     0.010 A 
ATOM     47  C   UNL A   1      38.029  31.954  31.588  1.00  0.00     0.010 A 
ATOM     48  C   UNL A   1      38.841  32.322  30.515  1.00  0.00    -0.014 A 
BRANCH  48  49
ATOM     49  C   UNL A   1      40.100  31.611  30.417  1.00  0.00     0.031 A 
ATOM     50  C   UNL A   1      40.076  30.322  29.713  1.00  0.00     0.074 A 
ATOM     51  C   UNL A   1      41.227  32.129  30.952  1.00  0.00     0.049 A 
ATOM     52  N   UNL A   1      40.760  29.293  30.063  1.00  0.00    -0.248 NA
ATOM     53  C   UNL A   1      39.181  30.066  28.587  1.00  0.00     0.031 C 
ATOM     54  C   UNL A   1      42.596  31.647  30.794  1.00  0.00     0.029 A 
ATOM     55  N   UNL A   1      41.361  33.148  31.878  1.00  0.00    -0.354 N 
ATOM     56  C   UNL A   1      40.640  28.368  29.050  1.00  0.00     0.074 A 
ATOM     57  C   UNL A   1      39.554  28.836  28.226  1.00  0.00     0.031 C 
ATOM     58  C   UNL A   1      43.369  32.194  31.754  1.00  0.00     0.029 A 
ATOM     59  C   UNL A   1      42.499  32.932  32.657  1.00  0.00     0.049 A 
ATOM     60  H   UNL A   1      40.745  33.910  31.973  1.00  0.00     0.167 HD
ATOM     61  C   UNL A   1      41.598  27.412  28.910  1.00  0.00     0.034 A 
ATOM     62  C   UNL A   1      42.404  32.696  34.003  1.00  0.00     0.034 A 
ATOM     63  C   UNL A   1      42.633  27.586  29.926  1.00  0.00     0.049 A 
ATOM     64  C   UNL A   1      42.756  31.262  34.367  1.00  0.00     0.074 A 
ATOM     65  C   UNL A   1      43.846  28.254  29.895  1.00  0.00     0.029 A 
ATOM     66  N   UNL A   1      42.326  27.387  31.266  1.00  0.00    -0.354 N 
ATOM     67  N   UNL A   1      42.847  30.279  33.511  1.00  0.00    -0.248 NA
ATOM     68  C   UNL A   1      43.015  30.834  35.736  1.00  0.00     0.031 C 
ATOM     69  C   UNL A   1      44.232  28.516  31.234  1.00  0.00     0.029 A 
ATOM     70  C   UNL A   1      43.279  27.972  32.078  1.00  0.00     0.049 A 
ATOM     71  H   UNL A   1      41.537  26.897  31.591  1.00  0.00     0.167 HD
ATOM     72  C   UNL A   1      43.115  29.108  34.175  1.00  0.00     0.074 A 
ATOM     73  C   UNL A   1      43.263  29.525  35.561  1.00  0.00     0.031 C 
ATOM     74  C   UNL A   1      43.165  27.898  33.530  1.00  0.00     0.034 A 
BRANCH  61  75
ATOM     75  C   UNL A   1      41.794  26.586  27.662  1.00  0.00     0.023 A 
ATOM     76  C   UNL A   1      41.565  25.198  27.740  1.00  0.00     0.031 A 
ATOM     77  C   UNL A   1      42.223  27.061  26.409  1.00  0.00     0.131 A 
ATOM     78  C   UNL A   1      41.845  24.342  26.664  1.00  0.00     0.055 A 
ATOM     79  C   UNL A   1      42.540  26.205  25.343  1.00  0.00     0.041 A 
ATOM     80  F   UNL A   1      42.313  28.373  26.146  1.00  0.00    -0.206 F 
ATOM     81  C   UNL A   1      42.362  24.834  25.470  1.00  0.00     0.022 A 
BRANCH  78  82
ATOM     82  S   UNL A   1      41.522  22.571  26.863  1.00  0.00     0.124 S 
ATOM     83  O   UNL A   1      40.081  22.546  27.094  1.00  0.00    -0.237 OA
ATOM     84  O   UNL A   1      41.980  22.028  25.588  1.00  0.00    -0.237 OA
ATOM     85  O   UNL A   1      42.340  22.205  28.017  1.00  0.00    -0.744 OA
ENDBRANCH  78  82
ENDBRANCH  61  75
BRANCH  62  86
ATOM     86  C   UNL A   1      41.298  33.469  34.647  1.00  0.00     0.023 A 
ATOM     87  C   UNL A   1      40.066  32.816  34.865  1.00  0.00     0.031 A 
ATOM     88  C   UNL A   1      41.612  34.577  35.447  1.00  0.00     0.131 A 
ATOM     89  C   UNL A   1      39.299  33.141  35.994  1.00  0.00     0.055 A 
ATOM     90  C   UNL A   1      40.846  34.886  36.571  1.00  0.00     0.041 A 
ATOM     91  F   UNL A   1      42.741  35.271  35.247  1.00  0.00    -0.206 F 
ATOM     92  C   UNL A   1      39.731  34.118  36.892  1.00  0.00     0.022 A 
BRANCH  89  93
ATOM     93  S   UNL A   1      37.825  32.169  36.409  1.00  0.00     0.124 S 
ATOM     94  O   UNL A   1      37.073  32.204  35.163  1.00  0.00    -0.237 OA
ATOM     95  O   UNL A   1      38.380  30.869  36.772  1.00  0.00    -0.237 OA
ATOM     96  O   UNL A   1      37.243  32.919  37.521  1.00  0.00    -0.744 OA
ENDBRANCH  89  93
ENDBRANCH  62  86
BRANCH  74  97
ATOM     97  C   UNL A   1      43.215  26.537  34.204  1.00  0.00     0.023 A 
ATOM     98  C   UNL A   1      44.386  25.780  34.294  1.00  0.00     0.031 A 
ATOM     99  C   UNL A   1      42.077  25.950  34.814  1.00  0.00     0.131 A 
ATOM    100  C   UNL A   1      44.380  24.471  34.800  1.00  0.00     0.055 A 
ATOM    101  C   UNL A   1      42.098  24.693  35.429  1.00  0.00     0.041 A 
ATOM    102  F   UNL A   1      40.887  26.567  34.852  1.00  0.00    -0.206 F 
ATOM    103  C   UNL A   1      43.248  23.926  35.392  1.00  0.00     0.022 A 
BRANCH 100 104
ATOM    104  S   UNL A   1      45.864  23.470  34.536  1.00  0.00     0.124 S 
ATOM    105  O   UNL A   1      46.194  23.062  35.899  1.00  0.00    -0.237 OA
ATOM    106  O   UNL A   1      45.374  22.409  33.661  1.00  0.00    -0.237 OA
ATOM    107  O   UNL A   1      46.804  24.404  33.921  1.00  0.00    -0.744 OA
ENDBRANCH 100 104
ENDBRANCH  74  97
ENDBRANCH  48  49
ENDBRANCH  40  43
ENDBRANCH  38  39
ENDBRANCH  37  38
ENDBRANCH   1  37
TORSDOF 20
ENDMDL
MODEL 3
REMARK VINA RESULT:     -12.2      4.039      9.254
REMARK SMILES Cc1ccccc1C(=O)Nc1cc(NC(=O)c2ccccc2C)cc(C(=O)NCCCCCCNC(=O)c2ccc(-c3c4nc(c(-c5cc(S(=O)(=O)[O-])ccc5F)c5ccc([nH]5)c(-c5cc(S(=O)(=O)[O-])ccc5F)c5nc(c(-c6cc(S(=O)(=O)[O-])ccc6F)c6ccc3[nH]6)C=C5)C=C4)cc2)c1
REMARK SMILES IDX 32 1 31 2 30 3 29 4 28 5 26 6 27 7 25 9 11 10 12 11 101 12
REMARK SMILES IDX 13 13 24 14 10 15 8 16 9 17 7 19 1 20 2 21 3 22 4 23 6 24
REMARK SMILES IDX 5 25 14 26 15 27 16 29 17 30 18 31 22 32 19 33 21 34 23 35
REMARK SMILES IDX 20 36 33 37 34 38 35 39 36 40 37 42 38 43 39 44 100 45 40 46
REMARK SMILES IDX 99 47 41 48 42 49 43 50 93 51 44 52 98 53 92 54 94 55 45 56
REMARK SMILES IDX 97 57 91 58 90 59 46 61 78 62 58 63 77 64 59 65 62 66 76 67
REMARK SMILES IDX 95 68 60 69 61 70 75 72 96 73 63 74 47 75 48 76 56 77 49 78
REMARK SMILES IDX 55 79 57 80 54 81 50 82 51 83 52 84 53 85 79 86 80 87 88 88
REMARK SMILES IDX 81 89 87 90 89 91 86 92 82 93 83 94 84 95 85 96 64 97 65 98
REMARK SMILES IDX 73 99 66 100 72 101 74 102 71 103 67 104 68 105 69 106
REMARK SMILES IDX 70 107
REMARK H PARENT 28 8 10 18 14 28 35 41 94 60 62 71
REMARK Flexibility Score: inf
ROOT
ATOM      1  C   UNL A   1      40.163  21.190  26.264  1.00  0.00     0.002 C 
ENDROOT
BRANCH   1   2
ATOM      2  C   UNL A   1      38.737  21.701  26.019  1.00  0.00     0.002 C 
BRANCH   2   3
ATOM      3  C   UNL A   1      38.439  23.149  26.382  1.00  0.00     0.021 C 
BRANCH   3   4
ATOM      4  C   UNL A   1      37.344  23.816  25.572  1.00  0.00     0.116 C 
BRANCH   4   5
ATOM      5  N   UNL A   1      37.258  23.463  24.166  1.00  0.00    -0.352 N 
ATOM      6  C   UNL A   1      36.178  23.013  23.426  1.00  0.00     0.251 C 
ATOM      7  O   UNL A   1      36.312  22.785  22.233  1.00  0.00    -0.269 OA
ATOM      8  H   UNL A   1      38.098  23.557  23.661  1.00  0.00     0.163 HD
BRANCH   6   9
ATOM      9  C   UNL A   1      34.836  22.782  24.049  1.00  0.00     0.043 A 
ATOM     10  C   UNL A   1      33.454  21.562  25.605  1.00  0.00     0.044 A 
ATOM     11  C   UNL A   1      32.348  22.338  25.260  1.00  0.00     0.052 A 
ATOM     12  C   UNL A   1      34.727  21.891  25.124  1.00  0.00     0.040 A 
ATOM     13  C   UNL A   1      32.456  23.244  24.217  1.00  0.00     0.044 A 
ATOM     14  C   UNL A   1      33.662  23.329  23.534  1.00  0.00     0.040 A 
BRANCH  10  15
ATOM     15  N   UNL A   1      33.309  20.344  26.283  1.00  0.00    -0.322 N 
ATOM     16  C   UNL A   1      32.954  19.103  25.773  1.00  0.00     0.255 C 
ATOM     17  O   UNL A   1      32.787  18.170  26.561  1.00  0.00    -0.269 OA
ATOM     18  H   UNL A   1      33.482  20.371  27.251  1.00  0.00     0.170 HD
BRANCH  16  19
ATOM     19  C   UNL A   1      32.786  18.827  24.304  1.00  0.00     0.043 A 
ATOM     20  C   UNL A   1      33.583  16.359  24.258  1.00  0.00     0.045 C 
ATOM     21  C   UNL A   1      33.155  17.650  23.615  1.00  0.00    -0.038 A 
ATOM     22  C   UNL A   1      33.052  17.620  22.209  1.00  0.00     0.004 A 
ATOM     23  C   UNL A   1      32.457  18.664  21.506  1.00  0.00     0.000 A 
ATOM     24  C   UNL A   1      32.140  19.848  23.582  1.00  0.00     0.014 A 
ATOM     25  C   UNL A   1      31.957  19.757  22.199  1.00  0.00     0.001 A 
ENDBRANCH  16  19
ENDBRANCH  10  15
BRANCH  13  26
ATOM     26  N   UNL A   1      31.417  24.050  23.735  1.00  0.00    -0.322 N 
ATOM     27  C   UNL A   1      31.123  25.375  23.939  1.00  0.00     0.255 C 
ATOM     28  H   UNL A   1      30.785  23.583  23.143  1.00  0.00     0.170 HD
ATOM     29  O   UNL A   1      30.042  25.816  23.553  1.00  0.00    -0.269 OA
BRANCH  27  30
ATOM     30  C   UNL A   1      32.085  26.292  24.591  1.00  0.00     0.043 A 
ATOM     31  C   UNL A   1      31.881  26.493  25.965  1.00  0.00     0.014 A 
ATOM     32  C   UNL A   1      33.135  26.955  23.922  1.00  0.00    -0.038 A 
ATOM     33  C   UNL A   1      32.760  27.282  26.699  1.00  0.00     0.001 A 
ATOM     34  C   UNL A   1      34.034  27.715  24.691  1.00  0.00     0.004 A 
ATOM     35  C   UNL A   1      33.368  26.897  22.436  1.00  0.00     0.045 C 
ATOM     36  C   UNL A   1      33.850  27.873  26.066  1.00  0.00     0.000 A 
ENDBRANCH  27  30
ENDBRANCH  13  26
ENDBRANCH   6   9
ENDBRANCH   4   5
ENDBRANCH   3   4
ENDBRANCH   2   3
ENDBRANCH   1   2
BRANCH   1  37
ATOM     37  C   UNL A   1      41.110  22.100  27.040  1.00  0.00     0.021 C 
BRANCH  37  38
ATOM     38  C   UNL A   1      42.108  22.909  26.218  1.00  0.00     0.116 C 
BRANCH  38  39
ATOM     39  N   UNL A   1      42.809  22.195  25.151  1.00  0.00    -0.352 N 
ATOM     40  C   UNL A   1      44.104  22.387  24.670  1.00  0.00     0.251 C 
ATOM     41  H   UNL A   1      42.295  21.479  24.709  1.00  0.00     0.163 HD
ATOM     42  O   UNL A   1      44.558  21.714  23.751  1.00  0.00    -0.269 OA
BRANCH  40  43
ATOM     43  C   UNL A   1      45.016  23.310  25.401  1.00  0.00     0.039 A 
ATOM     44  C   UNL A   1      45.298  22.979  26.732  1.00  0.00     0.014 A 
ATOM     45  C   UNL A   1      45.178  24.611  24.955  1.00  0.00     0.014 A 
ATOM     46  C   UNL A   1      45.332  23.995  27.678  1.00  0.00     0.010 A 
ATOM     47  C   UNL A   1      45.058  25.613  25.889  1.00  0.00     0.010 A 
ATOM     48  C   UNL A   1      45.046  25.287  27.245  1.00  0.00    -0.014 A 
BRANCH  48  49
ATOM     49  C   UNL A   1      44.720  26.377  28.142  1.00  0.00     0.031 A 
ATOM     50  C   UNL A   1      43.326  26.840  28.139  1.00  0.00     0.074 A 
ATOM     51  C   UNL A   1      45.668  26.924  28.935  1.00  0.00     0.049 A 
ATOM     52  N   UNL A   1      42.970  28.068  28.253  1.00  0.00    -0.248 NA
ATOM     53  C   UNL A   1      42.205  25.932  27.904  1.00  0.00     0.031 C 
ATOM     54  C   UNL A   1      45.483  27.891  30.013  1.00  0.00     0.029 A 
ATOM     55  N   UNL A   1      47.044  26.816  28.846  1.00  0.00    -0.354 N 
ATOM     56  C   UNL A   1      41.603  28.076  28.423  1.00  0.00     0.074 A 
ATOM     57  C   UNL A   1      41.163  26.750  28.070  1.00  0.00     0.031 C 
ATOM     58  C   UNL A   1      46.673  28.453  30.307  1.00  0.00     0.029 A 
ATOM     59  C   UNL A   1      47.642  27.980  29.331  1.00  0.00     0.049 A 
ATOM     60  H   UNL A   1      47.528  26.035  28.492  1.00  0.00     0.167 HD
ATOM     61  C   UNL A   1      41.018  29.144  29.030  1.00  0.00     0.034 A 
ATOM     62  C   UNL A   1      48.375  28.796  28.511  1.00  0.00     0.034 A 
ATOM     63  C   UNL A   1      42.033  30.122  29.412  1.00  0.00     0.049 A 
ATOM     64  C   UNL A   1      47.679  30.121  28.239  1.00  0.00     0.074 A 
ATOM     65  C   UNL A   1      42.717  30.316  30.601  1.00  0.00     0.029 A 
ATOM     66  N   UNL A   1      42.746  30.798  28.432  1.00  0.00    -0.354 N 
ATOM     67  N   UNL A   1      46.419  30.363  28.487  1.00  0.00    -0.248 NA
ATOM     68  C   UNL A   1      48.360  31.267  27.648  1.00  0.00     0.031 C 
ATOM     69  C   UNL A   1      43.889  31.060  30.312  1.00  0.00     0.029 A 
ATOM     70  C   UNL A   1      43.897  31.353  28.958  1.00  0.00     0.049 A 
ATOM     71  H   UNL A   1      42.470  30.870  27.489  1.00  0.00     0.167 HD
ATOM     72  C   UNL A   1      46.097  31.629  28.064  1.00  0.00     0.074 A 
ATOM     73  C   UNL A   1      47.364  32.167  27.596  1.00  0.00     0.031 C 
ATOM     74  C   UNL A   1      44.813  32.110  28.112  1.00  0.00     0.034 A 
BRANCH  61  75
ATOM     75  C   UNL A   1      39.622  29.132  29.603  1.00  0.00     0.023 A 
ATOM     76  C   UNL A   1      38.692  30.067  29.110  1.00  0.00     0.031 A 
ATOM     77  C   UNL A   1      39.150  28.287  30.625  1.00  0.00     0.131 A 
ATOM     78  C   UNL A   1      37.415  30.207  29.676  1.00  0.00     0.055 A 
ATOM     79  C   UNL A   1      37.889  28.449  31.219  1.00  0.00     0.041 A 
ATOM     80  F   UNL A   1      39.869  27.244  31.066  1.00  0.00    -0.206 F 
ATOM     81  C   UNL A   1      37.015  29.422  30.751  1.00  0.00     0.022 A 
BRANCH  78  82
ATOM     82  S   UNL A   1      36.291  31.443  28.974  1.00  0.00     0.124 S 
ATOM     83  O   UNL A   1      35.555  30.662  27.986  1.00  0.00    -0.237 OA
ATOM     84  O   UNL A   1      35.537  31.875  30.147  1.00  0.00    -0.237 OA
ATOM     85  O   UNL A   1      37.195  32.448  28.419  1.00  0.00    -0.744 OA
ENDBRANCH  78  82
ENDBRANCH  61  75
BRANCH  62  86
ATOM     86  C   UNL A   1      49.146  28.037  27.480  1.00  0.00     0.023 A 
ATOM     87  C   UNL A   1      48.491  27.685  26.281  1.00  0.00     0.031 A 
ATOM     88  C   UNL A   1      50.545  28.122  27.471  1.00  0.00     0.131 A 
ATOM     89  C   UNL A   1      49.215  27.646  25.080  1.00  0.00     0.055 A 
ATOM     90  C   UNL A   1      51.255  28.090  26.270  1.00  0.00     0.041 A 
ATOM     91  F   UNL A   1      51.225  28.395  28.594  1.00  0.00    -0.206 F 
ATOM     92  C   UNL A   1      50.582  27.930  25.063  1.00  0.00     0.022 A 
BRANCH  89  93
ATOM     93  S   UNL A   1      48.357  27.409  23.501  1.00  0.00     0.124 S 
ATOM     94  O   UNL A   1      49.328  27.919  22.543  1.00  0.00    -0.237 OA
ATOM     95  O   UNL A   1      48.132  25.968  23.461  1.00  0.00    -0.237 OA
ATOM     96  O   UNL A   1      47.147  28.214  23.663  1.00  0.00    -0.744 OA
ENDBRANCH  89  93
ENDBRANCH  62  86
BRANCH  74  97
ATOM     97  C   UNL A   1      44.321  33.389  27.455  1.00  0.00     0.023 A 
ATOM     98  C   UNL A   1      44.230  34.604  28.139  1.00  0.00     0.031 A 
ATOM     99  C   UNL A   1      43.944  33.442  26.089  1.00  0.00     0.131 A 
ATOM    100  C   UNL A   1      43.648  35.738  27.551  1.00  0.00     0.055 A 
ATOM    101  C   UNL A   1      43.477  34.606  25.466  1.00  0.00     0.041 A 
ATOM    102  F   UNL A   1      44.015  32.373  25.284  1.00  0.00    -0.206 F 
ATOM    103  C   UNL A   1      43.291  35.759  26.209  1.00  0.00     0.022 A 
BRANCH 100 104
ATOM    104  S   UNL A   1      43.260  37.131  28.637  1.00  0.00     0.124 S 
ATOM    105  O   UNL A   1      44.072  38.197  28.057  1.00  0.00    -0.237 OA
ATOM    106  O   UNL A   1      41.817  37.272  28.463  1.00  0.00    -0.237 OA
ATOM    107  O   UNL A   1      43.688  36.669  29.955  1.00  0.00    -0.744 OA
ENDBRANCH 100 104
ENDBRANCH  74  97
ENDBRANCH  48  49
ENDBRANCH  40  43
ENDBRANCH  38  39
ENDBRANCH  37  38
ENDBRANCH   1  37
TORSDOF 20
ENDMDL
