MODEL 1
REMARK VINA RESULT:     -13.2      0.000      0.000
REMARK SMILES Cc1cc(S(F)(F)(F)(F)F)cc2c1O[C@H](C(F)(F)F)C(C(=O)NCCCCCCNC(=O)c1ccc(-c3c4nc(c(-c5cc(S(=O)(=O)[O-])ccc5F)c5ccc([nH]5)c(-c5cc(S(=O)(=O)[O-])ccc5F)c5nc(c(-c6cc(S(=O)(=O)[O-])ccc6F)c6ccc3[nH]6)C=C5)C=C4)cc1)=C2
REMARK SMILES IDX 27 1 26 2 25 3 24 4 23 5 21 6 22 7 20 9 1 10 2 11 3 12 13 13
REMARK SMILES IDX 4 14 12 15 14 16 11 17 96 18 15 19 5 20 6 21 7 22 8 23 9 24
REMARK SMILES IDX 10 25 16 26 17 27 18 28 19 29 28 30 29 31 30 32 31 33 32 35
REMARK SMILES IDX 33 36 34 37 95 38 35 39 94 40 36 41 37 42 38 43 88 44 39 45
REMARK SMILES IDX 93 46 87 47 89 48 40 49 92 50 86 51 85 52 41 54 73 55 53 56
REMARK SMILES IDX 72 57 54 58 57 59 71 60 90 61 55 62 56 63 70 65 91 66 58 67
REMARK SMILES IDX 42 68 43 69 51 70 44 71 50 72 52 73 49 74 45 75 46 76 47 77
REMARK SMILES IDX 48 78 74 79 75 80 83 81 76 82 82 83 84 84 81 85 77 86 78 87
REMARK SMILES IDX 79 88 80 89 59 90 60 91 68 92 61 93 67 94 69 95 66 96 62 97
REMARK SMILES IDX 63 98 64 99 65 100
REMARK H PARENT 23 8 30 34 89 53 57 64
REMARK Flexibility Score: inf
ROOT
ATOM      1  C   UNL A   1      32.568  30.367  26.751  1.00  0.00     0.002 C 
ENDROOT
BRANCH   1   2
ATOM      2  C   UNL A   1      33.970  30.356  27.336  1.00  0.00     0.002 C 
BRANCH   2   3
ATOM      3  C   UNL A   1      34.697  29.099  26.885  1.00  0.00     0.021 C 
BRANCH   3   4
ATOM      4  C   UNL A   1      33.686  27.992  26.633  1.00  0.00     0.116 C 
BRANCH   4   5
ATOM      5  N   UNL A   1      34.326  26.907  25.875  1.00  0.00    -0.352 N 
ATOM      6  C   UNL A   1      33.589  26.227  24.800  1.00  0.00     0.251 C 
ATOM      7  O   UNL A   1      34.142  25.289  24.145  1.00  0.00    -0.270 OA
ATOM      8  H   UNL A   1      35.247  26.635  26.087  1.00  0.00     0.163 HD
BRANCH   6   9
ATOM      9  C   UNL A   1      32.164  26.647  24.472  1.00  0.00     0.067 C 
ATOM     10  C   UNL A   1      27.102  26.772  23.814  1.00  0.00     0.048 C 
ATOM     11  C   UNL A   1      28.231  27.761  23.579  1.00  0.00    -0.007 A 
ATOM     12  C   UNL A   1      27.985  29.063  23.199  1.00  0.00     0.031 A 
ATOM     13  C   UNL A   1      29.535  27.372  23.880  1.00  0.00     0.130 A 
ATOM     14  C   UNL A   1      29.020  29.985  23.111  1.00  0.00     0.108 A 
ATOM     15  C   UNL A   1      30.585  28.314  23.794  1.00  0.00     0.019 A 
ATOM     16  O   UNL A   1      29.862  26.001  24.290  1.00  0.00    -0.475 OA
ATOM     17  C   UNL A   1      30.305  29.626  23.408  1.00  0.00     0.036 A 
ATOM     18  C   UNL A   1      31.944  27.878  24.116  1.00  0.00     0.025 C 
ATOM     19  C   UNL A   1      31.148  25.696  24.566  1.00  0.00     0.314 C 
BRANCH  14  20
ATOM     20  S   UNL A   1      28.664  31.683  22.596  1.00  0.00     0.310 S 
ATOM     21  F   UNL A   1      27.144  31.776  23.040  1.00  0.00    -0.094 F 
ATOM     22  F   UNL A   1      28.150  31.205  21.185  1.00  0.00    -0.094 F 
ATOM     23  F   UNL A   1      28.564  33.172  22.160  1.00  0.00    -0.094 F 
ATOM     24  F   UNL A   1      29.043  32.145  24.057  1.00  0.00    -0.094 F 
ATOM     25  F   UNL A   1      28.660  30.181  23.087  1.00  0.00    -0.094 F 
ENDBRANCH  14  20
BRANCH  19  26
ATOM     26  C   UNL A   1      31.101  25.420  26.060  1.00  0.00     0.429 C 
ATOM     27  F   UNL A   1      32.157  24.691  26.410  1.00  0.00    -0.167 F 
ATOM     28  F   UNL A   1      31.118  26.572  26.724  1.00  0.00    -0.167 F 
ATOM     29  F   UNL A   1      29.987  24.756  26.353  1.00  0.00    -0.167 F 
ENDBRANCH  19  26
ENDBRANCH   6   9
ENDBRANCH   4   5
ENDBRANCH   3   4
ENDBRANCH   2   3
ENDBRANCH   1   2
BRANCH   1  30
ATOM     30  C   UNL A   1      31.973  31.760  26.885  1.00  0.00     0.021 C 
BRANCH  30  31
ATOM     31  C   UNL A   1      33.059  32.734  27.311  1.00  0.00     0.116 C 
BRANCH  31  32
ATOM     32  N   UNL A   1      32.448  34.022  27.671  1.00  0.00    -0.352 N 
ATOM     33  C   UNL A   1      33.062  34.863  28.708  1.00  0.00     0.251 C 
ATOM     34  H   UNL A   1      31.628  34.321  27.216  1.00  0.00     0.163 HD
ATOM     35  O   UNL A   1      32.534  35.976  29.018  1.00  0.00    -0.269 OA
BRANCH  33  36
ATOM     36  C   UNL A   1      34.329  34.401  29.409  1.00  0.00     0.039 A 
ATOM     37  C   UNL A   1      34.294  33.727  30.625  1.00  0.00     0.014 A 
ATOM     38  C   UNL A   1      35.484  34.511  28.788  1.00  0.00     0.014 A 
ATOM     39  C   UNL A   1      35.332  32.798  30.863  1.00  0.00     0.010 A 
ATOM     40  C   UNL A   1      36.649  33.970  29.342  1.00  0.00     0.010 A 
ATOM     41  C   UNL A   1      36.587  33.132  30.356  1.00  0.00    -0.014 A 
BRANCH  41  42
ATOM     42  C   UNL A   1      37.852  32.541  30.956  1.00  0.00     0.031 A 
ATOM     43  C   UNL A   1      38.305  33.127  32.139  1.00  0.00     0.074 A 
ATOM     44  C   UNL A   1      38.388  31.388  30.409  1.00  0.00     0.049 A 
ATOM     45  N   UNL A   1      39.272  32.688  32.946  1.00  0.00    -0.248 NA
ATOM     46  C   UNL A   1      37.761  34.371  32.703  1.00  0.00     0.031 C 
ATOM     47  C   UNL A   1      37.930  30.784  29.221  1.00  0.00     0.029 A 
ATOM     48  N   UNL A   1      39.430  30.628  30.892  1.00  0.00    -0.354 N 
ATOM     49  C   UNL A   1      39.407  33.507  33.991  1.00  0.00     0.074 A 
ATOM     50  C   UNL A   1      38.442  34.605  33.847  1.00  0.00     0.031 C 
ATOM     51  C   UNL A   1      38.692  29.685  28.985  1.00  0.00     0.029 A 
ATOM     52  C   UNL A   1      39.640  29.581  30.022  1.00  0.00     0.049 A 
ATOM     53  H   UNL A   1      39.938  30.803  31.717  1.00  0.00     0.167 HD
ATOM     54  C   UNL A   1      40.297  33.381  35.060  1.00  0.00     0.034 A 
ATOM     55  C   UNL A   1      40.597  28.583  30.109  1.00  0.00     0.034 A 
ATOM     56  C   UNL A   1      41.225  32.358  35.169  1.00  0.00     0.049 A 
ATOM     57  C   UNL A   1      41.526  28.489  31.149  1.00  0.00     0.074 A 
ATOM     58  C   UNL A   1      42.124  32.212  36.244  1.00  0.00     0.029 A 
ATOM     59  N   UNL A   1      41.452  31.325  34.286  1.00  0.00    -0.354 N 
ATOM     60  N   UNL A   1      41.635  29.286  32.213  1.00  0.00    -0.248 NA
ATOM     61  C   UNL A   1      42.566  27.455  31.235  1.00  0.00     0.031 C 
ATOM     62  C   UNL A   1      42.888  31.111  36.007  1.00  0.00     0.029 A 
ATOM     63  C   UNL A   1      42.479  30.552  34.781  1.00  0.00     0.049 A 
ATOM     64  H   UNL A   1      40.963  31.166  33.447  1.00  0.00     0.167 HD
ATOM     65  C   UNL A   1      42.629  28.869  32.999  1.00  0.00     0.074 A 
ATOM     66  C   UNL A   1      43.248  27.689  32.377  1.00  0.00     0.031 C 
ATOM     67  C   UNL A   1      43.044  29.422  34.212  1.00  0.00     0.034 A 
BRANCH  54  68
ATOM     68  C   UNL A   1      40.243  34.422  36.166  1.00  0.00     0.023 A 
ATOM     69  C   UNL A   1      39.720  34.013  37.397  1.00  0.00     0.031 A 
ATOM     70  C   UNL A   1      40.720  35.638  36.006  1.00  0.00     0.131 A 
ATOM     71  C   UNL A   1      39.458  34.892  38.341  1.00  0.00     0.055 A 
ATOM     72  C   UNL A   1      40.686  36.510  37.093  1.00  0.00     0.041 A 
ATOM     73  F   UNL A   1      41.221  36.026  34.837  1.00  0.00    -0.206 F 
ATOM     74  C   UNL A   1      39.721  36.233  38.087  1.00  0.00     0.022 A 
BRANCH  71  75
ATOM     75  S   UNL A   1      38.769  34.367  39.931  1.00  0.00     0.124 S 
ATOM     76  O   UNL A   1      38.277  35.592  40.704  1.00  0.00    -0.237 OA
ATOM     77  O   UNL A   1      37.598  33.411  39.688  1.00  0.00    -0.237 OA
ATOM     78  O   UNL A   1      39.978  33.566  40.839  1.00  0.00    -0.744 OA
ENDBRANCH  71  75
ENDBRANCH  54  68
BRANCH  55  79
ATOM     79  C   UNL A   1      40.639  27.532  29.013  1.00  0.00     0.023 A 
ATOM     80  C   UNL A   1      41.585  27.684  27.991  1.00  0.00     0.031 A 
ATOM     81  C   UNL A   1      39.766  26.548  28.981  1.00  0.00     0.131 A 
ATOM     82  C   UNL A   1      41.469  27.016  26.863  1.00  0.00     0.055 A 
ATOM     83  C   UNL A   1      39.804  25.664  27.904  1.00  0.00     0.041 A 
ATOM     84  F   UNL A   1      38.870  26.400  29.953  1.00  0.00    -0.206 F 
ATOM     85  C   UNL A   1      40.391  26.151  26.715  1.00  0.00     0.022 A 
BRANCH  82  86
ATOM     86  S   UNL A   1      42.683  27.221  25.536  1.00  0.00     0.124 S 
ATOM     87  O   UNL A   1      42.724  25.951  24.683  1.00  0.00    -0.237 OA
ATOM     88  O   UNL A   1      42.287  28.412  24.661  1.00  0.00    -0.237 OA
ATOM     89  O   UNL A   1      44.227  27.500  26.214  1.00  0.00    -0.744 OA
ENDBRANCH  82  86
ENDBRANCH  55  79
BRANCH  67  90
ATOM     90  C   UNL A   1      44.185  28.743  34.953  1.00  0.00     0.023 A 
ATOM     91  C   UNL A   1      43.805  27.741  35.852  1.00  0.00     0.031 A 
ATOM     92  C   UNL A   1      45.456  28.971  34.696  1.00  0.00     0.131 A 
ATOM     93  C   UNL A   1      44.689  27.177  36.645  1.00  0.00     0.055 A 
ATOM     94  C   UNL A   1      46.411  28.190  35.345  1.00  0.00     0.041 A 
ATOM     95  F   UNL A   1      45.819  29.921  33.840  1.00  0.00    -0.206 F 
ATOM     96  C   UNL A   1      46.012  27.595  36.562  1.00  0.00     0.022 A 
BRANCH  93  97
ATOM     97  S   UNL A   1      44.195  25.888  37.817  1.00  0.00     0.124 S 
ATOM     98  O   UNL A   1      45.228  24.759  37.798  1.00  0.00    -0.237 OA
ATOM     99  O   UNL A   1      44.115  26.482  39.224  1.00  0.00    -0.237 OA
ATOM    100  O   UNL A   1      42.665  25.269  37.371  1.00  0.00    -0.744 OA
ENDBRANCH  93  97
ENDBRANCH  67  90
ENDBRANCH  41  42
ENDBRANCH  33  36
ENDBRANCH  31  32
ENDBRANCH  30  31
ENDBRANCH   1  30
TORSDOF 18
ENDMDL
MODEL 2
REMARK VINA RESULT:     -12.9      0.714      7.370
REMARK SMILES Cc1cc(S(F)(F)(F)(F)F)cc2c1O[C@H](C(F)(F)F)C(C(=O)NCCCCCCNC(=O)c1ccc(-c3c4nc(c(-c5cc(S(=O)(=O)[O-])ccc5F)c5ccc([nH]5)c(-c5cc(S(=O)(=O)[O-])ccc5F)c5nc(c(-c6cc(S(=O)(=O)[O-])ccc6F)c6ccc3[nH]6)C=C5)C=C4)cc1)=C2
REMARK SMILES IDX 27 1 26 2 25 3 24 4 23 5 21 6 22 7 20 9 1 10 2 11 3 12 13 13
REMARK SMILES IDX 4 14 12 15 14 16 11 17 96 18 15 19 5 20 6 21 7 22 8 23 9 24
REMARK SMILES IDX 10 25 16 26 17 27 18 28 19 29 28 30 29 31 30 32 31 33 32 35
REMARK SMILES IDX 33 36 34 37 95 38 35 39 94 40 36 41 37 42 38 43 88 44 39 45
REMARK SMILES IDX 93 46 87 47 89 48 40 49 92 50 86 51 85 52 41 54 73 55 53 56
REMARK SMILES IDX 72 57 54 58 57 59 71 60 90 61 55 62 56 63 70 65 91 66 58 67
REMARK SMILES IDX 42 68 43 69 51 70 44 71 50 72 52 73 49 74 45 75 46 76 47 77
REMARK SMILES IDX 48 78 74 79 75 80 83 81 76 82 82 83 84 84 81 85 77 86 78 87
REMARK SMILES IDX 79 88 80 89 59 90 60 91 68 92 61 93 67 94 69 95 66 96 62 97
REMARK SMILES IDX 63 98 64 99 65 100
REMARK H PARENT 23 8 30 34 89 53 57 64
REMARK Flexibility Score: inf
ROOT
ATOM      1  C   UNL A   1      32.083  30.502  26.709  1.00  0.00     0.002 C 
ENDROOT
BRANCH   1   2
ATOM      2  C   UNL A   1      33.478  30.215  27.239  1.00  0.00     0.002 C 
BRANCH   2   3
ATOM      3  C   UNL A   1      34.148  29.168  26.364  1.00  0.00     0.021 C 
BRANCH   3   4
ATOM      4  C   UNL A   1      33.528  27.807  26.639  1.00  0.00     0.116 C 
BRANCH   4   5
ATOM      5  N   UNL A   1      34.173  26.795  25.790  1.00  0.00    -0.352 N 
ATOM      6  C   UNL A   1      33.438  26.204  24.662  1.00  0.00     0.251 C 
ATOM      7  O   UNL A   1      33.996  25.329  23.929  1.00  0.00    -0.270 OA
ATOM      8  H   UNL A   1      35.097  26.512  25.977  1.00  0.00     0.163 HD
BRANCH   6   9
ATOM      9  C   UNL A   1      32.011  26.641  24.374  1.00  0.00     0.067 C 
ATOM     10  C   UNL A   1      26.934  26.825  23.854  1.00  0.00     0.048 C 
ATOM     11  C   UNL A   1      28.067  27.802  23.590  1.00  0.00    -0.007 A 
ATOM     12  C   UNL A   1      27.826  29.107  23.219  1.00  0.00     0.031 A 
ATOM     13  C   UNL A   1      29.375  27.397  23.856  1.00  0.00     0.130 A 
ATOM     14  C   UNL A   1      28.869  30.018  23.106  1.00  0.00     0.108 A 
ATOM     15  C   UNL A   1      30.433  28.328  23.743  1.00  0.00     0.019 A 
ATOM     16  O   UNL A   1      29.697  26.022  24.253  1.00  0.00    -0.475 OA
ATOM     17  C   UNL A   1      30.157  29.643  23.367  1.00  0.00     0.036 A 
ATOM     18  C   UNL A   1      31.795  27.875  24.027  1.00  0.00     0.025 C 
ATOM     19  C   UNL A   1      30.987  25.701  24.494  1.00  0.00     0.314 C 
BRANCH  14  20
ATOM     20  S   UNL A   1      28.518  31.720  22.603  1.00  0.00     0.310 S 
ATOM     21  F   UNL A   1      27.105  31.911  23.299  1.00  0.00    -0.094 F 
ATOM     22  F   UNL A   1      27.744  31.241  21.318  1.00  0.00    -0.094 F 
ATOM     23  F   UNL A   1      28.423  33.202  22.143  1.00  0.00    -0.094 F 
ATOM     24  F   UNL A   1      29.169  32.194  23.962  1.00  0.00    -0.094 F 
ATOM     25  F   UNL A   1      28.521  30.233  23.138  1.00  0.00    -0.094 F 
ENDBRANCH  14  20
BRANCH  19  26
ATOM     26  C   UNL A   1      30.977  25.422  25.988  1.00  0.00     0.429 C 
ATOM     27  F   UNL A   1      32.039  24.690  26.309  1.00  0.00    -0.167 F 
ATOM     28  F   UNL A   1      31.014  26.573  26.654  1.00  0.00    -0.167 F 
ATOM     29  F   UNL A   1      29.868  24.761  26.308  1.00  0.00    -0.167 F 
ENDBRANCH  19  26
ENDBRANCH   6   9
ENDBRANCH   4   5
ENDBRANCH   3   4
ENDBRANCH   2   3
ENDBRANCH   1   2
BRANCH   1  30
ATOM     30  C   UNL A   1      31.776  31.983  26.860  1.00  0.00     0.021 C 
BRANCH  30  31
ATOM     31  C   UNL A   1      32.948  32.675  27.537  1.00  0.00     0.116 C 
BRANCH  31  32
ATOM     32  N   UNL A   1      32.645  34.104  27.699  1.00  0.00    -0.352 N 
ATOM     33  C   UNL A   1      33.413  34.914  28.655  1.00  0.00     0.251 C 
ATOM     34  H   UNL A   1      31.927  34.519  27.168  1.00  0.00     0.163 HD
ATOM     35  O   UNL A   1      33.151  36.150  28.796  1.00  0.00    -0.269 OA
BRANCH  33  36
ATOM     36  C   UNL A   1      34.521  34.274  29.476  1.00  0.00     0.039 A 
ATOM     37  C   UNL A   1      34.263  33.606  30.668  1.00  0.00     0.014 A 
ATOM     38  C   UNL A   1      35.739  34.222  28.981  1.00  0.00     0.014 A 
ATOM     39  C   UNL A   1      35.129  32.539  30.994  1.00  0.00     0.010 A 
ATOM     40  C   UNL A   1      36.752  33.520  29.643  1.00  0.00     0.010 A 
ATOM     41  C   UNL A   1      36.466  32.694  30.627  1.00  0.00    -0.014 A 
BRANCH  41  42
ATOM     42  C   UNL A   1      37.564  31.927  31.345  1.00  0.00     0.031 A 
ATOM     43  C   UNL A   1      38.154  30.882  30.631  1.00  0.00     0.074 A 
ATOM     44  C   UNL A   1      38.024  32.385  32.568  1.00  0.00     0.049 A 
ATOM     45  N   UNL A   1      39.241  30.183  30.962  1.00  0.00    -0.248 NA
ATOM     46  C   UNL A   1      37.646  30.370  29.350  1.00  0.00     0.031 C 
ATOM     47  C   UNL A   1      37.442  33.446  33.290  1.00  0.00     0.029 A 
ATOM     48  N   UNL A   1      39.097  31.921  33.295  1.00  0.00    -0.354 N 
ATOM     49  C   UNL A   1      39.509  29.276  30.020  1.00  0.00     0.074 A 
ATOM     50  C   UNL A   1      38.484  29.379  28.973  1.00  0.00     0.031 C 
ATOM     51  C   UNL A   1      38.144  33.609  34.440  1.00  0.00     0.029 A 
ATOM     52  C   UNL A   1      39.180  32.655  34.458  1.00  0.00     0.049 A 
ATOM     53  H   UNL A   1      39.701  31.190  33.031  1.00  0.00     0.167 HD
ATOM     54  C   UNL A   1      40.569  28.368  29.992  1.00  0.00     0.034 A 
ATOM     55  C   UNL A   1      40.097  32.516  35.487  1.00  0.00     0.034 A 
ATOM     56  C   UNL A   1      41.512  28.258  31.002  1.00  0.00     0.049 A 
ATOM     57  C   UNL A   1      41.123  31.568  35.487  1.00  0.00     0.074 A 
ATOM     58  C   UNL A   1      42.591  27.353  30.986  1.00  0.00     0.029 A 
ATOM     59  N   UNL A   1      41.580  28.975  32.175  1.00  0.00    -0.354 N 
ATOM     60  N   UNL A   1      41.414  30.688  34.527  1.00  0.00    -0.248 NA
ATOM     61  C   UNL A   1      42.082  31.389  36.586  1.00  0.00     0.031 C 
ATOM     62  C   UNL A   1      43.295  27.517  32.139  1.00  0.00     0.029 A 
ATOM     63  C   UNL A   1      42.666  28.526  32.893  1.00  0.00     0.049 A 
ATOM     64  H   UNL A   1      40.960  29.687  32.453  1.00  0.00     0.167 HD
ATOM     65  C   UNL A   1      42.478  29.962  34.877  1.00  0.00     0.074 A 
ATOM     66  C   UNL A   1      42.918  30.397  36.210  1.00  0.00     0.031 C 
ATOM     67  C   UNL A   1      43.101  28.955  34.137  1.00  0.00     0.034 A 
BRANCH  54  68
ATOM     68  C   UNL A   1      40.697  27.450  28.788  1.00  0.00     0.023 A 
ATOM     69  C   UNL A   1      41.734  27.723  27.889  1.00  0.00     0.031 A 
ATOM     70  C   UNL A   1      39.915  26.405  28.617  1.00  0.00     0.131 A 
ATOM     71  C   UNL A   1      41.798  27.105  26.729  1.00  0.00     0.055 A 
ATOM     72  C   UNL A   1      40.143  25.581  27.517  1.00  0.00     0.041 A 
ATOM     73  F   UNL A   1      38.932  26.142  29.473  1.00  0.00    -0.206 F 
ATOM     74  C   UNL A   1      40.816  26.170  26.423  1.00  0.00     0.022 A 
BRANCH  71  75
ATOM     75  S   UNL A   1      43.132  27.466  25.559  1.00  0.00     0.124 S 
ATOM     76  O   UNL A   1      43.854  26.168  25.192  1.00  0.00    -0.237 OA
ATOM     77  O   UNL A   1      42.544  28.099  24.295  1.00  0.00    -0.237 OA
ATOM     78  O   UNL A   1      44.241  28.553  26.277  1.00  0.00    -0.744 OA
ENDBRANCH  71  75
ENDBRANCH  54  68
BRANCH  55  79
ATOM     79  C   UNL A   1      39.980  33.445  36.683  1.00  0.00     0.023 A 
ATOM     80  C   UNL A   1      39.260  32.997  37.797  1.00  0.00     0.031 A 
ATOM     81  C   UNL A   1      40.475  34.664  36.647  1.00  0.00     0.131 A 
ATOM     82  C   UNL A   1      38.845  33.844  38.715  1.00  0.00     0.055 A 
ATOM     83  C   UNL A   1      40.262  35.497  37.744  1.00  0.00     0.041 A 
ATOM     84  F   UNL A   1      41.163  35.089  35.591  1.00  0.00    -0.206 F 
ATOM     85  C   UNL A   1      39.146  35.192  38.555  1.00  0.00     0.022 A 
BRANCH  82  86
ATOM     86  S   UNL A   1      37.903  33.269  40.150  1.00  0.00     0.124 S 
ATOM     87  O   UNL A   1      37.729  34.421  41.141  1.00  0.00    -0.237 OA
ATOM     88  O   UNL A   1      36.528  32.775  39.694  1.00  0.00    -0.237 OA
ATOM     89  O   UNL A   1      38.745  31.988  40.908  1.00  0.00    -0.744 OA
ENDBRANCH  82  86
ENDBRANCH  55  79
BRANCH  67  90
ATOM     90  C   UNL A   1      44.333  28.291  34.732  1.00  0.00     0.023 A 
ATOM     91  C   UNL A   1      44.096  27.102  35.431  1.00  0.00     0.031 A 
ATOM     92  C   UNL A   1      45.561  28.710  34.513  1.00  0.00     0.131 A 
ATOM     93  C   UNL A   1      45.061  26.510  36.099  1.00  0.00     0.055 A 
ATOM     94  C   UNL A   1      46.618  27.941  34.998  1.00  0.00     0.041 A 
ATOM     95  F   UNL A   1      45.789  29.838  33.846  1.00  0.00    -0.206 F 
ATOM     96  C   UNL A   1      46.325  27.089  36.086  1.00  0.00     0.022 A 
BRANCH  93  97
ATOM     97  S   UNL A   1      44.752  24.979  37.013  1.00  0.00     0.124 S 
ATOM     98  O   UNL A   1      43.816  25.267  38.189  1.00  0.00    -0.237 OA
ATOM     99  O   UNL A   1      44.102  23.952  36.084  1.00  0.00    -0.237 OA
ATOM    100  O   UNL A   1      46.232  24.358  37.603  1.00  0.00    -0.744 OA
ENDBRANCH  93  97
ENDBRANCH  67  90
ENDBRANCH  41  42
ENDBRANCH  33  36
ENDBRANCH  31  32
ENDBRANCH  30  31
ENDBRANCH   1  30
TORSDOF 18
ENDMDL
MODEL 3
REMARK VINA RESULT:     -12.9      3.503      5.569
REMARK SMILES Cc1cc(S(F)(F)(F)(F)F)cc2c1O[C@H](C(F)(F)F)C(C(=O)NCCCCCCNC(=O)c1ccc(-c3c4nc(c(-c5cc(S(=O)(=O)[O-])ccc5F)c5ccc([nH]5)c(-c5cc(S(=O)(=O)[O-])ccc5F)c5nc(c(-c6cc(S(=O)(=O)[O-])ccc6F)c6ccc3[nH]6)C=C5)C=C4)cc1)=C2
REMARK SMILES IDX 27 1 26 2 25 3 24 4 23 5 21 6 22 7 20 9 1 10 2 11 3 12 13 13
REMARK SMILES IDX 4 14 12 15 14 16 11 17 96 18 15 19 5 20 6 21 7 22 8 23 9 24
REMARK SMILES IDX 10 25 16 26 17 27 18 28 19 29 28 30 29 31 30 32 31 33 32 35
REMARK SMILES IDX 33 36 34 37 95 38 35 39 94 40 36 41 37 42 38 43 88 44 39 45
REMARK SMILES IDX 93 46 87 47 89 48 40 49 92 50 86 51 85 52 41 54 73 55 53 56
REMARK SMILES IDX 72 57 54 58 57 59 71 60 90 61 55 62 56 63 70 65 91 66 58 67
REMARK SMILES IDX 42 68 43 69 51 70 44 71 50 72 52 73 49 74 45 75 46 76 47 77
REMARK SMILES IDX 48 78 74 79 75 80 83 81 76 82 82 83 84 84 81 85 77 86 78 87
REMARK SMILES IDX 79 88 80 89 59 90 60 91 68 92 61 93 67 94 69 95 66 96 62 97
REMARK SMILES IDX 63 98 64 99 65 100
REMARK H PARENT 23 8 30 34 89 53 57 64
REMARK Flexibility Score: inf
ROOT
ATOM      1  C   UNL A   1      31.268  27.846  25.419  1.00  0.00     0.002 C 
ENDROOT
BRANCH   1   2
ATOM      2  C   UNL A   1      30.534  27.129  24.299  1.00  0.00     0.002 C 
BRANCH   2   3
ATOM      3  C   UNL A   1      30.244  25.696  24.718  1.00  0.00     0.021 C 
BRANCH   3   4
ATOM      4  C   UNL A   1      30.612  24.753  23.583  1.00  0.00     0.116 C 
BRANCH   4   5
ATOM      5  N   UNL A   1      31.291  25.508  22.520  1.00  0.00    -0.352 N 
ATOM      6  C   UNL A   1      32.684  25.194  22.171  1.00  0.00     0.251 C 
ATOM      7  O   UNL A   1      33.271  25.846  21.252  1.00  0.00    -0.270 OA
ATOM      8  H   UNL A   1      30.813  26.222  22.041  1.00  0.00     0.163 HD
BRANCH   6   9
ATOM      9  C   UNL A   1      33.423  24.090  22.911  1.00  0.00     0.067 C 
ATOM     10  C   UNL A   1      36.736  21.436  25.749  1.00  0.00     0.048 C 
ATOM     11  C   UNL A   1      35.487  21.081  24.959  1.00  0.00    -0.007 A 
ATOM     12  C   UNL A   1      34.940  19.817  25.000  1.00  0.00     0.031 A 
ATOM     13  C   UNL A   1      34.813  22.096  24.282  1.00  0.00     0.130 A 
ATOM     14  C   UNL A   1      33.731  19.546  24.373  1.00  0.00     0.108 A 
ATOM     15  C   UNL A   1      33.581  21.818  23.648  1.00  0.00     0.019 A 
ATOM     16  O   UNL A   1      35.344  23.462  24.201  1.00  0.00    -0.475 OA
ATOM     17  C   UNL A   1      33.051  20.528  23.708  1.00  0.00     0.036 A 
ATOM     18  C   UNL A   1      32.896  22.902  22.944  1.00  0.00     0.025 C 
ATOM     19  C   UNL A   1      34.637  24.394  23.527  1.00  0.00     0.314 C 
BRANCH  14  20
ATOM     20  S   UNL A   1      33.047  17.872  24.435  1.00  0.00     0.310 S 
ATOM     21  F   UNL A   1      32.142  17.911  23.132  1.00  0.00    -0.094 F 
ATOM     22  F   UNL A   1      31.785  18.357  25.242  1.00  0.00    -0.094 F 
ATOM     23  F   UNL A   1      32.624  16.386  24.609  1.00  0.00    -0.094 F 
ATOM     24  F   UNL A   1      34.238  17.413  23.504  1.00  0.00    -0.094 F 
ATOM     25  F   UNL A   1      33.426  19.380  24.152  1.00  0.00    -0.094 F 
ENDBRANCH  14  20
BRANCH  19  26
ATOM     26  C   UNL A   1      34.209  25.340  24.638  1.00  0.00     0.429 C 
ATOM     27  F   UNL A   1      35.180  25.432  25.541  1.00  0.00    -0.167 F 
ATOM     28  F   UNL A   1      33.964  26.542  24.126  1.00  0.00    -0.167 F 
ATOM     29  F   UNL A   1      33.107  24.872  25.217  1.00  0.00    -0.167 F 
ENDBRANCH  19  26
ENDBRANCH   6   9
ENDBRANCH   4   5
ENDBRANCH   3   4
ENDBRANCH   2   3
ENDBRANCH   1   2
BRANCH   1  30
ATOM     30  C   UNL A   1      31.449  29.310  25.053  1.00  0.00     0.021 C 
BRANCH  30  31
ATOM     31  C   UNL A   1      32.369  29.975  26.063  1.00  0.00     0.116 C 
BRANCH  31  32
ATOM     32  N   UNL A   1      31.855  31.313  26.387  1.00  0.00    -0.352 N 
ATOM     33  C   UNL A   1      32.661  32.232  27.202  1.00  0.00     0.251 C 
ATOM     34  H   UNL A   1      30.970  31.594  26.058  1.00  0.00     0.163 HD
ATOM     35  O   UNL A   1      32.216  33.390  27.483  1.00  0.00    -0.269 OA
BRANCH  33  36
ATOM     36  C   UNL A   1      34.026  31.799  27.710  1.00  0.00     0.039 A 
ATOM     37  C   UNL A   1      35.103  32.678  27.772  1.00  0.00     0.014 A 
ATOM     38  C   UNL A   1      34.165  30.603  28.241  1.00  0.00     0.014 A 
ATOM     39  C   UNL A   1      36.047  32.449  28.798  1.00  0.00     0.010 A 
ATOM     40  C   UNL A   1      35.368  30.222  28.845  1.00  0.00     0.010 A 
ATOM     41  C   UNL A   1      36.294  31.115  29.123  1.00  0.00    -0.014 A 
BRANCH  41  42
ATOM     42  C   UNL A   1      37.600  30.703  29.782  1.00  0.00     0.031 A 
ATOM     43  C   UNL A   1      37.800  31.154  31.088  1.00  0.00     0.074 A 
ATOM     44  C   UNL A   1      38.430  29.800  29.139  1.00  0.00     0.049 A 
ATOM     45  N   UNL A   1      38.764  30.789  31.936  1.00  0.00    -0.248 NA
ATOM     46  C   UNL A   1      36.940  32.139  31.761  1.00  0.00     0.031 C 
ATOM     47  C   UNL A   1      38.230  29.333  27.825  1.00  0.00     0.029 A 
ATOM     48  N   UNL A   1      39.567  29.200  29.631  1.00  0.00    -0.354 N 
ATOM     49  C   UNL A   1      38.615  31.422  33.102  1.00  0.00     0.074 A 
ATOM     50  C   UNL A   1      37.445  32.304  33.004  1.00  0.00     0.031 C 
ATOM     51  C   UNL A   1      39.238  28.475  27.524  1.00  0.00     0.029 A 
ATOM     52  C   UNL A   1      40.086  28.388  28.646  1.00  0.00     0.049 A 
ATOM     53  H   UNL A   1      39.946  29.328  30.530  1.00  0.00     0.167 HD
ATOM     54  C   UNL A   1      39.409  31.297  34.243  1.00  0.00     0.034 A 
ATOM     55  C   UNL A   1      41.232  27.611  28.701  1.00  0.00     0.034 A 
ATOM     56  C   UNL A   1      40.531  30.486  34.313  1.00  0.00     0.049 A 
ATOM     57  C   UNL A   1      42.059  27.531  29.824  1.00  0.00     0.074 A 
ATOM     58  C   UNL A   1      41.338  30.343  35.458  1.00  0.00     0.029 A 
ATOM     59  N   UNL A   1      41.063  29.694  33.320  1.00  0.00    -0.354 N 
ATOM     60  N   UNL A   1      41.889  28.133  31.002  1.00  0.00    -0.248 NA
ATOM     61  C   UNL A   1      43.293  26.736  29.884  1.00  0.00     0.031 C 
ATOM     62  C   UNL A   1      42.348  29.483  35.157  1.00  0.00     0.029 A 
ATOM     63  C   UNL A   1      42.189  29.076  33.818  1.00  0.00     0.049 A 
ATOM     64  H   UNL A   1      40.701  29.587  32.411  1.00  0.00     0.167 HD
ATOM     65  C   UNL A   1      42.876  27.800  31.836  1.00  0.00     0.074 A 
ATOM     66  C   UNL A   1      43.798  26.902  31.126  1.00  0.00     0.031 C 
ATOM     67  C   UNL A   1      43.044  28.206  33.161  1.00  0.00     0.034 A 
BRANCH  54  68
ATOM     68  C   UNL A   1      39.022  32.094  35.478  1.00  0.00     0.023 A 
ATOM     69  C   UNL A   1      39.498  33.407  35.560  1.00  0.00     0.031 A 
ATOM     70  C   UNL A   1      38.226  31.606  36.405  1.00  0.00     0.131 A 
ATOM     71  C   UNL A   1      39.375  34.098  36.673  1.00  0.00     0.055 A 
ATOM     72  C   UNL A   1      37.872  32.429  37.473  1.00  0.00     0.041 A 
ATOM     73  F   UNL A   1      37.770  30.359  36.326  1.00  0.00    -0.206 F 
ATOM     74  C   UNL A   1      38.755  33.494  37.762  1.00  0.00     0.022 A 
BRANCH  71  75
ATOM     75  S   UNL A   1      40.001  35.793  36.786  1.00  0.00     0.124 S 
ATOM     76  O   UNL A   1      41.520  35.765  36.969  1.00  0.00    -0.237 OA
ATOM     77  O   UNL A   1      39.656  36.550  35.502  1.00  0.00    -0.237 OA
ATOM     78  O   UNL A   1      39.279  36.580  38.122  1.00  0.00    -0.744 OA
ENDBRANCH  71  75
ENDBRANCH  54  68
BRANCH  55  79
ATOM     79  C   UNL A   1      41.609  26.801  27.473  1.00  0.00     0.023 A 
ATOM     80  C   UNL A   1      41.366  25.422  27.492  1.00  0.00     0.031 A 
ATOM     81  C   UNL A   1      42.216  27.363  26.449  1.00  0.00     0.131 A 
ATOM     82  C   UNL A   1      41.950  24.624  26.625  1.00  0.00     0.055 A 
ATOM     83  C   UNL A   1      42.612  26.550  25.387  1.00  0.00     0.041 A 
ATOM     84  F   UNL A   1      42.444  28.673  26.427  1.00  0.00    -0.206 F 
ATOM     85  C   UNL A   1      42.807  25.183  25.684  1.00  0.00     0.022 A 
BRANCH  82  86
ATOM     86  S   UNL A   1      41.646  22.839  26.657  1.00  0.00     0.124 S 
ATOM     87  O   UNL A   1      42.186  22.207  25.372  1.00  0.00    -0.237 OA
ATOM     88  O   UNL A   1      42.353  22.222  27.866  1.00  0.00    -0.237 OA
ATOM     89  O   UNL A   1      39.965  22.549  26.770  1.00  0.00    -0.744 OA
ENDBRANCH  82  86
ENDBRANCH  55  79
BRANCH  67  90
ATOM     90  C   UNL A   1      44.236  27.658  33.930  1.00  0.00     0.023 A 
ATOM     91  C   UNL A   1      44.086  26.358  34.424  1.00  0.00     0.031 A 
ATOM     92  C   UNL A   1      45.387  28.289  34.030  1.00  0.00     0.131 A 
ATOM     93  C   UNL A   1      44.994  25.830  35.216  1.00  0.00     0.055 A 
ATOM     94  C   UNL A   1      46.450  27.628  34.643  1.00  0.00     0.041 A 
ATOM     95  F   UNL A   1      45.533  29.523  33.557  1.00  0.00    -0.206 F 
ATOM     96  C   UNL A   1      46.110  26.592  35.541  1.00  0.00     0.022 A 
BRANCH  93  97
ATOM     97  S   UNL A   1      44.795  24.153  35.866  1.00  0.00     0.124 S 
ATOM     98  O   UNL A   1      44.957  24.172  37.387  1.00  0.00    -0.237 OA
ATOM     99  O   UNL A   1      43.402  23.629  35.509  1.00  0.00    -0.237 OA
ATOM    100  O   UNL A   1      45.981  23.130  35.179  1.00  0.00    -0.744 OA
ENDBRANCH  93  97
ENDBRANCH  67  90
ENDBRANCH  41  42
ENDBRANCH  33  36
ENDBRANCH  31  32
ENDBRANCH  30  31
ENDBRANCH   1  30
TORSDOF 18
ENDMDL
