MODEL 1
REMARK VINA RESULT:     -10.8      0.000      0.000
REMARK SMILES CC[C@@H](C)[C@@H](NC(N)=O)C(=O)N1CCC[C@H](C(=O)NCCCCCCNC(=O)c2ccc(-c3c4nc(c(-c5cc(S(=O)(=O)[O-])ccc5F)c5ccc([nH]5)c(-c5cc(S(=O)(=O)[O-])ccc5F)c5nc(c(-c6cc(S(=O)(=O)[O-])ccc6F)c6ccc3[nH]6)C=C5)C=C4)cc2)C1
REMARK SMILES IDX 22 1 21 2 20 3 19 4 17 5 18 6 16 8 12 9 13 10 92 11 14 12
REMARK SMILES IDX 15 13 10 14 11 15 5 16 3 17 4 18 2 19 1 20 6 21 7 22 8 24
REMARK SMILES IDX 9 25 23 28 24 29 25 30 26 31 27 32 28 34 29 35 30 36 91 37
REMARK SMILES IDX 31 38 90 39 32 40 33 41 34 42 84 43 35 44 89 45 83 46 85 47
REMARK SMILES IDX 36 48 88 49 82 50 81 51 37 53 69 54 49 55 68 56 50 57 53 58
REMARK SMILES IDX 67 59 86 60 51 61 52 62 66 64 87 65 54 66 38 67 39 68 47 69
REMARK SMILES IDX 40 70 46 71 48 72 45 73 41 74 42 75 43 76 44 77 70 78 71 79
REMARK SMILES IDX 79 80 72 81 78 82 80 83 77 84 73 85 74 86 75 87 76 88 55 89
REMARK SMILES IDX 56 90 64 91 57 92 63 93 65 94 62 95 58 96 59 97 60 98 61 99
REMARK H PARENT 19 7 6 23 8 26 8 27 26 33 85 52 53 63
REMARK Flexibility Score: inf
ROOT
ATOM      1  C   UNL A   1      33.492  21.483  25.802  1.00  0.00     0.002 C 
ENDROOT
BRANCH   1   2
ATOM      2  C   UNL A   1      32.520  22.452  26.474  1.00  0.00     0.021 C 
BRANCH   2   3
ATOM      3  C   UNL A   1      31.118  22.420  25.883  1.00  0.00     0.116 C 
BRANCH   3   4
ATOM      4  N   UNL A   1      30.616  23.696  25.432  1.00  0.00    -0.356 N 
ATOM      5  C   UNL A   1      31.063  24.500  24.431  1.00  0.00     0.224 C 
ATOM      6  O   UNL A   1      30.263  25.347  24.013  1.00  0.00    -0.275 OA
ATOM      7  H   UNL A   1      29.833  24.035  25.922  1.00  0.00     0.163 HD
BRANCH   5   8
ATOM      8  C   UNL A   1      32.465  24.425  23.799  1.00  0.00     0.098 C 
ATOM      9  N   UNL A   1      33.414  26.694  23.398  1.00  0.00    -0.340 N 
ATOM     10  C   UNL A   1      33.559  26.471  21.960  1.00  0.00     0.119 C 
ATOM     11  C   UNL A   1      33.436  25.517  24.244  1.00  0.00     0.133 C 
ATOM     12  C   UNL A   1      32.686  25.346  21.393  1.00  0.00     0.022 C 
ATOM     13  C   UNL A   1      32.525  24.131  22.302  1.00  0.00     0.017 C 
BRANCH   9  14
ATOM     14  C   UNL A   1      33.168  27.988  23.856  1.00  0.00     0.245 C 
ATOM     15  O   UNL A   1      34.082  28.816  23.933  1.00  0.00    -0.272 OA
BRANCH  14  16
ATOM     16  C   UNL A   1      31.736  28.382  24.345  1.00  0.00     0.176 C 
BRANCH  16  17
ATOM     17  C   UNL A   1      31.628  28.740  25.853  1.00  0.00     0.018 C 
ATOM     18  C   UNL A   1      31.917  30.232  26.100  1.00  0.00     0.010 C 
BRANCH  17  19
ATOM     19  C   UNL A   1      32.548  27.888  26.761  1.00  0.00     0.002 C 
ATOM     20  C   UNL A   1      33.652  28.726  27.406  1.00  0.00     0.004 C 
ENDBRANCH  17  19
ENDBRANCH  16  17
BRANCH  16  21
ATOM     21  N   UNL A   1      31.245  29.477  23.489  1.00  0.00    -0.326 N 
ATOM     22  C   UNL A   1      30.499  29.230  22.370  1.00  0.00     0.312 C 
ATOM     23  H   UNL A   1      31.459  30.407  23.728  1.00  0.00     0.166 HD
ATOM     24  N   UNL A   1      30.036  30.357  21.783  1.00  0.00    -0.352 N 
ATOM     25  O   UNL A   1      30.286  28.142  21.870  1.00  0.00    -0.249 OA
ATOM     26  H   UNL A   1      30.212  31.234  22.194  1.00  0.00     0.161 HD
ATOM     27  H   UNL A   1      29.522  30.300  20.945  1.00  0.00     0.161 HD
ENDBRANCH  16  21
ENDBRANCH  14  16
ENDBRANCH   9  14
ENDBRANCH   5   8
ENDBRANCH   3   4
ENDBRANCH   2   3
ENDBRANCH   1   2
BRANCH   1  28
ATOM     28  C   UNL A   1      34.975  21.689  26.147  1.00  0.00     0.002 C 
BRANCH  28  29
ATOM     29  C   UNL A   1      35.434  23.142  26.300  1.00  0.00     0.021 C 
BRANCH  29  30
ATOM     30  C   UNL A   1      36.779  23.467  25.662  1.00  0.00     0.116 C 
BRANCH  30  31
ATOM     31  N   UNL A   1      37.813  22.523  26.056  1.00  0.00    -0.352 N 
ATOM     32  C   UNL A   1      39.081  22.749  26.527  1.00  0.00     0.251 C 
ATOM     33  H   UNL A   1      37.564  21.574  25.973  1.00  0.00     0.163 HD
ATOM     34  O   UNL A   1      39.881  21.819  26.583  1.00  0.00    -0.269 OA
BRANCH  32  35
ATOM     35  C   UNL A   1      39.483  24.105  26.953  1.00  0.00     0.039 A 
ATOM     36  C   UNL A   1      39.338  24.459  28.297  1.00  0.00     0.014 A 
ATOM     37  C   UNL A   1      39.970  25.036  26.031  1.00  0.00     0.014 A 
ATOM     38  C   UNL A   1      39.722  25.732  28.720  1.00  0.00     0.010 A 
ATOM     39  C   UNL A   1      40.433  26.273  26.470  1.00  0.00     0.010 A 
ATOM     40  C   UNL A   1      40.298  26.640  27.816  1.00  0.00    -0.014 A 
BRANCH  40  41
ATOM     41  C   UNL A   1      40.749  27.980  28.273  1.00  0.00     0.031 A 
ATOM     42  C   UNL A   1      42.213  28.327  28.279  1.00  0.00     0.074 A 
ATOM     43  C   UNL A   1      39.840  28.865  28.724  1.00  0.00     0.049 A 
ATOM     44  N   UNL A   1      42.799  29.438  28.648  1.00  0.00    -0.248 NA
ATOM     45  C   UNL A   1      43.143  27.274  27.846  1.00  0.00     0.031 C 
ATOM     46  C   UNL A   1      38.401  28.612  28.829  1.00  0.00     0.029 A 
ATOM     47  N   UNL A   1      39.986  30.150  29.183  1.00  0.00    -0.354 N 
ATOM     48  C   UNL A   1      44.164  29.211  28.508  1.00  0.00     0.074 A 
ATOM     49  C   UNL A   1      44.317  27.834  28.091  1.00  0.00     0.031 C 
ATOM     50  C   UNL A   1      37.795  29.715  29.291  1.00  0.00     0.029 A 
ATOM     51  C   UNL A   1      38.800  30.737  29.561  1.00  0.00     0.049 A 
ATOM     52  H   UNL A   1      40.855  30.608  29.236  1.00  0.00     0.167 HD
ATOM     53  C   UNL A   1      45.191  30.080  28.687  1.00  0.00     0.034 A 
ATOM     54  C   UNL A   1      38.552  31.955  30.081  1.00  0.00     0.034 A 
ATOM     55  C   UNL A   1      45.009  31.450  29.102  1.00  0.00     0.049 A 
ATOM     56  C   UNL A   1      39.703  32.906  30.275  1.00  0.00     0.074 A 
ATOM     57  C   UNL A   1      45.962  32.443  29.240  1.00  0.00     0.029 A 
ATOM     58  N   UNL A   1      43.793  32.016  29.470  1.00  0.00    -0.354 N 
ATOM     59  N   UNL A   1      40.983  32.710  30.053  1.00  0.00    -0.248 NA
ATOM     60  C   UNL A   1      39.376  34.247  30.776  1.00  0.00     0.031 C 
ATOM     61  C   UNL A   1      45.340  33.577  29.775  1.00  0.00     0.029 A 
ATOM     62  C   UNL A   1      43.980  33.328  29.880  1.00  0.00     0.049 A 
ATOM     63  H   UNL A   1      42.925  31.553  29.444  1.00  0.00     0.167 HD
ATOM     64  C   UNL A   1      41.612  33.911  30.366  1.00  0.00     0.074 A 
ATOM     65  C   UNL A   1      40.566  34.829  30.774  1.00  0.00     0.031 C 
ATOM     66  C   UNL A   1      42.932  34.229  30.311  1.00  0.00     0.034 A 
BRANCH  53  67
ATOM     67  C   UNL A   1      46.594  29.550  28.474  1.00  0.00     0.023 A 
ATOM     68  C   UNL A   1      47.348  28.996  29.525  1.00  0.00     0.031 A 
ATOM     69  C   UNL A   1      47.211  29.652  27.214  1.00  0.00     0.131 A 
ATOM     70  C   UNL A   1      48.698  28.669  29.326  1.00  0.00     0.055 A 
ATOM     71  C   UNL A   1      48.524  29.229  26.997  1.00  0.00     0.041 A 
ATOM     72  F   UNL A   1      46.556  30.188  26.173  1.00  0.00    -0.206 F 
ATOM     73  C   UNL A   1      49.284  28.755  28.062  1.00  0.00     0.022 A 
BRANCH  70  74
ATOM     74  S   UNL A   1      49.726  28.318  30.780  1.00  0.00     0.124 S 
ATOM     75  O   UNL A   1      51.027  28.059  30.167  1.00  0.00    -0.237 OA
ATOM     76  O   UNL A   1      49.617  29.552  31.549  1.00  0.00    -0.237 OA
ATOM     77  O   UNL A   1      49.087  27.149  31.380  1.00  0.00    -0.744 OA
ENDBRANCH  70  74
ENDBRANCH  53  67
BRANCH  54  78
ATOM     78  C   UNL A   1      37.160  32.327  30.465  1.00  0.00     0.023 A 
ATOM     79  C   UNL A   1      36.272  32.906  29.545  1.00  0.00     0.031 A 
ATOM     80  C   UNL A   1      36.696  32.092  31.772  1.00  0.00     0.131 A 
ATOM     81  C   UNL A   1      34.974  33.256  29.953  1.00  0.00     0.055 A 
ATOM     82  C   UNL A   1      35.389  32.391  32.158  1.00  0.00     0.041 A 
ATOM     83  F   UNL A   1      37.504  31.536  32.690  1.00  0.00    -0.206 F 
ATOM     84  C   UNL A   1      34.522  32.985  31.247  1.00  0.00     0.022 A 
BRANCH  81  85
ATOM     85  S   UNL A   1      33.894  34.126  28.784  1.00  0.00     0.124 S 
ATOM     86  O   UNL A   1      34.799  35.126  28.230  1.00  0.00    -0.237 OA
ATOM     87  O   UNL A   1      33.494  33.051  27.880  1.00  0.00    -0.237 OA
ATOM     88  O   UNL A   1      32.825  34.651  29.632  1.00  0.00    -0.744 OA
ENDBRANCH  81  85
ENDBRANCH  54  78
BRANCH  66  89
ATOM     89  C   UNL A   1      43.316  35.645  30.671  1.00  0.00     0.023 A 
ATOM     90  C   UNL A   1      43.425  36.658  29.701  1.00  0.00     0.031 A 
ATOM     91  C   UNL A   1      43.582  35.985  32.010  1.00  0.00     0.131 A 
ATOM     92  C   UNL A   1      43.845  37.943  30.075  1.00  0.00     0.055 A 
ATOM     93  C   UNL A   1      43.929  37.282  32.386  1.00  0.00     0.041 A 
ATOM     94  F   UNL A   1      43.501  35.059  32.980  1.00  0.00    -0.206 F 
ATOM     95  C   UNL A   1      44.076  38.267  31.415  1.00  0.00     0.022 A 
BRANCH  92  96
ATOM     96  S   UNL A   1      44.189  39.162  28.778  1.00  0.00     0.124 S 
ATOM     97  O   UNL A   1      45.191  38.471  27.972  1.00  0.00    -0.237 OA
ATOM     98  O   UNL A   1      42.880  39.336  28.157  1.00  0.00    -0.237 OA
ATOM     99  O   UNL A   1      44.683  40.322  29.517  1.00  0.00    -0.744 OA
ENDBRANCH  92  96
ENDBRANCH  66  89
ENDBRANCH  40  41
ENDBRANCH  32  35
ENDBRANCH  30  31
ENDBRANCH  29  30
ENDBRANCH  28  29
ENDBRANCH   1  28
TORSDOF 21
ENDMDL
MODEL 2
REMARK VINA RESULT:     -10.8      1.836      2.146
REMARK SMILES CC[C@@H](C)[C@@H](NC(N)=O)C(=O)N1CCC[C@H](C(=O)NCCCCCCNC(=O)c2ccc(-c3c4nc(c(-c5cc(S(=O)(=O)[O-])ccc5F)c5ccc([nH]5)c(-c5cc(S(=O)(=O)[O-])ccc5F)c5nc(c(-c6cc(S(=O)(=O)[O-])ccc6F)c6ccc3[nH]6)C=C5)C=C4)cc2)C1
REMARK SMILES IDX 22 1 21 2 20 3 19 4 17 5 18 6 16 8 12 9 13 10 92 11 14 12
REMARK SMILES IDX 15 13 10 14 11 15 5 16 3 17 4 18 2 19 1 20 6 21 7 22 8 24
REMARK SMILES IDX 9 25 23 28 24 29 25 30 26 31 27 32 28 34 29 35 30 36 91 37
REMARK SMILES IDX 31 38 90 39 32 40 33 41 34 42 84 43 35 44 89 45 83 46 85 47
REMARK SMILES IDX 36 48 88 49 82 50 81 51 37 53 69 54 49 55 68 56 50 57 53 58
REMARK SMILES IDX 67 59 86 60 51 61 52 62 66 64 87 65 54 66 38 67 39 68 47 69
REMARK SMILES IDX 40 70 46 71 48 72 45 73 41 74 42 75 43 76 44 77 70 78 71 79
REMARK SMILES IDX 79 80 72 81 78 82 80 83 77 84 73 85 74 86 75 87 76 88 55 89
REMARK SMILES IDX 56 90 64 91 57 92 63 93 65 94 62 95 58 96 59 97 60 98 61 99
REMARK H PARENT 19 7 6 23 8 26 8 27 26 33 85 52 53 63
REMARK Flexibility Score: inf
ROOT
ATOM      1  C   UNL A   1      33.682  21.441  25.611  1.00  0.00     0.002 C 
ENDROOT
BRANCH   1   2
ATOM      2  C   UNL A   1      32.662  22.415  26.199  1.00  0.00     0.021 C 
BRANCH   2   3
ATOM      3  C   UNL A   1      31.280  22.306  25.572  1.00  0.00     0.116 C 
BRANCH   3   4
ATOM      4  N   UNL A   1      30.697  23.559  25.157  1.00  0.00    -0.356 N 
ATOM      5  C   UNL A   1      31.066  24.399  24.155  1.00  0.00     0.224 C 
ATOM      6  O   UNL A   1      30.209  25.208  23.776  1.00  0.00    -0.275 OA
ATOM      7  H   UNL A   1      29.914  23.850  25.678  1.00  0.00     0.163 HD
BRANCH   5   8
ATOM      8  C   UNL A   1      32.448  24.408  23.475  1.00  0.00     0.098 C 
ATOM      9  N   UNL A   1      33.429  26.697  23.419  1.00  0.00    -0.340 N 
ATOM     10  C   UNL A   1      33.529  26.709  21.960  1.00  0.00     0.119 C 
ATOM     11  C   UNL A   1      33.452  25.397  24.061  1.00  0.00     0.133 C 
ATOM     12  C   UNL A   1      32.618  25.705  21.245  1.00  0.00     0.022 C 
ATOM     13  C   UNL A   1      32.459  24.360  21.949  1.00  0.00     0.017 C 
BRANCH   9  14
ATOM     14  C   UNL A   1      33.223  27.902  24.089  1.00  0.00     0.245 C 
ATOM     15  O   UNL A   1      34.172  28.527  24.574  1.00  0.00    -0.272 OA
BRANCH  14  16
ATOM     16  C   UNL A   1      31.769  28.441  24.291  1.00  0.00     0.176 C 
BRANCH  16  17
ATOM     17  C   UNL A   1      31.456  28.976  25.716  1.00  0.00     0.018 C 
ATOM     18  C   UNL A   1      31.941  30.427  25.892  1.00  0.00     0.010 C 
BRANCH  17  19
ATOM     19  C   UNL A   1      32.044  28.103  26.851  1.00  0.00     0.002 C 
ATOM     20  C   UNL A   1      31.416  26.709  26.885  1.00  0.00     0.004 C 
ENDBRANCH  17  19
ENDBRANCH  16  17
BRANCH  16  21
ATOM     21  N   UNL A   1      31.509  29.459  23.258  1.00  0.00    -0.326 N 
ATOM     22  C   UNL A   1      30.615  29.241  22.248  1.00  0.00     0.312 C 
ATOM     23  H   UNL A   1      31.991  30.317  23.297  1.00  0.00     0.166 HD
ATOM     24  N   UNL A   1      30.418  30.329  21.470  1.00  0.00    -0.352 N 
ATOM     25  O   UNL A   1      30.066  28.188  21.985  1.00  0.00    -0.249 OA
ATOM     26  H   UNL A   1      30.867  31.178  21.688  1.00  0.00     0.161 HD
ATOM     27  H   UNL A   1      29.827  30.273  20.685  1.00  0.00     0.161 HD
ENDBRANCH  16  21
ENDBRANCH  14  16
ENDBRANCH   9  14
ENDBRANCH   5   8
ENDBRANCH   3   4
ENDBRANCH   2   3
ENDBRANCH   1   2
BRANCH   1  28
ATOM     28  C   UNL A   1      35.131  21.635  26.084  1.00  0.00     0.002 C 
BRANCH  28  29
ATOM     29  C   UNL A   1      35.582  23.084  26.290  1.00  0.00     0.021 C 
BRANCH  29  30
ATOM     30  C   UNL A   1      36.923  23.441  25.658  1.00  0.00     0.116 C 
BRANCH  30  31
ATOM     31  N   UNL A   1      37.967  22.496  26.023  1.00  0.00    -0.352 N 
ATOM     32  C   UNL A   1      39.235  22.722  26.494  1.00  0.00     0.251 C 
ATOM     33  H   UNL A   1      37.727  21.548  25.916  1.00  0.00     0.163 HD
ATOM     34  O   UNL A   1      40.043  21.797  26.522  1.00  0.00    -0.269 OA
BRANCH  32  35
ATOM     35  C   UNL A   1      39.626  24.070  26.955  1.00  0.00     0.039 A 
ATOM     36  C   UNL A   1      39.596  24.348  28.323  1.00  0.00     0.014 A 
ATOM     37  C   UNL A   1      39.990  25.066  26.043  1.00  0.00     0.014 A 
ATOM     38  C   UNL A   1      39.972  25.613  28.778  1.00  0.00     0.010 A 
ATOM     39  C   UNL A   1      40.447  26.296  26.504  1.00  0.00     0.010 A 
ATOM     40  C   UNL A   1      40.428  26.589  27.875  1.00  0.00    -0.014 A 
BRANCH  40  41
ATOM     41  C   UNL A   1      40.871  27.921  28.360  1.00  0.00     0.031 A 
ATOM     42  C   UNL A   1      42.336  28.264  28.405  1.00  0.00     0.074 A 
ATOM     43  C   UNL A   1      39.954  28.803  28.802  1.00  0.00     0.049 A 
ATOM     44  N   UNL A   1      42.915  29.368  28.803  1.00  0.00    -0.248 NA
ATOM     45  C   UNL A   1      43.272  27.214  27.981  1.00  0.00     0.031 C 
ATOM     46  C   UNL A   1      38.513  28.552  28.870  1.00  0.00     0.029 A 
ATOM     47  N   UNL A   1      40.092  30.080  29.282  1.00  0.00    -0.354 N 
ATOM     48  C   UNL A   1      44.283  29.139  28.692  1.00  0.00     0.074 A 
ATOM     49  C   UNL A   1      44.442  27.767  28.260  1.00  0.00     0.031 C 
ATOM     50  C   UNL A   1      37.898  29.650  29.333  1.00  0.00     0.029 A 
ATOM     51  C   UNL A   1      38.899  30.666  29.640  1.00  0.00     0.049 A 
ATOM     52  H   UNL A   1      40.961  30.535  29.361  1.00  0.00     0.167 HD
ATOM     53  C   UNL A   1      45.308  30.002  28.907  1.00  0.00     0.034 A 
ATOM     54  C   UNL A   1      38.642  31.877  30.170  1.00  0.00     0.034 A 
ATOM     55  C   UNL A   1      45.119  31.367  29.336  1.00  0.00     0.049 A 
ATOM     56  C   UNL A   1      39.790  32.822  30.405  1.00  0.00     0.074 A 
ATOM     57  C   UNL A   1      46.071  32.356  29.510  1.00  0.00     0.029 A 
ATOM     58  N   UNL A   1      43.896  31.932  29.683  1.00  0.00    -0.354 N 
ATOM     59  N   UNL A   1      41.074  32.626  30.210  1.00  0.00    -0.248 NA
ATOM     60  C   UNL A   1      39.455  34.157  30.915  1.00  0.00     0.031 C 
ATOM     61  C   UNL A   1      45.439  33.484  30.046  1.00  0.00     0.029 A 
ATOM     62  C   UNL A   1      44.077  33.238  30.116  1.00  0.00     0.049 A 
ATOM     63  H   UNL A   1      43.028  31.471  29.630  1.00  0.00     0.167 HD
ATOM     64  C   UNL A   1      41.699  33.821  30.554  1.00  0.00     0.074 A 
ATOM     65  C   UNL A   1      40.647  34.736  30.950  1.00  0.00     0.031 C 
ATOM     66  C   UNL A   1      43.021  34.136  30.534  1.00  0.00     0.034 A 
BRANCH  53  67
ATOM     67  C   UNL A   1      46.714  29.472  28.720  1.00  0.00     0.023 A 
ATOM     68  C   UNL A   1      47.262  29.250  27.443  1.00  0.00     0.031 A 
ATOM     69  C   UNL A   1      47.500  29.129  29.835  1.00  0.00     0.131 A 
ATOM     70  C   UNL A   1      48.502  28.607  27.312  1.00  0.00     0.055 A 
ATOM     71  C   UNL A   1      48.778  28.582  29.698  1.00  0.00     0.041 A 
ATOM     72  F   UNL A   1      47.031  29.297  31.081  1.00  0.00    -0.206 F 
ATOM     73  C   UNL A   1      49.277  28.296  28.431  1.00  0.00     0.022 A 
BRANCH  70  74
ATOM     74  S   UNL A   1      48.996  28.005  25.672  1.00  0.00     0.124 S 
ATOM     75  O   UNL A   1      50.182  28.815  25.406  1.00  0.00    -0.237 OA
ATOM     76  O   UNL A   1      49.231  26.587  25.915  1.00  0.00    -0.237 OA
ATOM     77  O   UNL A   1      47.841  28.313  24.831  1.00  0.00    -0.744 OA
ENDBRANCH  70  74
ENDBRANCH  53  67
BRANCH  54  78
ATOM     78  C   UNL A   1      37.242  32.248  30.527  1.00  0.00     0.023 A 
ATOM     79  C   UNL A   1      36.377  32.840  29.594  1.00  0.00     0.031 A 
ATOM     80  C   UNL A   1      36.747  31.998  31.820  1.00  0.00     0.131 A 
ATOM     81  C   UNL A   1      35.071  33.188  29.976  1.00  0.00     0.055 A 
ATOM     82  C   UNL A   1      35.433  32.296  32.179  1.00  0.00     0.041 A 
ATOM     83  F   UNL A   1      37.533  31.429  32.749  1.00  0.00    -0.206 F 
ATOM     84  C   UNL A   1      34.588  32.903  31.256  1.00  0.00     0.022 A 
BRANCH  81  85
ATOM     85  S   UNL A   1      34.020  34.075  28.793  1.00  0.00     0.124 S 
ATOM     86  O   UNL A   1      33.576  32.995  27.919  1.00  0.00    -0.237 OA
ATOM     87  O   UNL A   1      33.003  34.655  29.664  1.00  0.00    -0.237 OA
ATOM     88  O   UNL A   1      34.934  35.038  28.181  1.00  0.00    -0.744 OA
ENDBRANCH  81  85
ENDBRANCH  54  78
BRANCH  66  89
ATOM     89  C   UNL A   1      43.400  35.546  30.922  1.00  0.00     0.023 A 
ATOM     90  C   UNL A   1      43.622  35.916  32.261  1.00  0.00     0.031 A 
ATOM     91  C   UNL A   1      43.536  36.538  29.934  1.00  0.00     0.131 A 
ATOM     92  C   UNL A   1      43.910  37.251  32.579  1.00  0.00     0.055 A 
ATOM     93  C   UNL A   1      43.893  37.848  30.249  1.00  0.00     0.041 A 
ATOM     94  F   UNL A   1      43.329  36.246  28.639  1.00  0.00    -0.206 F 
ATOM     95  C   UNL A   1      44.069  38.215  31.580  1.00  0.00     0.022 A 
BRANCH  92  96
ATOM     96  S   UNL A   1      43.972  37.739  34.324  1.00  0.00     0.124 S 
ATOM     97  O   UNL A   1      44.489  39.102  34.240  1.00  0.00    -0.237 OA
ATOM     98  O   UNL A   1      42.578  37.610  34.736  1.00  0.00    -0.237 OA
ATOM     99  O   UNL A   1      44.887  36.768  34.921  1.00  0.00    -0.744 OA
ENDBRANCH  92  96
ENDBRANCH  66  89
ENDBRANCH  40  41
ENDBRANCH  32  35
ENDBRANCH  30  31
ENDBRANCH  29  30
ENDBRANCH  28  29
ENDBRANCH   1  28
TORSDOF 21
ENDMDL
MODEL 3
REMARK VINA RESULT:     -10.5      3.241      8.341
REMARK SMILES CC[C@@H](C)[C@@H](NC(N)=O)C(=O)N1CCC[C@H](C(=O)NCCCCCCNC(=O)c2ccc(-c3c4nc(c(-c5cc(S(=O)(=O)[O-])ccc5F)c5ccc([nH]5)c(-c5cc(S(=O)(=O)[O-])ccc5F)c5nc(c(-c6cc(S(=O)(=O)[O-])ccc6F)c6ccc3[nH]6)C=C5)C=C4)cc2)C1
REMARK SMILES IDX 22 1 21 2 20 3 19 4 17 5 18 6 16 8 12 9 13 10 92 11 14 12
REMARK SMILES IDX 15 13 10 14 11 15 5 16 3 17 4 18 2 19 1 20 6 21 7 22 8 24
REMARK SMILES IDX 9 25 23 28 24 29 25 30 26 31 27 32 28 34 29 35 30 36 91 37
REMARK SMILES IDX 31 38 90 39 32 40 33 41 34 42 84 43 35 44 89 45 83 46 85 47
REMARK SMILES IDX 36 48 88 49 82 50 81 51 37 53 69 54 49 55 68 56 50 57 53 58
REMARK SMILES IDX 67 59 86 60 51 61 52 62 66 64 87 65 54 66 38 67 39 68 47 69
REMARK SMILES IDX 40 70 46 71 48 72 45 73 41 74 42 75 43 76 44 77 70 78 71 79
REMARK SMILES IDX 79 80 72 81 78 82 80 83 77 84 73 85 74 86 75 87 76 88 55 89
REMARK SMILES IDX 56 90 64 91 57 92 63 93 65 94 62 95 58 96 59 97 60 98 61 99
REMARK H PARENT 19 7 6 23 8 26 8 27 26 33 85 52 53 63
REMARK Flexibility Score: inf
ROOT
ATOM      1  C   UNL A   1      36.160  21.557  24.595  1.00  0.00     0.002 C 
ENDROOT
BRANCH   1   2
ATOM      2  C   UNL A   1      35.522  22.459  25.651  1.00  0.00     0.021 C 
BRANCH   2   3
ATOM      3  C   UNL A   1      34.533  23.465  25.079  1.00  0.00     0.116 C 
BRANCH   3   4
ATOM      4  N   UNL A   1      34.563  23.601  23.642  1.00  0.00    -0.356 N 
ATOM      5  C   UNL A   1      33.571  23.415  22.732  1.00  0.00     0.224 C 
ATOM      6  O   UNL A   1      33.744  23.935  21.622  1.00  0.00    -0.275 OA
ATOM      7  H   UNL A   1      35.431  23.869  23.265  1.00  0.00     0.163 HD
BRANCH   5   8
ATOM      8  C   UNL A   1      32.277  22.621  22.988  1.00  0.00     0.098 C 
ATOM      9  N   UNL A   1      30.946  23.606  24.849  1.00  0.00    -0.340 N 
ATOM     10  C   UNL A   1      30.984  22.377  25.640  1.00  0.00     0.119 C 
ATOM     11  C   UNL A   1      31.074  23.460  23.413  1.00  0.00     0.133 C 
ATOM     12  C   UNL A   1      32.109  21.407  25.265  1.00  0.00     0.022 C 
ATOM     13  C   UNL A   1      32.418  21.319  23.773  1.00  0.00     0.017 C 
BRANCH   9  14
ATOM     14  C   UNL A   1      30.889  24.831  25.513  1.00  0.00     0.245 C 
ATOM     15  O   UNL A   1      30.417  24.913  26.652  1.00  0.00    -0.272 OA
BRANCH  14  16
ATOM     16  C   UNL A   1      31.364  26.133  24.787  1.00  0.00     0.176 C 
BRANCH  16  17
ATOM     17  C   UNL A   1      30.223  27.044  24.255  1.00  0.00     0.018 C 
ATOM     18  C   UNL A   1      28.942  26.239  23.974  1.00  0.00     0.010 C 
BRANCH  17  19
ATOM     19  C   UNL A   1      30.609  27.845  22.987  1.00  0.00     0.002 C 
ATOM     20  C   UNL A   1      29.664  29.022  22.744  1.00  0.00     0.004 C 
ENDBRANCH  17  19
ENDBRANCH  16  17
BRANCH  16  21
ATOM     21  N   UNL A   1      32.264  26.863  25.698  1.00  0.00    -0.326 N 
ATOM     22  C   UNL A   1      33.468  27.351  25.273  1.00  0.00     0.312 C 
ATOM     23  H   UNL A   1      31.992  27.002  26.633  1.00  0.00     0.166 HD
ATOM     24  N   UNL A   1      34.098  28.096  26.209  1.00  0.00    -0.352 N 
ATOM     25  O   UNL A   1      34.000  27.128  24.202  1.00  0.00    -0.249 OA
ATOM     26  H   UNL A   1      33.661  28.272  27.074  1.00  0.00     0.161 HD
ATOM     27  H   UNL A   1      34.993  28.463  26.027  1.00  0.00     0.161 HD
ENDBRANCH  16  21
ENDBRANCH  14  16
ENDBRANCH   9  14
ENDBRANCH   5   8
ENDBRANCH   3   4
ENDBRANCH   2   3
ENDBRANCH   1   2
BRANCH   1  28
ATOM     28  C   UNL A   1      36.216  20.063  24.948  1.00  0.00     0.002 C 
BRANCH  28  29
ATOM     29  C   UNL A   1      37.602  19.414  24.904  1.00  0.00     0.021 C 
BRANCH  29  30
ATOM     30  C   UNL A   1      38.677  20.124  25.719  1.00  0.00     0.116 C 
BRANCH  30  31
ATOM     31  N   UNL A   1      39.816  19.260  25.990  1.00  0.00    -0.352 N 
ATOM     32  C   UNL A   1      41.130  19.580  26.221  1.00  0.00     0.251 C 
ATOM     33  H   UNL A   1      39.614  18.297  26.011  1.00  0.00     0.163 HD
ATOM     34  O   UNL A   1      41.981  18.694  26.199  1.00  0.00    -0.269 OA
BRANCH  32  35
ATOM     35  C   UNL A   1      41.517  20.981  26.486  1.00  0.00     0.039 A 
ATOM     36  C   UNL A   1      42.031  21.311  27.742  1.00  0.00     0.014 A 
ATOM     37  C   UNL A   1      41.345  21.972  25.515  1.00  0.00     0.014 A 
ATOM     38  C   UNL A   1      42.412  22.627  28.007  1.00  0.00     0.010 A 
ATOM     39  C   UNL A   1      41.806  23.263  25.751  1.00  0.00     0.010 A 
ATOM     40  C   UNL A   1      42.328  23.609  27.005  1.00  0.00    -0.014 A 
BRANCH  40  41
ATOM     41  C   UNL A   1      42.774  25.001  27.270  1.00  0.00     0.031 A 
ATOM     42  C   UNL A   1      41.859  25.972  27.965  1.00  0.00     0.074 A 
ATOM     43  C   UNL A   1      43.987  25.399  26.841  1.00  0.00     0.049 A 
ATOM     44  N   UNL A   1      42.066  27.227  28.276  1.00  0.00    -0.248 NA
ATOM     45  C   UNL A   1      40.524  25.477  28.327  1.00  0.00     0.031 C 
ATOM     46  C   UNL A   1      44.930  24.563  26.095  1.00  0.00     0.029 A 
ATOM     47  N   UNL A   1      44.634  26.603  26.963  1.00  0.00    -0.354 N 
ATOM     48  C   UNL A   1      40.882  27.674  28.853  1.00  0.00     0.074 A 
ATOM     49  C   UNL A   1      39.943  26.576  28.781  1.00  0.00     0.031 C 
ATOM     50  C   UNL A   1      46.045  25.269  25.853  1.00  0.00     0.029 A 
ATOM     51  C   UNL A   1      45.881  26.619  26.382  1.00  0.00     0.049 A 
ATOM     52  H   UNL A   1      44.244  27.380  27.423  1.00  0.00     0.167 HD
ATOM     53  C   UNL A   1      40.615  28.881  29.414  1.00  0.00     0.034 A 
ATOM     54  C   UNL A   1      46.785  27.612  26.274  1.00  0.00     0.034 A 
ATOM     55  C   UNL A   1      41.573  29.958  29.474  1.00  0.00     0.049 A 
ATOM     56  C   UNL A   1      46.472  28.945  26.898  1.00  0.00     0.074 A 
ATOM     57  C   UNL A   1      41.445  31.193  30.084  1.00  0.00     0.029 A 
ATOM     58  N   UNL A   1      42.832  29.940  28.882  1.00  0.00    -0.354 N 
ATOM     59  N   UNL A   1      45.382  29.329  27.523  1.00  0.00    -0.248 NA
ATOM     60  C   UNL A   1      47.516  29.975  26.819  1.00  0.00     0.031 C 
ATOM     61  C   UNL A   1      42.584  31.950  29.785  1.00  0.00     0.029 A 
ATOM     62  C   UNL A   1      43.469  31.157  29.071  1.00  0.00     0.049 A 
ATOM     63  H   UNL A   1      43.215  29.173  28.398  1.00  0.00     0.167 HD
ATOM     64  C   UNL A   1      45.617  30.639  27.931  1.00  0.00     0.074 A 
ATOM     65  C   UNL A   1      46.961  30.970  27.496  1.00  0.00     0.031 C 
ATOM     66  C   UNL A   1      44.801  31.486  28.611  1.00  0.00     0.034 A 
BRANCH  53  67
ATOM     67  C   UNL A   1      39.220  29.099  29.961  1.00  0.00     0.023 A 
ATOM     68  C   UNL A   1      38.222  29.753  29.215  1.00  0.00     0.031 A 
ATOM     69  C   UNL A   1      38.897  28.698  31.270  1.00  0.00     0.131 A 
ATOM     70  C   UNL A   1      36.996  30.081  29.815  1.00  0.00     0.055 A 
ATOM     71  C   UNL A   1      37.639  28.938  31.827  1.00  0.00     0.041 A 
ATOM     72  F   UNL A   1      39.808  28.088  32.043  1.00  0.00    -0.206 F 
ATOM     73  C   UNL A   1      36.687  29.654  31.107  1.00  0.00     0.022 A 
BRANCH  70  74
ATOM     74  S   UNL A   1      35.895  31.240  28.956  1.00  0.00     0.124 S 
ATOM     75  O   UNL A   1      35.175  30.347  28.051  1.00  0.00    -0.237 OA
ATOM     76  O   UNL A   1      35.116  31.805  30.051  1.00  0.00    -0.237 OA
ATOM     77  O   UNL A   1      36.816  32.167  28.300  1.00  0.00    -0.744 OA
ENDBRANCH  70  74
ENDBRANCH  53  67
BRANCH  54  78
ATOM     78  C   UNL A   1      48.056  27.379  25.530  1.00  0.00     0.023 A 
ATOM     79  C   UNL A   1      48.163  27.638  24.154  1.00  0.00     0.031 A 
ATOM     80  C   UNL A   1      49.196  26.897  26.200  1.00  0.00     0.131 A 
ATOM     81  C   UNL A   1      49.375  27.390  23.488  1.00  0.00     0.055 A 
ATOM     82  C   UNL A   1      50.412  26.704  25.546  1.00  0.00     0.041 A 
ATOM     83  F   UNL A   1      49.148  26.637  27.517  1.00  0.00    -0.206 F 
ATOM     84  C   UNL A   1      50.504  26.942  24.179  1.00  0.00     0.022 A 
BRANCH  81  85
ATOM     85  S   UNL A   1      49.444  27.604  21.689  1.00  0.00     0.124 S 
ATOM     86  O   UNL A   1      48.045  27.435  21.314  1.00  0.00    -0.237 OA
ATOM     87  O   UNL A   1      49.983  28.954  21.563  1.00  0.00    -0.237 OA
ATOM     88  O   UNL A   1      50.342  26.536  21.252  1.00  0.00    -0.744 OA
ENDBRANCH  81  85
ENDBRANCH  54  78
BRANCH  66  89
ATOM     89  C   UNL A   1      45.356  32.848  28.957  1.00  0.00     0.023 A 
ATOM     90  C   UNL A   1      45.305  33.925  28.054  1.00  0.00     0.031 A 
ATOM     91  C   UNL A   1      45.952  33.070  30.212  1.00  0.00     0.131 A 
ATOM     92  C   UNL A   1      45.890  35.154  28.396  1.00  0.00     0.055 A 
ATOM     93  C   UNL A   1      46.468  34.314  30.574  1.00  0.00     0.041 A 
ATOM     94  F   UNL A   1      46.036  32.077  31.113  1.00  0.00    -0.206 F 
ATOM     95  C   UNL A   1      46.451  35.361  29.659  1.00  0.00     0.022 A 
BRANCH  92  96
ATOM     96  S   UNL A   1      46.004  36.449  27.132  1.00  0.00     0.124 S 
ATOM     97  O   UNL A   1      44.752  37.174  27.328  1.00  0.00    -0.237 OA
ATOM     98  O   UNL A   1      47.219  37.158  27.518  1.00  0.00    -0.237 OA
ATOM     99  O   UNL A   1      46.095  35.701  25.880  1.00  0.00    -0.744 OA
ENDBRANCH  92  96
ENDBRANCH  66  89
ENDBRANCH  40  41
ENDBRANCH  32  35
ENDBRANCH  30  31
ENDBRANCH  29  30
ENDBRANCH  28  29
ENDBRANCH   1  28
TORSDOF 21
ENDMDL
