MODEL 1
REMARK VINA RESULT:     -11.9      0.000      0.000
REMARK SMILES O=C(NCCCCCCNC(=O)c1ccccc1/C=N\NC(=S)NCc1ccccc1)c1ccc(-c2c3nc(c(-c4cc(S(=O)(=O)[O-])ccc4F)c4ccc([nH]4)c(-c4cc(S(=O)(=O)[O-])ccc4F)c4nc(c(-c5cc(S(=O)(=O)[O-])ccc5F)c5ccc2[nH]5)C=C4)C=C3)cc1
REMARK SMILES IDX 8 1 7 2 6 3 5 4 4 5 3 6 1 7 2 8 32 10 33 11 94 12 34 13
REMARK SMILES IDX 93 14 35 15 36 16 37 17 87 18 38 19 92 20 86 21 88 22 39 23
REMARK SMILES IDX 91 24 85 25 84 26 40 28 72 29 52 30 71 31 53 32 56 33 70 34
REMARK SMILES IDX 89 35 54 36 55 37 69 39 90 40 57 41 41 42 42 43 50 44 43 45
REMARK SMILES IDX 49 46 51 47 48 48 44 49 45 50 46 51 47 52 73 53 74 54 82 55
REMARK SMILES IDX 75 56 81 57 83 58 80 59 76 60 77 61 78 62 79 63 58 64 59 65
REMARK SMILES IDX 67 66 60 67 66 68 68 69 65 70 61 71 62 72 63 73 64 74 9 75
REMARK SMILES IDX 10 76 11 77 12 79 13 80 14 81 18 82 15 83 17 84 16 85 19 86
REMARK SMILES IDX 20 87 21 88 22 90 23 91 24 92 25 94 26 95 27 96 31 97 28 98
REMARK SMILES IDX 30 99 29 100
REMARK H PARENT 3 9 88 27 56 38 10 78 21 89 24 93
REMARK Flexibility Score: inf
ROOT
ATOM      1  C   UNL A   1      36.784  22.008  23.552  1.00  0.00     0.021 C 
ENDROOT
BRANCH   1   2
ATOM      2  C   UNL A   1      36.199  21.365  24.805  1.00  0.00     0.002 C 
BRANCH   2   3
ATOM      3  C   UNL A   1      36.619  19.909  25.025  1.00  0.00     0.002 C 
BRANCH   3   4
ATOM      4  C   UNL A   1      38.106  19.623  24.790  1.00  0.00     0.021 C 
BRANCH   4   5
ATOM      5  C   UNL A   1      39.014  20.115  25.906  1.00  0.00     0.116 C 
BRANCH   5   6
ATOM      6  N   UNL A   1      40.153  19.229  26.082  1.00  0.00    -0.352 N 
ATOM      7  O   UNL A   1      42.347  18.704  26.033  1.00  0.00    -0.269 OA
ATOM      8  C   UNL A   1      41.481  19.561  26.174  1.00  0.00     0.251 C 
ATOM      9  H   UNL A   1      39.945  18.268  26.143  1.00  0.00     0.163 HD
BRANCH   8  10
ATOM     10  C   UNL A   1      41.845  20.965  26.450  1.00  0.00     0.039 A 
ATOM     11  C   UNL A   1      42.096  21.368  27.765  1.00  0.00     0.014 A 
ATOM     12  C   UNL A   1      41.940  21.878  25.399  1.00  0.00     0.014 A 
ATOM     13  C   UNL A   1      42.322  22.708  28.043  1.00  0.00     0.010 A 
ATOM     14  C   UNL A   1      42.265  23.209  25.671  1.00  0.00     0.010 A 
ATOM     15  C   UNL A   1      42.447  23.635  26.997  1.00  0.00    -0.014 A 
BRANCH  15  16
ATOM     16  C   UNL A   1      42.866  25.023  27.314  1.00  0.00     0.031 A 
ATOM     17  C   UNL A   1      41.936  25.983  27.997  1.00  0.00     0.074 A 
ATOM     18  C   UNL A   1      44.117  25.401  26.983  1.00  0.00     0.049 A 
ATOM     19  N   UNL A   1      42.141  27.231  28.328  1.00  0.00    -0.248 NA
ATOM     20  C   UNL A   1      40.600  25.480  28.345  1.00  0.00     0.031 C 
ATOM     21  C   UNL A   1      45.101  24.546  26.312  1.00  0.00     0.029 A 
ATOM     22  N   UNL A   1      44.783  26.584  27.172  1.00  0.00    -0.354 N 
ATOM     23  C   UNL A   1      40.957  27.673  28.910  1.00  0.00     0.074 A 
ATOM     24  C   UNL A   1      40.027  26.563  28.853  1.00  0.00     0.031 C 
ATOM     25  C   UNL A   1      46.255  25.215  26.187  1.00  0.00     0.029 A 
ATOM     26  C   UNL A   1      46.069  26.571  26.684  1.00  0.00     0.049 A 
ATOM     27  H   UNL A   1      44.380  27.366  27.613  1.00  0.00     0.167 HD
ATOM     28  C   UNL A   1      40.682  28.889  29.444  1.00  0.00     0.034 A 
ATOM     29  C   UNL A   1      46.989  27.552  26.610  1.00  0.00     0.034 A 
ATOM     30  C   UNL A   1      41.628  29.982  29.480  1.00  0.00     0.049 A 
ATOM     31  C   UNL A   1      46.634  28.908  27.154  1.00  0.00     0.074 A 
ATOM     32  C   UNL A   1      41.466  31.244  30.025  1.00  0.00     0.029 A 
ATOM     33  N   UNL A   1      42.907  29.951  28.934  1.00  0.00    -0.354 N 
ATOM     34  N   UNL A   1      45.519  29.303  27.724  1.00  0.00    -0.248 NA
ATOM     35  C   UNL A   1      47.662  29.949  27.049  1.00  0.00     0.031 C 
ATOM     36  C   UNL A   1      42.609  31.999  29.735  1.00  0.00     0.029 A 
ATOM     37  C   UNL A   1      43.526  31.182  29.094  1.00  0.00     0.049 A 
ATOM     38  H   UNL A   1      43.314  29.167  28.498  1.00  0.00     0.167 HD
ATOM     39  C   UNL A   1      45.721  30.635  28.068  1.00  0.00     0.074 A 
ATOM     40  C   UNL A   1      47.073  30.966  27.661  1.00  0.00     0.031 C 
ATOM     41  C   UNL A   1      44.870  31.505  28.668  1.00  0.00     0.034 A 
BRANCH  28  42
ATOM     42  C   UNL A   1      39.289  29.117  29.985  1.00  0.00     0.023 A 
ATOM     43  C   UNL A   1      38.302  29.786  29.239  1.00  0.00     0.031 A 
ATOM     44  C   UNL A   1      38.945  28.673  31.274  1.00  0.00     0.131 A 
ATOM     45  C   UNL A   1      37.050  30.056  29.813  1.00  0.00     0.055 A 
ATOM     46  C   UNL A   1      37.670  28.869  31.808  1.00  0.00     0.041 A 
ATOM     47  F   UNL A   1      39.849  28.048  32.045  1.00  0.00    -0.206 F 
ATOM     48  C   UNL A   1      36.717  29.579  31.082  1.00  0.00     0.022 A 
BRANCH  45  49
ATOM     49  S   UNL A   1      35.918  31.170  28.937  1.00  0.00     0.124 S 
ATOM     50  O   UNL A   1      35.210  31.804  30.047  1.00  0.00    -0.237 OA
ATOM     51  O   UNL A   1      36.834  32.028  28.192  1.00  0.00    -0.237 OA
ATOM     52  O   UNL A   1      35.106  30.266  28.125  1.00  0.00    -0.744 OA
ENDBRANCH  45  49
ENDBRANCH  28  42
BRANCH  29  53
ATOM     53  C   UNL A   1      48.304  27.297  25.959  1.00  0.00     0.023 A 
ATOM     54  C   UNL A   1      48.484  27.494  24.583  1.00  0.00     0.031 A 
ATOM     55  C   UNL A   1      49.400  26.823  26.706  1.00  0.00     0.131 A 
ATOM     56  C   UNL A   1      49.715  27.178  23.987  1.00  0.00     0.055 A 
ATOM     57  C   UNL A   1      50.641  26.571  26.121  1.00  0.00     0.041 A 
ATOM     58  F   UNL A   1      49.283  26.619  28.029  1.00  0.00    -0.206 F 
ATOM     59  C   UNL A   1      50.799  26.734  24.749  1.00  0.00     0.022 A 
BRANCH  56  60
ATOM     60  S   UNL A   1      49.851  27.265  22.181  1.00  0.00     0.124 S 
ATOM     61  O   UNL A   1      51.200  26.757  21.961  1.00  0.00    -0.237 OA
ATOM     62  O   UNL A   1      48.759  26.395  21.755  1.00  0.00    -0.237 OA
ATOM     63  O   UNL A   1      49.663  28.686  21.895  1.00  0.00    -0.744 OA
ENDBRANCH  56  60
ENDBRANCH  29  53
BRANCH  41  64
ATOM     64  C   UNL A   1      45.401  32.888  28.958  1.00  0.00     0.023 A 
ATOM     65  C   UNL A   1      45.290  33.937  28.028  1.00  0.00     0.031 A 
ATOM     66  C   UNL A   1      46.049  33.153  30.178  1.00  0.00     0.131 A 
ATOM     67  C   UNL A   1      45.874  35.181  28.305  1.00  0.00     0.055 A 
ATOM     68  C   UNL A   1      46.566  34.414  30.478  1.00  0.00     0.041 A 
ATOM     69  F   UNL A   1      46.192  32.188  31.101  1.00  0.00    -0.206 F 
ATOM     70  C   UNL A   1      46.494  35.433  29.532  1.00  0.00     0.022 A 
BRANCH  67  71
ATOM     71  S   UNL A   1      45.911  36.436  26.996  1.00  0.00     0.124 S 
ATOM     72  O   UNL A   1      46.959  37.336  27.469  1.00  0.00    -0.237 OA
ATOM     73  O   UNL A   1      46.235  35.645  25.814  1.00  0.00    -0.237 OA
ATOM     74  O   UNL A   1      44.560  36.993  27.018  1.00  0.00    -0.744 OA
ENDBRANCH  67  71
ENDBRANCH  41  64
ENDBRANCH  15  16
ENDBRANCH   8  10
ENDBRANCH   5   6
ENDBRANCH   4   5
ENDBRANCH   3   4
ENDBRANCH   2   3
ENDBRANCH   1   2
BRANCH   1  75
ATOM     75  C   UNL A   1      35.999  23.206  23.030  1.00  0.00     0.116 C 
BRANCH  75  76
ATOM     76  N   UNL A   1      34.575  22.972  22.859  1.00  0.00    -0.352 N 
ATOM     77  C   UNL A   1      33.481  23.779  23.072  1.00  0.00     0.251 C 
ATOM     78  H   UNL A   1      34.352  22.070  22.531  1.00  0.00     0.163 HD
ATOM     79  O   UNL A   1      32.352  23.342  22.873  1.00  0.00    -0.269 OA
BRANCH  77  80
ATOM     80  C   UNL A   1      33.632  25.092  23.717  1.00  0.00     0.048 A 
ATOM     81  C   UNL A   1      33.472  26.536  22.641  1.00  0.00     0.014 A 
ATOM     82  C   UNL A   1      33.583  25.309  25.517  1.00  0.00     0.007 A 
ATOM     83  C   UNL A   1      33.274  28.199  23.362  1.00  0.00     0.001 A 
ATOM     84  C   UNL A   1      33.395  26.966  26.252  1.00  0.00     0.010 A 
ATOM     85  C   UNL A   1      33.252  28.407  25.158  1.00  0.00     0.001 A 
BRANCH  82  86
ATOM     86  C   UNL A   1      34.395  24.399  26.278  1.00  0.00     0.142 C 
ATOM     87  N   UNL A   1      33.800  23.479  26.950  1.00  0.00    -0.181 NA
BRANCH  87  88
ATOM     88  N   UNL A   1      32.426  23.532  27.020  1.00  0.00    -0.254 N 
ATOM     89  H   UNL A   1      32.077  24.250  27.596  1.00  0.00     0.193 HD
BRANCH  88  90
ATOM     90  C   UNL A   1      31.462  22.764  26.431  1.00  0.00     0.187 C 
ATOM     91  S   UNL A   1      29.868  23.218  26.767  1.00  0.00    -0.039 S 
BRANCH  90  92
ATOM     92  N   UNL A   1      31.624  21.611  25.620  1.00  0.00    -0.357 N 
ATOM     93  H   UNL A   1      30.704  21.291  25.474  1.00  0.00     0.163 HD
BRANCH  92  94
ATOM     94  C   UNL A   1      32.812  20.244  24.578  1.00  0.00     0.151 C 
BRANCH  94  95
ATOM     95  C   UNL A   1      32.901  18.568  24.460  1.00  0.00    -0.029 A 
ATOM     96  C   UNL A   1      33.663  17.969  23.434  1.00  0.00     0.005 A 
ATOM     97  C   UNL A   1      32.592  17.800  25.601  1.00  0.00     0.005 A 
ATOM     98  C   UNL A   1      34.166  16.675  23.586  1.00  0.00     0.000 A 
ATOM     99  C   UNL A   1      33.084  16.500  25.734  1.00  0.00     0.000 A 
ATOM    100  C   UNL A   1      33.896  15.951  24.743  1.00  0.00     0.000 A 
ENDBRANCH  94  95
ENDBRANCH  92  94
ENDBRANCH  90  92
ENDBRANCH  88  90
ENDBRANCH  87  88
ENDBRANCH  82  86
ENDBRANCH  77  80
ENDBRANCH  75  76
ENDBRANCH   1  75
TORSDOF 22
ENDMDL
MODEL 2
REMARK VINA RESULT:     -11.4      2.076      7.719
REMARK SMILES O=C(NCCCCCCNC(=O)c1ccccc1/C=N\NC(=S)NCc1ccccc1)c1ccc(-c2c3nc(c(-c4cc(S(=O)(=O)[O-])ccc4F)c4ccc([nH]4)c(-c4cc(S(=O)(=O)[O-])ccc4F)c4nc(c(-c5cc(S(=O)(=O)[O-])ccc5F)c5ccc2[nH]5)C=C4)C=C3)cc1
REMARK SMILES IDX 8 1 7 2 6 3 5 4 4 5 3 6 1 7 2 8 32 10 33 11 94 12 34 13
REMARK SMILES IDX 93 14 35 15 36 16 37 17 87 18 38 19 92 20 86 21 88 22 39 23
REMARK SMILES IDX 91 24 85 25 84 26 40 28 72 29 52 30 71 31 53 32 56 33 70 34
REMARK SMILES IDX 89 35 54 36 55 37 69 39 90 40 57 41 41 42 42 43 50 44 43 45
REMARK SMILES IDX 49 46 51 47 48 48 44 49 45 50 46 51 47 52 73 53 74 54 82 55
REMARK SMILES IDX 75 56 81 57 83 58 80 59 76 60 77 61 78 62 79 63 58 64 59 65
REMARK SMILES IDX 67 66 60 67 66 68 68 69 65 70 61 71 62 72 63 73 64 74 9 75
REMARK SMILES IDX 10 76 11 77 12 79 13 80 14 81 18 82 15 83 17 84 16 85 19 86
REMARK SMILES IDX 20 87 21 88 22 90 23 91 24 92 25 94 26 95 27 96 31 97 28 98
REMARK SMILES IDX 30 99 29 100
REMARK H PARENT 3 9 88 27 56 38 10 78 21 89 24 93
REMARK Flexibility Score: inf
ROOT
ATOM      1  C   UNL A   1      34.317  23.913  23.124  1.00  0.00     0.021 C 
ENDROOT
BRANCH   1   2
ATOM      2  C   UNL A   1      35.590  23.796  23.955  1.00  0.00     0.002 C 
BRANCH   2   3
ATOM      3  C   UNL A   1      36.521  22.657  23.530  1.00  0.00     0.002 C 
BRANCH   3   4
ATOM      4  C   UNL A   1      36.870  21.660  24.640  1.00  0.00     0.021 C 
BRANCH   4   5
ATOM      5  C   UNL A   1      37.776  22.230  25.720  1.00  0.00     0.116 C 
BRANCH   5   6
ATOM      6  N   UNL A   1      38.761  21.249  26.147  1.00  0.00    -0.352 N 
ATOM      7  O   UNL A   1      40.849  20.538  26.619  1.00  0.00    -0.269 OA
ATOM      8  C   UNL A   1      40.049  21.466  26.565  1.00  0.00     0.251 C 
ATOM      9  H   UNL A   1      38.466  20.309  26.133  1.00  0.00     0.163 HD
BRANCH   8  10
ATOM     10  C   UNL A   1      40.450  22.832  26.953  1.00  0.00     0.039 A 
ATOM     11  C   UNL A   1      41.219  23.027  28.105  1.00  0.00     0.014 A 
ATOM     12  C   UNL A   1      40.064  23.919  26.168  1.00  0.00     0.014 A 
ATOM     13  C   UNL A   1      41.497  24.314  28.538  1.00  0.00     0.010 A 
ATOM     14  C   UNL A   1      40.430  25.211  26.554  1.00  0.00     0.010 A 
ATOM     15  C   UNL A   1      41.140  25.418  27.748  1.00  0.00    -0.014 A 
BRANCH  15  16
ATOM     16  C   UNL A   1      41.608  26.769  28.148  1.00  0.00     0.031 A 
ATOM     17  C   UNL A   1      43.049  27.166  28.020  1.00  0.00     0.074 A 
ATOM     18  C   UNL A   1      40.696  27.643  28.618  1.00  0.00     0.049 A 
ATOM     19  N   UNL A   1      43.622  28.298  28.340  1.00  0.00    -0.248 NA
ATOM     20  C   UNL A   1      43.970  26.159  27.474  1.00  0.00     0.031 C 
ATOM     21  C   UNL A   1      39.267  27.357  28.785  1.00  0.00     0.029 A 
ATOM     22  N   UNL A   1      40.820  28.945  29.029  1.00  0.00    -0.354 N 
ATOM     23  C   UNL A   1      44.973  28.140  28.049  1.00  0.00     0.074 A 
ATOM     24  C   UNL A   1      45.136  26.786  27.560  1.00  0.00     0.031 C 
ATOM     25  C   UNL A   1      38.643  28.460  29.218  1.00  0.00     0.029 A 
ATOM     26  C   UNL A   1      39.635  29.503  29.446  1.00  0.00     0.049 A 
ATOM     27  H   UNL A   1      41.676  29.432  29.025  1.00  0.00     0.167 HD
ATOM     28  C   UNL A   1      45.974  29.045  28.177  1.00  0.00     0.034 A 
ATOM     29  C   UNL A   1      39.375  30.708  29.987  1.00  0.00     0.034 A 
ATOM     30  C   UNL A   1      45.782  30.388  28.677  1.00  0.00     0.049 A 
ATOM     31  C   UNL A   1      40.516  31.670  30.174  1.00  0.00     0.074 A 
ATOM     32  C   UNL A   1      46.719  31.397  28.817  1.00  0.00     0.029 A 
ATOM     33  N   UNL A   1      44.576  30.906  29.135  1.00  0.00    -0.354 N 
ATOM     34  N   UNL A   1      41.784  31.514  29.871  1.00  0.00    -0.248 NA
ATOM     35  C   UNL A   1      40.190  32.969  30.772  1.00  0.00     0.031 C 
ATOM     36  C   UNL A   1      46.101  32.490  29.435  1.00  0.00     0.029 A 
ATOM     37  C   UNL A   1      44.755  32.202  29.595  1.00  0.00     0.049 A 
ATOM     38  H   UNL A   1      43.719  30.422  29.134  1.00  0.00     0.167 HD
ATOM     39  C   UNL A   1      42.405  32.708  30.220  1.00  0.00     0.074 A 
ATOM     40  C   UNL A   1      41.366  33.579  30.734  1.00  0.00     0.031 C 
ATOM     41  C   UNL A   1      43.713  33.055  30.122  1.00  0.00     0.034 A 
BRANCH  28  42
ATOM     42  C   UNL A   1      47.373  28.597  27.819  1.00  0.00     0.023 A 
ATOM     43  C   UNL A   1      47.807  28.510  26.484  1.00  0.00     0.031 A 
ATOM     44  C   UNL A   1      48.284  28.234  28.828  1.00  0.00     0.131 A 
ATOM     45  C   UNL A   1      49.083  28.004  26.191  1.00  0.00     0.055 A 
ATOM     46  C   UNL A   1      49.582  27.812  28.534  1.00  0.00     0.041 A 
ATOM     47  F   UNL A   1      47.923  28.273  30.120  1.00  0.00    -0.206 F 
ATOM     48  C   UNL A   1      49.983  27.679  27.208  1.00  0.00     0.022 A 
BRANCH  45  49
ATOM     49  S   UNL A   1      49.491  27.632  24.464  1.00  0.00     0.124 S 
ATOM     50  O   UNL A   1      48.224  27.918  23.793  1.00  0.00    -0.237 OA
ATOM     51  O   UNL A   1      50.581  28.562  24.190  1.00  0.00    -0.237 OA
ATOM     52  O   UNL A   1      49.865  26.220  24.496  1.00  0.00    -0.744 OA
ENDBRANCH  45  49
ENDBRANCH  28  42
BRANCH  29  53
ATOM     53  C   UNL A   1      37.993  31.048  30.428  1.00  0.00     0.023 A 
ATOM     54  C   UNL A   1      37.087  31.673  29.559  1.00  0.00     0.031 A 
ATOM     55  C   UNL A   1      37.567  30.776  31.742  1.00  0.00     0.131 A 
ATOM     56  C   UNL A   1      35.816  32.045  30.026  1.00  0.00     0.055 A 
ATOM     57  C   UNL A   1      36.280  31.089  32.182  1.00  0.00     0.041 A 
ATOM     58  F   UNL A   1      38.393  30.176  32.614  1.00  0.00    -0.206 F 
ATOM     59  C   UNL A   1      35.401  31.742  31.325  1.00  0.00     0.022 A 
BRANCH  56  60
ATOM     60  S   UNL A   1      34.745  33.019  28.934  1.00  0.00     0.124 S 
ATOM     61  O   UNL A   1      34.143  31.980  28.107  1.00  0.00    -0.237 OA
ATOM     62  O   UNL A   1      33.857  33.674  29.890  1.00  0.00    -0.237 OA
ATOM     63  O   UNL A   1      35.679  33.906  28.244  1.00  0.00    -0.744 OA
ENDBRANCH  56  60
ENDBRANCH  29  53
BRANCH  41  64
ATOM     64  C   UNL A   1      44.079  34.459  30.542  1.00  0.00     0.023 A 
ATOM     65  C   UNL A   1      43.963  35.551  29.665  1.00  0.00     0.031 A 
ATOM     66  C   UNL A   1      44.574  34.700  31.836  1.00  0.00     0.131 A 
ATOM     67  C   UNL A   1      44.396  36.822  30.070  1.00  0.00     0.055 A 
ATOM     68  C   UNL A   1      44.937  35.980  32.258  1.00  0.00     0.041 A 
ATOM     69  F   UNL A   1      44.715  33.695  32.715  1.00  0.00    -0.206 F 
ATOM     70  C   UNL A   1      44.863  37.048  31.368  1.00  0.00     0.022 A 
BRANCH  67  71
ATOM     71  S   UNL A   1      44.445  38.157  28.844  1.00  0.00     0.124 S 
ATOM     72  O   UNL A   1      44.084  37.454  27.617  1.00  0.00    -0.237 OA
ATOM     73  O   UNL A   1      43.450  39.092  29.359  1.00  0.00    -0.237 OA
ATOM     74  O   UNL A   1      45.827  38.629  28.905  1.00  0.00    -0.744 OA
ENDBRANCH  67  71
ENDBRANCH  41  64
ENDBRANCH  15  16
ENDBRANCH   8  10
ENDBRANCH   5   6
ENDBRANCH   4   5
ENDBRANCH   3   4
ENDBRANCH   2   3
ENDBRANCH   1   2
BRANCH   1  75
ATOM     75  C   UNL A   1      33.563  25.226  23.302  1.00  0.00     0.116 C 
BRANCH  75  76
ATOM     76  N   UNL A   1      33.800  25.896  24.570  1.00  0.00    -0.352 N 
ATOM     77  C   UNL A   1      33.006  26.720  25.333  1.00  0.00     0.251 C 
ATOM     78  H   UNL A   1      34.692  25.729  24.953  1.00  0.00     0.163 HD
ATOM     79  O   UNL A   1      33.442  27.192  26.379  1.00  0.00    -0.269 OA
BRANCH  77  80
ATOM     80  C   UNL A   1      31.713  27.200  24.822  1.00  0.00     0.048 A 
ATOM     81  C   UNL A   1      31.768  28.626  23.712  1.00  0.00     0.014 A 
ATOM     82  C   UNL A   1      30.188  26.225  24.949  1.00  0.00     0.007 A 
ATOM     83  C   UNL A   1      30.299  29.084  22.735  1.00  0.00     0.001 A 
ATOM     84  C   UNL A   1      28.709  26.677  23.986  1.00  0.00     0.010 A 
ATOM     85  C   UNL A   1      28.778  28.120  22.887  1.00  0.00     0.001 A 
BRANCH  82  86
ATOM     86  C   UNL A   1      29.917  25.655  26.240  1.00  0.00     0.142 C 
ATOM     87  N   UNL A   1      30.221  24.420  26.428  1.00  0.00    -0.181 NA
BRANCH  87  88
ATOM     88  N   UNL A   1      30.635  23.694  25.335  1.00  0.00    -0.254 N 
ATOM     89  H   UNL A   1      30.198  23.949  24.490  1.00  0.00     0.193 HD
BRANCH  88  90
ATOM     90  C   UNL A   1      31.544  22.682  25.214  1.00  0.00     0.187 C 
ATOM     91  S   UNL A   1      32.662  22.556  26.476  1.00  0.00    -0.039 S 
BRANCH  90  92
ATOM     92  N   UNL A   1      31.701  21.759  24.147  1.00  0.00    -0.357 N 
ATOM     93  H   UNL A   1      31.136  22.126  23.429  1.00  0.00     0.163 HD
BRANCH  92  94
ATOM     94  C   UNL A   1      32.516  20.022  23.319  1.00  0.00     0.151 C 
BRANCH  94  95
ATOM     95  C   UNL A   1      32.682  18.419  23.802  1.00  0.00    -0.029 A 
ATOM     96  C   UNL A   1      33.401  17.507  22.999  1.00  0.00     0.005 A 
ATOM     97  C   UNL A   1      32.494  18.108  25.164  1.00  0.00     0.005 A 
ATOM     98  C   UNL A   1      33.979  16.367  23.561  1.00  0.00     0.000 A 
ATOM     99  C   UNL A   1      33.060  16.955  25.712  1.00  0.00     0.000 A 
ATOM    100  C   UNL A   1      33.828  16.105  24.920  1.00  0.00     0.000 A 
ENDBRANCH  94  95
ENDBRANCH  92  94
ENDBRANCH  90  92
ENDBRANCH  88  90
ENDBRANCH  87  88
ENDBRANCH  82  86
ENDBRANCH  77  80
ENDBRANCH  75  76
ENDBRANCH   1  75
TORSDOF 22
ENDMDL
MODEL 3
REMARK VINA RESULT:     -10.9      1.888      2.345
REMARK SMILES O=C(NCCCCCCNC(=O)c1ccccc1/C=N\NC(=S)NCc1ccccc1)c1ccc(-c2c3nc(c(-c4cc(S(=O)(=O)[O-])ccc4F)c4ccc([nH]4)c(-c4cc(S(=O)(=O)[O-])ccc4F)c4nc(c(-c5cc(S(=O)(=O)[O-])ccc5F)c5ccc2[nH]5)C=C4)C=C3)cc1
REMARK SMILES IDX 8 1 7 2 6 3 5 4 4 5 3 6 1 7 2 8 32 10 33 11 94 12 34 13
REMARK SMILES IDX 93 14 35 15 36 16 37 17 87 18 38 19 92 20 86 21 88 22 39 23
REMARK SMILES IDX 91 24 85 25 84 26 40 28 72 29 52 30 71 31 53 32 56 33 70 34
REMARK SMILES IDX 89 35 54 36 55 37 69 39 90 40 57 41 41 42 42 43 50 44 43 45
REMARK SMILES IDX 49 46 51 47 48 48 44 49 45 50 46 51 47 52 73 53 74 54 82 55
REMARK SMILES IDX 75 56 81 57 83 58 80 59 76 60 77 61 78 62 79 63 58 64 59 65
REMARK SMILES IDX 67 66 60 67 66 68 68 69 65 70 61 71 62 72 63 73 64 74 9 75
REMARK SMILES IDX 10 76 11 77 12 79 13 80 14 81 18 82 15 83 17 84 16 85 19 86
REMARK SMILES IDX 20 87 21 88 22 90 23 91 24 92 25 94 26 95 27 96 31 97 28 98
REMARK SMILES IDX 30 99 29 100
REMARK H PARENT 3 9 88 27 56 38 10 78 21 89 24 93
REMARK Flexibility Score: inf
ROOT
ATOM      1  C   UNL A   1      34.353  23.123  22.891  1.00  0.00     0.021 C 
ENDROOT
BRANCH   1   2
ATOM      2  C   UNL A   1      35.188  22.646  24.075  1.00  0.00     0.002 C 
BRANCH   2   3
ATOM      3  C   UNL A   1      36.624  22.254  23.720  1.00  0.00     0.002 C 
BRANCH   3   4
ATOM      4  C   UNL A   1      37.206  21.108  24.555  1.00  0.00     0.021 C 
BRANCH   4   5
ATOM      5  C   UNL A   1      38.034  21.569  25.745  1.00  0.00     0.116 C 
BRANCH   5   6
ATOM      6  N   UNL A   1      38.948  20.527  26.182  1.00  0.00    -0.352 N 
ATOM      7  O   UNL A   1      40.986  19.645  26.580  1.00  0.00    -0.269 OA
ATOM      8  C   UNL A   1      40.275  20.642  26.507  1.00  0.00     0.251 C 
ATOM      9  H   UNL A   1      38.565  19.622  26.252  1.00  0.00     0.163 HD
BRANCH   8  10
ATOM     10  C   UNL A   1      40.828  21.985  26.773  1.00  0.00     0.039 A 
ATOM     11  C   UNL A   1      41.446  22.248  27.999  1.00  0.00     0.014 A 
ATOM     12  C   UNL A   1      40.733  22.981  25.800  1.00  0.00     0.014 A 
ATOM     13  C   UNL A   1      41.860  23.537  28.299  1.00  0.00     0.010 A 
ATOM     14  C   UNL A   1      41.239  24.255  26.068  1.00  0.00     0.010 A 
ATOM     15  C   UNL A   1      41.797  24.544  27.324  1.00  0.00    -0.014 A 
BRANCH  15  16
ATOM     16  C   UNL A   1      42.410  25.864  27.614  1.00  0.00     0.031 A 
ATOM     17  C   UNL A   1      41.648  26.939  28.332  1.00  0.00     0.074 A 
ATOM     18  C   UNL A   1      43.685  26.072  27.226  1.00  0.00     0.049 A 
ATOM     19  N   UNL A   1      42.032  28.149  28.647  1.00  0.00    -0.248 NA
ATOM     20  C   UNL A   1      40.273  26.619  28.741  1.00  0.00     0.031 C 
ATOM     21  C   UNL A   1      44.516  25.092  26.518  1.00  0.00     0.029 A 
ATOM     22  N   UNL A   1      44.511  27.154  27.379  1.00  0.00    -0.354 N 
ATOM     23  C   UNL A   1      40.945  28.745  29.277  1.00  0.00     0.074 A 
ATOM     24  C   UNL A   1      39.874  27.770  29.267  1.00  0.00     0.031 C 
ATOM     25  C   UNL A   1      45.741  25.601  26.338  1.00  0.00     0.029 A 
ATOM     26  C   UNL A   1      45.760  26.970  26.835  1.00  0.00     0.049 A 
ATOM     27  H   UNL A   1      44.235  27.983  27.833  1.00  0.00     0.167 HD
ATOM     28  C   UNL A   1      40.859  29.987  29.815  1.00  0.00     0.034 A 
ATOM     29  C   UNL A   1      46.799  27.819  26.715  1.00  0.00     0.034 A 
ATOM     30  C   UNL A   1      41.943  30.943  29.803  1.00  0.00     0.049 A 
ATOM     31  C   UNL A   1      46.653  29.211  27.266  1.00  0.00     0.074 A 
ATOM     32  C   UNL A   1      41.975  32.216  30.347  1.00  0.00     0.029 A 
ATOM     33  N   UNL A   1      43.181  30.742  29.202  1.00  0.00    -0.354 N 
ATOM     34  N   UNL A   1      45.626  29.751  27.882  1.00  0.00    -0.248 NA
ATOM     35  C   UNL A   1      47.805  30.105  27.110  1.00  0.00     0.031 C 
ATOM     36  C   UNL A   1      43.194  32.811  30.003  1.00  0.00     0.029 A 
ATOM     37  C   UNL A   1      43.965  31.879  29.327  1.00  0.00     0.049 A 
ATOM     38  H   UNL A   1      43.459  29.911  28.753  1.00  0.00     0.167 HD
ATOM     39  C   UNL A   1      46.020  31.044  28.209  1.00  0.00     0.074 A 
ATOM     40  C   UNL A   1      47.384  31.192  27.741  1.00  0.00     0.031 C 
ATOM     41  C   UNL A   1      45.319  32.020  28.840  1.00  0.00     0.034 A 
BRANCH  28  42
ATOM     42  C   UNL A   1      39.534  30.399  30.415  1.00  0.00     0.023 A 
ATOM     43  C   UNL A   1      38.503  30.950  29.634  1.00  0.00     0.031 A 
ATOM     44  C   UNL A   1      39.302  30.254  31.795  1.00  0.00     0.131 A 
ATOM     45  C   UNL A   1      37.323  31.402  30.244  1.00  0.00     0.055 A 
ATOM     46  C   UNL A   1      38.093  30.627  32.384  1.00  0.00     0.041 A 
ATOM     47  F   UNL A   1      40.255  29.756  32.599  1.00  0.00    -0.206 F 
ATOM     48  C   UNL A   1      37.099  31.220  31.611  1.00  0.00     0.022 A 
BRANCH  45  49
ATOM     49  S   UNL A   1      36.150  32.368  29.254  1.00  0.00     0.124 S 
ATOM     50  O   UNL A   1      36.198  31.666  27.972  1.00  0.00    -0.237 OA
ATOM     51  O   UNL A   1      34.910  32.231  30.009  1.00  0.00    -0.237 OA
ATOM     52  O   UNL A   1      36.732  33.709  29.243  1.00  0.00    -0.744 OA
ENDBRANCH  45  49
ENDBRANCH  28  42
BRANCH  29  53
ATOM     53  C   UNL A   1      48.038  27.391  26.009  1.00  0.00     0.023 A 
ATOM     54  C   UNL A   1      49.102  26.796  26.704  1.00  0.00     0.031 A 
ATOM     55  C   UNL A   1      48.188  27.595  24.624  1.00  0.00     0.131 A 
ATOM     56  C   UNL A   1      50.284  26.468  26.023  1.00  0.00     0.055 A 
ATOM     57  C   UNL A   1      49.340  27.208  23.940  1.00  0.00     0.041 A 
ATOM     58  F   UNL A   1      47.200  28.157  23.909  1.00  0.00    -0.206 F 
ATOM     59  C   UNL A   1      50.404  26.654  24.644  1.00  0.00     0.022 A 
BRANCH  56  60
ATOM     60  S   UNL A   1      51.703  25.880  26.987  1.00  0.00     0.124 S 
ATOM     61  O   UNL A   1      52.581  27.044  26.961  1.00  0.00    -0.237 OA
ATOM     62  O   UNL A   1      51.086  25.568  28.272  1.00  0.00    -0.237 OA
ATOM     63  O   UNL A   1      52.175  24.725  26.226  1.00  0.00    -0.744 OA
ENDBRANCH  56  60
ENDBRANCH  29  53
BRANCH  41  64
ATOM     64  C   UNL A   1      46.043  33.320  29.099  1.00  0.00     0.023 A 
ATOM     65  C   UNL A   1      45.991  34.392  28.191  1.00  0.00     0.031 A 
ATOM     66  C   UNL A   1      46.815  33.477  30.264  1.00  0.00     0.131 A 
ATOM     67  C   UNL A   1      46.748  35.548  28.430  1.00  0.00     0.055 A 
ATOM     68  C   UNL A   1      47.510  34.657  30.531  1.00  0.00     0.041 A 
ATOM     69  F   UNL A   1      46.908  32.485  31.163  1.00  0.00    -0.206 F 
ATOM     70  C   UNL A   1      47.491  35.696  29.605  1.00  0.00     0.022 A 
BRANCH  67  71
ATOM     71  S   UNL A   1      46.838  36.814  27.135  1.00  0.00     0.124 S 
ATOM     72  O   UNL A   1      45.468  37.316  27.106  1.00  0.00    -0.237 OA
ATOM     73  O   UNL A   1      47.843  37.730  27.662  1.00  0.00    -0.237 OA
ATOM     74  O   UNL A   1      47.247  36.062  25.949  1.00  0.00    -0.744 OA
ENDBRANCH  67  71
ENDBRANCH  41  64
ENDBRANCH  15  16
ENDBRANCH   8  10
ENDBRANCH   5   6
ENDBRANCH   4   5
ENDBRANCH   3   4
ENDBRANCH   2   3
ENDBRANCH   1   2
BRANCH   1  75
ATOM     75  C   UNL A   1      33.672  24.470  23.099  1.00  0.00     0.116 C 
BRANCH  75  76
ATOM     76  N   UNL A   1      34.093  25.187  24.291  1.00  0.00    -0.352 N 
ATOM     77  C   UNL A   1      33.499  26.198  25.010  1.00  0.00     0.251 C 
ATOM     78  H   UNL A   1      34.964  24.896  24.649  1.00  0.00     0.163 HD
ATOM     79  O   UNL A   1      34.070  26.668  25.990  1.00  0.00    -0.269 OA
BRANCH  77  80
ATOM     80  C   UNL A   1      32.281  26.858  24.514  1.00  0.00     0.048 A 
ATOM     81  C   UNL A   1      32.500  28.025  23.152  1.00  0.00     0.014 A 
ATOM     82  C   UNL A   1      30.615  26.278  24.936  1.00  0.00     0.007 A 
ATOM     83  C   UNL A   1      31.055  28.623  22.216  1.00  0.00     0.001 A 
ATOM     84  C   UNL A   1      29.160  26.875  24.015  1.00  0.00     0.010 A 
ATOM     85  C   UNL A   1      29.396  28.059  22.660  1.00  0.00     0.001 A 
BRANCH  82  86
ATOM     86  C   UNL A   1      30.381  26.009  26.328  1.00  0.00     0.142 C 
ATOM     87  N   UNL A   1      30.550  24.806  26.745  1.00  0.00    -0.181 NA
BRANCH  87  88
ATOM     88  N   UNL A   1      30.787  23.833  25.801  1.00  0.00    -0.254 N 
ATOM     89  H   UNL A   1      30.213  23.895  25.003  1.00  0.00     0.193 HD
BRANCH  88  90
ATOM     90  C   UNL A   1      31.677  22.798  25.774  1.00  0.00     0.187 C 
ATOM     91  S   UNL A   1      32.872  22.837  26.969  1.00  0.00    -0.039 S 
BRANCH  90  92
ATOM     92  N   UNL A   1      31.758  21.727  24.846  1.00  0.00    -0.357 N 
ATOM     93  H   UNL A   1      31.048  21.924  24.192  1.00  0.00     0.163 HD
BRANCH  92  94
ATOM     94  C   UNL A   1      32.609  19.948  24.156  1.00  0.00     0.151 C 
BRANCH  94  95
ATOM     95  C   UNL A   1      33.296  18.585  24.865  1.00  0.00    -0.029 A 
ATOM     96  C   UNL A   1      32.474  17.607  25.465  1.00  0.00     0.005 A 
ATOM     97  C   UNL A   1      34.602  18.219  24.482  1.00  0.00     0.005 A 
ATOM     98  C   UNL A   1      32.918  16.289  25.599  1.00  0.00     0.000 A 
ATOM     99  C   UNL A   1      35.044  16.904  24.639  1.00  0.00     0.000 A 
ATOM    100  C   UNL A   1      34.193  15.935  25.166  1.00  0.00     0.000 A 
ENDBRANCH  94  95
ENDBRANCH  92  94
ENDBRANCH  90  92
ENDBRANCH  88  90
ENDBRANCH  87  88
ENDBRANCH  82  86
ENDBRANCH  77  80
ENDBRANCH  75  76
ENDBRANCH   1  75
TORSDOF 22
ENDMDL
