MODEL 1
REMARK VINA RESULT:     -10.8      0.000      0.000
REMARK SMILES Cc1nc(C)c(C(=O)N[C@@H](Cc2ccccc2)C(=O)NCCCCCCNC(=O)c2ccc(-c3c4nc(c(-c5cc(S(=O)(=O)[O-])ccc5F)c5ccc([nH]5)c(-c5cc(S(=O)(=O)[O-])ccc5F)c5nc(c(-c6cc(S(=O)(=O)[O-])ccc6F)c6ccc3[nH]6)C=C5)C=C4)cc2)s1
REMARK SMILES IDX 24 1 23 2 22 3 21 4 20 5 18 6 19 7 10 9 9 10 7 11 8 12 6 14
REMARK SMILES IDX 1 15 2 16 3 17 93 18 4 19 5 20 11 21 12 22 13 23 17 24 14 25
REMARK SMILES IDX 16 26 15 27 25 28 26 29 27 30 28 31 29 33 30 34 31 35 92 36
REMARK SMILES IDX 32 37 91 38 33 39 34 40 35 41 85 42 36 43 90 44 84 45 86 46
REMARK SMILES IDX 37 47 89 48 83 49 82 50 38 52 70 53 50 54 69 55 51 56 54 57
REMARK SMILES IDX 68 58 87 59 52 60 53 61 67 63 88 64 55 65 39 66 40 67 48 68
REMARK SMILES IDX 41 69 47 70 49 71 46 72 42 73 43 74 44 75 45 76 71 77 72 78
REMARK SMILES IDX 80 79 73 80 79 81 81 82 78 83 74 84 75 85 76 86 77 87 56 88
REMARK SMILES IDX 57 89 65 90 58 91 64 92 66 93 63 94 59 95 60 96 61 97 62 98
REMARK H PARENT 20 8 9 13 27 32 86 51 54 62
REMARK Flexibility Score: inf
ROOT
ATOM      1  C   UNL A   1      35.058  32.163  28.053  1.00  0.00     0.002 C 
ENDROOT
BRANCH   1   2
ATOM      2  C   UNL A   1      35.048  30.688  28.476  1.00  0.00     0.002 C 
BRANCH   2   3
ATOM      3  C   UNL A   1      35.212  29.666  27.349  1.00  0.00     0.021 C 
BRANCH   3   4
ATOM      4  C   UNL A   1      33.949  29.392  26.547  1.00  0.00     0.116 C 
BRANCH   4   5
ATOM      5  N   UNL A   1      32.774  29.169  27.360  1.00  0.00    -0.354 N 
ATOM      6  C   UNL A   1      31.942  28.091  27.409  1.00  0.00     0.242 C 
ATOM      7  O   UNL A   1      31.266  27.961  28.438  1.00  0.00    -0.273 OA
ATOM      8  H   UNL A   1      32.540  29.907  27.968  1.00  0.00     0.163 HD
BRANCH   6   9
ATOM      9  C   UNL A   1      31.867  27.013  26.302  1.00  0.00     0.176 C 
BRANCH   9  10
ATOM     10  N   UNL A   1      31.386  25.707  26.769  1.00  0.00    -0.339 N 
ATOM     11  C   UNL A   1      31.757  24.397  26.584  1.00  0.00     0.263 C 
ATOM     12  O   UNL A   1      31.148  23.630  27.339  1.00  0.00    -0.268 OA
ATOM     13  H   UNL A   1      30.604  25.790  27.362  1.00  0.00     0.164 HD
BRANCH  11  14
ATOM     14  C   UNL A   1      32.717  23.899  25.601  1.00  0.00     0.115 A 
ATOM     15  C   UNL A   1      36.019  22.966  23.738  1.00  0.00     0.079 C 
ATOM     16  C   UNL A   1      34.648  23.229  24.251  1.00  0.00     0.091 A 
ATOM     17  N   UNL A   1      33.546  22.969  23.594  1.00  0.00    -0.246 NA
ATOM     18  S   UNL A   1      34.419  23.926  25.782  1.00  0.00    -0.113 S 
ATOM     19  C   UNL A   1      32.434  23.346  24.347  1.00  0.00     0.061 A 
ATOM     20  C   UNL A   1      31.114  23.120  23.691  1.00  0.00     0.068 C 
ENDBRANCH  11  14
ENDBRANCH   9  10
BRANCH   9  21
ATOM     21  C   UNL A   1      31.245  27.461  24.966  1.00  0.00     0.070 C 
BRANCH  21  22
ATOM     22  C   UNL A   1      31.829  26.920  23.686  1.00  0.00    -0.045 A 
ATOM     23  C   UNL A   1      31.005  26.515  22.626  1.00  0.00     0.004 A 
ATOM     24  C   UNL A   1      33.221  26.815  23.542  1.00  0.00     0.004 A 
ATOM     25  C   UNL A   1      31.567  26.060  21.430  1.00  0.00     0.000 A 
ATOM     26  C   UNL A   1      33.778  26.351  22.350  1.00  0.00     0.000 A 
ATOM     27  C   UNL A   1      32.952  25.982  21.292  1.00  0.00     0.000 A 
ENDBRANCH  21  22
ENDBRANCH   9  21
ENDBRANCH   6   9
ENDBRANCH   4   5
ENDBRANCH   3   4
ENDBRANCH   2   3
ENDBRANCH   1   2
BRANCH   1  28
ATOM     28  C   UNL A   1      33.701  32.871  28.061  1.00  0.00     0.021 C 
BRANCH  28  29
ATOM     29  C   UNL A   1      33.755  34.392  28.006  1.00  0.00     0.116 C 
BRANCH  29  30
ATOM     30  N   UNL A   1      33.132  35.010  29.161  1.00  0.00    -0.352 N 
ATOM     31  C   UNL A   1      33.406  34.846  30.494  1.00  0.00     0.251 C 
ATOM     32  H   UNL A   1      32.404  35.641  28.958  1.00  0.00     0.163 HD
ATOM     33  O   UNL A   1      32.638  35.325  31.330  1.00  0.00    -0.269 OA
BRANCH  31  34
ATOM     34  C   UNL A   1      34.596  34.080  30.928  1.00  0.00     0.039 A 
ATOM     35  C   UNL A   1      35.864  34.571  30.608  1.00  0.00     0.014 A 
ATOM     36  C   UNL A   1      34.472  32.875  31.627  1.00  0.00     0.014 A 
ATOM     37  C   UNL A   1      37.002  33.880  31.024  1.00  0.00     0.010 A 
ATOM     38  C   UNL A   1      35.608  32.231  32.113  1.00  0.00     0.010 A 
ATOM     39  C   UNL A   1      36.886  32.717  31.805  1.00  0.00    -0.014 A 
BRANCH  39  40
ATOM     40  C   UNL A   1      38.094  31.988  32.275  1.00  0.00     0.031 A 
ATOM     41  C   UNL A   1      38.702  32.321  33.613  1.00  0.00     0.074 A 
ATOM     42  C   UNL A   1      38.662  31.056  31.485  1.00  0.00     0.049 A 
ATOM     43  N   UNL A   1      39.776  31.830  34.179  1.00  0.00    -0.248 NA
ATOM     44  C   UNL A   1      38.030  33.364  34.402  1.00  0.00     0.031 C 
ATOM     45  C   UNL A   1      38.185  30.673  30.154  1.00  0.00     0.029 A 
ATOM     46  N   UNL A   1      39.762  30.259  31.683  1.00  0.00    -0.354 N 
ATOM     47  C   UNL A   1      39.912  32.509  35.386  1.00  0.00     0.074 A 
ATOM     48  C   UNL A   1      38.852  33.495  35.432  1.00  0.00     0.031 C 
ATOM     49  C   UNL A   1      38.967  29.694  29.671  1.00  0.00     0.029 A 
ATOM     50  C   UNL A   1      40.029  29.411  30.632  1.00  0.00     0.049 A 
ATOM     51  H   UNL A   1      40.310  30.291  32.500  1.00  0.00     0.167 HD
ATOM     52  C   UNL A   1      40.820  32.312  36.374  1.00  0.00     0.034 A 
ATOM     53  C   UNL A   1      41.020  28.515  30.458  1.00  0.00     0.034 A 
ATOM     54  C   UNL A   1      41.864  31.319  36.314  1.00  0.00     0.049 A 
ATOM     55  C   UNL A   1      42.034  28.332  31.560  1.00  0.00     0.074 A 
ATOM     56  C   UNL A   1      42.811  31.003  37.274  1.00  0.00     0.029 A 
ATOM     57  N   UNL A   1      42.106  30.481  35.231  1.00  0.00    -0.354 N 
ATOM     58  N   UNL A   1      42.121  28.951  32.715  1.00  0.00    -0.248 NA
ATOM     59  C   UNL A   1      43.073  27.317  31.341  1.00  0.00     0.031 C 
ATOM     60  C   UNL A   1      43.666  30.032  36.745  1.00  0.00     0.029 A 
ATOM     61  C   UNL A   1      43.203  29.674  35.489  1.00  0.00     0.049 A 
ATOM     62  H   UNL A   1      41.575  30.464  34.403  1.00  0.00     0.167 HD
ATOM     63  C   UNL A   1      43.202  28.372  33.375  1.00  0.00     0.074 A 
ATOM     64  C   UNL A   1      43.723  27.346  32.494  1.00  0.00     0.031 C 
ATOM     65  C   UNL A   1      43.717  28.657  34.599  1.00  0.00     0.034 A 
BRANCH  52  66
ATOM     66  C   UNL A   1      40.733  33.209  37.588  1.00  0.00     0.023 A 
ATOM     67  C   UNL A   1      39.845  32.941  38.645  1.00  0.00     0.031 A 
ATOM     68  C   UNL A   1      41.532  34.364  37.681  1.00  0.00     0.131 A 
ATOM     69  C   UNL A   1      39.718  33.852  39.705  1.00  0.00     0.055 A 
ATOM     70  C   UNL A   1      41.465  35.220  38.782  1.00  0.00     0.041 A 
ATOM     71  F   UNL A   1      42.383  34.687  36.695  1.00  0.00    -0.206 F 
ATOM     72  C   UNL A   1      40.542  34.976  39.795  1.00  0.00     0.022 A 
BRANCH  69  73
ATOM     73  S   UNL A   1      38.357  33.627  40.882  1.00  0.00     0.124 S 
ATOM     74  O   UNL A   1      37.333  33.019  40.036  1.00  0.00    -0.237 OA
ATOM     75  O   UNL A   1      38.952  32.758  41.891  1.00  0.00    -0.237 OA
ATOM     76  O   UNL A   1      38.060  34.987  41.326  1.00  0.00    -0.744 OA
ENDBRANCH  69  73
ENDBRANCH  52  66
BRANCH  53  77
ATOM     77  C   UNL A   1      41.114  27.722  29.197  1.00  0.00     0.023 A 
ATOM     78  C   UNL A   1      42.112  27.986  28.246  1.00  0.00     0.031 A 
ATOM     79  C   UNL A   1      40.172  26.719  28.901  1.00  0.00     0.131 A 
ATOM     80  C   UNL A   1      42.114  27.297  27.023  1.00  0.00     0.055 A 
ATOM     81  C   UNL A   1      40.215  25.994  27.708  1.00  0.00     0.041 A 
ATOM     82  F   UNL A   1      39.198  26.421  29.776  1.00  0.00    -0.206 F 
ATOM     83  C   UNL A   1      41.181  26.294  26.754  1.00  0.00     0.022 A 
BRANCH  80  84
ATOM     84  S   UNL A   1      43.296  27.805  25.743  1.00  0.00     0.124 S 
ATOM     85  O   UNL A   1      42.467  27.769  24.544  1.00  0.00    -0.237 OA
ATOM     86  O   UNL A   1      43.695  29.129  26.209  1.00  0.00    -0.237 OA
ATOM     87  O   UNL A   1      44.336  26.782  25.817  1.00  0.00    -0.744 OA
ENDBRANCH  80  84
ENDBRANCH  53  77
BRANCH  65  88
ATOM     88  C   UNL A   1      44.869  27.804  35.076  1.00  0.00     0.023 A 
ATOM     89  C   UNL A   1      44.666  26.556  35.693  1.00  0.00     0.031 A 
ATOM     90  C   UNL A   1      46.191  28.260  34.930  1.00  0.00     0.131 A 
ATOM     91  C   UNL A   1      45.762  25.842  36.201  1.00  0.00     0.055 A 
ATOM     92  C   UNL A   1      47.282  27.511  35.373  1.00  0.00     0.041 A 
ATOM     93  F   UNL A   1      46.445  29.446  34.353  1.00  0.00    -0.206 F 
ATOM     94  C   UNL A   1      47.069  26.302  36.028  1.00  0.00     0.022 A 
BRANCH  91  95
ATOM     95  S   UNL A   1      45.446  24.358  37.194  1.00  0.00     0.124 S 
ATOM     96  O   UNL A   1      44.606  23.567  36.300  1.00  0.00    -0.237 OA
ATOM     97  O   UNL A   1      46.793  23.844  37.423  1.00  0.00    -0.237 OA
ATOM     98  O   UNL A   1      44.771  24.877  38.383  1.00  0.00    -0.744 OA
ENDBRANCH  91  95
ENDBRANCH  65  88
ENDBRANCH  39  40
ENDBRANCH  31  34
ENDBRANCH  29  30
ENDBRANCH  28  29
ENDBRANCH   1  28
TORSDOF 20
ENDMDL
MODEL 2
REMARK VINA RESULT:     -10.6      3.464      4.979
REMARK SMILES Cc1nc(C)c(C(=O)N[C@@H](Cc2ccccc2)C(=O)NCCCCCCNC(=O)c2ccc(-c3c4nc(c(-c5cc(S(=O)(=O)[O-])ccc5F)c5ccc([nH]5)c(-c5cc(S(=O)(=O)[O-])ccc5F)c5nc(c(-c6cc(S(=O)(=O)[O-])ccc6F)c6ccc3[nH]6)C=C5)C=C4)cc2)s1
REMARK SMILES IDX 24 1 23 2 22 3 21 4 20 5 18 6 19 7 10 9 9 10 7 11 8 12 6 14
REMARK SMILES IDX 1 15 2 16 3 17 93 18 4 19 5 20 11 21 12 22 13 23 17 24 14 25
REMARK SMILES IDX 16 26 15 27 25 28 26 29 27 30 28 31 29 33 30 34 31 35 92 36
REMARK SMILES IDX 32 37 91 38 33 39 34 40 35 41 85 42 36 43 90 44 84 45 86 46
REMARK SMILES IDX 37 47 89 48 83 49 82 50 38 52 70 53 50 54 69 55 51 56 54 57
REMARK SMILES IDX 68 58 87 59 52 60 53 61 67 63 88 64 55 65 39 66 40 67 48 68
REMARK SMILES IDX 41 69 47 70 49 71 46 72 42 73 43 74 44 75 45 76 71 77 72 78
REMARK SMILES IDX 80 79 73 80 79 81 81 82 78 83 74 84 75 85 76 86 77 87 56 88
REMARK SMILES IDX 57 89 65 90 58 91 64 92 66 93 63 94 59 95 60 96 61 97 62 98
REMARK H PARENT 20 8 9 13 27 32 86 51 54 62
REMARK Flexibility Score: inf
ROOT
ATOM      1  C   UNL A   1      31.512  28.908  25.645  1.00  0.00     0.002 C 
ENDROOT
BRANCH   1   2
ATOM      2  C   UNL A   1      31.080  28.168  24.372  1.00  0.00     0.002 C 
BRANCH   2   3
ATOM      3  C   UNL A   1      31.674  28.687  23.060  1.00  0.00     0.021 C 
BRANCH   3   4
ATOM      4  C   UNL A   1      33.116  28.275  22.806  1.00  0.00     0.116 C 
BRANCH   4   5
ATOM      5  N   UNL A   1      33.275  27.328  21.725  1.00  0.00    -0.354 N 
ATOM      6  C   UNL A   1      33.258  25.966  21.752  1.00  0.00     0.242 C 
ATOM      7  O   UNL A   1      33.014  25.395  20.681  1.00  0.00    -0.273 OA
ATOM      8  H   UNL A   1      33.419  27.728  20.836  1.00  0.00     0.163 HD
BRANCH   6   9
ATOM      9  C   UNL A   1      33.447  25.130  23.040  1.00  0.00     0.176 C 
BRANCH   9  10
ATOM     10  N   UNL A   1      32.219  24.949  23.823  1.00  0.00    -0.339 N 
ATOM     11  C   UNL A   1      31.698  23.961  24.623  1.00  0.00     0.263 C 
ATOM     12  O   UNL A   1      30.688  24.338  25.228  1.00  0.00    -0.268 OA
ATOM     13  H   UNL A   1      31.621  25.729  23.759  1.00  0.00     0.164 HD
BRANCH  11  14
ATOM     14  C   UNL A   1      32.204  22.597  24.755  1.00  0.00     0.115 A 
ATOM     15  C   UNL A   1      33.136  18.870  24.060  1.00  0.00     0.079 C 
ATOM     16  C   UNL A   1      32.878  20.251  24.547  1.00  0.00     0.091 A 
ATOM     17  N   UNL A   1      33.161  20.680  25.751  1.00  0.00    -0.246 NA
ATOM     18  S   UNL A   1      32.156  21.403  23.529  1.00  0.00    -0.113 S 
ATOM     19  C   UNL A   1      32.782  22.015  25.889  1.00  0.00     0.061 A 
ATOM     20  C   UNL A   1      33.033  22.613  27.232  1.00  0.00     0.068 C 
ENDBRANCH  11  14
ENDBRANCH   9  10
BRANCH   9  21
ATOM     21  C   UNL A   1      34.284  23.845  22.892  1.00  0.00     0.070 C 
BRANCH  21  22
ATOM     22  C   UNL A   1      35.386  23.588  23.887  1.00  0.00    -0.045 A 
ATOM     23  C   UNL A   1      35.511  24.363  25.049  1.00  0.00     0.004 A 
ATOM     24  C   UNL A   1      36.310  22.557  23.656  1.00  0.00     0.004 A 
ATOM     25  C   UNL A   1      36.512  24.078  25.982  1.00  0.00     0.000 A 
ATOM     26  C   UNL A   1      37.315  22.283  24.585  1.00  0.00     0.000 A 
ATOM     27  C   UNL A   1      37.410  23.037  25.752  1.00  0.00     0.000 A 
ENDBRANCH  21  22
ENDBRANCH   9  21
ENDBRANCH   6   9
ENDBRANCH   4   5
ENDBRANCH   3   4
ENDBRANCH   2   3
ENDBRANCH   1   2
BRANCH   1  28
ATOM     28  C   UNL A   1      32.602  28.228  26.476  1.00  0.00     0.021 C 
BRANCH  28  29
ATOM     29  C   UNL A   1      33.956  28.925  26.476  1.00  0.00     0.116 C 
BRANCH  29  30
ATOM     30  N   UNL A   1      33.855  30.331  26.819  1.00  0.00    -0.352 N 
ATOM     31  C   UNL A   1      34.643  31.088  27.646  1.00  0.00     0.251 C 
ATOM     32  H   UNL A   1      33.109  30.814  26.394  1.00  0.00     0.163 HD
ATOM     33  O   UNL A   1      34.280  32.225  27.949  1.00  0.00    -0.269 OA
BRANCH  31  34
ATOM     34  C   UNL A   1      35.904  30.538  28.192  1.00  0.00     0.039 A 
ATOM     35  C   UNL A   1      35.843  29.703  29.311  1.00  0.00     0.014 A 
ATOM     36  C   UNL A   1      37.143  30.855  27.626  1.00  0.00     0.014 A 
ATOM     37  C   UNL A   1      37.015  29.154  29.833  1.00  0.00     0.010 A 
ATOM     38  C   UNL A   1      38.302  30.240  28.097  1.00  0.00     0.010 A 
ATOM     39  C   UNL A   1      38.254  29.395  29.214  1.00  0.00    -0.014 A 
BRANCH  39  40
ATOM     40  C   UNL A   1      39.504  28.793  29.747  1.00  0.00     0.031 A 
ATOM     41  C   UNL A   1      40.136  29.347  30.997  1.00  0.00     0.074 A 
ATOM     42  C   UNL A   1      40.090  27.774  29.088  1.00  0.00     0.049 A 
ATOM     43  N   UNL A   1      41.245  28.991  31.594  1.00  0.00    -0.248 NA
ATOM     44  C   UNL A   1      39.442  30.472  31.644  1.00  0.00     0.031 C 
ATOM     45  C   UNL A   1      39.593  27.175  27.846  1.00  0.00     0.029 A 
ATOM     46  N   UNL A   1      41.229  27.060  29.364  1.00  0.00    -0.354 N 
ATOM     47  C   UNL A   1      41.386  29.850  32.679  1.00  0.00     0.074 A 
ATOM     48  C   UNL A   1      40.286  30.789  32.613  1.00  0.00     0.031 C 
ATOM     49  C   UNL A   1      40.402  26.165  27.490  1.00  0.00     0.029 A 
ATOM     50  C   UNL A   1      41.502  26.073  28.444  1.00  0.00     0.049 A 
ATOM     51  H   UNL A   1      41.798  27.236  30.148  1.00  0.00     0.167 HD
ATOM     52  C   UNL A   1      42.329  29.841  33.654  1.00  0.00     0.034 A 
ATOM     53  C   UNL A   1      42.526  25.199  28.373  1.00  0.00     0.034 A 
ATOM     54  C   UNL A   1      43.413  28.891  33.708  1.00  0.00     0.049 A 
ATOM     55  C   UNL A   1      43.578  25.225  29.454  1.00  0.00     0.074 A 
ATOM     56  C   UNL A   1      44.400  28.762  34.671  1.00  0.00     0.029 A 
ATOM     57  N   UNL A   1      43.661  27.908  32.756  1.00  0.00    -0.354 N 
ATOM     58  N   UNL A   1      43.671  26.015  30.499  1.00  0.00    -0.248 NA
ATOM     59  C   UNL A   1      44.654  24.230  29.355  1.00  0.00     0.031 C 
ATOM     60  C   UNL A   1      45.281  27.755  34.265  1.00  0.00     0.029 A 
ATOM     61  C   UNL A   1      44.799  27.192  33.094  1.00  0.00     0.049 A 
ATOM     62  H   UNL A   1      43.107  27.745  31.958  1.00  0.00     0.167 HD
ATOM     63  C   UNL A   1      44.795  25.586  31.201  1.00  0.00     0.074 A 
ATOM     64  C   UNL A   1      45.334  24.459  30.468  1.00  0.00     0.031 C 
ATOM     65  C   UNL A   1      45.331  26.073  32.350  1.00  0.00     0.034 A 
BRANCH  52  66
ATOM     66  C   UNL A   1      42.238  30.908  34.721  1.00  0.00     0.023 A 
ATOM     67  C   UNL A   1      42.845  32.167  34.564  1.00  0.00     0.031 A 
ATOM     68  C   UNL A   1      41.557  30.656  35.926  1.00  0.00     0.131 A 
ATOM     69  C   UNL A   1      42.828  33.092  35.618  1.00  0.00     0.055 A 
ATOM     70  C   UNL A   1      41.467  31.614  36.937  1.00  0.00     0.041 A 
ATOM     71  F   UNL A   1      40.976  29.465  36.146  1.00  0.00    -0.206 F 
ATOM     72  C   UNL A   1      42.119  32.835  36.794  1.00  0.00     0.022 A 
BRANCH  69  73
ATOM     73  S   UNL A   1      43.871  34.570  35.491  1.00  0.00     0.124 S 
ATOM     74  O   UNL A   1      44.566  34.332  34.227  1.00  0.00    -0.237 OA
ATOM     75  O   UNL A   1      42.891  35.649  35.489  1.00  0.00    -0.237 OA
ATOM     76  O   UNL A   1      44.717  34.496  36.681  1.00  0.00    -0.744 OA
ENDBRANCH  69  73
ENDBRANCH  52  66
BRANCH  53  77
ATOM     77  C   UNL A   1      42.618  24.228  27.244  1.00  0.00     0.023 A 
ATOM     78  C   UNL A   1      41.965  22.987  27.299  1.00  0.00     0.031 A 
ATOM     79  C   UNL A   1      43.406  24.507  26.112  1.00  0.00     0.131 A 
ATOM     80  C   UNL A   1      42.153  22.050  26.271  1.00  0.00     0.055 A 
ATOM     81  C   UNL A   1      43.541  23.596  25.063  1.00  0.00     0.041 A 
ATOM     82  F   UNL A   1      44.050  25.680  26.004  1.00  0.00    -0.206 F 
ATOM     83  C   UNL A   1      42.925  22.351  25.147  1.00  0.00     0.022 A 
BRANCH  80  84
ATOM     84  S   UNL A   1      41.455  20.388  26.473  1.00  0.00     0.124 S 
ATOM     85  O   UNL A   1      41.923  20.030  27.807  1.00  0.00    -0.237 OA
ATOM     86  O   UNL A   1      40.024  20.644  26.340  1.00  0.00    -0.237 OA
ATOM     87  O   UNL A   1      42.054  19.632  25.376  1.00  0.00    -0.744 OA
ENDBRANCH  80  84
ENDBRANCH  53  77
BRANCH  65  88
ATOM     88  C   UNL A   1      46.532  25.348  32.910  1.00  0.00     0.023 A 
ATOM     89  C   UNL A   1      46.403  24.308  33.848  1.00  0.00     0.031 A 
ATOM     90  C   UNL A   1      47.829  25.720  32.512  1.00  0.00     0.131 A 
ATOM     91  C   UNL A   1      47.551  23.726  34.407  1.00  0.00     0.055 A 
ATOM     92  C   UNL A   1      48.965  25.088  33.019  1.00  0.00     0.041 A 
ATOM     93  F   UNL A   1      48.013  26.709  31.622  1.00  0.00    -0.206 F 
ATOM     94  C   UNL A   1      48.830  24.096  33.984  1.00  0.00     0.022 A 
BRANCH  91  95
ATOM     95  S   UNL A   1      47.352  22.558  35.781  1.00  0.00     0.124 S 
ATOM     96  O   UNL A   1      46.291  21.686  35.287  1.00  0.00    -0.237 OA
ATOM     97  O   UNL A   1      48.678  21.958  35.875  1.00  0.00    -0.237 OA
ATOM     98  O   UNL A   1      46.978  23.413  36.907  1.00  0.00    -0.744 OA
ENDBRANCH  91  95
ENDBRANCH  65  88
ENDBRANCH  39  40
ENDBRANCH  31  34
ENDBRANCH  29  30
ENDBRANCH  28  29
ENDBRANCH   1  28
TORSDOF 20
ENDMDL
MODEL 3
REMARK VINA RESULT:     -10.6      1.915      2.574
REMARK SMILES Cc1nc(C)c(C(=O)N[C@@H](Cc2ccccc2)C(=O)NCCCCCCNC(=O)c2ccc(-c3c4nc(c(-c5cc(S(=O)(=O)[O-])ccc5F)c5ccc([nH]5)c(-c5cc(S(=O)(=O)[O-])ccc5F)c5nc(c(-c6cc(S(=O)(=O)[O-])ccc6F)c6ccc3[nH]6)C=C5)C=C4)cc2)s1
REMARK SMILES IDX 24 1 23 2 22 3 21 4 20 5 18 6 19 7 10 9 9 10 7 11 8 12 6 14
REMARK SMILES IDX 1 15 2 16 3 17 93 18 4 19 5 20 11 21 12 22 13 23 17 24 14 25
REMARK SMILES IDX 16 26 15 27 25 28 26 29 27 30 28 31 29 33 30 34 31 35 92 36
REMARK SMILES IDX 32 37 91 38 33 39 34 40 35 41 85 42 36 43 90 44 84 45 86 46
REMARK SMILES IDX 37 47 89 48 83 49 82 50 38 52 70 53 50 54 69 55 51 56 54 57
REMARK SMILES IDX 68 58 87 59 52 60 53 61 67 63 88 64 55 65 39 66 40 67 48 68
REMARK SMILES IDX 41 69 47 70 49 71 46 72 42 73 43 74 44 75 45 76 71 77 72 78
REMARK SMILES IDX 80 79 73 80 79 81 81 82 78 83 74 84 75 85 76 86 77 87 56 88
REMARK SMILES IDX 57 89 65 90 58 91 64 92 66 93 63 94 59 95 60 96 61 97 62 98
REMARK H PARENT 20 8 9 13 27 32 86 51 54 62
REMARK Flexibility Score: inf
ROOT
ATOM      1  C   UNL A   1      31.523  30.122  26.914  1.00  0.00     0.002 C 
ENDROOT
BRANCH   1   2
ATOM      2  C   UNL A   1      32.537  29.312  26.095  1.00  0.00     0.002 C 
BRANCH   2   3
ATOM      3  C   UNL A   1      33.208  28.144  26.823  1.00  0.00     0.021 C 
BRANCH   3   4
ATOM      4  C   UNL A   1      32.917  26.773  26.233  1.00  0.00     0.116 C 
BRANCH   4   5
ATOM      5  N   UNL A   1      31.698  26.169  26.723  1.00  0.00    -0.354 N 
ATOM      6  C   UNL A   1      30.857  25.288  26.113  1.00  0.00     0.242 C 
ATOM      7  O   UNL A   1      30.125  24.619  26.853  1.00  0.00    -0.273 OA
ATOM      8  H   UNL A   1      31.436  26.435  27.634  1.00  0.00     0.163 HD
BRANCH   6   9
ATOM      9  C   UNL A   1      30.834  25.040  24.586  1.00  0.00     0.176 C 
BRANCH   9  10
ATOM     10  N   UNL A   1      31.100  23.649  24.201  1.00  0.00    -0.339 N 
ATOM     11  C   UNL A   1      32.096  22.734  24.442  1.00  0.00     0.263 C 
ATOM     12  O   UNL A   1      31.794  21.602  24.043  1.00  0.00    -0.268 OA
ATOM     13  H   UNL A   1      30.388  23.280  23.628  1.00  0.00     0.164 HD
BRANCH  11  14
ATOM     14  C   UNL A   1      33.395  23.007  25.052  1.00  0.00     0.115 A 
ATOM     15  C   UNL A   1      37.160  23.881  25.601  1.00  0.00     0.079 C 
ATOM     16  C   UNL A   1      35.718  23.521  25.635  1.00  0.00     0.091 A 
ATOM     17  N   UNL A   1      35.055  23.211  26.721  1.00  0.00    -0.246 NA
ATOM     18  S   UNL A   1      34.805  23.476  24.204  1.00  0.00    -0.113 S 
ATOM     19  C   UNL A   1      33.729  22.913  26.409  1.00  0.00     0.061 A 
ATOM     20  C   UNL A   1      32.874  22.519  27.566  1.00  0.00     0.068 C 
ENDBRANCH  11  14
ENDBRANCH   9  10
BRANCH   9  21
ATOM     21  C   UNL A   1      29.666  25.684  23.815  1.00  0.00     0.070 C 
BRANCH  21  22
ATOM     22  C   UNL A   1      29.803  27.119  23.373  1.00  0.00    -0.045 A 
ATOM     23  C   UNL A   1      28.681  27.950  23.247  1.00  0.00     0.004 A 
ATOM     24  C   UNL A   1      31.072  27.641  23.079  1.00  0.00     0.004 A 
ATOM     25  C   UNL A   1      28.834  29.290  22.881  1.00  0.00     0.000 A 
ATOM     26  C   UNL A   1      31.219  28.978  22.703  1.00  0.00     0.000 A 
ATOM     27  C   UNL A   1      30.101  29.803  22.613  1.00  0.00     0.000 A 
ENDBRANCH  21  22
ENDBRANCH   9  21
ENDBRANCH   6   9
ENDBRANCH   4   5
ENDBRANCH   3   4
ENDBRANCH   2   3
ENDBRANCH   1   2
BRANCH   1  28
ATOM     28  C   UNL A   1      31.434  31.613  26.582  1.00  0.00     0.021 C 
BRANCH  28  29
ATOM     29  C   UNL A   1      32.746  32.382  26.662  1.00  0.00     0.116 C 
BRANCH  29  30
ATOM     30  N   UNL A   1      32.595  33.667  27.317  1.00  0.00    -0.352 N 
ATOM     31  C   UNL A   1      33.259  34.177  28.403  1.00  0.00     0.251 C 
ATOM     32  H   UNL A   1      31.915  34.261  26.925  1.00  0.00     0.163 HD
ATOM     33  O   UNL A   1      32.855  35.220  28.919  1.00  0.00    -0.269 OA
BRANCH  31  34
ATOM     34  C   UNL A   1      34.432  33.472  28.966  1.00  0.00     0.039 A 
ATOM     35  C   UNL A   1      35.681  34.093  28.905  1.00  0.00     0.014 A 
ATOM     36  C   UNL A   1      34.313  32.198  29.532  1.00  0.00     0.014 A 
ATOM     37  C   UNL A   1      36.800  33.459  29.448  1.00  0.00     0.010 A 
ATOM     38  C   UNL A   1      35.414  31.605  30.148  1.00  0.00     0.010 A 
ATOM     39  C   UNL A   1      36.672  32.221  30.100  1.00  0.00    -0.014 A 
BRANCH  39  40
ATOM     40  C   UNL A   1      37.853  31.550  30.705  1.00  0.00     0.031 A 
ATOM     41  C   UNL A   1      38.254  31.863  32.123  1.00  0.00     0.074 A 
ATOM     42  C   UNL A   1      38.584  30.690  29.969  1.00  0.00     0.049 A 
ATOM     43  N   UNL A   1      39.273  31.418  32.813  1.00  0.00    -0.248 NA
ATOM     44  C   UNL A   1      37.414  32.827  32.849  1.00  0.00     0.031 C 
ATOM     45  C   UNL A   1      38.316  30.334  28.573  1.00  0.00     0.029 A 
ATOM     46  N   UNL A   1      39.700  29.956  30.287  1.00  0.00    -0.354 N 
ATOM     47  C   UNL A   1      39.202  32.052  34.049  1.00  0.00     0.074 A 
ATOM     48  C   UNL A   1      38.080  32.966  33.985  1.00  0.00     0.031 C 
ATOM     49  C   UNL A   1      39.219  29.428  28.168  1.00  0.00     0.029 A 
ATOM     50  C   UNL A   1      40.161  29.172  29.254  1.00  0.00     0.049 A 
ATOM     51  H   UNL A   1      40.130  29.988  31.172  1.00  0.00     0.167 HD
ATOM     52  C   UNL A   1      39.981  31.871  35.145  1.00  0.00     0.034 A 
ATOM     53  C   UNL A   1      41.225  28.348  29.186  1.00  0.00     0.034 A 
ATOM     54  C   UNL A   1      41.088  30.949  35.194  1.00  0.00     0.049 A 
ATOM     55  C   UNL A   1      42.093  28.183  30.408  1.00  0.00     0.074 A 
ATOM     56  C   UNL A   1      41.918  30.653  36.262  1.00  0.00     0.029 A 
ATOM     57  N   UNL A   1      41.529  30.175  34.126  1.00  0.00    -0.354 N 
ATOM     58  N   UNL A   1      41.983  28.756  31.585  1.00  0.00    -0.248 NA
ATOM     59  C   UNL A   1      43.219  27.246  30.299  1.00  0.00     0.031 C 
ATOM     60  C   UNL A   1      42.901  29.761  35.821  1.00  0.00     0.029 A 
ATOM     61  C   UNL A   1      42.635  29.428  34.503  1.00  0.00     0.049 A 
ATOM     62  H   UNL A   1      41.115  30.159  33.233  1.00  0.00     0.167 HD
ATOM     63  C   UNL A   1      43.004  28.219  32.366  1.00  0.00     0.074 A 
ATOM     64  C   UNL A   1      43.706  27.266  31.530  1.00  0.00     0.031 C 
ATOM     65  C   UNL A   1      43.330  28.484  33.657  1.00  0.00     0.034 A 
BRANCH  52  66
ATOM     66  C   UNL A   1      39.672  32.709  36.365  1.00  0.00     0.023 A 
ATOM     67  C   UNL A   1      38.833  32.240  37.392  1.00  0.00     0.031 A 
ATOM     68  C   UNL A   1      40.204  34.005  36.495  1.00  0.00     0.131 A 
ATOM     69  C   UNL A   1      38.487  33.085  38.457  1.00  0.00     0.055 A 
ATOM     70  C   UNL A   1      39.926  34.809  37.602  1.00  0.00     0.041 A 
ATOM     71  F   UNL A   1      40.993  34.518  35.538  1.00  0.00    -0.206 F 
ATOM     72  C   UNL A   1      39.050  34.357  38.584  1.00  0.00     0.022 A 
BRANCH  69  73
ATOM     73  S   UNL A   1      37.174  32.557  39.591  1.00  0.00     0.124 S 
ATOM     74  O   UNL A   1      37.309  33.530  40.673  1.00  0.00    -0.237 OA
ATOM     75  O   UNL A   1      35.977  32.679  38.767  1.00  0.00    -0.237 OA
ATOM     76  O   UNL A   1      37.553  31.190  39.942  1.00  0.00    -0.744 OA
ENDBRANCH  69  73
ENDBRANCH  52  66
BRANCH  53  77
ATOM     77  C   UNL A   1      41.540  27.617  27.924  1.00  0.00     0.023 A 
ATOM     78  C   UNL A   1      41.398  26.223  27.838  1.00  0.00     0.031 A 
ATOM     79  C   UNL A   1      42.037  28.297  26.797  1.00  0.00     0.131 A 
ATOM     80  C   UNL A   1      41.800  25.548  26.675  1.00  0.00     0.055 A 
ATOM     81  C   UNL A   1      42.378  27.628  25.621  1.00  0.00     0.041 A 
ATOM     82  F   UNL A   1      42.190  29.631  26.822  1.00  0.00    -0.206 F 
ATOM     83  C   UNL A   1      42.276  26.242  25.561  1.00  0.00     0.022 A 
BRANCH  80  84
ATOM     84  S   UNL A   1      41.787  23.734  26.676  1.00  0.00     0.124 S 
ATOM     85  O   UNL A   1      42.602  23.431  25.505  1.00  0.00    -0.237 OA
ATOM     86  O   UNL A   1      42.384  23.428  27.972  1.00  0.00    -0.237 OA
ATOM     87  O   UNL A   1      40.369  23.404  26.554  1.00  0.00    -0.744 OA
ENDBRANCH  80  84
ENDBRANCH  53  77
BRANCH  65  88
ATOM     88  C   UNL A   1      44.464  27.686  34.258  1.00  0.00     0.023 A 
ATOM     89  C   UNL A   1      44.243  26.476  34.940  1.00  0.00     0.031 A 
ATOM     90  C   UNL A   1      45.786  28.158  34.162  1.00  0.00     0.131 A 
ATOM     91  C   UNL A   1      45.317  25.817  35.558  1.00  0.00     0.055 A 
ATOM     92  C   UNL A   1      46.859  27.460  34.718  1.00  0.00     0.041 A 
ATOM     93  F   UNL A   1      46.056  29.309  33.526  1.00  0.00    -0.206 F 
ATOM     94  C   UNL A   1      46.625  26.291  35.435  1.00  0.00     0.022 A 
BRANCH  91  95
ATOM     95  S   UNL A   1      44.964  24.393  36.625  1.00  0.00     0.124 S 
ATOM     96  O   UNL A   1      46.300  24.009  37.070  1.00  0.00    -0.237 OA
ATOM     97  O   UNL A   1      44.095  24.974  37.643  1.00  0.00    -0.237 OA
ATOM     98  O   UNL A   1      44.313  23.443  35.724  1.00  0.00    -0.744 OA
ENDBRANCH  91  95
ENDBRANCH  65  88
ENDBRANCH  39  40
ENDBRANCH  31  34
ENDBRANCH  29  30
ENDBRANCH  28  29
ENDBRANCH   1  28
TORSDOF 20
ENDMDL
