MODEL 1
REMARK VINA RESULT:     -12.1      0.000      0.000
REMARK SMILES CC[C@@H](C(=O)NCCCCCCNC(=O)c1ccc(-c2c3nc(c(-c4cc(S(=O)(=O)[O-])ccc4F)c4ccc([nH]4)c(-c4cc(S(=O)(=O)[O-])ccc4F)c4nc(c(-c5cc(S(=O)(=O)[O-])ccc5F)c5ccc2[nH]5)C=C4)C=C3)cc1)n1c(SCc2cccc(C(F)(F)F)c2)nc2ccncc21
REMARK SMILES IDX 8 1 7 2 6 3 4 4 5 5 3 7 2 8 1 9 79 10 80 11 99 12 93 13
REMARK SMILES IDX 94 14 98 15 95 16 97 17 96 18 81 19 82 20 83 21 84 22 92 23
REMARK SMILES IDX 85 24 87 25 86 26 88 27 89 28 90 29 91 30 9 31 10 32 11 33
REMARK SMILES IDX 12 34 13 35 14 36 15 38 16 39 17 40 78 41 18 42 77 43 19 44
REMARK SMILES IDX 20 45 21 46 71 47 22 48 76 49 70 50 72 51 23 52 75 53 69 54
REMARK SMILES IDX 68 55 24 57 56 58 36 59 55 60 37 61 40 62 54 63 73 64 38 65
REMARK SMILES IDX 39 66 53 68 74 69 41 70 25 71 26 72 34 73 27 74 33 75 35 76
REMARK SMILES IDX 32 77 28 78 29 79 30 80 31 81 57 82 58 83 66 84 59 85 65 86
REMARK SMILES IDX 67 87 64 88 60 89 61 90 62 91 63 92 42 93 43 94 51 95 44 96
REMARK SMILES IDX 50 97 52 98 49 99 45 100 46 101 47 102 48 103
REMARK H PARENT 6 6 13 37 72 56 40 67
REMARK Flexibility Score: inf
ROOT
ATOM      1  C   UNL A   1      31.192  28.055  26.568  1.00  0.00     0.021 C 
ENDROOT
BRANCH   1   2
ATOM      2  C   UNL A   1      31.882  26.686  26.534  1.00  0.00     0.116 C 
BRANCH   2   3
ATOM      3  N   UNL A   1      33.166  26.806  25.873  1.00  0.00    -0.354 N 
ATOM      4  C   UNL A   1      33.451  26.126  24.714  1.00  0.00     0.243 C 
ATOM      5  O   UNL A   1      34.141  25.112  24.760  1.00  0.00    -0.273 OA
ATOM      6  H   UNL A   1      33.853  27.392  26.264  1.00  0.00     0.163 HD
BRANCH   4   7
ATOM      7  C   UNL A   1      32.888  26.706  23.439  1.00  0.00     0.178 C 
BRANCH   7   8
ATOM      8  C   UNL A   1      33.001  28.247  23.435  1.00  0.00     0.032 C 
ATOM      9  C   UNL A   1      34.371  28.778  23.029  1.00  0.00     0.006 C 
ENDBRANCH   7   8
BRANCH   7  10
ATOM     10  N   UNL A   1      31.487  26.285  23.173  1.00  0.00    -0.305 N 
ATOM     11  C   UNL A   1      30.764  25.264  23.770  1.00  0.00     0.170 A 
ATOM     12  C   UNL A   1      30.531  27.253  22.840  1.00  0.00     0.088 A 
ATOM     13  N   UNL A   1      29.630  25.739  24.250  1.00  0.00    -0.222 NA
ATOM     14  C   UNL A   1      29.428  26.924  23.616  1.00  0.00     0.093 A 
ATOM     15  C   UNL A   1      30.537  28.396  22.052  1.00  0.00     0.139 A 
ATOM     16  C   UNL A   1      28.306  27.748  23.638  1.00  0.00     0.051 A 
ATOM     17  N   UNL A   1      29.429  29.178  22.036  1.00  0.00    -0.262 NA
ATOM     18  C   UNL A   1      28.366  28.851  22.809  1.00  0.00     0.113 A 
BRANCH  11  19
ATOM     19  S   UNL A   1      30.859  23.541  23.661  1.00  0.00    -0.083 SA
BRANCH  19  20
ATOM     20  C   UNL A   1      32.384  22.794  23.141  1.00  0.00     0.113 C 
BRANCH  20  21
ATOM     21  C   UNL A   1      32.957  21.522  23.711  1.00  0.00    -0.037 A 
ATOM     22  C   UNL A   1      33.993  21.661  24.661  1.00  0.00     0.004 A 
ATOM     23  C   UNL A   1      32.557  20.232  23.357  1.00  0.00     0.017 A 
ATOM     24  C   UNL A   1      34.689  20.552  25.142  1.00  0.00     0.001 A 
ATOM     25  C   UNL A   1      33.280  19.108  23.797  1.00  0.00     0.056 A 
ATOM     26  C   UNL A   1      34.354  19.282  24.685  1.00  0.00     0.013 A 
BRANCH  25  27
ATOM     27  C   UNL A   1      32.969  17.731  23.264  1.00  0.00     0.416 C 
ATOM     28  F   UNL A   1      32.119  17.782  22.199  1.00  0.00    -0.166 F 
ATOM     29  F   UNL A   1      34.075  17.065  22.836  1.00  0.00    -0.166 F 
ATOM     30  F   UNL A   1      32.367  16.920  24.175  1.00  0.00    -0.166 F 
ENDBRANCH  25  27
ENDBRANCH  20  21
ENDBRANCH  19  20
ENDBRANCH  11  19
ENDBRANCH   7  10
ENDBRANCH   4   7
ENDBRANCH   2   3
ENDBRANCH   1   2
BRANCH   1  31
ATOM     31  C   UNL A   1      32.133  29.215  26.936  1.00  0.00     0.002 C 
BRANCH  31  32
ATOM     32  C   UNL A   1      31.992  30.460  26.054  1.00  0.00     0.002 C 
BRANCH  32  33
ATOM     33  C   UNL A   1      31.719  31.755  26.821  1.00  0.00     0.021 C 
BRANCH  33  34
ATOM     34  C   UNL A   1      32.972  32.485  27.294  1.00  0.00     0.116 C 
BRANCH  34  35
ATOM     35  N   UNL A   1      32.692  33.866  27.646  1.00  0.00    -0.352 N 
ATOM     36  C   UNL A   1      33.202  34.606  28.684  1.00  0.00     0.251 C 
ATOM     37  H   UNL A   1      32.051  34.334  27.064  1.00  0.00     0.163 HD
ATOM     38  O   UNL A   1      32.685  35.684  28.978  1.00  0.00    -0.269 OA
BRANCH  36  39
ATOM     39  C   UNL A   1      34.350  34.089  29.457  1.00  0.00     0.039 A 
ATOM     40  C   UNL A   1      34.113  33.262  30.556  1.00  0.00     0.014 A 
ATOM     41  C   UNL A   1      35.661  34.413  29.090  1.00  0.00     0.014 A 
ATOM     42  C   UNL A   1      35.192  32.714  31.253  1.00  0.00     0.010 A 
ATOM     43  C   UNL A   1      36.732  33.804  29.737  1.00  0.00     0.010 A 
ATOM     44  C   UNL A   1      36.510  32.952  30.830  1.00  0.00    -0.014 A 
BRANCH  44  45
ATOM     45  C   UNL A   1      37.665  32.322  31.524  1.00  0.00     0.031 A 
ATOM     46  C   UNL A   1      38.418  31.196  30.869  1.00  0.00     0.074 A 
ATOM     47  C   UNL A   1      38.002  32.729  32.765  1.00  0.00     0.049 A 
ATOM     48  N   UNL A   1      39.415  30.485  31.333  1.00  0.00    -0.248 NA
ATOM     49  C   UNL A   1      37.971  30.797  29.527  1.00  0.00     0.031 C 
ATOM     50  C   UNL A   1      37.320  33.783  33.520  1.00  0.00     0.029 A 
ATOM     51  N   UNL A   1      38.994  32.306  33.612  1.00  0.00    -0.354 N 
ATOM     52  C   UNL A   1      39.705  29.549  30.346  1.00  0.00     0.074 A 
ATOM     53  C   UNL A   1      38.735  29.742  29.289  1.00  0.00     0.031 C 
ATOM     54  C   UNL A   1      37.932  33.943  34.703  1.00  0.00     0.029 A 
ATOM     55  C   UNL A   1      39.016  32.971  34.817  1.00  0.00     0.049 A 
ATOM     56  H   UNL A   1      39.632  31.592  33.380  1.00  0.00     0.167 HD
ATOM     57  C   UNL A   1      40.704  28.630  30.315  1.00  0.00     0.034 A 
ATOM     58  C   UNL A   1      39.809  32.810  35.895  1.00  0.00     0.034 A 
ATOM     59  C   UNL A   1      41.666  28.459  31.376  1.00  0.00     0.049 A 
ATOM     60  C   UNL A   1      40.893  31.763  35.850  1.00  0.00     0.074 A 
ATOM     61  C   UNL A   1      42.752  27.601  31.424  1.00  0.00     0.029 A 
ATOM     62  N   UNL A   1      41.652  29.145  32.585  1.00  0.00    -0.354 N 
ATOM     63  N   UNL A   1      41.193  30.925  34.884  1.00  0.00    -0.248 NA
ATOM     64  C   UNL A   1      41.753  31.650  37.034  1.00  0.00     0.031 C 
ATOM     65  C   UNL A   1      43.342  27.710  32.688  1.00  0.00     0.029 A 
ATOM     66  C   UNL A   1      42.685  28.702  33.398  1.00  0.00     0.049 A 
ATOM     67  H   UNL A   1      41.004  29.844  32.828  1.00  0.00     0.167 HD
ATOM     68  C   UNL A   1      42.296  30.205  35.335  1.00  0.00     0.074 A 
ATOM     69  C   UNL A   1      42.617  30.722  36.650  1.00  0.00     0.031 C 
ATOM     70  C   UNL A   1      42.986  29.212  34.716  1.00  0.00     0.034 A 
BRANCH  57  71
ATOM     71  C   UNL A   1      40.779  27.726  29.106  1.00  0.00     0.023 A 
ATOM     72  C   UNL A   1      41.736  27.918  28.093  1.00  0.00     0.031 A 
ATOM     73  C   UNL A   1      39.861  26.671  28.946  1.00  0.00     0.131 A 
ATOM     74  C   UNL A   1      41.699  27.130  26.933  1.00  0.00     0.055 A 
ATOM     75  C   UNL A   1      39.889  25.831  27.831  1.00  0.00     0.041 A 
ATOM     76  F   UNL A   1      38.910  26.449  29.867  1.00  0.00    -0.206 F 
ATOM     77  C   UNL A   1      40.800  26.068  26.808  1.00  0.00     0.022 A 
BRANCH  74  78
ATOM     78  S   UNL A   1      42.734  27.614  25.525  1.00  0.00     0.124 S 
ATOM     79  O   UNL A   1      42.019  28.785  25.022  1.00  0.00    -0.237 OA
ATOM     80  O   UNL A   1      44.024  27.875  26.155  1.00  0.00    -0.237 OA
ATOM     81  O   UNL A   1      42.692  26.445  24.649  1.00  0.00    -0.744 OA
ENDBRANCH  74  78
ENDBRANCH  57  71
BRANCH  58  82
ATOM     82  C   UNL A   1      39.602  33.645  37.113  1.00  0.00     0.023 A 
ATOM     83  C   UNL A   1      38.896  33.152  38.222  1.00  0.00     0.031 A 
ATOM     84  C   UNL A   1      40.079  34.968  37.173  1.00  0.00     0.131 A 
ATOM     85  C   UNL A   1      38.649  33.987  39.323  1.00  0.00     0.055 A 
ATOM     86  C   UNL A   1      39.880  35.775  38.294  1.00  0.00     0.041 A 
ATOM     87  F   UNL A   1      40.764  35.490  36.143  1.00  0.00    -0.206 F 
ATOM     88  C   UNL A   1      39.149  35.290  39.373  1.00  0.00     0.022 A 
BRANCH  85  89
ATOM     89  S   UNL A   1      37.588  33.372  40.660  1.00  0.00     0.124 S 
ATOM     90  O   UNL A   1      36.375  33.014  39.935  1.00  0.00    -0.237 OA
ATOM     91  O   UNL A   1      38.375  32.261  41.185  1.00  0.00    -0.237 OA
ATOM     92  O   UNL A   1      37.466  34.522  41.553  1.00  0.00    -0.744 OA
ENDBRANCH  85  89
ENDBRANCH  58  82
BRANCH  70  93
ATOM     93  C   UNL A   1      44.186  28.652  35.444  1.00  0.00     0.023 A 
ATOM     94  C   UNL A   1      44.065  27.619  36.390  1.00  0.00     0.031 A 
ATOM     95  C   UNL A   1      45.469  29.170  35.194  1.00  0.00     0.131 A 
ATOM     96  C   UNL A   1      45.197  27.182  37.096  1.00  0.00     0.055 A 
ATOM     97  C   UNL A   1      46.601  28.683  35.849  1.00  0.00     0.041 A 
ATOM     98  F   UNL A   1      45.646  30.162  34.305  1.00  0.00    -0.206 F 
ATOM     99  C   UNL A   1      46.467  27.693  36.817  1.00  0.00     0.022 A 
BRANCH  96 100
ATOM    100  S   UNL A   1      44.972  26.010  38.463  1.00  0.00     0.124 S 
ATOM    101  O   UNL A   1      44.039  26.729  39.325  1.00  0.00    -0.237 OA
ATOM    102  O   UNL A   1      44.435  24.836  37.782  1.00  0.00    -0.237 OA
ATOM    103  O   UNL A   1      46.320  25.851  39.004  1.00  0.00    -0.744 OA
ENDBRANCH  96 100
ENDBRANCH  70  93
ENDBRANCH  44  45
ENDBRANCH  36  39
ENDBRANCH  34  35
ENDBRANCH  33  34
ENDBRANCH  32  33
ENDBRANCH  31  32
ENDBRANCH   1  31
TORSDOF 22
ENDMDL
MODEL 2
REMARK VINA RESULT:     -11.8      1.801      7.439
REMARK SMILES CC[C@@H](C(=O)NCCCCCCNC(=O)c1ccc(-c2c3nc(c(-c4cc(S(=O)(=O)[O-])ccc4F)c4ccc([nH]4)c(-c4cc(S(=O)(=O)[O-])ccc4F)c4nc(c(-c5cc(S(=O)(=O)[O-])ccc5F)c5ccc2[nH]5)C=C4)C=C3)cc1)n1c(SCc2cccc(C(F)(F)F)c2)nc2ccncc21
REMARK SMILES IDX 8 1 7 2 6 3 4 4 5 5 3 7 2 8 1 9 79 10 80 11 99 12 93 13
REMARK SMILES IDX 94 14 98 15 95 16 97 17 96 18 81 19 82 20 83 21 84 22 92 23
REMARK SMILES IDX 85 24 87 25 86 26 88 27 89 28 90 29 91 30 9 31 10 32 11 33
REMARK SMILES IDX 12 34 13 35 14 36 15 38 16 39 17 40 78 41 18 42 77 43 19 44
REMARK SMILES IDX 20 45 21 46 71 47 22 48 76 49 70 50 72 51 23 52 75 53 69 54
REMARK SMILES IDX 68 55 24 57 56 58 36 59 55 60 37 61 40 62 54 63 73 64 38 65
REMARK SMILES IDX 39 66 53 68 74 69 41 70 25 71 26 72 34 73 27 74 33 75 35 76
REMARK SMILES IDX 32 77 28 78 29 79 30 80 31 81 57 82 58 83 66 84 59 85 65 86
REMARK SMILES IDX 67 87 64 88 60 89 61 90 62 91 63 92 42 93 43 94 51 95 44 96
REMARK SMILES IDX 50 97 52 98 49 99 45 100 46 101 47 102 48 103
REMARK H PARENT 6 6 13 37 72 56 40 67
REMARK Flexibility Score: inf
ROOT
ATOM      1  C   UNL A   1      31.388  28.100  27.178  1.00  0.00     0.021 C 
ENDROOT
BRANCH   1   2
ATOM      2  C   UNL A   1      31.836  26.766  26.568  1.00  0.00     0.116 C 
BRANCH   2   3
ATOM      3  N   UNL A   1      33.127  26.934  25.931  1.00  0.00    -0.354 N 
ATOM      4  C   UNL A   1      33.465  26.251  24.788  1.00  0.00     0.243 C 
ATOM      5  O   UNL A   1      34.197  25.269  24.863  1.00  0.00    -0.273 OA
ATOM      6  H   UNL A   1      33.779  27.554  26.328  1.00  0.00     0.163 HD
BRANCH   4   7
ATOM      7  C   UNL A   1      32.903  26.789  23.494  1.00  0.00     0.178 C 
BRANCH   7   8
ATOM      8  C   UNL A   1      32.959  28.332  23.466  1.00  0.00     0.032 C 
ATOM      9  C   UNL A   1      34.278  28.908  22.963  1.00  0.00     0.006 C 
ENDBRANCH   7   8
BRANCH   7  10
ATOM     10  N   UNL A   1      31.525  26.310  23.211  1.00  0.00    -0.305 N 
ATOM     11  C   UNL A   1      30.842  25.252  23.789  1.00  0.00     0.170 A 
ATOM     12  C   UNL A   1      30.531  27.241  22.881  1.00  0.00     0.088 A 
ATOM     13  N   UNL A   1      29.685  25.672  24.265  1.00  0.00    -0.222 NA
ATOM     14  C   UNL A   1      29.436  26.855  23.642  1.00  0.00     0.093 A 
ATOM     15  C   UNL A   1      30.494  28.392  22.106  1.00  0.00     0.139 A 
ATOM     16  C   UNL A   1      28.280  27.629  23.665  1.00  0.00     0.051 A 
ATOM     17  N   UNL A   1      29.353  29.126  22.089  1.00  0.00    -0.262 NA
ATOM     18  C   UNL A   1      28.299  28.744  22.849  1.00  0.00     0.113 A 
BRANCH  11  19
ATOM     19  S   UNL A   1      31.012  23.536  23.661  1.00  0.00    -0.083 SA
BRANCH  19  20
ATOM     20  C   UNL A   1      31.817  22.651  24.973  1.00  0.00     0.113 C 
BRANCH  20  21
ATOM     21  C   UNL A   1      32.834  21.557  24.775  1.00  0.00    -0.037 A 
ATOM     22  C   UNL A   1      32.334  20.248  24.595  1.00  0.00     0.004 A 
ATOM     23  C   UNL A   1      34.219  21.738  24.777  1.00  0.00     0.017 A 
ATOM     24  C   UNL A   1      33.187  19.146  24.548  1.00  0.00     0.001 A 
ATOM     25  C   UNL A   1      35.089  20.632  24.778  1.00  0.00     0.056 A 
ATOM     26  C   UNL A   1      34.559  19.336  24.672  1.00  0.00     0.013 A 
BRANCH  25  27
ATOM     27  C   UNL A   1      36.573  20.818  24.973  1.00  0.00     0.416 C 
ATOM     28  F   UNL A   1      36.851  21.504  26.118  1.00  0.00    -0.166 F 
ATOM     29  F   UNL A   1      37.248  19.640  25.063  1.00  0.00    -0.166 F 
ATOM     30  F   UNL A   1      37.169  21.519  23.972  1.00  0.00    -0.166 F 
ENDBRANCH  25  27
ENDBRANCH  20  21
ENDBRANCH  19  20
ENDBRANCH  11  19
ENDBRANCH   7  10
ENDBRANCH   4   7
ENDBRANCH   2   3
ENDBRANCH   1   2
BRANCH   1  31
ATOM     31  C   UNL A   1      32.336  29.272  26.873  1.00  0.00     0.002 C 
BRANCH  31  32
ATOM     32  C   UNL A   1      31.729  30.380  26.008  1.00  0.00     0.002 C 
BRANCH  32  33
ATOM     33  C   UNL A   1      31.612  31.738  26.702  1.00  0.00     0.021 C 
BRANCH  33  34
ATOM     34  C   UNL A   1      32.929  32.287  27.242  1.00  0.00     0.116 C 
BRANCH  34  35
ATOM     35  N   UNL A   1      32.812  33.679  27.638  1.00  0.00    -0.352 N 
ATOM     36  C   UNL A   1      33.485  34.347  28.630  1.00  0.00     0.251 C 
ATOM     37  H   UNL A   1      32.164  34.216  27.127  1.00  0.00     0.163 HD
ATOM     38  O   UNL A   1      33.100  35.461  28.987  1.00  0.00    -0.269 OA
BRANCH  36  39
ATOM     39  C   UNL A   1      34.651  33.712  29.281  1.00  0.00     0.039 A 
ATOM     40  C   UNL A   1      34.436  32.762  30.280  1.00  0.00     0.014 A 
ATOM     41  C   UNL A   1      35.953  34.048  28.897  1.00  0.00     0.014 A 
ATOM     42  C   UNL A   1      35.528  32.107  30.855  1.00  0.00     0.010 A 
ATOM     43  C   UNL A   1      37.033  33.338  29.414  1.00  0.00     0.010 A 
ATOM     44  C   UNL A   1      36.834  32.364  30.404  1.00  0.00    -0.014 A 
BRANCH  44  45
ATOM     45  C   UNL A   1      37.998  31.626  30.962  1.00  0.00     0.031 A 
ATOM     46  C   UNL A   1      38.527  31.971  32.328  1.00  0.00     0.074 A 
ATOM     47  C   UNL A   1      38.610  30.682  30.218  1.00  0.00     0.049 A 
ATOM     48  N   UNL A   1      39.561  31.480  32.964  1.00  0.00    -0.248 NA
ATOM     49  C   UNL A   1      37.818  33.029  33.062  1.00  0.00     0.031 C 
ATOM     50  C   UNL A   1      38.214  30.290  28.863  1.00  0.00     0.029 A 
ATOM     51  N   UNL A   1      39.693  29.886  30.489  1.00  0.00    -0.354 N 
ATOM     52  C   UNL A   1      39.632  32.177  34.166  1.00  0.00     0.074 A 
ATOM     53  C   UNL A   1      38.577  33.168  34.137  1.00  0.00     0.031 C 
ATOM     54  C   UNL A   1      39.025  29.310  28.435  1.00  0.00     0.029 A 
ATOM     55  C   UNL A   1      40.029  29.037  29.459  1.00  0.00     0.049 A 
ATOM     56  H   UNL A   1      40.187  29.920  31.341  1.00  0.00     0.167 HD
ATOM     57  C   UNL A   1      40.484  31.990  35.206  1.00  0.00     0.034 A 
ATOM     58  C   UNL A   1      41.037  28.149  29.346  1.00  0.00     0.034 A 
ATOM     59  C   UNL A   1      41.525  30.991  35.218  1.00  0.00     0.049 A 
ATOM     60  C   UNL A   1      41.989  27.979  30.502  1.00  0.00     0.074 A 
ATOM     61  C   UNL A   1      42.405  30.676  36.239  1.00  0.00     0.029 A 
ATOM     62  N   UNL A   1      41.840  30.154  34.154  1.00  0.00    -0.354 N 
ATOM     63  N   UNL A   1      42.007  28.604  31.657  1.00  0.00    -0.248 NA
ATOM     64  C   UNL A   1      43.048  26.975  30.345  1.00  0.00     0.031 C 
ATOM     65  C   UNL A   1      43.300  29.711  35.766  1.00  0.00     0.029 A 
ATOM     66  C   UNL A   1      42.924  29.353  34.481  1.00  0.00     0.049 A 
ATOM     67  H   UNL A   1      41.363  30.133  33.294  1.00  0.00     0.167 HD
ATOM     68  C   UNL A   1      43.062  28.046  32.375  1.00  0.00     0.074 A 
ATOM     69  C   UNL A   1      43.641  27.023  31.528  1.00  0.00     0.031 C 
ATOM     70  C   UNL A   1      43.506  28.346  33.623  1.00  0.00     0.034 A 
BRANCH  57  71
ATOM     71  C   UNL A   1      40.338  32.908  36.398  1.00  0.00     0.023 A 
ATOM     72  C   UNL A   1      39.562  32.554  37.518  1.00  0.00     0.031 A 
ATOM     73  C   UNL A   1      40.958  34.171  36.406  1.00  0.00     0.131 A 
ATOM     74  C   UNL A   1      39.357  33.480  38.551  1.00  0.00     0.055 A 
ATOM     75  C   UNL A   1      40.825  35.053  37.481  1.00  0.00     0.041 A 
ATOM     76  F   UNL A   1      41.693  34.577  35.359  1.00  0.00    -0.206 F 
ATOM     77  C   UNL A   1      40.007  34.717  38.555  1.00  0.00     0.022 A 
BRANCH  74  78
ATOM     78  S   UNL A   1      38.104  33.109  39.809  1.00  0.00     0.124 S 
ATOM     79  O   UNL A   1      38.142  34.319  40.628  1.00  0.00    -0.237 OA
ATOM     80  O   UNL A   1      36.900  32.916  39.009  1.00  0.00    -0.237 OA
ATOM     81  O   UNL A   1      38.620  31.908  40.464  1.00  0.00    -0.744 OA
ENDBRANCH  74  78
ENDBRANCH  57  71
BRANCH  58  82
ATOM     82  C   UNL A   1      41.210  27.363  28.090  1.00  0.00     0.023 A 
ATOM     83  C   UNL A   1      40.891  25.996  28.038  1.00  0.00     0.031 A 
ATOM     84  C   UNL A   1      41.732  27.960  26.928  1.00  0.00     0.131 A 
ATOM     85  C   UNL A   1      41.137  25.264  26.866  1.00  0.00     0.055 A 
ATOM     86  C   UNL A   1      41.923  27.241  25.748  1.00  0.00     0.041 A 
ATOM     87  F   UNL A   1      42.051  29.265  26.921  1.00  0.00    -0.206 F 
ATOM     88  C   UNL A   1      41.637  25.880  25.716  1.00  0.00     0.022 A 
BRANCH  85  89
ATOM     89  S   UNL A   1      40.875  23.469  26.891  1.00  0.00     0.124 S 
ATOM     90  O   UNL A   1      41.331  23.122  28.232  1.00  0.00    -0.237 OA
ATOM     91  O   UNL A   1      39.439  23.369  26.654  1.00  0.00    -0.237 OA
ATOM     92  O   UNL A   1      41.719  22.988  25.799  1.00  0.00    -0.744 OA
ENDBRANCH  85  89
ENDBRANCH  58  82
BRANCH  70  93
ATOM     93  C   UNL A   1      44.653  27.523  34.161  1.00  0.00     0.023 A 
ATOM     94  C   UNL A   1      44.443  26.321  34.859  1.00  0.00     0.031 A 
ATOM     95  C   UNL A   1      45.979  27.959  33.982  1.00  0.00     0.131 A 
ATOM     96  C   UNL A   1      45.535  25.630  35.405  1.00  0.00     0.055 A 
ATOM     97  C   UNL A   1      47.066  27.230  34.468  1.00  0.00     0.041 A 
ATOM     98  F   UNL A   1      46.242  29.103  33.329  1.00  0.00    -0.206 F 
ATOM     99  C   UNL A   1      46.845  26.065  35.197  1.00  0.00     0.022 A 
BRANCH  96 100
ATOM    100  S   UNL A   1      45.213  24.209  36.486  1.00  0.00     0.124 S 
ATOM    101  O   UNL A   1      44.589  24.844  37.642  1.00  0.00    -0.237 OA
ATOM    102  O   UNL A   1      44.335  23.383  35.662  1.00  0.00    -0.237 OA
ATOM    103  O   UNL A   1      46.542  23.652  36.726  1.00  0.00    -0.744 OA
ENDBRANCH  96 100
ENDBRANCH  70  93
ENDBRANCH  44  45
ENDBRANCH  36  39
ENDBRANCH  34  35
ENDBRANCH  33  34
ENDBRANCH  32  33
ENDBRANCH  31  32
ENDBRANCH   1  31
TORSDOF 22
ENDMDL
MODEL 3
REMARK VINA RESULT:     -11.7      2.427      7.576
REMARK SMILES CC[C@@H](C(=O)NCCCCCCNC(=O)c1ccc(-c2c3nc(c(-c4cc(S(=O)(=O)[O-])ccc4F)c4ccc([nH]4)c(-c4cc(S(=O)(=O)[O-])ccc4F)c4nc(c(-c5cc(S(=O)(=O)[O-])ccc5F)c5ccc2[nH]5)C=C4)C=C3)cc1)n1c(SCc2cccc(C(F)(F)F)c2)nc2ccncc21
REMARK SMILES IDX 8 1 7 2 6 3 4 4 5 5 3 7 2 8 1 9 79 10 80 11 99 12 93 13
REMARK SMILES IDX 94 14 98 15 95 16 97 17 96 18 81 19 82 20 83 21 84 22 92 23
REMARK SMILES IDX 85 24 87 25 86 26 88 27 89 28 90 29 91 30 9 31 10 32 11 33
REMARK SMILES IDX 12 34 13 35 14 36 15 38 16 39 17 40 78 41 18 42 77 43 19 44
REMARK SMILES IDX 20 45 21 46 71 47 22 48 76 49 70 50 72 51 23 52 75 53 69 54
REMARK SMILES IDX 68 55 24 57 56 58 36 59 55 60 37 61 40 62 54 63 73 64 38 65
REMARK SMILES IDX 39 66 53 68 74 69 41 70 25 71 26 72 34 73 27 74 33 75 35 76
REMARK SMILES IDX 32 77 28 78 29 79 30 80 31 81 57 82 58 83 66 84 59 85 65 86
REMARK SMILES IDX 67 87 64 88 60 89 61 90 62 91 63 92 42 93 43 94 51 95 44 96
REMARK SMILES IDX 50 97 52 98 49 99 45 100 46 101 47 102 48 103
REMARK H PARENT 6 6 13 37 72 56 40 67
REMARK Flexibility Score: inf
ROOT
ATOM      1  C   UNL A   1      33.790  30.243  26.847  1.00  0.00     0.021 C 
ENDROOT
BRANCH   1   2
ATOM      2  C   UNL A   1      33.131  28.904  27.197  1.00  0.00     0.116 C 
BRANCH   2   3
ATOM      3  N   UNL A   1      31.816  28.837  26.592  1.00  0.00    -0.354 N 
ATOM      4  C   UNL A   1      31.589  29.257  25.304  1.00  0.00     0.243 C 
ATOM      5  O   UNL A   1      31.067  30.350  25.105  1.00  0.00    -0.273 OA
ATOM      6  H   UNL A   1      31.064  28.481  27.117  1.00  0.00     0.163 HD
BRANCH   4   7
ATOM      7  C   UNL A   1      31.999  28.305  24.206  1.00  0.00     0.178 C 
BRANCH   7   8
ATOM      8  C   UNL A   1      33.047  28.952  23.275  1.00  0.00     0.032 C 
ATOM      9  C   UNL A   1      33.780  27.971  22.368  1.00  0.00     0.006 C 
ENDBRANCH   7   8
BRANCH   7  10
ATOM     10  N   UNL A   1      30.848  27.790  23.419  1.00  0.00    -0.305 N 
ATOM     11  C   UNL A   1      30.044  26.691  23.681  1.00  0.00     0.170 A 
ATOM     12  C   UNL A   1      30.010  28.696  22.756  1.00  0.00     0.088 A 
ATOM     13  N   UNL A   1      28.776  27.057  23.695  1.00  0.00    -0.222 NA
ATOM     14  C   UNL A   1      28.728  28.250  23.045  1.00  0.00     0.093 A 
ATOM     15  C   UNL A   1      30.217  29.869  22.043  1.00  0.00     0.139 A 
ATOM     16  C   UNL A   1      27.615  28.984  22.645  1.00  0.00     0.051 A 
ATOM     17  N   UNL A   1      29.134  30.564  21.612  1.00  0.00    -0.262 NA
ATOM     18  C   UNL A   1      27.890  30.124  21.914  1.00  0.00     0.113 A 
BRANCH  11  19
ATOM     19  S   UNL A   1      30.323  24.987  23.598  1.00  0.00    -0.083 SA
BRANCH  19  20
ATOM     20  C   UNL A   1      31.885  24.399  22.993  1.00  0.00     0.113 C 
BRANCH  20  21
ATOM     21  C   UNL A   1      33.133  24.258  23.827  1.00  0.00    -0.037 A 
ATOM     22  C   UNL A   1      33.276  25.151  24.912  1.00  0.00     0.004 A 
ATOM     23  C   UNL A   1      34.154  23.334  23.594  1.00  0.00     0.017 A 
ATOM     24  C   UNL A   1      34.454  25.202  25.657  1.00  0.00     0.001 A 
ATOM     25  C   UNL A   1      35.365  23.407  24.307  1.00  0.00     0.056 A 
ATOM     26  C   UNL A   1      35.507  24.354  25.333  1.00  0.00     0.013 A 
BRANCH  25  27
ATOM     27  C   UNL A   1      36.538  22.536  23.927  1.00  0.00     0.416 C 
ATOM     28  F   UNL A   1      36.304  21.222  24.208  1.00  0.00    -0.166 F 
ATOM     29  F   UNL A   1      36.834  22.594  22.601  1.00  0.00    -0.166 F 
ATOM     30  F   UNL A   1      37.685  22.853  24.586  1.00  0.00    -0.166 F 
ENDBRANCH  25  27
ENDBRANCH  20  21
ENDBRANCH  19  20
ENDBRANCH  11  19
ENDBRANCH   7  10
ENDBRANCH   4   7
ENDBRANCH   2   3
ENDBRANCH   1   2
BRANCH   1  31
ATOM     31  C   UNL A   1      34.737  30.773  27.937  1.00  0.00     0.002 C 
BRANCH  31  32
ATOM     32  C   UNL A   1      34.859  32.299  27.995  1.00  0.00     0.002 C 
BRANCH  32  33
ATOM     33  C   UNL A   1      33.524  33.044  28.010  1.00  0.00     0.021 C 
BRANCH  33  34
ATOM     34  C   UNL A   1      33.649  34.564  28.003  1.00  0.00     0.116 C 
BRANCH  34  35
ATOM     35  N   UNL A   1      33.077  35.158  29.200  1.00  0.00    -0.352 N 
ATOM     36  C   UNL A   1      33.381  34.901  30.513  1.00  0.00     0.251 C 
ATOM     37  H   UNL A   1      32.379  35.835  29.049  1.00  0.00     0.163 HD
ATOM     38  O   UNL A   1      32.643  35.319  31.405  1.00  0.00    -0.269 OA
BRANCH  36  39
ATOM     39  C   UNL A   1      34.578  34.100  30.845  1.00  0.00     0.039 A 
ATOM     40  C   UNL A   1      35.838  34.581  30.486  1.00  0.00     0.014 A 
ATOM     41  C   UNL A   1      34.456  32.880  31.520  1.00  0.00     0.014 A 
ATOM     42  C   UNL A   1      36.980  33.865  30.854  1.00  0.00     0.010 A 
ATOM     43  C   UNL A   1      35.597  32.211  31.953  1.00  0.00     0.010 A 
ATOM     44  C   UNL A   1      36.872  32.692  31.620  1.00  0.00    -0.014 A 
BRANCH  44  45
ATOM     45  C   UNL A   1      38.083  31.956  32.073  1.00  0.00     0.031 A 
ATOM     46  C   UNL A   1      38.772  32.351  33.351  1.00  0.00     0.074 A 
ATOM     47  C   UNL A   1      38.589  30.969  31.308  1.00  0.00     0.049 A 
ATOM     48  N   UNL A   1      39.866  31.868  33.885  1.00  0.00    -0.248 NA
ATOM     49  C   UNL A   1      38.169  33.453  34.113  1.00  0.00     0.031 C 
ATOM     50  C   UNL A   1      38.033  30.525  30.027  1.00  0.00     0.029 A 
ATOM     51  N   UNL A   1      39.686  30.164  31.488  1.00  0.00    -0.354 N 
ATOM     52  C   UNL A   1      40.087  32.615  35.038  1.00  0.00     0.074 A 
ATOM     53  C   UNL A   1      39.050  33.625  35.085  1.00  0.00     0.031 C 
ATOM     54  C   UNL A   1      38.774  29.510  29.554  1.00  0.00     0.029 A 
ATOM     55  C   UNL A   1      39.886  29.263  30.466  1.00  0.00     0.049 A 
ATOM     56  H   UNL A   1      40.275  30.225  32.274  1.00  0.00     0.167 HD
ATOM     57  C   UNL A   1      41.051  32.458  35.980  1.00  0.00     0.034 A 
ATOM     58  C   UNL A   1      40.861  28.352  30.278  1.00  0.00     0.034 A 
ATOM     59  C   UNL A   1      42.071  31.440  35.917  1.00  0.00     0.049 A 
ATOM     60  C   UNL A   1      41.939  28.214  31.323  1.00  0.00     0.074 A 
ATOM     61  C   UNL A   1      43.060  31.153  36.843  1.00  0.00     0.029 A 
ATOM     62  N   UNL A   1      42.248  30.550  34.863  1.00  0.00    -0.354 N 
ATOM     63  N   UNL A   1      42.101  28.889  32.438  1.00  0.00    -0.248 NA
ATOM     64  C   UNL A   1      42.958  27.183  31.091  1.00  0.00     0.031 C 
ATOM     65  C   UNL A   1      43.880  30.150  36.314  1.00  0.00     0.029 A 
ATOM     66  C   UNL A   1      43.352  29.743  35.100  1.00  0.00     0.049 A 
ATOM     67  H   UNL A   1      41.674  30.501  34.066  1.00  0.00     0.167 HD
ATOM     68  C   UNL A   1      43.223  28.342  33.054  1.00  0.00     0.074 A 
ATOM     69  C   UNL A   1      43.685  27.271  32.194  1.00  0.00     0.031 C 
ATOM     70  C   UNL A   1      43.815  28.689  34.227  1.00  0.00     0.034 A 
BRANCH  57  71
ATOM     71  C   UNL A   1      41.058  33.431  37.137  1.00  0.00     0.023 A 
ATOM     72  C   UNL A   1      41.969  34.502  37.201  1.00  0.00     0.031 A 
ATOM     73  C   UNL A   1      40.162  33.270  38.209  1.00  0.00     0.131 A 
ATOM     74  C   UNL A   1      42.021  35.312  38.345  1.00  0.00     0.055 A 
ATOM     75  C   UNL A   1      40.157  34.137  39.304  1.00  0.00     0.041 A 
ATOM     76  F   UNL A   1      39.283  32.255  38.219  1.00  0.00    -0.206 F 
ATOM     77  C   UNL A   1      41.102  35.155  39.385  1.00  0.00     0.022 A 
BRANCH  74  78
ATOM     78  S   UNL A   1      43.407  36.466  38.525  1.00  0.00     0.124 S 
ATOM     79  O   UNL A   1      44.551  35.557  38.520  1.00  0.00    -0.237 OA
ATOM     80  O   UNL A   1      43.264  37.319  37.350  1.00  0.00    -0.237 OA
ATOM     81  O   UNL A   1      43.148  37.119  39.807  1.00  0.00    -0.744 OA
ENDBRANCH  74  78
ENDBRANCH  57  71
BRANCH  58  82
ATOM     82  C   UNL A   1      40.875  27.507  29.048  1.00  0.00     0.023 A 
ATOM     83  C   UNL A   1      41.792  27.747  28.012  1.00  0.00     0.031 A 
ATOM     84  C   UNL A   1      39.945  26.466  28.875  1.00  0.00     0.131 A 
ATOM     85  C   UNL A   1      41.731  26.987  26.833  1.00  0.00     0.055 A 
ATOM     86  C   UNL A   1      39.926  25.676  27.725  1.00  0.00     0.041 A 
ATOM     87  F   UNL A   1      39.048  26.190  29.836  1.00  0.00    -0.206 F 
ATOM     88  C   UNL A   1      40.814  25.944  26.689  1.00  0.00     0.022 A 
BRANCH  85  89
ATOM     89  S   UNL A   1      42.815  27.439  25.450  1.00  0.00     0.124 S 
ATOM     90  O   UNL A   1      42.921  26.175  24.732  1.00  0.00    -0.237 OA
ATOM     91  O   UNL A   1      42.045  28.490  24.793  1.00  0.00    -0.237 OA
ATOM     92  O   UNL A   1      44.039  27.887  26.111  1.00  0.00    -0.744 OA
ENDBRANCH  85  89
ENDBRANCH  58  82
BRANCH  70  93
ATOM     93  C   UNL A   1      45.005  27.868  34.666  1.00  0.00     0.023 A 
ATOM     94  C   UNL A   1      44.855  26.624  35.304  1.00  0.00     0.031 A 
ATOM     95  C   UNL A   1      46.310  28.346  34.452  1.00  0.00     0.131 A 
ATOM     96  C   UNL A   1      45.988  25.932  35.762  1.00  0.00     0.055 A 
ATOM     97  C   UNL A   1      47.435  27.621  34.848  1.00  0.00     0.041 A 
ATOM     98  F   UNL A   1      46.515  29.531  33.853  1.00  0.00    -0.206 F 
ATOM     99  C   UNL A   1      47.276  26.413  35.520  1.00  0.00     0.022 A 
BRANCH  96 100
ATOM    100  S   UNL A   1      45.749  24.446  36.775  1.00  0.00     0.124 S 
ATOM    101  O   UNL A   1      46.485  24.787  37.988  1.00  0.00    -0.237 OA
ATOM    102  O   UNL A   1      44.297  24.387  36.905  1.00  0.00    -0.237 OA
ATOM    103  O   UNL A   1      46.343  23.382  35.968  1.00  0.00    -0.744 OA
ENDBRANCH  96 100
ENDBRANCH  70  93
ENDBRANCH  44  45
ENDBRANCH  36  39
ENDBRANCH  34  35
ENDBRANCH  33  34
ENDBRANCH  32  33
ENDBRANCH  31  32
ENDBRANCH   1  31
TORSDOF 22
ENDMDL
