MODEL 1
REMARK VINA RESULT:     -15.2      0.000      0.000
REMARK SMILES Cc1cc(/C=C2/C(=O)NC(=S)[NH+]=C2NCCCCCCNC(=O)c2ccc(-c3c4nc(c(-c5cc(S(=O)(=O)[O-])ccc5F)c5ccc([nH]5)c(-c5cc(S(=O)(=O)[O-])ccc5F)c5nc(c(-c6cc(S(=O)(=O)[O-])ccc6F)c6ccc3[nH]6)C=C5)C=C4)cc2)c(C)n1-c1cccc(C(=O)[O-])c1
REMARK SMILES IDX 18 1 17 2 16 3 15 4 14 5 5 6 6 7 7 8 13 9 8 10 9 11 12 12
REMARK SMILES IDX 10 13 11 17 4 18 1 19 2 20 3 21 89 22 87 23 88 24 90 25
REMARK SMILES IDX 91 26 98 27 92 28 94 29 93 30 95 31 96 32 97 33 19 34 20 35
REMARK SMILES IDX 21 36 22 37 23 39 24 40 25 41 86 42 26 43 85 44 27 45 28 46
REMARK SMILES IDX 29 47 79 48 30 49 84 50 78 51 80 52 31 53 83 54 77 55 76 56
REMARK SMILES IDX 32 58 64 59 44 60 63 61 45 62 48 63 62 64 81 65 46 66 47 67
REMARK SMILES IDX 61 69 82 70 49 71 33 72 34 73 42 74 35 75 41 76 43 77 40 78
REMARK SMILES IDX 36 79 37 80 38 81 39 82 65 83 66 84 74 85 67 86 73 87 75 88
REMARK SMILES IDX 72 89 68 90 69 91 70 92 71 93 50 94 51 95 59 96 52 97 58 98
REMARK SMILES IDX 60 99 57 100 53 101 54 102 55 103 56 104
REMARK H PARENT 9 14 12 15 14 16 21 38 80 57 48 68
REMARK Flexibility Score: inf
ROOT
ATOM      1  C   UNL A   1      34.933  30.514  27.491  1.00  0.00     0.002 C 
ENDROOT
BRANCH   1   2
ATOM      2  C   UNL A   1      33.480  29.116  26.639  1.00  0.00     0.003 C 
BRANCH   2   3
ATOM      3  C   UNL A   1      33.203  27.335  26.723  1.00  0.00     0.037 C 
BRANCH   3   4
ATOM      4  C   UNL A   1      31.849  26.585  26.538  1.00  0.00     0.194 C 
BRANCH   4   5
ATOM      5  N   UNL A   1      30.907  27.102  25.555  1.00  0.00    -0.305 N 
ATOM      6  C   UNL A   1      32.879  25.909  23.203  1.00  0.00     0.032 C 
ATOM      7  C   UNL A   1      32.312  27.125  23.347  1.00  0.00     0.128 C 
ATOM      8  C   UNL A   1      32.752  28.095  22.314  1.00  0.00     0.319 C 
ATOM      9  C   UNL A   1      31.227  27.598  24.290  1.00  0.00     0.234 C 
ATOM     10  O   UNL A   1      33.801  28.015  21.682  1.00  0.00    -0.250 OA
ATOM     11  N   UNL A   1      31.849  29.077  22.059  1.00  0.00    -0.229 N 
ATOM     12  N   UNL A   1      30.464  28.601  23.917  1.00  0.00    -0.236 N 
ATOM     13  C   UNL A   1      30.684  29.278  22.745  1.00  0.00     0.295 C 
ATOM     14  H   UNL A   1      32.049  29.695  21.320  1.00  0.00     0.268 HD
ATOM     15  H   UNL A   1      29.714  28.874  24.495  1.00  0.00     0.268 HD
ATOM     16  H   UNL A   1      29.955  27.099  25.805  1.00  0.00     0.256 HD
ATOM     17  S   UNL A   1      29.626  30.421  22.116  1.00  0.00    -0.005 S 
BRANCH   6  18
ATOM     18  C   UNL A   1      32.669  24.732  23.964  1.00  0.00    -0.003 A 
ATOM     19  C   UNL A   1      30.529  22.393  25.815  1.00  0.00     0.065 C 
ATOM     20  C   UNL A   1      31.533  23.123  25.014  1.00  0.00     0.020 A 
ATOM     21  C   UNL A   1      31.504  24.463  24.697  1.00  0.00     0.031 A 
ATOM     22  N   UNL A   1      32.673  22.578  24.444  1.00  0.00    -0.318 N 
ATOM     23  C   UNL A   1      33.523  23.652  24.119  1.00  0.00     0.027 A 
ATOM     24  C   UNL A   1      34.968  23.571  23.745  1.00  0.00     0.065 C 
BRANCH  22  25
ATOM     25  C   UNL A   1      32.868  21.241  23.990  1.00  0.00     0.046 A 
ATOM     26  C   UNL A   1      32.249  20.837  22.361  1.00  0.00     0.026 A 
ATOM     27  C   UNL A   1      33.395  19.897  25.114  1.00  0.00     0.036 A 
ATOM     28  C   UNL A   1      32.089  19.128  21.854  1.00  0.00     0.003 A 
ATOM     29  C   UNL A   1      33.247  18.163  24.562  1.00  0.00    -0.001 A 
ATOM     30  C   UNL A   1      32.589  17.800  22.915  1.00  0.00     0.010 A 
BRANCH  29  31
ATOM     31  C   UNL A   1      33.896  17.001  25.183  1.00  0.00     0.072 C 
ATOM     32  O   UNL A   1      33.304  16.190  25.872  1.00  0.00    -0.545 OA
ATOM     33  O   UNL A   1      35.165  16.859  24.806  1.00  0.00    -0.545 OA
ENDBRANCH  29  31
ENDBRANCH  22  25
ENDBRANCH   6  18
ENDBRANCH   4   5
ENDBRANCH   3   4
ENDBRANCH   2   3
ENDBRANCH   1   2
BRANCH   1  34
ATOM     34  C   UNL A   1      34.905  31.855  28.677  1.00  0.00     0.021 C 
BRANCH  34  35
ATOM     35  C   UNL A   1      35.379  31.919  30.188  1.00  0.00     0.116 C 
BRANCH  35  36
ATOM     36  N   UNL A   1      35.889  33.123  30.794  1.00  0.00    -0.352 N 
ATOM     37  C   UNL A   1      37.221  33.393  31.181  1.00  0.00     0.251 C 
ATOM     38  H   UNL A   1      35.234  33.841  30.955  1.00  0.00     0.163 HD
ATOM     39  O   UNL A   1      37.413  34.506  31.672  1.00  0.00    -0.269 OA
BRANCH  37  40
ATOM     40  C   UNL A   1      38.413  32.395  31.056  1.00  0.00     0.039 A 
ATOM     41  C   UNL A   1      38.868  31.975  29.818  1.00  0.00     0.014 A 
ATOM     42  C   UNL A   1      38.941  31.604  32.110  1.00  0.00     0.014 A 
ATOM     43  C   UNL A   1      39.870  30.904  29.671  1.00  0.00     0.010 A 
ATOM     44  C   UNL A   1      39.911  30.441  31.943  1.00  0.00     0.010 A 
ATOM     45  C   UNL A   1      40.444  30.019  30.697  1.00  0.00    -0.014 A 
BRANCH  45  46
ATOM     46  C   UNL A   1      41.099  28.459  30.158  1.00  0.00     0.031 A 
ATOM     47  C   UNL A   1      42.092  28.317  31.257  1.00  0.00     0.074 A 
ATOM     48  C   UNL A   1      41.299  27.425  29.149  1.00  0.00     0.049 A 
ATOM     49  N   UNL A   1      42.932  29.308  31.363  1.00  0.00    -0.248 NA
ATOM     50  C   UNL A   1      41.944  27.531  32.480  1.00  0.00     0.031 C 
ATOM     51  C   UNL A   1      40.901  27.410  27.714  1.00  0.00     0.029 A 
ATOM     52  N   UNL A   1      41.978  26.080  29.134  1.00  0.00    -0.354 N 
ATOM     53  C   UNL A   1      43.657  29.124  32.503  1.00  0.00     0.074 A 
ATOM     54  C   UNL A   1      42.858  28.150  33.250  1.00  0.00     0.031 C 
ATOM     55  C   UNL A   1      41.132  26.210  27.069  1.00  0.00     0.029 A 
ATOM     56  C   UNL A   1      41.783  25.193  27.920  1.00  0.00     0.049 A 
ATOM     57  H   UNL A   1      42.533  25.785  29.892  1.00  0.00     0.167 HD
ATOM     58  C   UNL A   1      44.999  29.137  32.250  1.00  0.00     0.034 A 
ATOM     59  C   UNL A   1      42.221  23.850  27.581  1.00  0.00     0.034 A 
ATOM     60  C   UNL A   1      45.455  27.805  31.944  1.00  0.00     0.049 A 
ATOM     61  C   UNL A   1      43.570  23.768  28.122  1.00  0.00     0.074 A 
ATOM     62  C   UNL A   1      45.152  26.577  32.503  1.00  0.00     0.029 A 
ATOM     63  N   UNL A   1      45.883  27.562  30.659  1.00  0.00    -0.354 N 
ATOM     64  N   UNL A   1      44.581  24.356  27.570  1.00  0.00    -0.248 NA
ATOM     65  C   UNL A   1      43.841  22.998  29.321  1.00  0.00     0.031 C 
ATOM     66  C   UNL A   1      44.867  25.764  31.392  1.00  0.00     0.029 A 
ATOM     67  C   UNL A   1      45.519  26.289  30.284  1.00  0.00     0.049 A 
ATOM     68  H   UNL A   1      46.373  28.200  30.093  1.00  0.00     0.167 HD
ATOM     69  C   UNL A   1      45.375  24.571  28.652  1.00  0.00     0.074 A 
ATOM     70  C   UNL A   1      45.035  23.517  29.602  1.00  0.00     0.031 C 
ATOM     71  C   UNL A   1      45.688  25.866  28.913  1.00  0.00     0.034 A 
BRANCH  58  72
ATOM     72  C   UNL A   1      45.409  30.386  31.485  1.00  0.00     0.023 A 
ATOM     73  C   UNL A   1      44.698  30.718  30.330  1.00  0.00     0.031 A 
ATOM     74  C   UNL A   1      46.578  31.140  31.767  1.00  0.00     0.131 A 
ATOM     75  C   UNL A   1      45.188  31.716  29.467  1.00  0.00     0.055 A 
ATOM     76  C   UNL A   1      47.093  32.084  30.880  1.00  0.00     0.041 A 
ATOM     77  F   UNL A   1      47.261  30.961  32.912  1.00  0.00    -0.206 F 
ATOM     78  C   UNL A   1      46.397  32.374  29.715  1.00  0.00     0.022 A 
BRANCH  75  79
ATOM     79  S   UNL A   1      44.198  32.154  28.018  1.00  0.00     0.124 S 
ATOM     80  O   UNL A   1      45.201  32.209  26.959  1.00  0.00    -0.237 OA
ATOM     81  O   UNL A   1      43.260  31.037  27.935  1.00  0.00    -0.237 OA
ATOM     82  O   UNL A   1      43.598  33.436  28.379  1.00  0.00    -0.744 OA
ENDBRANCH  75  79
ENDBRANCH  58  72
BRANCH  59  83
ATOM     83  C   UNL A   1      42.078  22.442  26.691  1.00  0.00     0.023 A 
ATOM     84  C   UNL A   1      43.187  21.741  25.971  1.00  0.00     0.031 A 
ATOM     85  C   UNL A   1      41.012  21.575  26.970  1.00  0.00     0.131 A 
ATOM     86  C   UNL A   1      43.169  20.324  25.632  1.00  0.00     0.055 A 
ATOM     87  C   UNL A   1      41.014  20.182  26.642  1.00  0.00     0.041 A 
ATOM     88  F   UNL A   1      39.962  22.015  27.674  1.00  0.00    -0.206 F 
ATOM     89  C   UNL A   1      42.079  19.551  26.000  1.00  0.00     0.022 A 
BRANCH  86  90
ATOM     90  S   UNL A   1      44.589  19.355  24.850  1.00  0.00     0.124 S 
ATOM     91  O   UNL A   1      44.417  18.012  25.389  1.00  0.00    -0.237 OA
ATOM     92  O   UNL A   1      44.362  19.521  23.419  1.00  0.00    -0.237 OA
ATOM     93  O   UNL A   1      45.792  20.041  25.339  1.00  0.00    -0.744 OA
ENDBRANCH  86  90
ENDBRANCH  59  83
BRANCH  71  94
ATOM     94  C   UNL A   1      46.054  26.770  27.739  1.00  0.00     0.023 A 
ATOM     95  C   UNL A   1      47.204  26.669  26.913  1.00  0.00     0.031 A 
ATOM     96  C   UNL A   1      45.204  27.860  27.490  1.00  0.00     0.131 A 
ATOM     97  C   UNL A   1      47.468  27.637  25.918  1.00  0.00     0.055 A 
ATOM     98  C   UNL A   1      45.439  28.790  26.478  1.00  0.00     0.041 A 
ATOM     99  F   UNL A   1      44.110  28.050  28.246  1.00  0.00    -0.206 F 
ATOM    100  C   UNL A   1      46.581  28.692  25.696  1.00  0.00     0.022 A 
BRANCH  97 101
ATOM    101  S   UNL A   1      49.016  27.586  24.948  1.00  0.00     0.124 S 
ATOM    102  O   UNL A   1      49.797  28.688  25.499  1.00  0.00    -0.237 OA
ATOM    103  O   UNL A   1      49.521  26.246  25.228  1.00  0.00    -0.237 OA
ATOM    104  O   UNL A   1      48.563  27.794  23.571  1.00  0.00    -0.744 OA
ENDBRANCH  97 101
ENDBRANCH  71  94
ENDBRANCH  45  46
ENDBRANCH  37  40
ENDBRANCH  35  36
ENDBRANCH  34  35
ENDBRANCH   1  34
TORSDOF 18
ENDMDL
MODEL 2
REMARK VINA RESULT:     -15.0      1.887      2.480
REMARK SMILES Cc1cc(/C=C2/C(=O)NC(=S)[NH+]=C2NCCCCCCNC(=O)c2ccc(-c3c4nc(c(-c5cc(S(=O)(=O)[O-])ccc5F)c5ccc([nH]5)c(-c5cc(S(=O)(=O)[O-])ccc5F)c5nc(c(-c6cc(S(=O)(=O)[O-])ccc6F)c6ccc3[nH]6)C=C5)C=C4)cc2)c(C)n1-c1cccc(C(=O)[O-])c1
REMARK SMILES IDX 18 1 17 2 16 3 15 4 14 5 5 6 6 7 7 8 13 9 8 10 9 11 12 12
REMARK SMILES IDX 10 13 11 17 4 18 1 19 2 20 3 21 89 22 87 23 88 24 90 25
REMARK SMILES IDX 91 26 98 27 92 28 94 29 93 30 95 31 96 32 97 33 19 34 20 35
REMARK SMILES IDX 21 36 22 37 23 39 24 40 25 41 86 42 26 43 85 44 27 45 28 46
REMARK SMILES IDX 29 47 79 48 30 49 84 50 78 51 80 52 31 53 83 54 77 55 76 56
REMARK SMILES IDX 32 58 64 59 44 60 63 61 45 62 48 63 62 64 81 65 46 66 47 67
REMARK SMILES IDX 61 69 82 70 49 71 33 72 34 73 42 74 35 75 41 76 43 77 40 78
REMARK SMILES IDX 36 79 37 80 38 81 39 82 65 83 66 84 74 85 67 86 73 87 75 88
REMARK SMILES IDX 72 89 68 90 69 91 70 92 71 93 50 94 51 95 59 96 52 97 58 98
REMARK SMILES IDX 60 99 57 100 53 101 54 102 55 103 56 104
REMARK H PARENT 9 14 12 15 14 16 21 38 80 57 48 68
REMARK Flexibility Score: inf
ROOT
ATOM      1  C   UNL A   1      35.199  30.902  28.185  1.00  0.00     0.002 C 
ENDROOT
BRANCH   1   2
ATOM      2  C   UNL A   1      33.685  29.677  27.186  1.00  0.00     0.003 C 
BRANCH   2   3
ATOM      3  C   UNL A   1      33.483  27.921  26.822  1.00  0.00     0.037 C 
BRANCH   3   4
ATOM      4  C   UNL A   1      32.148  27.117  26.782  1.00  0.00     0.194 C 
BRANCH   4   5
ATOM      5  N   UNL A   1      31.132  27.521  25.820  1.00  0.00    -0.305 N 
ATOM      6  C   UNL A   1      32.880  25.978  23.494  1.00  0.00     0.032 C 
ATOM      7  C   UNL A   1      32.343  27.216  23.520  1.00  0.00     0.128 C 
ATOM      8  C   UNL A   1      32.706  28.029  22.332  1.00  0.00     0.319 C 
ATOM      9  C   UNL A   1      31.350  27.837  24.477  1.00  0.00     0.234 C 
ATOM     10  O   UNL A   1      33.695  27.840  21.632  1.00  0.00    -0.250 OA
ATOM     11  N   UNL A   1      31.797  28.990  22.024  1.00  0.00    -0.229 N 
ATOM     12  N   UNL A   1      30.570  28.800  24.038  1.00  0.00    -0.236 N 
ATOM     13  C   UNL A   1      30.698  29.309  22.771  1.00  0.00     0.295 C 
ATOM     14  H   UNL A   1      31.941  29.500  21.194  1.00  0.00     0.268 HD
ATOM     15  H   UNL A   1      29.877  29.165  24.634  1.00  0.00     0.268 HD
ATOM     16  H   UNL A   1      30.206  27.576  26.147  1.00  0.00     0.256 HD
ATOM     17  S   UNL A   1      29.605  30.384  22.084  1.00  0.00    -0.005 S 
BRANCH   6  18
ATOM     18  C   UNL A   1      32.720  24.919  24.422  1.00  0.00    -0.003 A 
ATOM     19  C   UNL A   1      30.727  22.322  26.085  1.00  0.00     0.065 C 
ATOM     20  C   UNL A   1      31.730  23.205  25.455  1.00  0.00     0.020 A 
ATOM     21  C   UNL A   1      31.481  24.408  24.832  1.00  0.00     0.031 A 
ATOM     22  N   UNL A   1      33.095  22.968  25.384  1.00  0.00    -0.318 N 
ATOM     23  C   UNL A   1      33.709  24.195  25.069  1.00  0.00     0.027 A 
ATOM     24  C   UNL A   1      35.166  24.517  25.156  1.00  0.00     0.065 C 
BRANCH  22  25
ATOM     25  C   UNL A   1      33.760  21.708  25.339  1.00  0.00     0.046 A 
ATOM     26  C   UNL A   1      35.520  21.707  25.660  1.00  0.00     0.026 A 
ATOM     27  C   UNL A   1      32.967  20.210  24.651  1.00  0.00     0.036 A 
ATOM     28  C   UNL A   1      36.510  20.271  25.255  1.00  0.00     0.003 A 
ATOM     29  C   UNL A   1      33.995  18.750  24.272  1.00  0.00    -0.001 A 
ATOM     30  C   UNL A   1      35.777  18.803  24.587  1.00  0.00     0.010 A 
BRANCH  29  31
ATOM     31  C   UNL A   1      33.503  17.390  24.020  1.00  0.00     0.072 C 
ATOM     32  O   UNL A   1      33.171  16.621  24.905  1.00  0.00    -0.545 OA
ATOM     33  O   UNL A   1      33.335  17.136  22.724  1.00  0.00    -0.545 OA
ENDBRANCH  29  31
ENDBRANCH  22  25
ENDBRANCH   6  18
ENDBRANCH   4   5
ENDBRANCH   3   4
ENDBRANCH   2   3
ENDBRANCH   1   2
BRANCH   1  34
ATOM     34  C   UNL A   1      35.219  32.402  29.163  1.00  0.00     0.021 C 
BRANCH  34  35
ATOM     35  C   UNL A   1      34.612  32.722  30.592  1.00  0.00     0.116 C 
BRANCH  35  36
ATOM     36  N   UNL A   1      35.012  33.868  31.368  1.00  0.00    -0.352 N 
ATOM     37  C   UNL A   1      36.247  34.074  32.023  1.00  0.00     0.251 C 
ATOM     38  H   UNL A   1      34.348  34.591  31.451  1.00  0.00     0.163 HD
ATOM     39  O   UNL A   1      36.356  35.146  32.621  1.00  0.00    -0.269 OA
BRANCH  37  40
ATOM     40  C   UNL A   1      37.426  33.054  32.060  1.00  0.00     0.039 A 
ATOM     41  C   UNL A   1      38.306  32.940  30.997  1.00  0.00     0.014 A 
ATOM     42  C   UNL A   1      37.557  31.976  32.974  1.00  0.00     0.014 A 
ATOM     43  C   UNL A   1      39.318  31.870  30.927  1.00  0.00     0.010 A 
ATOM     44  C   UNL A   1      38.548  30.826  32.849  1.00  0.00     0.010 A 
ATOM     45  C   UNL A   1      39.504  30.705  31.807  1.00  0.00    -0.014 A 
BRANCH  45  46
ATOM     46  C   UNL A   1      40.344  29.294  31.130  1.00  0.00     0.031 A 
ATOM     47  C   UNL A   1      41.161  29.004  32.339  1.00  0.00     0.074 A 
ATOM     48  C   UNL A   1      40.773  28.465  30.009  1.00  0.00     0.049 A 
ATOM     49  N   UNL A   1      41.902  29.995  32.747  1.00  0.00    -0.248 NA
ATOM     50  C   UNL A   1      40.881  28.007  33.372  1.00  0.00     0.031 C 
ATOM     51  C   UNL A   1      40.605  28.687  28.546  1.00  0.00     0.029 A 
ATOM     52  N   UNL A   1      41.539  27.175  29.882  1.00  0.00    -0.354 N 
ATOM     53  C   UNL A   1      42.451  29.644  33.945  1.00  0.00     0.074 A 
ATOM     54  C   UNL A   1      41.617  28.519  34.375  1.00  0.00     0.031 C 
ATOM     55  C   UNL A   1      41.019  27.632  27.756  1.00  0.00     0.029 A 
ATOM     56  C   UNL A   1      41.600  26.509  28.521  1.00  0.00     0.049 A 
ATOM     57  H   UNL A   1      41.989  26.774  30.661  1.00  0.00     0.167 HD
ATOM     58  C   UNL A   1      43.812  29.759  33.924  1.00  0.00     0.034 A 
ATOM     59  C   UNL A   1      42.180  25.267  28.039  1.00  0.00     0.034 A 
ATOM     60  C   UNL A   1      44.404  28.523  33.479  1.00  0.00     0.049 A 
ATOM     61  C   UNL A   1      43.430  25.150  28.774  1.00  0.00     0.074 A 
ATOM     62  C   UNL A   1      44.106  27.203  33.766  1.00  0.00     0.029 A 
ATOM     63  N   UNL A   1      45.043  28.530  32.260  1.00  0.00    -0.354 N 
ATOM     64  N   UNL A   1      44.471  25.868  28.505  1.00  0.00    -0.248 NA
ATOM     65  C   UNL A   1      43.565  24.191  29.856  1.00  0.00     0.031 C 
ATOM     66  C   UNL A   1      44.057  26.589  32.503  1.00  0.00     0.029 A 
ATOM     67  C   UNL A   1      44.834  27.329  31.622  1.00  0.00     0.049 A 
ATOM     68  H   UNL A   1      45.569  29.279  31.899  1.00  0.00     0.167 HD
ATOM     69  C   UNL A   1      45.069  25.922  29.724  1.00  0.00     0.074 A 
ATOM     70  C   UNL A   1      44.661  24.703  30.414  1.00  0.00     0.031 C 
ATOM     71  C   UNL A   1      45.244  27.163  30.247  1.00  0.00     0.034 A 
BRANCH  58  72
ATOM     72  C   UNL A   1      44.246  31.140  33.458  1.00  0.00     0.023 A 
ATOM     73  C   UNL A   1      43.393  31.853  32.613  1.00  0.00     0.031 A 
ATOM     74  C   UNL A   1      45.540  31.682  33.681  1.00  0.00     0.131 A 
ATOM     75  C   UNL A   1      43.853  33.017  31.970  1.00  0.00     0.055 A 
ATOM     76  C   UNL A   1      46.012  32.799  32.995  1.00  0.00     0.041 A 
ATOM     77  F   UNL A   1      46.384  31.120  34.564  1.00  0.00    -0.206 F 
ATOM     78  C   UNL A   1      45.165  33.473  32.127  1.00  0.00     0.022 A 
BRANCH  75  79
ATOM     79  S   UNL A   1      42.690  33.939  30.936  1.00  0.00     0.124 S 
ATOM     80  O   UNL A   1      43.548  34.948  30.323  1.00  0.00    -0.237 OA
ATOM     81  O   UNL A   1      42.194  32.905  30.031  1.00  0.00    -0.237 OA
ATOM     82  O   UNL A   1      41.705  34.448  31.887  1.00  0.00    -0.744 OA
ENDBRANCH  75  79
ENDBRANCH  58  72
BRANCH  59  83
ATOM     83  C   UNL A   1      42.279  24.034  26.915  1.00  0.00     0.023 A 
ATOM     84  C   UNL A   1      43.440  23.757  26.013  1.00  0.00     0.031 A 
ATOM     85  C   UNL A   1      41.477  22.897  27.091  1.00  0.00     0.131 A 
ATOM     86  C   UNL A   1      43.718  22.455  25.420  1.00  0.00     0.055 A 
ATOM     87  C   UNL A   1      41.769  21.622  26.512  1.00  0.00     0.041 A 
ATOM     88  F   UNL A   1      40.431  22.943  27.925  1.00  0.00    -0.206 F 
ATOM     89  C   UNL A   1      42.880  21.388  25.703  1.00  0.00     0.022 A 
BRANCH  86  90
ATOM     90  S   UNL A   1      45.237  22.010  24.390  1.00  0.00     0.124 S 
ATOM     91  O   UNL A   1      44.736  20.990  23.477  1.00  0.00    -0.237 OA
ATOM     92  O   UNL A   1      45.628  23.284  23.799  1.00  0.00    -0.237 OA
ATOM     93  O   UNL A   1      46.194  21.501  25.380  1.00  0.00    -0.744 OA
ENDBRANCH  86  90
ENDBRANCH  59  83
BRANCH  71  94
ATOM     94  C   UNL A   1      45.723  28.275  29.318  1.00  0.00     0.023 A 
ATOM     95  C   UNL A   1      44.917  29.237  28.653  1.00  0.00     0.031 A 
ATOM     96  C   UNL A   1      47.098  28.312  29.031  1.00  0.00     0.131 A 
ATOM     97  C   UNL A   1      45.487  30.153  27.741  1.00  0.00     0.055 A 
ATOM     98  C   UNL A   1      47.668  29.246  28.167  1.00  0.00     0.041 A 
ATOM     99  F   UNL A   1      47.929  27.418  29.591  1.00  0.00    -0.206 F 
ATOM    100  C   UNL A   1      46.862  30.163  27.506  1.00  0.00     0.022 A 
BRANCH  97 101
ATOM    101  S   UNL A   1      44.434  31.298  26.782  1.00  0.00     0.124 S 
ATOM    102  O   UNL A   1      44.142  32.365  27.732  1.00  0.00    -0.237 OA
ATOM    103  O   UNL A   1      45.299  31.661  25.663  1.00  0.00    -0.237 OA
ATOM    104  O   UNL A   1      43.278  30.476  26.420  1.00  0.00    -0.744 OA
ENDBRANCH  97 101
ENDBRANCH  71  94
ENDBRANCH  45  46
ENDBRANCH  37  40
ENDBRANCH  35  36
ENDBRANCH  34  35
ENDBRANCH   1  34
TORSDOF 18
ENDMDL
MODEL 3
REMARK VINA RESULT:     -14.3      2.053      2.458
REMARK SMILES Cc1cc(/C=C2/C(=O)NC(=S)[NH+]=C2NCCCCCCNC(=O)c2ccc(-c3c4nc(c(-c5cc(S(=O)(=O)[O-])ccc5F)c5ccc([nH]5)c(-c5cc(S(=O)(=O)[O-])ccc5F)c5nc(c(-c6cc(S(=O)(=O)[O-])ccc6F)c6ccc3[nH]6)C=C5)C=C4)cc2)c(C)n1-c1cccc(C(=O)[O-])c1
REMARK SMILES IDX 18 1 17 2 16 3 15 4 14 5 5 6 6 7 7 8 13 9 8 10 9 11 12 12
REMARK SMILES IDX 10 13 11 17 4 18 1 19 2 20 3 21 89 22 87 23 88 24 90 25
REMARK SMILES IDX 91 26 98 27 92 28 94 29 93 30 95 31 96 32 97 33 19 34 20 35
REMARK SMILES IDX 21 36 22 37 23 39 24 40 25 41 86 42 26 43 85 44 27 45 28 46
REMARK SMILES IDX 29 47 79 48 30 49 84 50 78 51 80 52 31 53 83 54 77 55 76 56
REMARK SMILES IDX 32 58 64 59 44 60 63 61 45 62 48 63 62 64 81 65 46 66 47 67
REMARK SMILES IDX 61 69 82 70 49 71 33 72 34 73 42 74 35 75 41 76 43 77 40 78
REMARK SMILES IDX 36 79 37 80 38 81 39 82 65 83 66 84 74 85 67 86 73 87 75 88
REMARK SMILES IDX 72 89 68 90 69 91 70 92 71 93 50 94 51 95 59 96 52 97 58 98
REMARK SMILES IDX 60 99 57 100 53 101 54 102 55 103 56 104
REMARK H PARENT 9 14 12 15 14 16 21 38 80 57 48 68
REMARK Flexibility Score: inf
ROOT
ATOM      1  C   UNL A   1      34.454  31.904  27.775  1.00  0.00     0.002 C 
ENDROOT
BRANCH   1   2
ATOM      2  C   UNL A   1      33.611  30.012  27.066  1.00  0.00     0.003 C 
BRANCH   2   3
ATOM      3  C   UNL A   1      34.269  28.388  26.639  1.00  0.00     0.037 C 
BRANCH   3   4
ATOM      4  C   UNL A   1      33.485  27.188  26.026  1.00  0.00     0.194 C 
BRANCH   4   5
ATOM      5  N   UNL A   1      32.070  27.369  25.734  1.00  0.00    -0.305 N 
ATOM      6  C   UNL A   1      32.392  25.131  23.340  1.00  0.00     0.032 C 
ATOM      7  C   UNL A   1      31.829  26.357  23.333  1.00  0.00     0.128 C 
ATOM      8  C   UNL A   1      31.383  26.781  21.982  1.00  0.00     0.319 C 
ATOM      9  C   UNL A   1      31.472  27.282  24.476  1.00  0.00     0.234 C 
ATOM     10  O   UNL A   1      31.833  26.343  20.928  1.00  0.00    -0.250 OA
ATOM     11  N   UNL A   1      30.358  27.672  21.995  1.00  0.00    -0.229 N 
ATOM     12  N   UNL A   1      30.482  28.130  24.313  1.00  0.00    -0.236 N 
ATOM     13  C   UNL A   1      29.830  28.256  23.112  1.00  0.00     0.295 C 
ATOM     14  H   UNL A   1      29.963  27.919  21.128  1.00  0.00     0.268 HD
ATOM     15  H   UNL A   1      30.200  28.690  25.072  1.00  0.00     0.268 HD
ATOM     16  H   UNL A   1      31.481  27.570  26.496  1.00  0.00     0.256 HD
ATOM     17  S   UNL A   1      28.431  29.161  22.901  1.00  0.00    -0.005 S 
BRANCH   6  18
ATOM     18  C   UNL A   1      32.888  24.385  24.438  1.00  0.00    -0.003 A 
ATOM     19  C   UNL A   1      32.465  22.612  27.626  1.00  0.00     0.065 C 
ATOM     20  C   UNL A   1      32.828  23.154  26.300  1.00  0.00     0.020 A 
ATOM     21  C   UNL A   1      32.184  24.172  25.631  1.00  0.00     0.031 A 
ATOM     22  N   UNL A   1      33.879  22.726  25.503  1.00  0.00    -0.318 N 
ATOM     23  C   UNL A   1      34.105  23.732  24.546  1.00  0.00     0.027 A 
ATOM     24  C   UNL A   1      35.296  23.866  23.650  1.00  0.00     0.065 C 
BRANCH  22  25
ATOM     25  C   UNL A   1      34.450  21.421  25.441  1.00  0.00     0.046 A 
ATOM     26  C   UNL A   1      36.234  21.311  25.521  1.00  0.00     0.026 A 
ATOM     27  C   UNL A   1      33.476  19.952  24.952  1.00  0.00     0.036 A 
ATOM     28  C   UNL A   1      37.065  19.791  25.068  1.00  0.00     0.003 A 
ATOM     29  C   UNL A   1      34.347  18.406  24.521  1.00  0.00    -0.001 A 
ATOM     30  C   UNL A   1      36.155  18.348  24.590  1.00  0.00     0.010 A 
BRANCH  29  31
ATOM     31  C   UNL A   1      33.740  17.074  24.416  1.00  0.00     0.072 C 
ATOM     32  O   UNL A   1      34.042  16.263  23.559  1.00  0.00    -0.545 OA
ATOM     33  O   UNL A   1      32.924  16.800  25.432  1.00  0.00    -0.545 OA
ENDBRANCH  29  31
ENDBRANCH  22  25
ENDBRANCH   6  18
ENDBRANCH   4   5
ENDBRANCH   3   4
ENDBRANCH   2   3
ENDBRANCH   1   2
BRANCH   1  34
ATOM     34  C   UNL A   1      34.699  32.706  29.357  1.00  0.00     0.021 C 
BRANCH  34  35
ATOM     35  C   UNL A   1      35.933  32.693  30.351  1.00  0.00     0.116 C 
BRANCH  35  36
ATOM     36  N   UNL A   1      36.649  33.888  30.718  1.00  0.00    -0.352 N 
ATOM     37  C   UNL A   1      38.012  34.000  31.074  1.00  0.00     0.251 C 
ATOM     38  H   UNL A   1      36.128  34.725  30.720  1.00  0.00     0.163 HD
ATOM     39  O   UNL A   1      38.398  35.138  31.340  1.00  0.00    -0.269 OA
BRANCH  37  40
ATOM     40  C   UNL A   1      39.014  32.809  31.175  1.00  0.00     0.039 A 
ATOM     41  C   UNL A   1      39.794  32.435  30.094  1.00  0.00     0.014 A 
ATOM     42  C   UNL A   1      39.030  31.829  32.203  1.00  0.00     0.014 A 
ATOM     43  C   UNL A   1      40.616  31.212  30.103  1.00  0.00     0.010 A 
ATOM     44  C   UNL A   1      39.816  30.525  32.168  1.00  0.00     0.010 A 
ATOM     45  C   UNL A   1      40.671  30.135  31.105  1.00  0.00    -0.014 A 
BRANCH  45  46
ATOM     46  C   UNL A   1      41.230  28.540  30.559  1.00  0.00     0.031 A 
ATOM     47  C   UNL A   1      41.988  28.209  31.797  1.00  0.00     0.074 A 
ATOM     48  C   UNL A   1      41.490  27.551  29.519  1.00  0.00     0.049 A 
ATOM     49  N   UNL A   1      42.902  29.078  32.124  1.00  0.00    -0.248 NA
ATOM     50  C   UNL A   1      41.536  27.375  32.909  1.00  0.00     0.031 C 
ATOM     51  C   UNL A   1      41.356  27.673  28.041  1.00  0.00     0.029 A 
ATOM     52  N   UNL A   1      42.003  26.135  29.511  1.00  0.00    -0.354 N 
ATOM     53  C   UNL A   1      43.386  28.736  33.353  1.00  0.00     0.074 A 
ATOM     54  C   UNL A   1      42.361  27.827  33.871  1.00  0.00     0.031 C 
ATOM     55  C   UNL A   1      41.561  26.495  27.349  1.00  0.00     0.029 A 
ATOM     56  C   UNL A   1      41.930  25.354  28.213  1.00  0.00     0.049 A 
ATOM     57  H   UNL A   1      42.377  25.728  30.326  1.00  0.00     0.167 HD
ATOM     58  C   UNL A   1      44.744  28.595  33.334  1.00  0.00     0.034 A 
ATOM     59  C   UNL A   1      42.266  23.990  27.845  1.00  0.00     0.034 A 
ATOM     60  C   UNL A   1      45.094  27.238  33.003  1.00  0.00     0.049 A 
ATOM     61  C   UNL A   1      43.479  23.707  28.600  1.00  0.00     0.074 A 
ATOM     62  C   UNL A   1      44.559  26.026  33.401  1.00  0.00     0.029 A 
ATOM     63  N   UNL A   1      45.715  27.020  31.794  1.00  0.00    -0.354 N 
ATOM     64  N   UNL A   1      44.632  24.194  28.278  1.00  0.00    -0.248 NA
ATOM     65  C   UNL A   1      43.441  22.838  29.761  1.00  0.00     0.031 C 
ATOM     66  C   UNL A   1      44.388  25.323  32.195  1.00  0.00     0.029 A 
ATOM     67  C   UNL A   1      45.282  25.828  31.261  1.00  0.00     0.049 A 
ATOM     68  H   UNL A   1      46.368  27.625  31.374  1.00  0.00     0.167 HD
ATOM     69  C   UNL A   1      45.239  24.243  29.494  1.00  0.00     0.074 A 
ATOM     70  C   UNL A   1      44.617  23.184  30.283  1.00  0.00     0.031 C 
ATOM     71  C   UNL A   1      45.645  25.470  29.909  1.00  0.00     0.034 A 
BRANCH  58  72
ATOM     72  C   UNL A   1      45.423  29.827  32.754  1.00  0.00     0.023 A 
ATOM     73  C   UNL A   1      45.934  30.780  33.637  1.00  0.00     0.031 A 
ATOM     74  C   UNL A   1      45.417  30.158  31.373  1.00  0.00     0.131 A 
ATOM     75  C   UNL A   1      46.350  32.034  33.152  1.00  0.00     0.055 A 
ATOM     76  C   UNL A   1      45.771  31.422  30.904  1.00  0.00     0.041 A 
ATOM     77  F   UNL A   1      45.045  29.258  30.445  1.00  0.00    -0.206 F 
ATOM     78  C   UNL A   1      46.237  32.374  31.800  1.00  0.00     0.022 A 
BRANCH  75  79
ATOM     79  S   UNL A   1      47.063  33.211  34.326  1.00  0.00     0.124 S 
ATOM     80  O   UNL A   1      47.935  34.013  33.474  1.00  0.00    -0.237 OA
ATOM     81  O   UNL A   1      45.877  33.898  34.833  1.00  0.00    -0.237 OA
ATOM     82  O   UNL A   1      47.745  32.363  35.300  1.00  0.00    -0.744 OA
ENDBRANCH  75  79
ENDBRANCH  58  72
BRANCH  59  83
ATOM     83  C   UNL A   1      42.127  22.667  26.834  1.00  0.00     0.023 A 
ATOM     84  C   UNL A   1      43.250  21.984  26.118  1.00  0.00     0.031 A 
ATOM     85  C   UNL A   1      41.017  21.822  26.979  1.00  0.00     0.131 A 
ATOM     86  C   UNL A   1      43.203  20.602  25.660  1.00  0.00     0.055 A 
ATOM     87  C   UNL A   1      40.990  20.462  26.535  1.00  0.00     0.041 A 
ATOM     88  F   UNL A   1      39.943  22.244  27.659  1.00  0.00    -0.206 F 
ATOM     89  C   UNL A   1      42.067  19.845  25.900  1.00  0.00     0.022 A 
BRANCH  86  90
ATOM     90  S   UNL A   1      44.631  19.647  24.877  1.00  0.00     0.124 S 
ATOM     91  O   UNL A   1      44.413  18.281  25.337  1.00  0.00    -0.237 OA
ATOM     92  O   UNL A   1      44.459  19.893  23.451  1.00  0.00    -0.237 OA
ATOM     93  O   UNL A   1      45.829  20.280  25.444  1.00  0.00    -0.744 OA
ENDBRANCH  86  90
ENDBRANCH  59  83
BRANCH  71  94
ATOM     94  C   UNL A   1      46.315  26.389  28.891  1.00  0.00     0.023 A 
ATOM     95  C   UNL A   1      45.668  27.224  27.941  1.00  0.00     0.031 A 
ATOM     96  C   UNL A   1      47.718  26.357  28.836  1.00  0.00     0.131 A 
ATOM     97  C   UNL A   1      46.417  27.953  26.990  1.00  0.00     0.055 A 
ATOM     98  C   UNL A   1      48.459  27.112  27.929  1.00  0.00     0.041 A 
ATOM     99  F   UNL A   1      48.409  25.570  29.677  1.00  0.00    -0.206 F 
ATOM    100  C   UNL A   1      47.811  27.903  26.990  1.00  0.00     0.022 A 
BRANCH  97 101
ATOM    101  S   UNL A   1      45.583  28.917  25.681  1.00  0.00     0.124 S 
ATOM    102  O   UNL A   1      46.654  29.741  25.134  1.00  0.00    -0.237 OA
ATOM    103  O   UNL A   1      45.069  27.874  24.798  1.00  0.00    -0.237 OA
ATOM    104  O   UNL A   1      44.555  29.664  26.409  1.00  0.00    -0.744 OA
ENDBRANCH  97 101
ENDBRANCH  71  94
ENDBRANCH  45  46
ENDBRANCH  37  40
ENDBRANCH  35  36
ENDBRANCH  34  35
ENDBRANCH   1  34
TORSDOF 18
ENDMDL
