MODEL 1
REMARK VINA RESULT:     -11.9      0.000      0.000
REMARK SMILES C[C@H](Oc1ccc(/C=C2\SC(=S)N(N)C2=O)cc1)C(=O)NCCCCCCNC(=O)c1ccc(-c2c3nc(c(-c4cc(S(=O)(=O)[O-])ccc4F)c4ccc([nH]4)c(-c4cc(S(=O)(=O)[O-])ccc4F)c4nc(c(-c5cc(S(=O)(=O)[O-])ccc5F)c5ccc2[nH]5)C=C4)C=C3)cc1
REMARK SMILES IDX 24 1 23 2 22 3 21 4 19 5 20 6 2 8 1 9 3 10 4 11 5 12 18 13
REMARK SMILES IDX 6 14 17 15 7 16 8 17 9 18 10 19 15 20 11 21 13 22 16 23
REMARK SMILES IDX 12 24 14 25 25 28 26 29 27 30 28 31 29 32 30 34 31 35 32 36
REMARK SMILES IDX 93 37 33 38 92 39 34 40 35 41 36 42 86 43 37 44 91 45 85 46
REMARK SMILES IDX 87 47 38 48 90 49 84 50 83 51 39 53 71 54 51 55 70 56 52 57
REMARK SMILES IDX 55 58 69 59 88 60 53 61 54 62 68 64 89 65 56 66 40 67 41 68
REMARK SMILES IDX 49 69 42 70 48 71 50 72 47 73 43 74 44 75 45 76 46 77 72 78
REMARK SMILES IDX 73 79 81 80 74 81 80 82 82 83 79 84 75 85 76 86 77 87 78 88
REMARK SMILES IDX 57 89 58 90 66 91 59 92 65 93 67 94 64 95 60 96 61 97 62 98
REMARK SMILES IDX 63 99
REMARK H PARENT 21 7 14 26 14 27 28 33 87 52 55 63
REMARK Flexibility Score: inf
ROOT
ATOM      1  C   UNL A   1      31.808  29.144  26.863  1.00  0.00     0.002 C 
ENDROOT
BRANCH   1   2
ATOM      2  C   UNL A   1      33.037  28.245  27.014  1.00  0.00     0.021 C 
BRANCH   2   3
ATOM      3  C   UNL A   1      32.821  26.832  26.491  1.00  0.00     0.116 C 
BRANCH   3   4
ATOM      4  N   UNL A   1      31.498  26.343  26.847  1.00  0.00    -0.353 N 
ATOM      5  C   UNL A   1      30.500  25.909  26.018  1.00  0.00     0.260 C 
ATOM      6  O   UNL A   1      29.421  25.577  26.511  1.00  0.00    -0.271 OA
ATOM      7  H   UNL A   1      31.294  26.323  27.809  1.00  0.00     0.163 HD
BRANCH   5   8
ATOM      8  C   UNL A   1      30.790  25.745  24.525  1.00  0.00     0.258 C 
ATOM      9  C   UNL A   1      30.223  27.003  23.831  1.00  0.00     0.064 C 
BRANCH   8  10
ATOM     10  O   UNL A   1      30.258  24.464  24.131  1.00  0.00    -0.481 OA
BRANCH  10  11
ATOM     11  C   UNL A   1      31.049  23.358  24.214  1.00  0.00     0.120 A 
ATOM     12  C   UNL A   1      31.135  22.558  25.331  1.00  0.00     0.047 A 
ATOM     13  C   UNL A   1      31.863  23.054  23.120  1.00  0.00     0.047 A 
ATOM     14  C   UNL A   1      32.124  21.590  25.430  1.00  0.00     0.012 A 
ATOM     15  C   UNL A   1      32.815  22.014  23.195  1.00  0.00     0.012 A 
ATOM     16  C   UNL A   1      32.989  21.281  24.381  1.00  0.00    -0.024 A 
BRANCH  16  17
ATOM     17  C   UNL A   1      34.076  20.272  24.504  1.00  0.00     0.029 C 
ATOM     18  C   UNL A   1      34.016  18.924  24.467  1.00  0.00     0.082 C 
ATOM     19  S   UNL A   1      32.649  17.895  24.225  1.00  0.00    -0.053 SA
ATOM     20  C   UNL A   1      35.198  18.059  24.772  1.00  0.00     0.280 C 
ATOM     21  C   UNL A   1      33.391  16.532  25.013  1.00  0.00     0.162 C 
ATOM     22  N   UNL A   1      34.741  16.790  25.137  1.00  0.00    -0.226 N 
ATOM     23  O   UNL A   1      36.366  18.417  24.674  1.00  0.00    -0.267 OA
ATOM     24  S   UNL A   1      32.543  15.171  25.467  1.00  0.00    -0.050 S 
BRANCH  22  25
ATOM     25  N   UNL A   1      35.648  15.812  25.612  1.00  0.00    -0.239 NA
ATOM     26  H   UNL A   1      35.422  15.581  26.579  1.00  0.00     0.144 HD
ATOM     27  H   UNL A   1      36.599  16.178  25.563  1.00  0.00     0.144 HD
ENDBRANCH  22  25
ENDBRANCH  16  17
ENDBRANCH  10  11
ENDBRANCH   8  10
ENDBRANCH   5   8
ENDBRANCH   3   4
ENDBRANCH   2   3
ENDBRANCH   1   2
BRANCH   1  28
ATOM     28  C   UNL A   1      32.068  30.462  26.125  1.00  0.00     0.002 C 
BRANCH  28  29
ATOM     29  C   UNL A   1      31.796  31.724  26.946  1.00  0.00     0.021 C 
BRANCH  29  30
ATOM     30  C   UNL A   1      33.028  32.580  27.211  1.00  0.00     0.116 C 
BRANCH  30  31
ATOM     31  N   UNL A   1      32.676  33.942  27.578  1.00  0.00    -0.352 N 
ATOM     32  C   UNL A   1      33.155  34.705  28.614  1.00  0.00     0.251 C 
ATOM     33  H   UNL A   1      32.002  34.376  27.006  1.00  0.00     0.163 HD
ATOM     34  O   UNL A   1      32.609  35.764  28.902  1.00  0.00    -0.269 OA
BRANCH  32  35
ATOM     35  C   UNL A   1      34.316  34.219  29.390  1.00  0.00     0.039 A 
ATOM     36  C   UNL A   1      34.097  33.409  30.506  1.00  0.00     0.014 A 
ATOM     37  C   UNL A   1      35.618  34.547  28.999  1.00  0.00     0.014 A 
ATOM     38  C   UNL A   1      35.189  32.876  31.196  1.00  0.00     0.010 A 
ATOM     39  C   UNL A   1      36.701  33.957  29.643  1.00  0.00     0.010 A 
ATOM     40  C   UNL A   1      36.498  33.117  30.750  1.00  0.00    -0.014 A 
BRANCH  40  41
ATOM     41  C   UNL A   1      37.677  32.520  31.432  1.00  0.00     0.031 A 
ATOM     42  C   UNL A   1      38.423  31.388  30.775  1.00  0.00     0.074 A 
ATOM     43  C   UNL A   1      38.027  32.939  32.666  1.00  0.00     0.049 A 
ATOM     44  N   UNL A   1      39.389  30.647  31.251  1.00  0.00    -0.248 NA
ATOM     45  C   UNL A   1      38.005  31.026  29.411  1.00  0.00     0.031 C 
ATOM     46  C   UNL A   1      37.367  34.012  33.414  1.00  0.00     0.029 A 
ATOM     47  N   UNL A   1      39.014  32.505  33.517  1.00  0.00    -0.354 N 
ATOM     48  C   UNL A   1      39.677  29.715  30.259  1.00  0.00     0.074 A 
ATOM     49  C   UNL A   1      38.753  29.958  29.173  1.00  0.00     0.031 C 
ATOM     50  C   UNL A   1      37.977  34.161  34.602  1.00  0.00     0.029 A 
ATOM     51  C   UNL A   1      39.032  33.161  34.729  1.00  0.00     0.049 A 
ATOM     52  H   UNL A   1      39.650  31.790  33.283  1.00  0.00     0.167 HD
ATOM     53  C   UNL A   1      40.634  28.755  30.252  1.00  0.00     0.034 A 
ATOM     54  C   UNL A   1      39.795  32.961  35.823  1.00  0.00     0.034 A 
ATOM     55  C   UNL A   1      41.568  28.548  31.331  1.00  0.00     0.049 A 
ATOM     56  C   UNL A   1      40.836  31.865  35.795  1.00  0.00     0.074 A 
ATOM     57  C   UNL A   1      42.620  27.650  31.393  1.00  0.00     0.029 A 
ATOM     58  N   UNL A   1      41.562  29.238  32.535  1.00  0.00    -0.354 N 
ATOM     59  N   UNL A   1      41.128  31.027  34.827  1.00  0.00    -0.248 NA
ATOM     60  C   UNL A   1      41.656  31.693  37.003  1.00  0.00     0.031 C 
ATOM     61  C   UNL A   1      43.200  27.744  32.661  1.00  0.00     0.029 A 
ATOM     62  C   UNL A   1      42.569  28.762  33.359  1.00  0.00     0.049 A 
ATOM     63  H   UNL A   1      40.934  29.960  32.769  1.00  0.00     0.167 HD
ATOM     64  C   UNL A   1      42.197  30.266  35.294  1.00  0.00     0.074 A 
ATOM     65  C   UNL A   1      42.502  30.748  36.623  1.00  0.00     0.031 C 
ATOM     66  C   UNL A   1      42.872  29.264  34.677  1.00  0.00     0.034 A 
BRANCH  53  67
ATOM     67  C   UNL A   1      40.707  27.838  29.057  1.00  0.00     0.023 A 
ATOM     68  C   UNL A   1      41.625  28.046  28.014  1.00  0.00     0.031 A 
ATOM     69  C   UNL A   1      39.856  26.720  28.974  1.00  0.00     0.131 A 
ATOM     70  C   UNL A   1      41.637  27.178  26.911  1.00  0.00     0.055 A 
ATOM     71  C   UNL A   1      39.925  25.819  27.912  1.00  0.00     0.041 A 
ATOM     72  F   UNL A   1      38.943  26.485  29.932  1.00  0.00    -0.206 F 
ATOM     73  C   UNL A   1      40.813  26.051  26.867  1.00  0.00     0.022 A 
BRANCH  70  74
ATOM     74  S   UNL A   1      42.672  27.603  25.484  1.00  0.00     0.124 S 
ATOM     75  O   UNL A   1      42.555  26.397  24.667  1.00  0.00    -0.237 OA
ATOM     76  O   UNL A   1      42.016  28.796  24.961  1.00  0.00    -0.237 OA
ATOM     77  O   UNL A   1      43.992  27.823  26.072  1.00  0.00    -0.744 OA
ENDBRANCH  70  74
ENDBRANCH  53  67
BRANCH  54  78
ATOM     78  C   UNL A   1      39.603  33.784  37.055  1.00  0.00     0.023 A 
ATOM     79  C   UNL A   1      40.434  34.885  37.322  1.00  0.00     0.031 A 
ATOM     80  C   UNL A   1      38.652  33.431  38.029  1.00  0.00     0.131 A 
ATOM     81  C   UNL A   1      40.353  35.542  38.560  1.00  0.00     0.055 A 
ATOM     82  C   UNL A   1      38.527  34.133  39.230  1.00  0.00     0.041 A 
ATOM     83  F   UNL A   1      37.831  32.387  37.830  1.00  0.00    -0.206 F 
ATOM     84  C   UNL A   1      39.395  35.183  39.510  1.00  0.00     0.022 A 
BRANCH  81  85
ATOM     85  S   UNL A   1      41.616  36.780  38.967  1.00  0.00     0.124 S 
ATOM     86  O   UNL A   1      42.218  36.203  40.164  1.00  0.00    -0.237 OA
ATOM     87  O   UNL A   1      42.442  36.774  37.764  1.00  0.00    -0.237 OA
ATOM     88  O   UNL A   1      40.839  37.998  39.183  1.00  0.00    -0.744 OA
ENDBRANCH  81  85
ENDBRANCH  54  78
BRANCH  66  89
ATOM     89  C   UNL A   1      44.058  28.676  35.401  1.00  0.00     0.023 A 
ATOM     90  C   UNL A   1      43.926  27.621  36.320  1.00  0.00     0.031 A 
ATOM     91  C   UNL A   1      45.349  29.177  35.149  1.00  0.00     0.131 A 
ATOM     92  C   UNL A   1      45.059  27.133  36.989  1.00  0.00     0.055 A 
ATOM     93  C   UNL A   1      46.478  28.646  35.772  1.00  0.00     0.041 A 
ATOM     94  F   UNL A   1      45.533  30.185  34.282  1.00  0.00    -0.206 F 
ATOM     95  C   UNL A   1      46.335  27.626  36.706  1.00  0.00     0.022 A 
BRANCH  92  96
ATOM     96  S   UNL A   1      44.835  25.895  38.295  1.00  0.00     0.124 S 
ATOM     97  O   UNL A   1      43.650  26.395  38.987  1.00  0.00    -0.237 OA
ATOM     98  O   UNL A   1      44.656  24.664  37.533  1.00  0.00    -0.237 OA
ATOM     99  O   UNL A   1      46.078  25.974  39.061  1.00  0.00    -0.744 OA
ENDBRANCH  92  96
ENDBRANCH  66  89
ENDBRANCH  40  41
ENDBRANCH  32  35
ENDBRANCH  30  31
ENDBRANCH  29  30
ENDBRANCH  28  29
ENDBRANCH   1  28
TORSDOF 20
ENDMDL
MODEL 2
REMARK VINA RESULT:     -11.8      4.289      9.943
REMARK SMILES C[C@H](Oc1ccc(/C=C2\SC(=S)N(N)C2=O)cc1)C(=O)NCCCCCCNC(=O)c1ccc(-c2c3nc(c(-c4cc(S(=O)(=O)[O-])ccc4F)c4ccc([nH]4)c(-c4cc(S(=O)(=O)[O-])ccc4F)c4nc(c(-c5cc(S(=O)(=O)[O-])ccc5F)c5ccc2[nH]5)C=C4)C=C3)cc1
REMARK SMILES IDX 24 1 23 2 22 3 21 4 19 5 20 6 2 8 1 9 3 10 4 11 5 12 18 13
REMARK SMILES IDX 6 14 17 15 7 16 8 17 9 18 10 19 15 20 11 21 13 22 16 23
REMARK SMILES IDX 12 24 14 25 25 28 26 29 27 30 28 31 29 32 30 34 31 35 32 36
REMARK SMILES IDX 93 37 33 38 92 39 34 40 35 41 36 42 86 43 37 44 91 45 85 46
REMARK SMILES IDX 87 47 38 48 90 49 84 50 83 51 39 53 71 54 51 55 70 56 52 57
REMARK SMILES IDX 55 58 69 59 88 60 53 61 54 62 68 64 89 65 56 66 40 67 41 68
REMARK SMILES IDX 49 69 42 70 48 71 50 72 47 73 43 74 44 75 45 76 46 77 72 78
REMARK SMILES IDX 73 79 81 80 74 81 80 82 82 83 79 84 75 85 76 86 77 87 78 88
REMARK SMILES IDX 57 89 58 90 66 91 59 92 65 93 67 94 64 95 60 96 61 97 62 98
REMARK SMILES IDX 63 99
REMARK H PARENT 21 7 14 26 14 27 28 33 87 52 55 63
REMARK Flexibility Score: inf
ROOT
ATOM      1  C   UNL A   1      32.342  26.722  26.547  1.00  0.00     0.002 C 
ENDROOT
BRANCH   1   2
ATOM      2  C   UNL A   1      33.457  26.391  25.554  1.00  0.00     0.021 C 
BRANCH   2   3
ATOM      3  C   UNL A   1      33.996  24.974  25.699  1.00  0.00     0.116 C 
BRANCH   3   4
ATOM      4  N   UNL A   1      34.545  24.497  24.440  1.00  0.00    -0.353 N 
ATOM      5  C   UNL A   1      33.966  23.666  23.519  1.00  0.00     0.260 C 
ATOM      6  O   UNL A   1      34.616  23.332  22.527  1.00  0.00    -0.271 OA
ATOM      7  H   UNL A   1      35.451  24.811  24.221  1.00  0.00     0.163 HD
BRANCH   5   8
ATOM      8  C   UNL A   1      32.499  23.267  23.694  1.00  0.00     0.258 C 
ATOM      9  C   UNL A   1      32.475  21.726  23.789  1.00  0.00     0.064 C 
BRANCH   8  10
ATOM     10  O   UNL A   1      31.764  23.885  22.619  1.00  0.00    -0.481 OA
BRANCH  10  11
ATOM     11  C   UNL A   1      31.311  25.161  22.766  1.00  0.00     0.120 A 
ATOM     12  C   UNL A   1      31.847  26.247  22.110  1.00  0.00     0.047 A 
ATOM     13  C   UNL A   1      30.281  25.387  23.683  1.00  0.00     0.047 A 
ATOM     14  C   UNL A   1      31.493  27.537  22.477  1.00  0.00     0.012 A 
ATOM     15  C   UNL A   1      29.867  26.700  23.995  1.00  0.00     0.012 A 
ATOM     16  C   UNL A   1      30.502  27.812  23.418  1.00  0.00    -0.024 A 
BRANCH  16  17
ATOM     17  C   UNL A   1      30.154  29.196  23.840  1.00  0.00     0.029 C 
ATOM     18  C   UNL A   1      29.341  30.102  23.259  1.00  0.00     0.082 C 
ATOM     19  S   UNL A   1      28.382  29.954  21.828  1.00  0.00    -0.053 SA
ATOM     20  C   UNL A   1      29.235  31.513  23.742  1.00  0.00     0.280 C 
ATOM     21  C   UNL A   1      28.326  31.670  21.550  1.00  0.00     0.162 C 
ATOM     22  N   UNL A   1      28.741  32.307  22.702  1.00  0.00    -0.226 N 
ATOM     23  O   UNL A   1      29.507  31.883  24.878  1.00  0.00    -0.267 OA
ATOM     24  S   UNL A   1      27.802  32.344  20.118  1.00  0.00    -0.050 S 
BRANCH  22  25
ATOM     25  N   UNL A   1      28.674  33.714  22.845  1.00  0.00    -0.239 NA
ATOM     26  H   UNL A   1      29.396  34.024  23.495  1.00  0.00     0.144 HD
ATOM     27  H   UNL A   1      27.757  33.976  23.204  1.00  0.00     0.144 HD
ENDBRANCH  22  25
ENDBRANCH  16  17
ENDBRANCH  10  11
ENDBRANCH   8  10
ENDBRANCH   5   8
ENDBRANCH   3   4
ENDBRANCH   2   3
ENDBRANCH   1   2
BRANCH   1  28
ATOM     28  C   UNL A   1      32.124  28.219  26.788  1.00  0.00     0.002 C 
BRANCH  28  29
ATOM     29  C   UNL A   1      33.027  29.141  25.965  1.00  0.00     0.021 C 
BRANCH  29  30
ATOM     30  C   UNL A   1      34.220  29.701  26.730  1.00  0.00     0.116 C 
BRANCH  30  31
ATOM     31  N   UNL A   1      33.969  31.046  27.222  1.00  0.00    -0.352 N 
ATOM     32  C   UNL A   1      34.623  31.736  28.212  1.00  0.00     0.251 C 
ATOM     33  H   UNL A   1      33.229  31.527  26.785  1.00  0.00     0.163 HD
ATOM     34  O   UNL A   1      34.159  32.788  28.638  1.00  0.00    -0.269 OA
BRANCH  32  35
ATOM     35  C   UNL A   1      35.873  31.182  28.772  1.00  0.00     0.039 A 
ATOM     36  C   UNL A   1      35.802  30.109  29.663  1.00  0.00     0.014 A 
ATOM     37  C   UNL A   1      37.113  31.708  28.398  1.00  0.00     0.014 A 
ATOM     38  C   UNL A   1      36.981  29.522  30.133  1.00  0.00     0.010 A 
ATOM     39  C   UNL A   1      38.283  31.077  28.810  1.00  0.00     0.010 A 
ATOM     40  C   UNL A   1      38.229  29.979  29.683  1.00  0.00    -0.014 A 
BRANCH  40  41
ATOM     41  C   UNL A   1      39.499  29.341  30.124  1.00  0.00     0.031 A 
ATOM     42  C   UNL A   1      40.287  29.953  31.252  1.00  0.00     0.074 A 
ATOM     43  C   UNL A   1      39.978  28.266  29.464  1.00  0.00     0.049 A 
ATOM     44  N   UNL A   1      41.473  29.635  31.701  1.00  0.00    -0.248 NA
ATOM     45  C   UNL A   1      39.669  31.095  31.947  1.00  0.00     0.031 C 
ATOM     46  C   UNL A   1      39.316  27.597  28.341  1.00  0.00     0.029 A 
ATOM     47  N   UNL A   1      41.142  27.554  29.630  1.00  0.00    -0.354 N 
ATOM     48  C   UNL A   1      41.754  30.548  32.711  1.00  0.00     0.074 A 
ATOM     49  C   UNL A   1      40.634  31.461  32.777  1.00  0.00     0.031 C 
ATOM     50  C   UNL A   1      40.075  26.566  27.932  1.00  0.00     0.029 A 
ATOM     51  C   UNL A   1      41.303  26.532  28.720  1.00  0.00     0.049 A 
ATOM     52  H   UNL A   1      41.799  27.756  30.334  1.00  0.00     0.167 HD
ATOM     53  C   UNL A   1      42.842  30.610  33.516  1.00  0.00     0.034 A 
ATOM     54  C   UNL A   1      42.333  25.682  28.528  1.00  0.00     0.034 A 
ATOM     55  C   UNL A   1      43.936  29.673  33.459  1.00  0.00     0.049 A 
ATOM     56  C   UNL A   1      43.545  25.793  29.425  1.00  0.00     0.074 A 
ATOM     57  C   UNL A   1      45.051  29.605  34.276  1.00  0.00     0.029 A 
ATOM     58  N   UNL A   1      44.058  28.646  32.533  1.00  0.00    -0.354 N 
ATOM     59  N   UNL A   1      43.770  26.633  30.410  1.00  0.00    -0.248 NA
ATOM     60  C   UNL A   1      44.636  24.837  29.193  1.00  0.00     0.031 C 
ATOM     61  C   UNL A   1      45.883  28.589  33.797  1.00  0.00     0.029 A 
ATOM     62  C   UNL A   1      45.247  27.963  32.737  1.00  0.00     0.049 A 
ATOM     63  H   UNL A   1      43.398  28.434  31.833  1.00  0.00     0.167 HD
ATOM     64  C   UNL A   1      45.005  26.271  30.942  1.00  0.00     0.074 A 
ATOM     65  C   UNL A   1      45.472  25.135  30.176  1.00  0.00     0.031 C 
ATOM     66  C   UNL A   1      45.690  26.821  31.975  1.00  0.00     0.034 A 
BRANCH  53  67
ATOM     67  C   UNL A   1      42.922  31.741  34.513  1.00  0.00     0.023 A 
ATOM     68  C   UNL A   1      42.391  31.629  35.809  1.00  0.00     0.031 A 
ATOM     69  C   UNL A   1      43.563  32.943  34.163  1.00  0.00     0.131 A 
ATOM     70  C   UNL A   1      42.468  32.718  36.691  1.00  0.00     0.055 A 
ATOM     71  C   UNL A   1      43.703  33.994  35.071  1.00  0.00     0.041 A 
ATOM     72  F   UNL A   1      44.069  33.114  32.931  1.00  0.00    -0.206 F 
ATOM     73  C   UNL A   1      43.145  33.888  36.340  1.00  0.00     0.022 A 
BRANCH  70  74
ATOM     74  S   UNL A   1      41.578  32.621  38.268  1.00  0.00     0.124 S 
ATOM     75  O   UNL A   1      40.228  32.281  37.824  1.00  0.00    -0.237 OA
ATOM     76  O   UNL A   1      42.302  31.572  38.976  1.00  0.00    -0.237 OA
ATOM     77  O   UNL A   1      41.723  33.965  38.825  1.00  0.00    -0.744 OA
ENDBRANCH  70  74
ENDBRANCH  53  67
BRANCH  54  78
ATOM     78  C   UNL A   1      42.297  24.666  27.434  1.00  0.00     0.023 A 
ATOM     79  C   UNL A   1      41.645  23.435  27.616  1.00  0.00     0.031 A 
ATOM     80  C   UNL A   1      42.992  24.867  26.228  1.00  0.00     0.131 A 
ATOM     81  C   UNL A   1      41.766  22.426  26.647  1.00  0.00     0.055 A 
ATOM     82  C   UNL A   1      43.050  23.886  25.236  1.00  0.00     0.041 A 
ATOM     83  F   UNL A   1      43.636  26.022  25.998  1.00  0.00    -0.206 F 
ATOM     84  C   UNL A   1      42.451  22.649  25.451  1.00  0.00     0.022 A 
BRANCH  81  85
ATOM     85  S   UNL A   1      41.135  20.771  27.038  1.00  0.00     0.124 S 
ATOM     86  O   UNL A   1      40.000  20.666  26.127  1.00  0.00    -0.237 OA
ATOM     87  O   UNL A   1      42.285  19.928  26.730  1.00  0.00    -0.237 OA
ATOM     88  O   UNL A   1      40.791  20.865  28.454  1.00  0.00    -0.744 OA
ENDBRANCH  81  85
ENDBRANCH  54  78
BRANCH  66  89
ATOM     89  C   UNL A   1      46.979  26.153  32.390  1.00  0.00     0.023 A 
ATOM     90  C   UNL A   1      48.211  26.473  31.796  1.00  0.00     0.031 A 
ATOM     91  C   UNL A   1      46.966  25.188  33.414  1.00  0.00     0.131 A 
ATOM     92  C   UNL A   1      49.374  25.797  32.198  1.00  0.00     0.055 A 
ATOM     93  C   UNL A   1      48.135  24.565  33.851  1.00  0.00     0.041 A 
ATOM     94  F   UNL A   1      45.816  24.843  34.014  1.00  0.00    -0.206 F 
ATOM     95  C   UNL A   1      49.346  24.860  33.235  1.00  0.00     0.022 A 
BRANCH  92  96
ATOM     96  S   UNL A   1      50.917  26.103  31.295  1.00  0.00     0.124 S 
ATOM     97  O   UNL A   1      50.440  26.254  29.923  1.00  0.00    -0.237 OA
ATOM     98  O   UNL A   1      51.418  27.316  31.932  1.00  0.00    -0.237 OA
ATOM     99  O   UNL A   1      51.707  24.899  31.546  1.00  0.00    -0.744 OA
ENDBRANCH  92  96
ENDBRANCH  66  89
ENDBRANCH  40  41
ENDBRANCH  32  35
ENDBRANCH  30  31
ENDBRANCH  29  30
ENDBRANCH  28  29
ENDBRANCH   1  28
TORSDOF 20
ENDMDL
MODEL 3
REMARK VINA RESULT:     -11.7      3.971      9.737
REMARK SMILES C[C@H](Oc1ccc(/C=C2\SC(=S)N(N)C2=O)cc1)C(=O)NCCCCCCNC(=O)c1ccc(-c2c3nc(c(-c4cc(S(=O)(=O)[O-])ccc4F)c4ccc([nH]4)c(-c4cc(S(=O)(=O)[O-])ccc4F)c4nc(c(-c5cc(S(=O)(=O)[O-])ccc5F)c5ccc2[nH]5)C=C4)C=C3)cc1
REMARK SMILES IDX 24 1 23 2 22 3 21 4 19 5 20 6 2 8 1 9 3 10 4 11 5 12 18 13
REMARK SMILES IDX 6 14 17 15 7 16 8 17 9 18 10 19 15 20 11 21 13 22 16 23
REMARK SMILES IDX 12 24 14 25 25 28 26 29 27 30 28 31 29 32 30 34 31 35 32 36
REMARK SMILES IDX 93 37 33 38 92 39 34 40 35 41 36 42 86 43 37 44 91 45 85 46
REMARK SMILES IDX 87 47 38 48 90 49 84 50 83 51 39 53 71 54 51 55 70 56 52 57
REMARK SMILES IDX 55 58 69 59 88 60 53 61 54 62 68 64 89 65 56 66 40 67 41 68
REMARK SMILES IDX 49 69 42 70 48 71 50 72 47 73 43 74 44 75 45 76 46 77 72 78
REMARK SMILES IDX 73 79 81 80 74 81 80 82 82 83 79 84 75 85 76 86 77 87 78 88
REMARK SMILES IDX 57 89 58 90 66 91 59 92 65 93 67 94 64 95 60 96 61 97 62 98
REMARK SMILES IDX 63 99
REMARK H PARENT 21 7 14 26 14 27 28 33 87 52 55 63
REMARK Flexibility Score: inf
ROOT
ATOM      1  C   UNL A   1      32.349  26.741  26.619  1.00  0.00     0.002 C 
ENDROOT
BRANCH   1   2
ATOM      2  C   UNL A   1      33.459  26.405  25.620  1.00  0.00     0.021 C 
BRANCH   2   3
ATOM      3  C   UNL A   1      33.969  24.976  25.740  1.00  0.00     0.116 C 
BRANCH   3   4
ATOM      4  N   UNL A   1      34.598  24.544  24.502  1.00  0.00    -0.353 N 
ATOM      5  C   UNL A   1      34.094  23.722  23.532  1.00  0.00     0.260 C 
ATOM      6  O   UNL A   1      34.806  23.430  22.570  1.00  0.00    -0.271 OA
ATOM      7  H   UNL A   1      35.506  24.888  24.341  1.00  0.00     0.163 HD
BRANCH   5   8
ATOM      8  C   UNL A   1      32.631  23.280  23.617  1.00  0.00     0.258 C 
ATOM      9  C   UNL A   1      32.643  21.736  23.646  1.00  0.00     0.064 C 
BRANCH   8  10
ATOM     10  O   UNL A   1      31.933  23.926  22.533  1.00  0.00    -0.481 OA
BRANCH  10  11
ATOM     11  C   UNL A   1      31.475  25.198  22.697  1.00  0.00     0.120 A 
ATOM     12  C   UNL A   1      32.024  26.298  22.076  1.00  0.00     0.047 A 
ATOM     13  C   UNL A   1      30.423  25.403  23.594  1.00  0.00     0.047 A 
ATOM     14  C   UNL A   1      31.659  27.579  22.463  1.00  0.00     0.012 A 
ATOM     15  C   UNL A   1      30.000  26.709  23.924  1.00  0.00     0.012 A 
ATOM     16  C   UNL A   1      30.646  27.833  23.386  1.00  0.00    -0.024 A 
BRANCH  16  17
ATOM     17  C   UNL A   1      30.286  29.208  23.829  1.00  0.00     0.029 C 
ATOM     18  C   UNL A   1      29.444  30.105  23.277  1.00  0.00     0.082 C 
ATOM     19  S   UNL A   1      28.452  29.953  21.869  1.00  0.00    -0.053 SA
ATOM     20  C   UNL A   1      29.326  31.510  23.775  1.00  0.00     0.280 C 
ATOM     21  C   UNL A   1      28.360  31.671  21.608  1.00  0.00     0.162 C 
ATOM     22  N   UNL A   1      28.794  32.304  22.755  1.00  0.00    -0.226 N 
ATOM     23  O   UNL A   1      29.621  31.873  24.908  1.00  0.00    -0.267 OA
ATOM     24  S   UNL A   1      27.790  32.348  20.196  1.00  0.00    -0.050 S 
BRANCH  22  25
ATOM     25  N   UNL A   1      28.707  33.708  22.913  1.00  0.00    -0.239 NA
ATOM     26  H   UNL A   1      28.785  34.157  22.001  1.00  0.00     0.144 HD
ATOM     27  H   UNL A   1      29.464  34.030  23.516  1.00  0.00     0.144 HD
ENDBRANCH  22  25
ENDBRANCH  16  17
ENDBRANCH  10  11
ENDBRANCH   8  10
ENDBRANCH   5   8
ENDBRANCH   3   4
ENDBRANCH   2   3
ENDBRANCH   1   2
BRANCH   1  28
ATOM     28  C   UNL A   1      32.165  28.238  26.890  1.00  0.00     0.002 C 
BRANCH  28  29
ATOM     29  C   UNL A   1      33.149  29.150  26.154  1.00  0.00     0.021 C 
BRANCH  29  30
ATOM     30  C   UNL A   1      34.309  29.646  27.010  1.00  0.00     0.116 C 
BRANCH  30  31
ATOM     31  N   UNL A   1      34.075  30.988  27.519  1.00  0.00    -0.352 N 
ATOM     32  C   UNL A   1      34.743  31.658  28.514  1.00  0.00     0.251 C 
ATOM     33  H   UNL A   1      33.338  31.482  27.093  1.00  0.00     0.163 HD
ATOM     34  O   UNL A   1      34.293  32.709  28.956  1.00  0.00    -0.269 OA
BRANCH  32  35
ATOM     35  C   UNL A   1      35.990  31.082  29.059  1.00  0.00     0.039 A 
ATOM     36  C   UNL A   1      35.918  29.950  29.873  1.00  0.00     0.014 A 
ATOM     37  C   UNL A   1      37.229  31.649  28.747  1.00  0.00     0.014 A 
ATOM     38  C   UNL A   1      37.096  29.348  30.325  1.00  0.00     0.010 A 
ATOM     39  C   UNL A   1      38.400  31.007  29.138  1.00  0.00     0.010 A 
ATOM     40  C   UNL A   1      38.346  29.851  29.933  1.00  0.00    -0.014 A 
BRANCH  40  41
ATOM     41  C   UNL A   1      39.616  29.201  30.354  1.00  0.00     0.031 A 
ATOM     42  C   UNL A   1      40.339  29.702  31.576  1.00  0.00     0.074 A 
ATOM     43  C   UNL A   1      40.155  28.221  29.599  1.00  0.00     0.049 A 
ATOM     44  N   UNL A   1      41.515  29.366  32.038  1.00  0.00    -0.248 NA
ATOM     45  C   UNL A   1      39.658  30.741  32.367  1.00  0.00     0.031 C 
ATOM     46  C   UNL A   1      39.559  27.666  28.381  1.00  0.00     0.029 A 
ATOM     47  N   UNL A   1      41.332  27.526  29.734  1.00  0.00    -0.354 N 
ATOM     48  C   UNL A   1      41.727  30.167  33.156  1.00  0.00     0.074 A 
ATOM     49  C   UNL A   1      40.577  31.036  33.275  1.00  0.00     0.031 C 
ATOM     50  C   UNL A   1      40.365  26.709  27.892  1.00  0.00     0.029 A 
ATOM     51  C   UNL A   1      41.561  26.618  28.723  1.00  0.00     0.049 A 
ATOM     52  H   UNL A   1      41.954  27.664  30.485  1.00  0.00     0.167 HD
ATOM     53  C   UNL A   1      42.780  30.166  34.009  1.00  0.00     0.034 A 
ATOM     54  C   UNL A   1      42.624  25.823  28.482  1.00  0.00     0.034 A 
ATOM     55  C   UNL A   1      43.903  29.270  33.894  1.00  0.00     0.049 A 
ATOM     56  C   UNL A   1      43.795  25.863  29.438  1.00  0.00     0.074 A 
ATOM     57  C   UNL A   1      44.986  29.139  34.746  1.00  0.00     0.029 A 
ATOM     58  N   UNL A   1      44.094  28.358  32.865  1.00  0.00    -0.354 N 
ATOM     59  N   UNL A   1      43.954  26.592  30.519  1.00  0.00    -0.248 NA
ATOM     60  C   UNL A   1      44.924  24.969  29.147  1.00  0.00     0.031 C 
ATOM     61  C   UNL A   1      45.868  28.206  34.193  1.00  0.00     0.029 A 
ATOM     62  C   UNL A   1      45.294  27.688  33.043  1.00  0.00     0.049 A 
ATOM     63  H   UNL A   1      43.470  28.210  32.118  1.00  0.00     0.167 HD
ATOM     64  C   UNL A   1      45.178  26.204  31.060  1.00  0.00     0.074 A 
ATOM     65  C   UNL A   1      45.710  25.175  30.193  1.00  0.00     0.031 C 
ATOM     66  C   UNL A   1      45.803  26.652  32.178  1.00  0.00     0.034 A 
BRANCH  53  67
ATOM     67  C   UNL A   1      42.784  31.178  35.129  1.00  0.00     0.023 A 
ATOM     68  C   UNL A   1      43.218  32.499  34.935  1.00  0.00     0.031 A 
ATOM     69  C   UNL A   1      42.320  30.815  36.406  1.00  0.00     0.131 A 
ATOM     70  C   UNL A   1      43.227  33.396  36.014  1.00  0.00     0.055 A 
ATOM     71  C   UNL A   1      42.260  31.732  37.456  1.00  0.00     0.041 A 
ATOM     72  F   UNL A   1      41.914  29.559  36.655  1.00  0.00    -0.206 F 
ATOM     73  C   UNL A   1      42.724  33.030  37.265  1.00  0.00     0.022 A 
BRANCH  70  74
ATOM     74  S   UNL A   1      44.002  35.020  35.788  1.00  0.00     0.124 S 
ATOM     75  O   UNL A   1      44.614  35.238  37.096  1.00  0.00    -0.237 OA
ATOM     76  O   UNL A   1      44.922  34.779  34.683  1.00  0.00    -0.237 OA
ATOM     77  O   UNL A   1      42.874  35.898  35.481  1.00  0.00    -0.744 OA
ENDBRANCH  70  74
ENDBRANCH  53  67
BRANCH  54  78
ATOM     78  C   UNL A   1      42.664  24.936  27.281  1.00  0.00     0.023 A 
ATOM     79  C   UNL A   1      42.109  23.647  27.319  1.00  0.00     0.031 A 
ATOM     80  C   UNL A   1      43.339  25.324  26.109  1.00  0.00     0.131 A 
ATOM     81  C   UNL A   1      42.304  22.766  26.243  1.00  0.00     0.055 A 
ATOM     82  C   UNL A   1      43.469  24.468  25.013  1.00  0.00     0.041 A 
ATOM     83  F   UNL A   1      43.892  26.544  26.015  1.00  0.00    -0.206 F 
ATOM     84  C   UNL A   1      42.968  23.173  25.084  1.00  0.00     0.022 A 
BRANCH  81  85
ATOM     85  S   UNL A   1      41.802  21.033  26.442  1.00  0.00     0.124 S 
ATOM     86  O   UNL A   1      40.369  21.112  26.181  1.00  0.00    -0.237 OA
ATOM     87  O   UNL A   1      42.605  20.367  25.422  1.00  0.00    -0.237 OA
ATOM     88  O   UNL A   1      42.170  20.730  27.822  1.00  0.00    -0.744 OA
ENDBRANCH  81  85
ENDBRANCH  54  78
BRANCH  66  89
ATOM     89  C   UNL A   1      47.094  25.976  32.571  1.00  0.00     0.023 A 
ATOM     90  C   UNL A   1      47.137  24.938  33.517  1.00  0.00     0.031 A 
ATOM     91  C   UNL A   1      48.302  26.374  31.968  1.00  0.00     0.131 A 
ATOM     92  C   UNL A   1      48.370  24.366  33.869  1.00  0.00     0.055 A 
ATOM     93  C   UNL A   1      49.515  25.759  32.277  1.00  0.00     0.041 A 
ATOM     94  F   UNL A   1      48.319  27.362  31.059  1.00  0.00    -0.206 F 
ATOM     95  C   UNL A   1      49.555  24.757  33.241  1.00  0.00     0.022 A 
BRANCH  92  96
ATOM     96  S   UNL A   1      48.416  23.155  35.218  1.00  0.00     0.124 S 
ATOM     97  O   UNL A   1      47.809  23.900  36.316  1.00  0.00    -0.237 OA
ATOM     98  O   UNL A   1      47.622  22.056  34.679  1.00  0.00    -0.237 OA
ATOM     99  O   UNL A   1      49.841  22.870  35.375  1.00  0.00    -0.744 OA
ENDBRANCH  92  96
ENDBRANCH  66  89
ENDBRANCH  40  41
ENDBRANCH  32  35
ENDBRANCH  30  31
ENDBRANCH  29  30
ENDBRANCH  28  29
ENDBRANCH   1  28
TORSDOF 20
ENDMDL
