MODEL 1
REMARK VINA RESULT:     -11.2      0.000      0.000
REMARK SMILES O=C(NCCCCCCNC(=O)[C@@H]1C=C[C@H](NC(=O)c2ccc(Cl)cc2[N+](=O)[O-])C1)c1ccc(-c2c3nc(c(-c4cc(S(=O)(=O)[O-])ccc4F)c4ccc([nH]4)c(-c4cc(S(=O)(=O)[O-])ccc4F)c4nc(c(-c5cc(S(=O)(=O)[O-])ccc5F)c5ccc2[nH]5)C=C4)C=C3)cc1
REMARK SMILES IDX 6 1 5 2 4 3 3 4 1 5 2 6 31 8 32 9 93 10 33 11 92 12 34 13
REMARK SMILES IDX 35 14 36 15 86 16 37 17 91 18 85 19 87 20 38 21 90 22 84 23
REMARK SMILES IDX 83 24 39 26 71 27 51 28 70 29 52 30 55 31 69 32 88 33 53 34
REMARK SMILES IDX 54 35 68 37 89 38 56 39 40 40 41 41 49 42 42 43 48 44 50 45
REMARK SMILES IDX 47 46 43 47 44 48 45 49 46 50 72 51 73 52 81 53 74 54 80 55
REMARK SMILES IDX 82 56 79 57 75 58 76 59 77 60 78 61 57 62 58 63 66 64 59 65
REMARK SMILES IDX 65 66 67 67 64 68 60 69 61 70 62 71 63 72 7 73 8 74 9 75
REMARK SMILES IDX 10 76 11 77 12 79 13 80 14 81 30 82 15 83 16 84 17 85 18 86
REMARK SMILES IDX 19 88 20 89 21 90 26 91 22 92 25 93 23 94 24 95 27 96 28 97
REMARK SMILES IDX 29 98
REMARK H PARENT 3 7 87 25 55 36 10 78 17 87
REMARK Flexibility Score: inf
ROOT
ATOM      1  C   UNL A   1      34.796  32.743  27.953  1.00  0.00     0.002 C 
ENDROOT
BRANCH   1   2
ATOM      2  C   UNL A   1      33.517  33.568  28.057  1.00  0.00     0.021 C 
BRANCH   2   3
ATOM      3  C   UNL A   1      33.733  35.024  28.438  1.00  0.00     0.116 C 
BRANCH   3   4
ATOM      4  N   UNL A   1      32.971  35.405  29.615  1.00  0.00    -0.352 N 
ATOM      5  O   UNL A   1      32.364  35.299  31.785  1.00  0.00    -0.269 OA
ATOM      6  C   UNL A   1      33.191  35.037  30.922  1.00  0.00     0.251 C 
ATOM      7  H   UNL A   1      32.204  36.000  29.457  1.00  0.00     0.163 HD
BRANCH   6   8
ATOM      8  C   UNL A   1      34.431  34.305  31.268  1.00  0.00     0.039 A 
ATOM      9  C   UNL A   1      35.683  34.888  31.044  1.00  0.00     0.014 A 
ATOM     10  C   UNL A   1      34.338  33.029  31.827  1.00  0.00     0.014 A 
ATOM     11  C   UNL A   1      36.841  34.157  31.287  1.00  0.00     0.010 A 
ATOM     12  C   UNL A   1      35.505  32.324  32.140  1.00  0.00     0.010 A 
ATOM     13  C   UNL A   1      36.763  32.881  31.866  1.00  0.00    -0.014 A 
BRANCH  13  14
ATOM     14  C   UNL A   1      38.009  32.202  32.298  1.00  0.00     0.031 A 
ATOM     15  C   UNL A   1      38.664  31.149  31.450  1.00  0.00     0.074 A 
ATOM     16  C   UNL A   1      38.534  32.549  33.491  1.00  0.00     0.049 A 
ATOM     17  N   UNL A   1      39.733  30.441  31.704  1.00  0.00    -0.248 NA
ATOM     18  C   UNL A   1      38.036  30.848  30.154  1.00  0.00     0.031 C 
ATOM     19  C   UNL A   1      37.966  33.551  34.398  1.00  0.00     0.029 A 
ATOM     20  N   UNL A   1      39.650  32.103  34.150  1.00  0.00    -0.354 N 
ATOM     21  C   UNL A   1      39.901  29.595  30.613  1.00  0.00     0.074 A 
ATOM     22  C   UNL A   1      38.812  29.872  29.699  1.00  0.00     0.031 C 
ATOM     23  C   UNL A   1      38.742  33.654  35.484  1.00  0.00     0.029 A 
ATOM     24  C   UNL A   1      39.821  32.680  35.388  1.00  0.00     0.049 A 
ATOM     25  H   UNL A   1      40.267  31.435  33.777  1.00  0.00     0.167 HD
ATOM     26  C   UNL A   1      40.874  28.674  30.406  1.00  0.00     0.034 A 
ATOM     27  C   UNL A   1      40.721  32.425  36.357  1.00  0.00     0.034 A 
ATOM     28  C   UNL A   1      41.957  28.427  31.328  1.00  0.00     0.049 A 
ATOM     29  C   UNL A   1      41.758  31.364  36.113  1.00  0.00     0.074 A 
ATOM     30  C   UNL A   1      43.048  27.589  31.169  1.00  0.00     0.029 A 
ATOM     31  N   UNL A   1      42.075  28.995  32.590  1.00  0.00    -0.354 N 
ATOM     32  N   UNL A   1      41.939  30.621  35.046  1.00  0.00    -0.248 NA
ATOM     33  C   UNL A   1      42.707  31.104  37.201  1.00  0.00     0.031 C 
ATOM     34  C   UNL A   1      43.784  27.596  32.360  1.00  0.00     0.029 A 
ATOM     35  C   UNL A   1      43.189  28.486  33.239  1.00  0.00     0.049 A 
ATOM     36  H   UNL A   1      41.457  29.661  32.968  1.00  0.00     0.167 HD
ATOM     37  C   UNL A   1      43.027  29.807  35.336  1.00  0.00     0.074 A 
ATOM     38  C   UNL A   1      43.479  30.172  36.663  1.00  0.00     0.031 C 
ATOM     39  C   UNL A   1      43.602  28.840  34.575  1.00  0.00     0.034 A 
BRANCH  26  40
ATOM     40  C   UNL A   1      40.799  27.831  29.159  1.00  0.00     0.023 A 
ATOM     41  C   UNL A   1      41.673  28.021  28.076  1.00  0.00     0.031 A 
ATOM     42  C   UNL A   1      39.854  26.793  29.073  1.00  0.00     0.131 A 
ATOM     43  C   UNL A   1      41.562  27.205  26.938  1.00  0.00     0.055 A 
ATOM     44  C   UNL A   1      39.785  25.950  27.962  1.00  0.00     0.041 A 
ATOM     45  F   UNL A   1      38.983  26.579  30.072  1.00  0.00    -0.206 F 
ATOM     46  C   UNL A   1      40.639  26.157  26.884  1.00  0.00     0.022 A 
BRANCH  43  47
ATOM     47  S   UNL A   1      42.595  27.578  25.494  1.00  0.00     0.124 S 
ATOM     48  O   UNL A   1      42.374  26.401  24.659  1.00  0.00    -0.237 OA
ATOM     49  O   UNL A   1      42.017  28.825  25.004  1.00  0.00    -0.237 OA
ATOM     50  O   UNL A   1      43.940  27.692  26.054  1.00  0.00    -0.744 OA
ENDBRANCH  43  47
ENDBRANCH  26  40
BRANCH  27  51
ATOM     51  C   UNL A   1      40.637  33.132  37.666  1.00  0.00     0.023 A 
ATOM     52  C   UNL A   1      39.803  32.663  38.692  1.00  0.00     0.031 A 
ATOM     53  C   UNL A   1      41.365  34.314  37.893  1.00  0.00     0.131 A 
ATOM     54  C   UNL A   1      39.686  33.396  39.883  1.00  0.00     0.055 A 
ATOM     55  C   UNL A   1      41.288  35.009  39.100  1.00  0.00     0.041 A 
ATOM     56  F   UNL A   1      42.180  34.803  36.944  1.00  0.00    -0.206 F 
ATOM     57  C   UNL A   1      40.431  34.557  40.099  1.00  0.00     0.022 A 
BRANCH  54  58
ATOM     58  S   UNL A   1      38.464  32.860  41.112  1.00  0.00     0.124 S 
ATOM     59  O   UNL A   1      38.841  31.467  41.321  1.00  0.00    -0.237 OA
ATOM     60  O   UNL A   1      38.733  33.771  42.220  1.00  0.00    -0.237 OA
ATOM     61  O   UNL A   1      37.187  33.066  40.433  1.00  0.00    -0.744 OA
ENDBRANCH  54  58
ENDBRANCH  27  51
BRANCH  39  62
ATOM     62  C   UNL A   1      44.782  28.128  35.178  1.00  0.00     0.023 A 
ATOM     63  C   UNL A   1      44.626  26.910  35.862  1.00  0.00     0.031 A 
ATOM     64  C   UNL A   1      46.070  28.687  35.097  1.00  0.00     0.131 A 
ATOM     65  C   UNL A   1      45.732  26.315  36.484  1.00  0.00     0.055 A 
ATOM     66  C   UNL A   1      47.176  28.061  35.672  1.00  0.00     0.041 A 
ATOM     67  F   UNL A   1      46.271  29.850  34.459  1.00  0.00    -0.206 F 
ATOM     68  C   UNL A   1      47.008  26.874  36.381  1.00  0.00     0.022 A 
BRANCH  65  69
ATOM     69  S   UNL A   1      45.466  24.835  37.499  1.00  0.00     0.124 S 
ATOM     70  O   UNL A   1      46.287  25.122  38.671  1.00  0.00    -0.237 OA
ATOM     71  O   UNL A   1      44.023  24.854  37.712  1.00  0.00    -0.237 OA
ATOM     72  O   UNL A   1      45.951  23.747  36.652  1.00  0.00    -0.744 OA
ENDBRANCH  65  69
ENDBRANCH  39  62
ENDBRANCH  13  14
ENDBRANCH   6   8
ENDBRANCH   3   4
ENDBRANCH   2   3
ENDBRANCH   1   2
BRANCH   1  73
ATOM     73  C   UNL A   1      34.732  31.346  28.577  1.00  0.00     0.002 C 
BRANCH  73  74
ATOM     74  C   UNL A   1      34.651  30.156  27.610  1.00  0.00     0.021 C 
BRANCH  74  75
ATOM     75  C   UNL A   1      33.366  30.046  26.787  1.00  0.00     0.116 C 
BRANCH  75  76
ATOM     76  N   UNL A   1      33.629  29.834  25.379  1.00  0.00    -0.356 N 
ATOM     77  C   UNL A   1      33.304  28.803  24.557  1.00  0.00     0.227 C 
ATOM     78  H   UNL A   1      34.130  30.560  24.943  1.00  0.00     0.163 HD
ATOM     79  O   UNL A   1      33.542  28.961  23.356  1.00  0.00    -0.274 OA
BRANCH  77  80
ATOM     80  C   UNL A   1      32.615  27.545  25.100  1.00  0.00     0.103 C 
ATOM     81  C   UNL A   1      33.404  26.794  26.136  1.00  0.00    -0.016 C 
ATOM     82  C   UNL A   1      32.409  26.485  23.989  1.00  0.00     0.047 C 
ATOM     83  C   UNL A   1      33.675  25.537  25.778  1.00  0.00    -0.006 C 
ATOM     84  C   UNL A   1      33.124  25.209  24.442  1.00  0.00     0.106 C 
BRANCH  84  85
ATOM     85  N   UNL A   1      34.156  24.659  23.581  1.00  0.00    -0.346 N 
ATOM     86  C   UNL A   1      34.622  23.404  23.311  1.00  0.00     0.258 C 
ATOM     87  H   UNL A   1      34.631  25.354  23.072  1.00  0.00     0.164 HD
ATOM     88  O   UNL A   1      35.551  23.247  22.522  1.00  0.00    -0.269 OA
BRANCH  86  89
ATOM     89  C   UNL A   1      34.052  22.194  23.914  1.00  0.00     0.117 A 
ATOM     90  C   UNL A   1      32.873  21.656  23.382  1.00  0.00     0.022 A 
ATOM     91  C   UNL A   1      34.780  21.441  24.842  1.00  0.00     0.283 A 
ATOM     92  C   UNL A   1      32.398  20.421  23.837  1.00  0.00     0.022 A 
ATOM     93  C   UNL A   1      34.317  20.197  25.297  1.00  0.00     0.107 A 
ATOM     94  C   UNL A   1      33.116  19.704  24.797  1.00  0.00     0.047 A 
ATOM     95  Cl  UNL A   1      32.519  18.192  25.360  1.00  0.00    -0.084 Cl
BRANCH  91  96
ATOM     96  N   UNL A   1      36.048  21.925  25.365  1.00  0.00     0.063 N 
ATOM     97  O   UNL A   1      35.995  22.846  26.194  1.00  0.00    -0.258 OA
ATOM     98  O   UNL A   1      37.090  21.429  24.918  1.00  0.00    -0.258 OA
ENDBRANCH  91  96
ENDBRANCH  86  89
ENDBRANCH  84  85
ENDBRANCH  77  80
ENDBRANCH  75  76
ENDBRANCH  74  75
ENDBRANCH  73  74
ENDBRANCH   1  73
TORSDOF 19
ENDMDL
MODEL 2
REMARK VINA RESULT:     -11.1      6.303     11.338
REMARK SMILES O=C(NCCCCCCNC(=O)[C@@H]1C=C[C@H](NC(=O)c2ccc(Cl)cc2[N+](=O)[O-])C1)c1ccc(-c2c3nc(c(-c4cc(S(=O)(=O)[O-])ccc4F)c4ccc([nH]4)c(-c4cc(S(=O)(=O)[O-])ccc4F)c4nc(c(-c5cc(S(=O)(=O)[O-])ccc5F)c5ccc2[nH]5)C=C4)C=C3)cc1
REMARK SMILES IDX 6 1 5 2 4 3 3 4 1 5 2 6 31 8 32 9 93 10 33 11 92 12 34 13
REMARK SMILES IDX 35 14 36 15 86 16 37 17 91 18 85 19 87 20 38 21 90 22 84 23
REMARK SMILES IDX 83 24 39 26 71 27 51 28 70 29 52 30 55 31 69 32 88 33 53 34
REMARK SMILES IDX 54 35 68 37 89 38 56 39 40 40 41 41 49 42 42 43 48 44 50 45
REMARK SMILES IDX 47 46 43 47 44 48 45 49 46 50 72 51 73 52 81 53 74 54 80 55
REMARK SMILES IDX 82 56 79 57 75 58 76 59 77 60 78 61 57 62 58 63 66 64 59 65
REMARK SMILES IDX 65 66 67 67 64 68 60 69 61 70 62 71 63 72 7 73 8 74 9 75
REMARK SMILES IDX 10 76 11 77 12 79 13 80 14 81 30 82 15 83 16 84 17 85 18 86
REMARK SMILES IDX 19 88 20 89 21 90 26 91 22 92 25 93 23 94 24 95 27 96 28 97
REMARK SMILES IDX 29 98
REMARK H PARENT 3 7 87 25 55 36 10 78 17 87
REMARK Flexibility Score: inf
ROOT
ATOM      1  C   UNL A   1      36.575  20.474  24.935  1.00  0.00     0.002 C 
ENDROOT
BRANCH   1   2
ATOM      2  C   UNL A   1      37.834  19.615  24.990  1.00  0.00     0.021 C 
BRANCH   2   3
ATOM      3  C   UNL A   1      38.970  20.208  25.806  1.00  0.00     0.116 C 
BRANCH   3   4
ATOM      4  N   UNL A   1      40.111  19.314  25.896  1.00  0.00    -0.352 N 
ATOM      5  O   UNL A   1      42.305  18.794  25.982  1.00  0.00    -0.269 OA
ATOM      6  C   UNL A   1      41.432  19.643  26.100  1.00  0.00     0.251 C 
ATOM      7  H   UNL A   1      39.916  18.355  25.799  1.00  0.00     0.163 HD
BRANCH   6   8
ATOM      8  C   UNL A   1      41.783  21.039  26.447  1.00  0.00     0.039 A 
ATOM      9  C   UNL A   1      41.839  21.444  27.785  1.00  0.00     0.014 A 
ATOM     10  C   UNL A   1      42.065  21.947  25.424  1.00  0.00     0.014 A 
ATOM     11  C   UNL A   1      42.080  22.778  28.095  1.00  0.00     0.010 A 
ATOM     12  C   UNL A   1      42.380  23.272  25.741  1.00  0.00     0.010 A 
ATOM     13  C   UNL A   1      42.383  23.697  27.078  1.00  0.00    -0.014 A 
BRANCH  13  14
ATOM     14  C   UNL A   1      42.829  25.064  27.444  1.00  0.00     0.031 A 
ATOM     15  C   UNL A   1      41.900  26.042  28.103  1.00  0.00     0.074 A 
ATOM     16  C   UNL A   1      44.099  25.411  27.152  1.00  0.00     0.049 A 
ATOM     17  N   UNL A   1      42.128  27.282  28.452  1.00  0.00    -0.248 NA
ATOM     18  C   UNL A   1      40.539  25.573  28.406  1.00  0.00     0.031 C 
ATOM     19  C   UNL A   1      45.079  24.537  26.498  1.00  0.00     0.029 A 
ATOM     20  N   UNL A   1      44.786  26.580  27.356  1.00  0.00    -0.354 N 
ATOM     21  C   UNL A   1      40.939  27.752  28.997  1.00  0.00     0.074 A 
ATOM     22  C   UNL A   1      39.986  26.665  28.921  1.00  0.00     0.031 C 
ATOM     23  C   UNL A   1      46.240  25.192  26.370  1.00  0.00     0.029 A 
ATOM     24  C   UNL A   1      46.071  26.552  26.865  1.00  0.00     0.049 A 
ATOM     25  H   UNL A   1      44.398  27.362  27.809  1.00  0.00     0.167 HD
ATOM     26  C   UNL A   1      40.678  28.981  29.507  1.00  0.00     0.034 A 
ATOM     27  C   UNL A   1      46.998  27.525  26.781  1.00  0.00     0.034 A 
ATOM     28  C   UNL A   1      41.651  30.045  29.584  1.00  0.00     0.049 A 
ATOM     29  C   UNL A   1      46.658  28.889  27.314  1.00  0.00     0.074 A 
ATOM     30  C   UNL A   1      41.518  31.292  30.172  1.00  0.00     0.029 A 
ATOM     31  N   UNL A   1      42.926  29.999  29.037  1.00  0.00    -0.354 N 
ATOM     32  N   UNL A   1      45.548  29.295  27.887  1.00  0.00    -0.248 NA
ATOM     33  C   UNL A   1      47.689  29.925  27.187  1.00  0.00     0.031 C 
ATOM     34  C   UNL A   1      42.684  32.023  29.917  1.00  0.00     0.029 A 
ATOM     35  C   UNL A   1      43.569  31.212  29.226  1.00  0.00     0.049 A 
ATOM     36  H   UNL A   1      43.316  29.218  28.580  1.00  0.00     0.167 HD
ATOM     37  C   UNL A   1      45.752  30.636  28.191  1.00  0.00     0.074 A 
ATOM     38  C   UNL A   1      47.099  30.959  27.767  1.00  0.00     0.031 C 
ATOM     39  C   UNL A   1      44.901  31.523  28.767  1.00  0.00     0.034 A 
BRANCH  26  40
ATOM     40  C   UNL A   1      39.277  29.266  29.986  1.00  0.00     0.023 A 
ATOM     41  C   UNL A   1      38.340  29.945  29.190  1.00  0.00     0.031 A 
ATOM     42  C   UNL A   1      38.865  28.811  31.252  1.00  0.00     0.131 A 
ATOM     43  C   UNL A   1      37.046  30.182  29.683  1.00  0.00     0.055 A 
ATOM     44  C   UNL A   1      37.561  29.001  31.714  1.00  0.00     0.041 A 
ATOM     45  F   UNL A   1      39.725  28.171  32.059  1.00  0.00    -0.206 F 
ATOM     46  C   UNL A   1      36.645  29.695  30.931  1.00  0.00     0.022 A 
BRANCH  43  47
ATOM     47  S   UNL A   1      35.912  31.201  28.701  1.00  0.00     0.124 S 
ATOM     48  O   UNL A   1      35.006  31.711  29.728  1.00  0.00    -0.237 OA
ATOM     49  O   UNL A   1      36.808  32.182  28.098  1.00  0.00    -0.237 OA
ATOM     50  O   UNL A   1      35.313  30.249  27.769  1.00  0.00    -0.744 OA
ENDBRANCH  43  47
ENDBRANCH  26  40
BRANCH  27  51
ATOM     51  C   UNL A   1      48.302  27.266  26.108  1.00  0.00     0.023 A 
ATOM     52  C   UNL A   1      48.480  27.531  24.743  1.00  0.00     0.031 A 
ATOM     53  C   UNL A   1      49.381  26.710  26.821  1.00  0.00     0.131 A 
ATOM     54  C   UNL A   1      49.695  27.200  24.122  1.00  0.00     0.055 A 
ATOM     55  C   UNL A   1      50.605  26.434  26.211  1.00  0.00     0.041 A 
ATOM     56  F   UNL A   1      49.263  26.440  28.131  1.00  0.00    -0.206 F 
ATOM     57  C   UNL A   1      50.761  26.666  24.849  1.00  0.00     0.022 A 
BRANCH  54  58
ATOM     58  S   UNL A   1      49.826  27.388  22.323  1.00  0.00     0.124 S 
ATOM     59  O   UNL A   1      49.994  28.830  22.183  1.00  0.00    -0.237 OA
ATOM     60  O   UNL A   1      50.997  26.573  22.020  1.00  0.00    -0.237 OA
ATOM     61  O   UNL A   1      48.555  26.858  21.833  1.00  0.00    -0.744 OA
ENDBRANCH  54  58
ENDBRANCH  27  51
BRANCH  39  62
ATOM     62  C   UNL A   1      45.425  32.920  28.966  1.00  0.00     0.023 A 
ATOM     63  C   UNL A   1      45.130  33.946  28.052  1.00  0.00     0.031 A 
ATOM     64  C   UNL A   1      46.252  33.221  30.061  1.00  0.00     0.131 A 
ATOM     65  C   UNL A   1      45.702  35.214  28.220  1.00  0.00     0.055 A 
ATOM     66  C   UNL A   1      46.774  34.500  30.254  1.00  0.00     0.041 A 
ATOM     67  F   UNL A   1      46.567  32.275  30.961  1.00  0.00    -0.206 F 
ATOM     68  C   UNL A   1      46.509  35.502  29.324  1.00  0.00     0.022 A 
BRANCH  65  69
ATOM     69  S   UNL A   1      45.438  36.465  26.934  1.00  0.00     0.124 S 
ATOM     70  O   UNL A   1      45.742  37.701  27.649  1.00  0.00    -0.237 OA
ATOM     71  O   UNL A   1      46.397  36.069  25.908  1.00  0.00    -0.237 OA
ATOM     72  O   UNL A   1      44.034  36.289  26.567  1.00  0.00    -0.744 OA
ENDBRANCH  65  69
ENDBRANCH  39  62
ENDBRANCH  13  14
ENDBRANCH   6   8
ENDBRANCH   3   4
ENDBRANCH   2   3
ENDBRANCH   1   2
BRANCH   1  73
ATOM     73  C   UNL A   1      36.809  21.985  24.867  1.00  0.00     0.002 C 
BRANCH  73  74
ATOM     74  C   UNL A   1      35.878  22.871  25.709  1.00  0.00     0.021 C 
BRANCH  74  75
ATOM     75  C   UNL A   1      34.708  22.157  26.390  1.00  0.00     0.116 C 
BRANCH  75  76
ATOM     76  N   UNL A   1      33.716  23.083  26.894  1.00  0.00    -0.356 N 
ATOM     77  C   UNL A   1      32.400  23.231  26.593  1.00  0.00     0.227 C 
ATOM     78  H   UNL A   1      34.053  23.713  27.571  1.00  0.00     0.163 HD
ATOM     79  O   UNL A   1      31.761  24.024  27.291  1.00  0.00    -0.274 OA
BRANCH  77  80
ATOM     80  C   UNL A   1      31.743  22.398  25.485  1.00  0.00     0.103 C 
ATOM     81  C   UNL A   1      32.678  21.475  24.755  1.00  0.00    -0.016 C 
ATOM     82  C   UNL A   1      31.189  23.296  24.351  1.00  0.00     0.047 C 
ATOM     83  C   UNL A   1      32.742  21.724  23.445  1.00  0.00    -0.006 C 
ATOM     84  C   UNL A   1      31.870  22.856  23.051  1.00  0.00     0.106 C 
BRANCH  84  85
ATOM     85  N   UNL A   1      32.619  23.846  22.301  1.00  0.00    -0.346 N 
ATOM     86  C   UNL A   1      33.057  25.116  22.546  1.00  0.00     0.258 C 
ATOM     87  H   UNL A   1      32.872  23.527  21.404  1.00  0.00     0.164 HD
ATOM     88  O   UNL A   1      33.674  25.734  21.679  1.00  0.00    -0.269 OA
BRANCH  86  89
ATOM     89  C   UNL A   1      32.842  25.803  23.824  1.00  0.00     0.117 A 
ATOM     90  C   UNL A   1      33.885  25.850  24.758  1.00  0.00     0.022 A 
ATOM     91  C   UNL A   1      31.714  26.605  24.030  1.00  0.00     0.283 A 
ATOM     92  C   UNL A   1      33.757  26.629  25.913  1.00  0.00     0.022 A 
ATOM     93  C   UNL A   1      31.581  27.397  25.180  1.00  0.00     0.107 A 
ATOM     94  C   UNL A   1      32.604  27.389  26.123  1.00  0.00     0.047 A 
ATOM     95  Cl  UNL A   1      32.449  28.335  27.551  1.00  0.00    -0.084 Cl
BRANCH  91  96
ATOM     96  N   UNL A   1      30.640  26.646  23.050  1.00  0.00     0.063 N 
ATOM     97  O   UNL A   1      30.791  27.413  22.087  1.00  0.00    -0.258 OA
ATOM     98  O   UNL A   1      29.632  25.959  23.260  1.00  0.00    -0.258 OA
ENDBRANCH  91  96
ENDBRANCH  86  89
ENDBRANCH  84  85
ENDBRANCH  77  80
ENDBRANCH  75  76
ENDBRANCH  74  75
ENDBRANCH  73  74
ENDBRANCH   1  73
TORSDOF 19
ENDMDL
MODEL 3
REMARK VINA RESULT:     -11.1      4.839      8.677
REMARK SMILES O=C(NCCCCCCNC(=O)[C@@H]1C=C[C@H](NC(=O)c2ccc(Cl)cc2[N+](=O)[O-])C1)c1ccc(-c2c3nc(c(-c4cc(S(=O)(=O)[O-])ccc4F)c4ccc([nH]4)c(-c4cc(S(=O)(=O)[O-])ccc4F)c4nc(c(-c5cc(S(=O)(=O)[O-])ccc5F)c5ccc2[nH]5)C=C4)C=C3)cc1
REMARK SMILES IDX 6 1 5 2 4 3 3 4 1 5 2 6 31 8 32 9 93 10 33 11 92 12 34 13
REMARK SMILES IDX 35 14 36 15 86 16 37 17 91 18 85 19 87 20 38 21 90 22 84 23
REMARK SMILES IDX 83 24 39 26 71 27 51 28 70 29 52 30 55 31 69 32 88 33 53 34
REMARK SMILES IDX 54 35 68 37 89 38 56 39 40 40 41 41 49 42 42 43 48 44 50 45
REMARK SMILES IDX 47 46 43 47 44 48 45 49 46 50 72 51 73 52 81 53 74 54 80 55
REMARK SMILES IDX 82 56 79 57 75 58 76 59 77 60 78 61 57 62 58 63 66 64 59 65
REMARK SMILES IDX 65 66 67 67 64 68 60 69 61 70 62 71 63 72 7 73 8 74 9 75
REMARK SMILES IDX 10 76 11 77 12 79 13 80 14 81 30 82 15 83 16 84 17 85 18 86
REMARK SMILES IDX 19 88 20 89 21 90 26 91 22 92 25 93 23 94 24 95 27 96 28 97
REMARK SMILES IDX 29 98
REMARK H PARENT 3 7 87 25 55 36 10 78 17 87
REMARK Flexibility Score: inf
ROOT
ATOM      1  C   UNL A   1      35.054  22.065  24.536  1.00  0.00     0.002 C 
ENDROOT
BRANCH   1   2
ATOM      2  C   UNL A   1      36.031  23.236  24.498  1.00  0.00     0.021 C 
BRANCH   2   3
ATOM      3  C   UNL A   1      36.799  23.463  25.790  1.00  0.00     0.116 C 
BRANCH   3   4
ATOM      4  N   UNL A   1      37.844  22.475  25.992  1.00  0.00    -0.352 N 
ATOM      5  O   UNL A   1      39.955  21.773  26.366  1.00  0.00    -0.269 OA
ATOM      6  C   UNL A   1      39.139  22.684  26.405  1.00  0.00     0.251 C 
ATOM      7  H   UNL A   1      37.594  21.541  25.812  1.00  0.00     0.163 HD
BRANCH   6   8
ATOM      8  C   UNL A   1      39.538  24.029  26.880  1.00  0.00     0.039 A 
ATOM      9  C   UNL A   1      39.339  24.396  28.216  1.00  0.00     0.014 A 
ATOM     10  C   UNL A   1      40.121  24.926  25.983  1.00  0.00     0.014 A 
ATOM     11  C   UNL A   1      39.632  25.691  28.629  1.00  0.00     0.010 A 
ATOM     12  C   UNL A   1      40.483  26.204  26.419  1.00  0.00     0.010 A 
ATOM     13  C   UNL A   1      40.235  26.597  27.743  1.00  0.00    -0.014 A 
BRANCH  13  14
ATOM     14  C   UNL A   1      40.719  27.902  28.256  1.00  0.00     0.031 A 
ATOM     15  C   UNL A   1      42.184  28.187  28.418  1.00  0.00     0.074 A 
ATOM     16  C   UNL A   1      39.797  28.829  28.589  1.00  0.00     0.049 A 
ATOM     17  N   UNL A   1      42.763  29.262  28.886  1.00  0.00    -0.248 NA
ATOM     18  C   UNL A   1      43.121  27.128  28.010  1.00  0.00     0.031 C 
ATOM     19  C   UNL A   1      38.346  28.645  28.482  1.00  0.00     0.029 A 
ATOM     20  N   UNL A   1      39.932  30.098  29.087  1.00  0.00    -0.354 N 
ATOM     21  C   UNL A   1      44.130  29.009  28.849  1.00  0.00     0.074 A 
ATOM     22  C   UNL A   1      44.293  27.669  28.323  1.00  0.00     0.031 C 
ATOM     23  C   UNL A   1      37.728  29.763  28.885  1.00  0.00     0.029 A 
ATOM     24  C   UNL A   1      38.730  30.715  29.346  1.00  0.00     0.049 A 
ATOM     25  H   UNL A   1      40.803  30.527  29.245  1.00  0.00     0.167 HD
ATOM     26  C   UNL A   1      45.145  29.824  29.224  1.00  0.00     0.034 A 
ATOM     27  C   UNL A   1      38.460  31.899  29.928  1.00  0.00     0.034 A 
ATOM     28  C   UNL A   1      44.957  31.163  29.733  1.00  0.00     0.049 A 
ATOM     29  C   UNL A   1      39.609  32.758  30.376  1.00  0.00     0.074 A 
ATOM     30  C   UNL A   1      45.920  32.106  30.049  1.00  0.00     0.029 A 
ATOM     31  N   UNL A   1      43.728  31.738  30.025  1.00  0.00    -0.354 N 
ATOM     32  N   UNL A   1      40.898  32.528  30.271  1.00  0.00    -0.248 NA
ATOM     33  C   UNL A   1      39.272  34.031  31.023  1.00  0.00     0.031 C 
ATOM     34  C   UNL A   1      45.277  33.222  30.597  1.00  0.00     0.029 A 
ATOM     35  C   UNL A   1      43.910  33.002  30.566  1.00  0.00     0.049 A 
ATOM     36  H   UNL A   1      42.855  31.310  29.871  1.00  0.00     0.167 HD
ATOM     37  C   UNL A   1      41.524  33.632  30.838  1.00  0.00     0.074 A 
ATOM     38  C   UNL A   1      40.473  34.539  31.253  1.00  0.00     0.031 C 
ATOM     39  C   UNL A   1      42.849  33.875  31.003  1.00  0.00     0.034 A 
BRANCH  26  40
ATOM     40  C   UNL A   1      46.552  29.288  29.144  1.00  0.00     0.023 A 
ATOM     41  C   UNL A   1      47.262  29.235  27.933  1.00  0.00     0.031 A 
ATOM     42  C   UNL A   1      47.204  28.857  30.314  1.00  0.00     0.131 A 
ATOM     43  C   UNL A   1      48.572  28.729  27.914  1.00  0.00     0.055 A 
ATOM     44  C   UNL A   1      48.526  28.407  30.297  1.00  0.00     0.041 A 
ATOM     45  F   UNL A   1      46.566  28.871  31.494  1.00  0.00    -0.206 F 
ATOM     46  C   UNL A   1      49.215  28.336  29.091  1.00  0.00     0.022 A 
BRANCH  43  47
ATOM     47  S   UNL A   1      49.404  28.523  26.315  1.00  0.00     0.124 S 
ATOM     48  O   UNL A   1      50.252  29.711  26.266  1.00  0.00    -0.237 OA
ATOM     49  O   UNL A   1      50.099  27.251  26.481  1.00  0.00    -0.237 OA
ATOM     50  O   UNL A   1      48.304  28.511  25.354  1.00  0.00    -0.744 OA
ENDBRANCH  43  47
ENDBRANCH  26  40
BRANCH  27  51
ATOM     51  C   UNL A   1      37.050  32.306  30.186  1.00  0.00     0.023 A 
ATOM     52  C   UNL A   1      36.294  32.965  29.205  1.00  0.00     0.031 A 
ATOM     53  C   UNL A   1      36.451  32.073  31.438  1.00  0.00     0.131 A 
ATOM     54  C   UNL A   1      34.996  33.407  29.507  1.00  0.00     0.055 A 
ATOM     55  C   UNL A   1      35.141  32.464  31.714  1.00  0.00     0.041 A 
ATOM     56  F   UNL A   1      37.131  31.443  32.409  1.00  0.00    -0.206 F 
ATOM     57  C   UNL A   1      34.411  33.150  30.749  1.00  0.00     0.022 A 
BRANCH  54  58
ATOM     58  S   UNL A   1      34.117  34.412  28.280  1.00  0.00     0.124 S 
ATOM     59  O   UNL A   1      33.828  35.625  29.036  1.00  0.00    -0.237 OA
ATOM     60  O   UNL A   1      35.115  34.537  27.223  1.00  0.00    -0.237 OA
ATOM     61  O   UNL A   1      32.953  33.595  27.942  1.00  0.00    -0.744 OA
ENDBRANCH  54  58
ENDBRANCH  27  51
BRANCH  39  62
ATOM     62  C   UNL A   1      43.213  35.180  31.658  1.00  0.00     0.023 A 
ATOM     63  C   UNL A   1      43.150  35.336  33.054  1.00  0.00     0.031 A 
ATOM     64  C   UNL A   1      43.594  36.287  30.880  1.00  0.00     0.131 A 
ATOM     65  C   UNL A   1      43.414  36.588  33.627  1.00  0.00     0.055 A 
ATOM     66  C   UNL A   1      43.909  37.515  31.461  1.00  0.00     0.041 A 
ATOM     67  F   UNL A   1      43.665  36.190  29.543  1.00  0.00    -0.206 F 
ATOM     68  C   UNL A   1      43.808  37.674  32.841  1.00  0.00     0.022 A 
BRANCH  65  69
ATOM     69  S   UNL A   1      43.161  36.800  35.410  1.00  0.00     0.124 S 
ATOM     70  O   UNL A   1      43.844  35.629  35.953  1.00  0.00    -0.237 OA
ATOM     71  O   UNL A   1      43.799  38.087  35.668  1.00  0.00    -0.237 OA
ATOM     72  O   UNL A   1      41.707  36.792  35.554  1.00  0.00    -0.744 OA
ENDBRANCH  65  69
ENDBRANCH  39  62
ENDBRANCH  13  14
ENDBRANCH   6   8
ENDBRANCH   3   4
ENDBRANCH   2   3
ENDBRANCH   1   2
BRANCH   1  73
ATOM     73  C   UNL A   1      33.598  22.431  24.836  1.00  0.00     0.002 C 
BRANCH  73  74
ATOM     74  C   UNL A   1      32.646  22.534  23.635  1.00  0.00     0.021 C 
BRANCH  74  75
ATOM     75  C   UNL A   1      33.211  23.220  22.388  1.00  0.00     0.116 C 
BRANCH  75  76
ATOM     76  N   UNL A   1      32.303  24.205  21.842  1.00  0.00    -0.356 N 
ATOM     77  C   UNL A   1      32.438  25.546  21.672  1.00  0.00     0.227 C 
ATOM     78  H   UNL A   1      31.439  23.842  21.542  1.00  0.00     0.163 HD
ATOM     79  O   UNL A   1      31.541  26.115  21.045  1.00  0.00    -0.274 OA
BRANCH  77  80
ATOM     80  C   UNL A   1      33.681  26.286  22.181  1.00  0.00     0.103 C 
ATOM     81  C   UNL A   1      33.903  26.194  23.665  1.00  0.00    -0.016 C 
ATOM     82  C   UNL A   1      33.571  27.814  21.944  1.00  0.00     0.047 C 
ATOM     83  C   UNL A   1      33.913  27.385  24.269  1.00  0.00    -0.006 C 
ATOM     84  C   UNL A   1      33.699  28.495  23.310  1.00  0.00     0.106 C 
BRANCH  84  85
ATOM     85  N   UNL A   1      32.615  29.353  23.751  1.00  0.00    -0.346 N 
ATOM     86  C   UNL A   1      31.460  29.167  24.456  1.00  0.00     0.258 C 
ATOM     87  H   UNL A   1      32.744  30.291  23.480  1.00  0.00     0.164 HD
ATOM     88  O   UNL A   1      30.706  30.116  24.666  1.00  0.00    -0.269 OA
BRANCH  86  89
ATOM     89  C   UNL A   1      31.061  27.868  25.007  1.00  0.00     0.117 A 
ATOM     90  C   UNL A   1      30.437  26.934  24.171  1.00  0.00     0.022 A 
ATOM     91  C   UNL A   1      31.502  27.456  26.270  1.00  0.00     0.283 A 
ATOM     92  C   UNL A   1      30.190  25.636  24.630  1.00  0.00     0.022 A 
ATOM     93  C   UNL A   1      31.268  26.153  26.736  1.00  0.00     0.107 A 
ATOM     94  C   UNL A   1      30.596  25.256  25.911  1.00  0.00     0.047 A 
ATOM     95  Cl  UNL A   1      30.279  23.661  26.473  1.00  0.00    -0.084 Cl
BRANCH  91  96
ATOM     96  N   UNL A   1      32.223  28.369  27.143  1.00  0.00     0.063 N 
ATOM     97  O   UNL A   1      31.564  29.283  27.662  1.00  0.00    -0.258 OA
ATOM     98  O   UNL A   1      33.444  28.210  27.272  1.00  0.00    -0.258 OA
ENDBRANCH  91  96
ENDBRANCH  86  89
ENDBRANCH  84  85
ENDBRANCH  77  80
ENDBRANCH  75  76
ENDBRANCH  74  75
ENDBRANCH  73  74
ENDBRANCH   1  73
TORSDOF 19
ENDMDL
