MODEL 1
REMARK VINA RESULT:     -12.0      0.000      0.000
REMARK SMILES COC(=O)c1cccc(NC(=O)[C@@H]2[C@@H]3CC[C@@H](C3)[C@@H]2C(=O)NCCCCCCNC(=O)c2ccc(-c3c4nc(c(-c5cc(S(=O)(=O)[O-])ccc5F)c5ccc([nH]5)c(-c5cc(S(=O)(=O)[O-])ccc5F)c5nc(c(-c6cc(S(=O)(=O)[O-])ccc6F)c6ccc3[nH]6)C=C5)C=C4)cc2)c1
REMARK SMILES IDX 25 1 24 2 23 3 22 4 20 5 21 6 19 8 13 9 14 10 15 11 18 12
REMARK SMILES IDX 17 13 16 14 11 15 10 16 12 18 9 19 5 20 6 21 95 22 7 23 8 24
REMARK SMILES IDX 3 25 4 26 2 27 1 28 26 29 27 30 28 31 29 32 30 33 31 35
REMARK SMILES IDX 32 36 33 37 94 38 34 39 93 40 35 41 36 42 37 43 87 44 38 45
REMARK SMILES IDX 92 46 86 47 88 48 39 49 91 50 85 51 84 52 40 54 72 55 52 56
REMARK SMILES IDX 71 57 53 58 56 59 70 60 89 61 54 62 55 63 69 65 90 66 57 67
REMARK SMILES IDX 41 68 42 69 50 70 43 71 49 72 51 73 48 74 44 75 45 76 46 77
REMARK SMILES IDX 47 78 73 79 74 80 82 81 75 82 81 83 83 84 80 85 76 86 77 87
REMARK SMILES IDX 78 88 79 89 58 90 59 91 67 92 60 93 66 94 68 95 65 96 61 97
REMARK SMILES IDX 62 98 63 99 64 100
REMARK H PARENT 22 7 10 17 29 34 88 53 56 64
REMARK Flexibility Score: inf
ROOT
ATOM      1  C   UNL A   1      31.864  29.214  26.618  1.00  0.00     0.002 C 
ENDROOT
BRANCH   1   2
ATOM      2  C   UNL A   1      31.591  27.858  25.957  1.00  0.00     0.021 C 
BRANCH   2   3
ATOM      3  C   UNL A   1      32.031  26.684  26.825  1.00  0.00     0.116 C 
BRANCH   3   4
ATOM      4  N   UNL A   1      31.440  25.453  26.321  1.00  0.00    -0.356 N 
ATOM      5  C   UNL A   1      31.946  24.597  25.374  1.00  0.00     0.224 C 
ATOM      6  O   UNL A   1      31.236  23.700  24.927  1.00  0.00    -0.275 OA
ATOM      7  H   UNL A   1      30.570  25.204  26.707  1.00  0.00     0.163 HD
BRANCH   5   8
ATOM      8  C   UNL A   1      33.437  24.706  25.113  1.00  0.00     0.094 C 
ATOM      9  C   UNL A   1      34.089  24.198  23.786  1.00  0.00     0.094 C 
ATOM     10  C   UNL A   1      34.992  23.086  24.344  1.00  0.00     0.002 C 
ATOM     11  C   UNL A   1      34.136  21.910  24.837  1.00  0.00     0.005 C 
ATOM     12  C   UNL A   1      35.526  23.704  25.639  1.00  0.00     0.009 C 
ATOM     13  C   UNL A   1      34.145  23.860  26.225  1.00  0.00     0.002 C 
ATOM     14  C   UNL A   1      33.675  22.389  26.211  1.00  0.00     0.005 C 
BRANCH   9  15
ATOM     15  C   UNL A   1      33.139  24.045  22.585  1.00  0.00     0.228 C 
ATOM     16  N   UNL A   1      32.380  25.042  22.035  1.00  0.00    -0.326 N 
ATOM     17  H   UNL A   1      31.841  24.758  21.261  1.00  0.00     0.169 HD
ATOM     18  O   UNL A   1      32.984  22.917  22.094  1.00  0.00    -0.274 OA
BRANCH  16  19
ATOM     19  C   UNL A   1      32.233  26.391  22.371  1.00  0.00     0.042 A 
ATOM     20  C   UNL A   1      30.775  28.304  22.411  1.00  0.00     0.062 A 
ATOM     21  C   UNL A   1      31.878  29.161  22.402  1.00  0.00     0.016 A 
ATOM     22  C   UNL A   1      30.942  26.916  22.411  1.00  0.00     0.041 A 
ATOM     23  C   UNL A   1      33.151  28.624  22.555  1.00  0.00     0.003 A 
ATOM     24  C   UNL A   1      33.318  27.236  22.598  1.00  0.00     0.026 A 
BRANCH  20  25
ATOM     25  C   UNL A   1      29.438  28.920  22.428  1.00  0.00     0.337 C 
ATOM     26  O   UNL A   1      28.538  28.599  23.175  1.00  0.00    -0.246 OA
BRANCH  25  27
ATOM     27  O   UNL A   1      29.360  29.727  21.339  1.00  0.00    -0.465 OA
ATOM     28  C   UNL A   1      28.534  30.871  21.543  1.00  0.00     0.282 C 
ENDBRANCH  25  27
ENDBRANCH  20  25
ENDBRANCH  16  19
ENDBRANCH   9  15
ENDBRANCH   5   8
ENDBRANCH   3   4
ENDBRANCH   2   3
ENDBRANCH   1   2
BRANCH   1  29
ATOM     29  C   UNL A   1      31.529  30.423  25.739  1.00  0.00     0.002 C 
BRANCH  29  30
ATOM     30  C   UNL A   1      31.377  31.739  26.505  1.00  0.00     0.021 C 
BRANCH  30  31
ATOM     31  C   UNL A   1      32.678  32.249  27.110  1.00  0.00     0.116 C 
BRANCH  31  32
ATOM     32  N   UNL A   1      32.583  33.655  27.470  1.00  0.00    -0.352 N 
ATOM     33  C   UNL A   1      33.247  34.338  28.457  1.00  0.00     0.251 C 
ATOM     34  H   UNL A   1      31.954  34.190  26.933  1.00  0.00     0.163 HD
ATOM     35  O   UNL A   1      32.866  35.453  28.797  1.00  0.00    -0.269 OA
BRANCH  33  36
ATOM     36  C   UNL A   1      34.408  33.703  29.114  1.00  0.00     0.039 A 
ATOM     37  C   UNL A   1      34.192  32.810  30.165  1.00  0.00     0.014 A 
ATOM     38  C   UNL A   1      35.707  33.984  28.681  1.00  0.00     0.014 A 
ATOM     39  C   UNL A   1      35.279  32.159  30.747  1.00  0.00     0.010 A 
ATOM     40  C   UNL A   1      36.779  33.269  29.202  1.00  0.00     0.010 A 
ATOM     41  C   UNL A   1      36.578  32.359  30.251  1.00  0.00    -0.014 A 
BRANCH  41  42
ATOM     42  C   UNL A   1      37.743  31.641  30.828  1.00  0.00     0.031 A 
ATOM     43  C   UNL A   1      38.203  31.958  32.225  1.00  0.00     0.074 A 
ATOM     44  C   UNL A   1      38.414  30.743  30.081  1.00  0.00     0.049 A 
ATOM     45  N   UNL A   1      39.228  31.487  32.888  1.00  0.00    -0.248 NA
ATOM     46  C   UNL A   1      37.423  32.966  32.959  1.00  0.00     0.031 C 
ATOM     47  C   UNL A   1      38.080  30.373  28.704  1.00  0.00     0.029 A 
ATOM     48  N   UNL A   1      39.514  29.978  30.374  1.00  0.00    -0.354 N 
ATOM     49  C   UNL A   1      39.218  32.144  34.114  1.00  0.00     0.074 A 
ATOM     50  C   UNL A   1      38.139  33.106  34.063  1.00  0.00     0.031 C 
ATOM     51  C   UNL A   1      38.930  29.422  28.289  1.00  0.00     0.029 A 
ATOM     52  C   UNL A   1      39.901  29.152  29.344  1.00  0.00     0.049 A 
ATOM     53  H   UNL A   1      39.982  30.016  31.239  1.00  0.00     0.167 HD
ATOM     54  C   UNL A   1      40.016  31.942  35.193  1.00  0.00     0.034 A 
ATOM     55  C   UNL A   1      40.927  28.283  29.258  1.00  0.00     0.034 A 
ATOM     56  C   UNL A   1      41.093  30.981  35.221  1.00  0.00     0.049 A 
ATOM     57  C   UNL A   1      41.844  28.121  30.444  1.00  0.00     0.074 A 
ATOM     58  C   UNL A   1      41.943  30.667  36.266  1.00  0.00     0.029 A 
ATOM     59  N   UNL A   1      41.479  30.188  34.146  1.00  0.00    -0.354 N 
ATOM     60  N   UNL A   1      41.800  28.719  31.613  1.00  0.00    -0.248 NA
ATOM     61  C   UNL A   1      42.944  27.161  30.299  1.00  0.00     0.031 C 
ATOM     62  C   UNL A   1      42.891  29.750  35.800  1.00  0.00     0.029 A 
ATOM     63  C   UNL A   1      42.578  29.416  34.492  1.00  0.00     0.049 A 
ATOM     64  H   UNL A   1      41.037  30.176  33.267  1.00  0.00     0.167 HD
ATOM     65  C   UNL A   1      42.846  28.176  32.356  1.00  0.00     0.074 A 
ATOM     66  C   UNL A   1      43.493  27.198  31.504  1.00  0.00     0.031 C 
ATOM     67  C   UNL A   1      43.228  28.454  33.629  1.00  0.00     0.034 A 
BRANCH  54  68
ATOM     68  C   UNL A   1      39.759  32.805  36.409  1.00  0.00     0.023 A 
ATOM     69  C   UNL A   1      38.977  32.347  37.486  1.00  0.00     0.031 A 
ATOM     70  C   UNL A   1      40.247  34.122  36.469  1.00  0.00     0.131 A 
ATOM     71  C   UNL A   1      38.614  33.228  38.513  1.00  0.00     0.055 A 
ATOM     72  C   UNL A   1      39.968  34.963  37.550  1.00  0.00     0.041 A 
ATOM     73  F   UNL A   1      40.981  34.628  35.466  1.00  0.00    -0.206 F 
ATOM     74  C   UNL A   1      39.127  34.525  38.570  1.00  0.00     0.022 A 
BRANCH  71  75
ATOM     75  S   UNL A   1      37.305  32.718  39.662  1.00  0.00     0.124 S 
ATOM     76  O   UNL A   1      37.342  33.796  40.647  1.00  0.00    -0.237 OA
ATOM     77  O   UNL A   1      36.128  32.677  38.802  1.00  0.00    -0.237 OA
ATOM     78  O   UNL A   1      37.767  31.422  40.153  1.00  0.00    -0.744 OA
ENDBRANCH  71  75
ENDBRANCH  54  68
BRANCH  55  79
ATOM     79  C   UNL A   1      41.140  27.493  28.012  1.00  0.00     0.023 A 
ATOM     80  C   UNL A   1      40.823  26.126  27.965  1.00  0.00     0.031 A 
ATOM     81  C   UNL A   1      41.685  28.084  26.859  1.00  0.00     0.131 A 
ATOM     82  C   UNL A   1      41.090  25.386  26.804  1.00  0.00     0.055 A 
ATOM     83  C   UNL A   1      41.898  27.356  25.688  1.00  0.00     0.041 A 
ATOM     84  F   UNL A   1      42.004  29.388  26.850  1.00  0.00    -0.206 F 
ATOM     85  C   UNL A   1      41.610  25.995  25.659  1.00  0.00     0.022 A 
BRANCH  82  86
ATOM     86  S   UNL A   1      40.820  23.593  26.836  1.00  0.00     0.124 S 
ATOM     87  O   UNL A   1      41.173  23.264  28.211  1.00  0.00    -0.237 OA
ATOM     88  O   UNL A   1      39.405  23.493  26.494  1.00  0.00    -0.237 OA
ATOM     89  O   UNL A   1      41.740  23.093  25.816  1.00  0.00    -0.744 OA
ENDBRANCH  82  86
ENDBRANCH  55  79
BRANCH  67  90
ATOM     90  C   UNL A   1      44.375  27.650  34.195  1.00  0.00     0.023 A 
ATOM     91  C   UNL A   1      44.170  26.448  34.896  1.00  0.00     0.031 A 
ATOM     92  C   UNL A   1      45.699  28.102  34.035  1.00  0.00     0.131 A 
ATOM     93  C   UNL A   1      45.262  25.774  35.462  1.00  0.00     0.055 A 
ATOM     94  C   UNL A   1      46.787  27.388  34.539  1.00  0.00     0.041 A 
ATOM     95  F   UNL A   1      45.956  29.245  33.381  1.00  0.00    -0.206 F 
ATOM     96  C   UNL A   1      46.571  26.224  35.270  1.00  0.00     0.022 A 
BRANCH  93  97
ATOM     97  S   UNL A   1      44.943  24.354  36.546  1.00  0.00     0.124 S 
ATOM     98  O   UNL A   1      43.994  24.913  37.503  1.00  0.00    -0.237 OA
ATOM     99  O   UNL A   1      44.404  23.367  35.616  1.00  0.00    -0.237 OA
ATOM    100  O   UNL A   1      46.261  24.036  37.093  1.00  0.00    -0.744 OA
ENDBRANCH  93  97
ENDBRANCH  67  90
ENDBRANCH  41  42
ENDBRANCH  33  36
ENDBRANCH  31  32
ENDBRANCH  30  31
ENDBRANCH  29  30
ENDBRANCH   1  29
TORSDOF 20
ENDMDL
MODEL 2
REMARK VINA RESULT:     -11.7      2.056      7.616
REMARK SMILES COC(=O)c1cccc(NC(=O)[C@@H]2[C@@H]3CC[C@@H](C3)[C@@H]2C(=O)NCCCCCCNC(=O)c2ccc(-c3c4nc(c(-c5cc(S(=O)(=O)[O-])ccc5F)c5ccc([nH]5)c(-c5cc(S(=O)(=O)[O-])ccc5F)c5nc(c(-c6cc(S(=O)(=O)[O-])ccc6F)c6ccc3[nH]6)C=C5)C=C4)cc2)c1
REMARK SMILES IDX 25 1 24 2 23 3 22 4 20 5 21 6 19 8 13 9 14 10 15 11 18 12
REMARK SMILES IDX 17 13 16 14 11 15 10 16 12 18 9 19 5 20 6 21 95 22 7 23 8 24
REMARK SMILES IDX 3 25 4 26 2 27 1 28 26 29 27 30 28 31 29 32 30 33 31 35
REMARK SMILES IDX 32 36 33 37 94 38 34 39 93 40 35 41 36 42 37 43 87 44 38 45
REMARK SMILES IDX 92 46 86 47 88 48 39 49 91 50 85 51 84 52 40 54 72 55 52 56
REMARK SMILES IDX 71 57 53 58 56 59 70 60 89 61 54 62 55 63 69 65 90 66 57 67
REMARK SMILES IDX 41 68 42 69 50 70 43 71 49 72 51 73 48 74 44 75 45 76 46 77
REMARK SMILES IDX 47 78 73 79 74 80 82 81 75 82 81 83 83 84 80 85 76 86 77 87
REMARK SMILES IDX 78 88 79 89 58 90 59 91 67 92 60 93 66 94 68 95 65 96 61 97
REMARK SMILES IDX 62 98 63 99 64 100
REMARK H PARENT 22 7 10 17 29 34 88 53 56 64
REMARK Flexibility Score: inf
ROOT
ATOM      1  C   UNL A   1      32.191  29.193  27.169  1.00  0.00     0.002 C 
ENDROOT
BRANCH   1   2
ATOM      2  C   UNL A   1      31.665  27.801  26.802  1.00  0.00     0.021 C 
BRANCH   2   3
ATOM      3  C   UNL A   1      32.750  26.898  26.222  1.00  0.00     0.116 C 
BRANCH   3   4
ATOM      4  N   UNL A   1      32.317  25.510  26.284  1.00  0.00    -0.356 N 
ATOM      5  C   UNL A   1      32.790  24.444  25.560  1.00  0.00     0.224 C 
ATOM      6  O   UNL A   1      32.190  23.372  25.598  1.00  0.00    -0.275 OA
ATOM      7  H   UNL A   1      31.598  25.312  26.925  1.00  0.00     0.163 HD
BRANCH   5   8
ATOM      8  C   UNL A   1      34.157  24.625  24.928  1.00  0.00     0.094 C 
ATOM      9  C   UNL A   1      34.472  24.152  23.472  1.00  0.00     0.094 C 
ATOM     10  C   UNL A   1      35.539  23.084  23.766  1.00  0.00     0.002 C 
ATOM     11  C   UNL A   1      34.892  21.867  24.444  1.00  0.00     0.005 C 
ATOM     12  C   UNL A   1      36.356  23.725  24.890  1.00  0.00     0.009 C 
ATOM     13  C   UNL A   1      35.164  23.812  25.811  1.00  0.00     0.002 C 
ATOM     14  C   UNL A   1      34.775  22.321  25.896  1.00  0.00     0.005 C 
BRANCH   9  15
ATOM     15  C   UNL A   1      33.255  23.956  22.551  1.00  0.00     0.228 C 
ATOM     16  N   UNL A   1      32.353  24.924  22.202  1.00  0.00    -0.326 N 
ATOM     17  H   UNL A   1      31.645  24.614  21.592  1.00  0.00     0.169 HD
ATOM     18  O   UNL A   1      33.015  22.816  22.124  1.00  0.00    -0.274 OA
BRANCH  16  19
ATOM     19  C   UNL A   1      32.256  26.274  22.553  1.00  0.00     0.042 A 
ATOM     20  C   UNL A   1      30.804  28.162  22.889  1.00  0.00     0.062 A 
ATOM     21  C   UNL A   1      31.864  29.037  22.642  1.00  0.00     0.016 A 
ATOM     22  C   UNL A   1      30.992  26.777  22.862  1.00  0.00     0.041 A 
ATOM     23  C   UNL A   1      33.150  28.523  22.527  1.00  0.00     0.003 A 
ATOM     24  C   UNL A   1      33.348  27.138  22.542  1.00  0.00     0.026 A 
BRANCH  20  25
ATOM     25  C   UNL A   1      29.489  28.756  23.184  1.00  0.00     0.337 C 
ATOM     26  O   UNL A   1      28.428  28.177  23.075  1.00  0.00    -0.246 OA
BRANCH  25  27
ATOM     27  O   UNL A   1      29.690  30.084  23.379  1.00  0.00    -0.465 OA
ATOM     28  C   UNL A   1      28.479  30.835  23.429  1.00  0.00     0.282 C 
ENDBRANCH  25  27
ENDBRANCH  20  25
ENDBRANCH  16  19
ENDBRANCH   9  15
ENDBRANCH   5   8
ENDBRANCH   3   4
ENDBRANCH   2   3
ENDBRANCH   1   2
BRANCH   1  29
ATOM     29  C   UNL A   1      31.925  30.267  26.110  1.00  0.00     0.002 C 
BRANCH  29  30
ATOM     30  C   UNL A   1      31.647  31.660  26.678  1.00  0.00     0.021 C 
BRANCH  30  31
ATOM     31  C   UNL A   1      32.861  32.308  27.331  1.00  0.00     0.116 C 
BRANCH  31  32
ATOM     32  N   UNL A   1      32.645  33.727  27.566  1.00  0.00    -0.352 N 
ATOM     33  C   UNL A   1      33.183  34.529  28.540  1.00  0.00     0.251 C 
ATOM     34  H   UNL A   1      32.027  34.173  26.942  1.00  0.00     0.163 HD
ATOM     35  O   UNL A   1      32.704  35.638  28.758  1.00  0.00    -0.269 OA
BRANCH  33  36
ATOM     36  C   UNL A   1      34.328  34.032  29.330  1.00  0.00     0.039 A 
ATOM     37  C   UNL A   1      34.088  33.223  30.442  1.00  0.00     0.014 A 
ATOM     38  C   UNL A   1      35.637  34.358  28.962  1.00  0.00     0.014 A 
ATOM     39  C   UNL A   1      35.166  32.698  31.154  1.00  0.00     0.010 A 
ATOM     40  C   UNL A   1      36.708  33.764  29.619  1.00  0.00     0.010 A 
ATOM     41  C   UNL A   1      36.484  32.938  30.731  1.00  0.00    -0.014 A 
BRANCH  41  42
ATOM     42  C   UNL A   1      37.644  32.352  31.451  1.00  0.00     0.031 A 
ATOM     43  C   UNL A   1      38.407  31.209  30.839  1.00  0.00     0.074 A 
ATOM     44  C   UNL A   1      37.977  32.814  32.671  1.00  0.00     0.049 A 
ATOM     45  N   UNL A   1      39.409  30.524  31.328  1.00  0.00    -0.248 NA
ATOM     46  C   UNL A   1      37.960  30.757  29.513  1.00  0.00     0.031 C 
ATOM     47  C   UNL A   1      37.294  33.898  33.379  1.00  0.00     0.029 A 
ATOM     48  N   UNL A   1      38.975  32.433  33.531  1.00  0.00    -0.354 N 
ATOM     49  C   UNL A   1      39.708  29.558  30.374  1.00  0.00     0.074 A 
ATOM     50  C   UNL A   1      38.725  29.694  29.321  1.00  0.00     0.031 C 
ATOM     51  C   UNL A   1      37.918  34.123  34.544  1.00  0.00     0.029 A 
ATOM     52  C   UNL A   1      39.010  33.166  34.695  1.00  0.00     0.049 A 
ATOM     53  H   UNL A   1      39.606  31.703  33.335  1.00  0.00     0.167 HD
ATOM     54  C   UNL A   1      40.726  28.662  30.362  1.00  0.00     0.034 A 
ATOM     55  C   UNL A   1      39.827  33.073  35.762  1.00  0.00     0.034 A 
ATOM     56  C   UNL A   1      41.693  28.537  31.427  1.00  0.00     0.049 A 
ATOM     57  C   UNL A   1      40.911  32.026  35.760  1.00  0.00     0.074 A 
ATOM     58  C   UNL A   1      42.784  27.691  31.508  1.00  0.00     0.029 A 
ATOM     59  N   UNL A   1      41.676  29.273  32.606  1.00  0.00    -0.354 N 
ATOM     60  N   UNL A   1      41.209  31.143  34.834  1.00  0.00    -0.248 NA
ATOM     61  C   UNL A   1      41.772  31.967  36.948  1.00  0.00     0.031 C 
ATOM     62  C   UNL A   1      43.374  27.854  32.766  1.00  0.00     0.029 A 
ATOM     63  C   UNL A   1      42.713  28.871  33.436  1.00  0.00     0.049 A 
ATOM     64  H   UNL A   1      41.023  29.977  32.822  1.00  0.00     0.167 HD
ATOM     65  C   UNL A   1      42.318  30.451  35.312  1.00  0.00     0.074 A 
ATOM     66  C   UNL A   1      42.638  31.026  36.603  1.00  0.00     0.031 C 
ATOM     67  C   UNL A   1      43.014  29.440  34.731  1.00  0.00     0.034 A 
BRANCH  54  68
ATOM     68  C   UNL A   1      40.812  27.734  29.170  1.00  0.00     0.023 A 
ATOM     69  C   UNL A   1      41.762  27.930  28.150  1.00  0.00     0.031 A 
ATOM     70  C   UNL A   1      39.895  26.679  29.014  1.00  0.00     0.131 A 
ATOM     71  C   UNL A   1      41.702  27.163  26.979  1.00  0.00     0.055 A 
ATOM     72  C   UNL A   1      39.910  25.850  27.890  1.00  0.00     0.041 A 
ATOM     73  F   UNL A   1      38.950  26.451  29.939  1.00  0.00    -0.206 F 
ATOM     74  C   UNL A   1      40.802  26.104  26.852  1.00  0.00     0.022 A 
BRANCH  71  75
ATOM     75  S   UNL A   1      42.682  27.699  25.548  1.00  0.00     0.124 S 
ATOM     76  O   UNL A   1      43.966  28.010  26.171  1.00  0.00    -0.237 OA
ATOM     77  O   UNL A   1      42.656  26.523  24.688  1.00  0.00    -0.237 OA
ATOM     78  O   UNL A   1      41.947  28.859  25.046  1.00  0.00    -0.744 OA
ENDBRANCH  71  75
ENDBRANCH  54  68
BRANCH  55  79
ATOM     79  C   UNL A   1      39.658  33.999  36.919  1.00  0.00     0.023 A 
ATOM     80  C   UNL A   1      39.126  33.541  38.134  1.00  0.00     0.031 A 
ATOM     81  C   UNL A   1      40.003  35.358  36.820  1.00  0.00     0.131 A 
ATOM     82  C   UNL A   1      38.916  34.440  39.189  1.00  0.00     0.055 A 
ATOM     83  C   UNL A   1      39.844  36.238  37.892  1.00  0.00     0.041 A 
ATOM     84  F   UNL A   1      40.518  35.848  35.682  1.00  0.00    -0.206 F 
ATOM     85  C   UNL A   1      39.286  35.783  39.082  1.00  0.00     0.022 A 
BRANCH  82  86
ATOM     86  S   UNL A   1      38.077  33.846  40.683  1.00  0.00     0.124 S 
ATOM     87  O   UNL A   1      37.828  35.092  41.399  1.00  0.00    -0.237 OA
ATOM     88  O   UNL A   1      36.905  33.179  40.128  1.00  0.00    -0.237 OA
ATOM     89  O   UNL A   1      39.064  32.959  41.297  1.00  0.00    -0.744 OA
ENDBRANCH  82  86
ENDBRANCH  55  79
BRANCH  67  90
ATOM     90  C   UNL A   1      44.226  28.924  35.471  1.00  0.00     0.023 A 
ATOM     91  C   UNL A   1      45.519  29.417  35.222  1.00  0.00     0.031 A 
ATOM     92  C   UNL A   1      44.082  27.911  36.439  1.00  0.00     0.131 A 
ATOM     93  C   UNL A   1      46.621  28.856  35.885  1.00  0.00     0.055 A 
ATOM     94  C   UNL A   1      45.174  27.409  37.148  1.00  0.00     0.041 A 
ATOM     95  F   UNL A   1      42.874  27.397  36.715  1.00  0.00    -0.206 F 
ATOM     96  C   UNL A   1      46.455  27.872  36.862  1.00  0.00     0.022 A 
BRANCH  93  97
ATOM     97  S   UNL A   1      48.290  29.358  35.380  1.00  0.00     0.124 S 
ATOM     98  O   UNL A   1      48.126  29.544  33.942  1.00  0.00    -0.237 OA
ATOM     99  O   UNL A   1      48.500  30.573  36.160  1.00  0.00    -0.237 OA
ATOM    100  O   UNL A   1      49.123  28.221  35.768  1.00  0.00    -0.744 OA
ENDBRANCH  93  97
ENDBRANCH  67  90
ENDBRANCH  41  42
ENDBRANCH  33  36
ENDBRANCH  31  32
ENDBRANCH  30  31
ENDBRANCH  29  30
ENDBRANCH   1  29
TORSDOF 20
ENDMDL
MODEL 3
REMARK VINA RESULT:     -11.7      2.026      7.571
REMARK SMILES COC(=O)c1cccc(NC(=O)[C@@H]2[C@@H]3CC[C@@H](C3)[C@@H]2C(=O)NCCCCCCNC(=O)c2ccc(-c3c4nc(c(-c5cc(S(=O)(=O)[O-])ccc5F)c5ccc([nH]5)c(-c5cc(S(=O)(=O)[O-])ccc5F)c5nc(c(-c6cc(S(=O)(=O)[O-])ccc6F)c6ccc3[nH]6)C=C5)C=C4)cc2)c1
REMARK SMILES IDX 25 1 24 2 23 3 22 4 20 5 21 6 19 8 13 9 14 10 15 11 18 12
REMARK SMILES IDX 17 13 16 14 11 15 10 16 12 18 9 19 5 20 6 21 95 22 7 23 8 24
REMARK SMILES IDX 3 25 4 26 2 27 1 28 26 29 27 30 28 31 29 32 30 33 31 35
REMARK SMILES IDX 32 36 33 37 94 38 34 39 93 40 35 41 36 42 37 43 87 44 38 45
REMARK SMILES IDX 92 46 86 47 88 48 39 49 91 50 85 51 84 52 40 54 72 55 52 56
REMARK SMILES IDX 71 57 53 58 56 59 70 60 89 61 54 62 55 63 69 65 90 66 57 67
REMARK SMILES IDX 41 68 42 69 50 70 43 71 49 72 51 73 48 74 44 75 45 76 46 77
REMARK SMILES IDX 47 78 73 79 74 80 82 81 75 82 81 83 83 84 80 85 76 86 77 87
REMARK SMILES IDX 78 88 79 89 58 90 59 91 67 92 60 93 66 94 68 95 65 96 61 97
REMARK SMILES IDX 62 98 63 99 64 100
REMARK H PARENT 22 7 10 17 29 34 88 53 56 64
REMARK Flexibility Score: inf
ROOT
ATOM      1  C   UNL A   1      32.362  29.317  27.184  1.00  0.00     0.002 C 
ENDROOT
BRANCH   1   2
ATOM      2  C   UNL A   1      31.781  27.911  26.998  1.00  0.00     0.021 C 
BRANCH   2   3
ATOM      3  C   UNL A   1      32.691  27.005  26.175  1.00  0.00     0.116 C 
BRANCH   3   4
ATOM      4  N   UNL A   1      32.189  25.640  26.215  1.00  0.00    -0.356 N 
ATOM      5  C   UNL A   1      32.686  24.536  25.567  1.00  0.00     0.224 C 
ATOM      6  O   UNL A   1      32.036  23.493  25.561  1.00  0.00    -0.275 OA
ATOM      7  H   UNL A   1      31.396  25.488  26.778  1.00  0.00     0.163 HD
BRANCH   5   8
ATOM      8  C   UNL A   1      34.120  24.641  25.084  1.00  0.00     0.094 C 
ATOM      9  C   UNL A   1      34.577  24.072  23.701  1.00  0.00     0.094 C 
ATOM     10  C   UNL A   1      35.567  22.994  24.173  1.00  0.00     0.002 C 
ATOM     11  C   UNL A   1      34.808  21.839  24.841  1.00  0.00     0.005 C 
ATOM     12  C   UNL A   1      36.277  23.679  25.344  1.00  0.00     0.009 C 
ATOM     13  C   UNL A   1      34.995  23.854  26.119  1.00  0.00     0.002 C 
ATOM     14  C   UNL A   1      34.547  22.382  26.244  1.00  0.00     0.005 C 
BRANCH   9  15
ATOM     15  C   UNL A   1      33.463  23.855  22.662  1.00  0.00     0.228 C 
ATOM     16  N   UNL A   1      32.618  24.819  22.183  1.00  0.00    -0.326 N 
ATOM     17  H   UNL A   1      31.975  24.494  21.511  1.00  0.00     0.169 HD
ATOM     18  O   UNL A   1      33.253  22.703  22.253  1.00  0.00    -0.274 OA
BRANCH  16  19
ATOM     19  C   UNL A   1      32.505  26.182  22.472  1.00  0.00     0.042 A 
ATOM     20  C   UNL A   1      31.079  28.119  22.491  1.00  0.00     0.062 A 
ATOM     21  C   UNL A   1      32.193  28.957  22.411  1.00  0.00     0.016 A 
ATOM     22  C   UNL A   1      31.224  26.729  22.538  1.00  0.00     0.041 A 
ATOM     23  C   UNL A   1      33.462  28.404  22.540  1.00  0.00     0.003 A 
ATOM     24  C   UNL A   1      33.609  27.016  22.630  1.00  0.00     0.026 A 
BRANCH  20  25
ATOM     25  C   UNL A   1      29.752  28.758  22.531  1.00  0.00     0.337 C 
ATOM     26  O   UNL A   1      28.792  28.320  23.129  1.00  0.00    -0.246 OA
BRANCH  25  27
ATOM     27  O   UNL A   1      29.771  29.767  21.623  1.00  0.00    -0.465 OA
ATOM     28  C   UNL A   1      28.582  30.553  21.629  1.00  0.00     0.282 C 
ENDBRANCH  25  27
ENDBRANCH  20  25
ENDBRANCH  16  19
ENDBRANCH   9  15
ENDBRANCH   5   8
ENDBRANCH   3   4
ENDBRANCH   2   3
ENDBRANCH   1   2
BRANCH   1  29
ATOM     29  C   UNL A   1      31.902  30.333  26.133  1.00  0.00     0.002 C 
BRANCH  29  30
ATOM     30  C   UNL A   1      31.662  31.742  26.680  1.00  0.00     0.021 C 
BRANCH  30  31
ATOM     31  C   UNL A   1      32.878  32.346  27.370  1.00  0.00     0.116 C 
BRANCH  31  32
ATOM     32  N   UNL A   1      32.697  33.768  27.619  1.00  0.00    -0.352 N 
ATOM     33  C   UNL A   1      33.257  34.548  28.598  1.00  0.00     0.251 C 
ATOM     34  H   UNL A   1      32.089  34.234  27.000  1.00  0.00     0.163 HD
ATOM     35  O   UNL A   1      32.806  35.665  28.828  1.00  0.00    -0.269 OA
BRANCH  33  36
ATOM     36  C   UNL A   1      34.391  34.016  29.382  1.00  0.00     0.039 A 
ATOM     37  C   UNL A   1      34.133  33.227  30.504  1.00  0.00     0.014 A 
ATOM     38  C   UNL A   1      35.707  34.287  28.995  1.00  0.00     0.014 A 
ATOM     39  C   UNL A   1      35.199  32.669  31.211  1.00  0.00     0.010 A 
ATOM     40  C   UNL A   1      36.762  33.660  29.647  1.00  0.00     0.010 A 
ATOM     41  C   UNL A   1      36.520  32.854  30.770  1.00  0.00    -0.014 A 
BRANCH  41  42
ATOM     42  C   UNL A   1      37.664  32.232  31.483  1.00  0.00     0.031 A 
ATOM     43  C   UNL A   1      38.415  31.094  30.848  1.00  0.00     0.074 A 
ATOM     44  C   UNL A   1      37.995  32.658  32.718  1.00  0.00     0.049 A 
ATOM     45  N   UNL A   1      39.402  30.381  31.327  1.00  0.00    -0.248 NA
ATOM     46  C   UNL A   1      37.972  30.683  29.508  1.00  0.00     0.031 C 
ATOM     47  C   UNL A   1      37.322  33.734  33.448  1.00  0.00     0.029 A 
ATOM     48  N   UNL A   1      38.980  32.239  33.575  1.00  0.00    -0.354 N 
ATOM     49  C   UNL A   1      39.694  29.435  30.351  1.00  0.00     0.074 A 
ATOM     50  C   UNL A   1      38.721  29.613  29.294  1.00  0.00     0.031 C 
ATOM     51  C   UNL A   1      37.941  33.918  34.624  1.00  0.00     0.029 A 
ATOM     52  C   UNL A   1      39.017  32.941  34.758  1.00  0.00     0.049 A 
ATOM     53  H   UNL A   1      39.601  31.504  33.365  1.00  0.00     0.167 HD
ATOM     54  C   UNL A   1      40.699  28.524  30.323  1.00  0.00     0.034 A 
ATOM     55  C   UNL A   1      39.823  32.808  35.829  1.00  0.00     0.034 A 
ATOM     56  C   UNL A   1      41.655  28.357  31.392  1.00  0.00     0.049 A 
ATOM     57  C   UNL A   1      40.891  31.744  35.808  1.00  0.00     0.074 A 
ATOM     58  C   UNL A   1      42.732  27.491  31.459  1.00  0.00     0.029 A 
ATOM     59  N   UNL A   1      41.640  29.062  32.590  1.00  0.00    -0.354 N 
ATOM     60  N   UNL A   1      41.183  30.881  34.861  1.00  0.00    -0.248 NA
ATOM     61  C   UNL A   1      41.742  31.641  37.000  1.00  0.00     0.031 C 
ATOM     62  C   UNL A   1      43.314  27.613  32.725  1.00  0.00     0.029 A 
ATOM     63  C   UNL A   1      42.663  28.623  33.416  1.00  0.00     0.049 A 
ATOM     64  H   UNL A   1      40.995  29.770  32.819  1.00  0.00     0.167 HD
ATOM     65  C   UNL A   1      42.278  30.160  35.330  1.00  0.00     0.074 A 
ATOM     66  C   UNL A   1      42.596  30.696  36.638  1.00  0.00     0.031 C 
ATOM     67  C   UNL A   1      42.963  29.153  34.728  1.00  0.00     0.034 A 
BRANCH  54  68
ATOM     68  C   UNL A   1      40.780  27.626  29.108  1.00  0.00     0.023 A 
ATOM     69  C   UNL A   1      41.740  27.834  28.100  1.00  0.00     0.031 A 
ATOM     70  C   UNL A   1      39.849  26.589  28.919  1.00  0.00     0.131 A 
ATOM     71  C   UNL A   1      41.677  27.098  26.909  1.00  0.00     0.055 A 
ATOM     72  C   UNL A   1      39.860  25.788  27.774  1.00  0.00     0.041 A 
ATOM     73  F   UNL A   1      38.894  26.351  29.831  1.00  0.00    -0.206 F 
ATOM     74  C   UNL A   1      40.763  26.056  26.749  1.00  0.00     0.022 A 
BRANCH  71  75
ATOM     75  S   UNL A   1      42.674  27.657  25.499  1.00  0.00     0.124 S 
ATOM     76  O   UNL A   1      41.875  28.773  24.998  1.00  0.00    -0.237 OA
ATOM     77  O   UNL A   1      43.941  28.009  26.128  1.00  0.00    -0.237 OA
ATOM     78  O   UNL A   1      42.714  26.488  24.623  1.00  0.00    -0.744 OA
ENDBRANCH  71  75
ENDBRANCH  54  68
BRANCH  55  79
ATOM     79  C   UNL A   1      39.660  33.706  37.008  1.00  0.00     0.023 A 
ATOM     80  C   UNL A   1      40.541  34.777  37.222  1.00  0.00     0.031 A 
ATOM     81  C   UNL A   1      38.638  33.493  37.950  1.00  0.00     0.131 A 
ATOM     82  C   UNL A   1      40.410  35.572  38.371  1.00  0.00     0.055 A 
ATOM     83  C   UNL A   1      38.478  34.320  39.062  1.00  0.00     0.041 A 
ATOM     84  F   UNL A   1      37.767  32.484  37.792  1.00  0.00    -0.206 F 
ATOM     85  C   UNL A   1      39.374  35.361  39.284  1.00  0.00     0.022 A 
BRANCH  82  86
ATOM     86  S   UNL A   1      41.663  36.841  38.696  1.00  0.00     0.124 S 
ATOM     87  O   UNL A   1      42.211  37.066  37.364  1.00  0.00    -0.237 OA
ATOM     88  O   UNL A   1      40.859  37.926  39.251  1.00  0.00    -0.237 OA
ATOM     89  O   UNL A   1      42.567  36.192  39.644  1.00  0.00    -0.744 OA
ENDBRANCH  82  86
ENDBRANCH  55  79
BRANCH  67  90
ATOM     90  C   UNL A   1      44.161  28.599  35.464  1.00  0.00     0.023 A 
ATOM     91  C   UNL A   1      44.027  27.703  36.539  1.00  0.00     0.031 A 
ATOM     92  C   UNL A   1      45.461  28.986  35.086  1.00  0.00     0.131 A 
ATOM     93  C   UNL A   1      45.166  27.271  37.235  1.00  0.00     0.055 A 
ATOM     94  C   UNL A   1      46.594  28.496  35.737  1.00  0.00     0.041 A 
ATOM     95  F   UNL A   1      45.651  29.844  34.072  1.00  0.00    -0.206 F 
ATOM     96  C   UNL A   1      46.449  27.644  36.828  1.00  0.00     0.022 A 
BRANCH  93  97
ATOM     97  S   UNL A   1      44.945  26.296  38.749  1.00  0.00     0.124 S 
ATOM     98  O   UNL A   1      45.485  24.999  38.354  1.00  0.00    -0.237 OA
ATOM     99  O   UNL A   1      45.734  27.046  39.721  1.00  0.00    -0.237 OA
ATOM    100  O   UNL A   1      43.500  26.325  38.969  1.00  0.00    -0.744 OA
ENDBRANCH  93  97
ENDBRANCH  67  90
ENDBRANCH  41  42
ENDBRANCH  33  36
ENDBRANCH  31  32
ENDBRANCH  30  31
ENDBRANCH  29  30
ENDBRANCH   1  29
TORSDOF 20
ENDMDL
