MODEL 1
REMARK VINA RESULT:     -10.2      0.000      0.000
REMARK SMILES CC(C)C[N@@H+](C[C@@H](C)C(=O)NCCCCCCNC(=O)c1ccc(-c2c3nc(c(-c4cc(S(=O)(=O)[O-])ccc4F)c4ccc([nH]4)c(-c4cc(S(=O)(=O)[O-])ccc4F)c4nc(c(-c5cc(S(=O)(=O)[O-])ccc5F)c5ccc2[nH]5)C=C4)C=C3)cc1)C1CCCC1
REMARK SMILES IDX 14 1 13 2 12 3 11 4 9 5 10 6 7 8 8 9 6 10 5 11 4 13 2 14
REMARK SMILES IDX 1 15 3 16 84 17 85 18 88 19 86 20 87 21 15 22 16 23 17 24
REMARK SMILES IDX 18 25 19 26 20 28 21 29 22 30 83 31 23 32 82 33 24 34 25 35
REMARK SMILES IDX 26 36 76 37 27 38 81 39 75 40 77 41 28 42 80 43 74 44 73 45
REMARK SMILES IDX 29 47 61 48 41 49 60 50 42 51 45 52 59 53 78 54 43 55 44 56
REMARK SMILES IDX 58 58 79 59 46 60 30 61 31 62 39 63 32 64 38 65 40 66 37 67
REMARK SMILES IDX 33 68 34 69 35 70 36 71 62 72 63 73 71 74 64 75 70 76 72 77
REMARK SMILES IDX 69 78 65 79 66 80 67 81 68 82 47 83 48 84 56 85 49 86 55 87
REMARK SMILES IDX 57 88 54 89 50 90 51 91 52 92 53 93
REMARK H PARENT 11 7 5 12 18 27 77 46 45 57
REMARK Flexibility Score: inf
ROOT
ATOM      1  C   UNL A   1      32.847  29.333  25.690  1.00  0.00     0.002 C 
ENDROOT
BRANCH   1   2
ATOM      2  C   UNL A   1      32.673  27.948  25.053  1.00  0.00     0.021 C 
BRANCH   2   3
ATOM      3  C   UNL A   1      33.088  26.815  25.996  1.00  0.00     0.116 C 
BRANCH   3   4
ATOM      4  N   UNL A   1      31.899  26.212  26.572  1.00  0.00    -0.356 N 
ATOM      5  C   UNL A   1      30.918  25.461  26.000  1.00  0.00     0.228 C 
ATOM      6  O   UNL A   1      29.891  25.268  26.656  1.00  0.00    -0.275 OA
ATOM      7  H   UNL A   1      31.783  26.374  27.536  1.00  0.00     0.163 HD
BRANCH   5   8
ATOM      8  C   UNL A   1      31.130  24.751  24.665  1.00  0.00     0.130 C 
ATOM      9  C   UNL A   1      30.191  25.447  23.680  1.00  0.00     0.024 C 
BRANCH   8  10
ATOM     10  C   UNL A   1      31.161  23.199  24.809  1.00  0.00     0.275 C 
BRANCH  10  11
ATOM     11  N   UNL A   1      32.392  22.397  24.651  1.00  0.00    -0.332 N 
ATOM     12  H   UNL A   1      32.870  22.483  25.548  1.00  0.00     0.348 HD
BRANCH  11  13
ATOM     13  C   UNL A   1      33.318  22.987  23.675  1.00  0.00     0.265 C 
BRANCH  13  14
ATOM     14  C   UNL A   1      34.655  23.597  24.178  1.00  0.00     0.038 C 
ATOM     15  C   UNL A   1      34.811  23.616  25.702  1.00  0.00     0.013 C 
ATOM     16  C   UNL A   1      35.814  22.774  23.591  1.00  0.00     0.013 C 
ENDBRANCH  13  14
ENDBRANCH  11  13
BRANCH  11  17
ATOM     17  C   UNL A   1      32.267  20.937  24.679  1.00  0.00     0.184 C 
ATOM     18  C   UNL A   1      32.342  20.187  23.339  1.00  0.00     0.065 C 
ATOM     19  C   UNL A   1      33.272  20.166  25.529  1.00  0.00     0.065 C 
ATOM     20  C   UNL A   1      32.463  18.717  23.749  1.00  0.00     0.006 C 
ATOM     21  C   UNL A   1      33.179  18.710  25.097  1.00  0.00     0.006 C 
ENDBRANCH  11  17
ENDBRANCH  10  11
ENDBRANCH   8  10
ENDBRANCH   5   8
ENDBRANCH   3   4
ENDBRANCH   2   3
ENDBRANCH   1   2
BRANCH   1  22
ATOM     22  C   UNL A   1      31.658  30.272  25.470  1.00  0.00     0.002 C 
BRANCH  22  23
ATOM     23  C   UNL A   1      31.468  31.316  26.573  1.00  0.00     0.021 C 
BRANCH  23  24
ATOM     24  C   UNL A   1      32.770  31.945  27.056  1.00  0.00     0.116 C 
BRANCH  24  25
ATOM     25  N   UNL A   1      32.611  33.371  27.301  1.00  0.00    -0.352 N 
ATOM     26  C   UNL A   1      33.216  34.158  28.248  1.00  0.00     0.251 C 
ATOM     27  H   UNL A   1      31.982  33.836  26.703  1.00  0.00     0.163 HD
ATOM     28  O   UNL A   1      32.780  35.277  28.485  1.00  0.00    -0.269 OA
BRANCH  26  29
ATOM     29  C   UNL A   1      34.382  33.629  28.986  1.00  0.00     0.039 A 
ATOM     30  C   UNL A   1      34.174  32.724  30.027  1.00  0.00     0.014 A 
ATOM     31  C   UNL A   1      35.677  34.027  28.641  1.00  0.00     0.014 A 
ATOM     32  C   UNL A   1      35.273  32.172  30.687  1.00  0.00     0.010 A 
ATOM     33  C   UNL A   1      36.771  33.416  29.244  1.00  0.00     0.010 A 
ATOM     34  C   UNL A   1      36.580  32.486  30.278  1.00  0.00    -0.014 A 
BRANCH  34  35
ATOM     35  C   UNL A   1      37.759  31.857  30.925  1.00  0.00     0.031 A 
ATOM     36  C   UNL A   1      38.556  30.815  30.190  1.00  0.00     0.074 A 
ATOM     37  C   UNL A   1      38.077  32.187  32.193  1.00  0.00     0.049 A 
ATOM     38  N   UNL A   1      39.575  30.107  30.605  1.00  0.00    -0.248 NA
ATOM     39  C   UNL A   1      38.131  30.509  28.815  1.00  0.00     0.031 C 
ATOM     40  C   UNL A   1      37.354  33.158  33.019  1.00  0.00     0.029 A 
ATOM     41  N   UNL A   1      39.082  31.740  33.012  1.00  0.00    -0.354 N 
ATOM     42  C   UNL A   1      39.906  29.265  29.548  1.00  0.00     0.074 A 
ATOM     43  C   UNL A   1      38.936  29.505  28.502  1.00  0.00     0.031 C 
ATOM     44  C   UNL A   1      37.959  33.255  34.212  1.00  0.00     0.029 A 
ATOM     45  C   UNL A   1      39.076  32.318  34.261  1.00  0.00     0.049 A 
ATOM     46  H   UNL A   1      39.747  31.070  32.732  1.00  0.00     0.167 HD
ATOM     47  C   UNL A   1      40.940  28.391  29.452  1.00  0.00     0.034 A 
ATOM     48  C   UNL A   1      39.871  32.106  35.329  1.00  0.00     0.034 A 
ATOM     49  C   UNL A   1      41.899  28.170  30.507  1.00  0.00     0.049 A 
ATOM     50  C   UNL A   1      40.988  31.100  35.213  1.00  0.00     0.074 A 
ATOM     51  C   UNL A   1      43.012  27.348  30.499  1.00  0.00     0.029 A 
ATOM     52  N   UNL A   1      41.854  28.764  31.763  1.00  0.00    -0.354 N 
ATOM     53  N   UNL A   1      41.321  30.349  34.188  1.00  0.00    -0.248 NA
ATOM     54  C   UNL A   1      41.844  30.922  36.393  1.00  0.00     0.031 C 
ATOM     55  C   UNL A   1      43.591  27.382  31.772  1.00  0.00     0.029 A 
ATOM     56  C   UNL A   1      42.896  28.296  32.549  1.00  0.00     0.049 A 
ATOM     57  H   UNL A   1      41.180  29.421  32.053  1.00  0.00     0.167 HD
ATOM     58  C   UNL A   1      42.446  29.634  34.592  1.00  0.00     0.074 A 
ATOM     59  C   UNL A   1      42.741  30.056  35.946  1.00  0.00     0.031 C 
ATOM     60  C   UNL A   1      43.174  28.717  33.904  1.00  0.00     0.034 A 
BRANCH  47  61
ATOM     61  C   UNL A   1      41.061  27.594  28.174  1.00  0.00     0.023 A 
ATOM     62  C   UNL A   1      40.720  26.231  28.116  1.00  0.00     0.031 A 
ATOM     63  C   UNL A   1      41.551  28.195  27.001  1.00  0.00     0.131 A 
ATOM     64  C   UNL A   1      40.949  25.498  26.941  1.00  0.00     0.055 A 
ATOM     65  C   UNL A   1      41.693  27.483  25.809  1.00  0.00     0.041 A 
ATOM     66  F   UNL A   1      41.917  29.488  26.997  1.00  0.00    -0.206 F 
ATOM     67  C   UNL A   1      41.407  26.122  25.779  1.00  0.00     0.022 A 
BRANCH  64  68
ATOM     68  S   UNL A   1      40.793  23.692  27.004  1.00  0.00     0.124 S 
ATOM     69  O   UNL A   1      41.652  23.284  25.894  1.00  0.00    -0.237 OA
ATOM     70  O   UNL A   1      41.285  23.379  28.340  1.00  0.00    -0.237 OA
ATOM     71  O   UNL A   1      39.366  23.464  26.794  1.00  0.00    -0.744 OA
ENDBRANCH  64  68
ENDBRANCH  47  61
BRANCH  48  72
ATOM     72  C   UNL A   1      39.637  32.846  36.603  1.00  0.00     0.023 A 
ATOM     73  C   UNL A   1      38.763  32.346  37.581  1.00  0.00     0.031 A 
ATOM     74  C   UNL A   1      40.253  34.087  36.843  1.00  0.00     0.131 A 
ATOM     75  C   UNL A   1      38.491  33.104  38.731  1.00  0.00     0.055 A 
ATOM     76  C   UNL A   1      40.025  34.810  38.016  1.00  0.00     0.041 A 
ATOM     77  F   UNL A   1      41.100  34.612  35.944  1.00  0.00    -0.206 F 
ATOM     78  C   UNL A   1      39.128  34.325  38.962  1.00  0.00     0.022 A 
BRANCH  75  79
ATOM     79  S   UNL A   1      37.217  32.514  39.879  1.00  0.00     0.124 S 
ATOM     80  O   UNL A   1      37.172  33.599  40.853  1.00  0.00    -0.237 OA
ATOM     81  O   UNL A   1      36.056  32.387  39.005  1.00  0.00    -0.237 OA
ATOM     82  O   UNL A   1      37.763  31.253  40.374  1.00  0.00    -0.744 OA
ENDBRANCH  75  79
ENDBRANCH  48  72
BRANCH  60  83
ATOM     83  C   UNL A   1      44.391  28.146  34.593  1.00  0.00     0.023 A 
ATOM     84  C   UNL A   1      44.330  26.969  35.358  1.00  0.00     0.031 A 
ATOM     85  C   UNL A   1      45.633  28.800  34.485  1.00  0.00     0.131 A 
ATOM     86  C   UNL A   1      45.473  26.514  36.034  1.00  0.00     0.055 A 
ATOM     87  C   UNL A   1      46.781  28.304  35.102  1.00  0.00     0.041 A 
ATOM     88  F   UNL A   1      45.751  29.931  33.771  1.00  0.00    -0.206 F 
ATOM     89  C   UNL A   1      46.702  27.162  35.894  1.00  0.00     0.022 A 
BRANCH  86  90
ATOM     90  S   UNL A   1      45.309  25.119  37.182  1.00  0.00     0.124 S 
ATOM     91  O   UNL A   1      46.383  24.235  36.740  1.00  0.00    -0.237 OA
ATOM     92  O   UNL A   1      45.503  25.758  38.479  1.00  0.00    -0.237 OA
ATOM     93  O   UNL A   1      43.956  24.626  36.931  1.00  0.00    -0.744 OA
ENDBRANCH  86  90
ENDBRANCH  60  83
ENDBRANCH  34  35
ENDBRANCH  26  29
ENDBRANCH  24  25
ENDBRANCH  23  24
ENDBRANCH  22  23
ENDBRANCH   1  22
TORSDOF 21
ENDMDL
MODEL 2
REMARK VINA RESULT:      -9.7      1.794      2.379
REMARK SMILES CC(C)C[N@@H+](C[C@@H](C)C(=O)NCCCCCCNC(=O)c1ccc(-c2c3nc(c(-c4cc(S(=O)(=O)[O-])ccc4F)c4ccc([nH]4)c(-c4cc(S(=O)(=O)[O-])ccc4F)c4nc(c(-c5cc(S(=O)(=O)[O-])ccc5F)c5ccc2[nH]5)C=C4)C=C3)cc1)C1CCCC1
REMARK SMILES IDX 14 1 13 2 12 3 11 4 9 5 10 6 7 8 8 9 6 10 5 11 4 13 2 14
REMARK SMILES IDX 1 15 3 16 84 17 85 18 88 19 86 20 87 21 15 22 16 23 17 24
REMARK SMILES IDX 18 25 19 26 20 28 21 29 22 30 83 31 23 32 82 33 24 34 25 35
REMARK SMILES IDX 26 36 76 37 27 38 81 39 75 40 77 41 28 42 80 43 74 44 73 45
REMARK SMILES IDX 29 47 61 48 41 49 60 50 42 51 45 52 59 53 78 54 43 55 44 56
REMARK SMILES IDX 58 58 79 59 46 60 30 61 31 62 39 63 32 64 38 65 40 66 37 67
REMARK SMILES IDX 33 68 34 69 35 70 36 71 62 72 63 73 71 74 64 75 70 76 72 77
REMARK SMILES IDX 69 78 65 79 66 80 67 81 68 82 47 83 48 84 56 85 49 86 55 87
REMARK SMILES IDX 57 88 54 89 50 90 51 91 52 92 53 93
REMARK H PARENT 11 7 5 12 18 27 77 46 45 57
REMARK Flexibility Score: inf
ROOT
ATOM      1  C   UNL A   1      32.519  29.803  25.578  1.00  0.00     0.002 C 
ENDROOT
BRANCH   1   2
ATOM      2  C   UNL A   1      31.982  28.546  24.880  1.00  0.00     0.021 C 
BRANCH   2   3
ATOM      3  C   UNL A   1      33.041  27.446  24.764  1.00  0.00     0.116 C 
BRANCH   3   4
ATOM      4  N   UNL A   1      33.353  27.228  23.362  1.00  0.00    -0.356 N 
ATOM      5  C   UNL A   1      33.205  26.124  22.580  1.00  0.00     0.228 C 
ATOM      6  O   UNL A   1      33.768  26.123  21.481  1.00  0.00    -0.275 OA
ATOM      7  H   UNL A   1      33.737  28.009  22.901  1.00  0.00     0.163 HD
BRANCH   5   8
ATOM      8  C   UNL A   1      32.259  24.990  22.968  1.00  0.00     0.130 C 
ATOM      9  C   UNL A   1      30.851  25.535  22.730  1.00  0.00     0.024 C 
BRANCH   8  10
ATOM     10  C   UNL A   1      32.657  24.311  24.313  1.00  0.00     0.275 C 
BRANCH  10  11
ATOM     11  N   UNL A   1      33.275  22.971  24.390  1.00  0.00    -0.332 N 
ATOM     12  H   UNL A   1      32.932  22.483  23.563  1.00  0.00     0.348 HD
BRANCH  11  13
ATOM     13  C   UNL A   1      32.767  22.189  25.524  1.00  0.00     0.265 C 
BRANCH  13  14
ATOM     14  C   UNL A   1      32.153  22.935  26.741  1.00  0.00     0.038 C 
ATOM     15  C   UNL A   1      30.631  22.803  26.863  1.00  0.00     0.013 C 
ATOM     16  C   UNL A   1      32.784  22.372  28.025  1.00  0.00     0.013 C 
ENDBRANCH  13  14
ENDBRANCH  11  13
BRANCH  11  17
ATOM     17  C   UNL A   1      34.699  22.853  24.061  1.00  0.00     0.184 C 
ATOM     18  C   UNL A   1      35.647  23.946  24.582  1.00  0.00     0.065 C 
ATOM     19  C   UNL A   1      35.414  21.580  24.499  1.00  0.00     0.065 C 
ATOM     20  C   UNL A   1      37.042  23.378  24.311  1.00  0.00     0.006 C 
ATOM     21  C   UNL A   1      36.906  21.861  24.391  1.00  0.00     0.006 C 
ENDBRANCH  11  17
ENDBRANCH  10  11
ENDBRANCH   8  10
ENDBRANCH   5   8
ENDBRANCH   3   4
ENDBRANCH   2   3
ENDBRANCH   1   2
BRANCH   1  22
ATOM     22  C   UNL A   1      31.490  30.930  25.705  1.00  0.00     0.002 C 
BRANCH  22  23
ATOM     23  C   UNL A   1      31.530  31.670  27.044  1.00  0.00     0.021 C 
BRANCH  23  24
ATOM     24  C   UNL A   1      32.853  32.376  27.319  1.00  0.00     0.116 C 
BRANCH  24  25
ATOM     25  N   UNL A   1      32.654  33.793  27.582  1.00  0.00    -0.352 N 
ATOM     26  C   UNL A   1      33.207  34.575  28.565  1.00  0.00     0.251 C 
ATOM     27  H   UNL A   1      32.037  34.255  26.970  1.00  0.00     0.163 HD
ATOM     28  O   UNL A   1      32.737  35.681  28.804  1.00  0.00    -0.269 OA
BRANCH  26  29
ATOM     29  C   UNL A   1      34.356  34.059  29.336  1.00  0.00     0.039 A 
ATOM     30  C   UNL A   1      34.120  33.326  30.499  1.00  0.00     0.014 A 
ATOM     31  C   UNL A   1      35.664  34.296  28.902  1.00  0.00     0.014 A 
ATOM     32  C   UNL A   1      35.197  32.781  31.198  1.00  0.00     0.010 A 
ATOM     33  C   UNL A   1      36.729  33.685  29.554  1.00  0.00     0.010 A 
ATOM     34  C   UNL A   1      36.508  32.926  30.712  1.00  0.00    -0.014 A 
BRANCH  34  35
ATOM     35  C   UNL A   1      37.659  32.297  31.407  1.00  0.00     0.031 A 
ATOM     36  C   UNL A   1      38.403  31.162  30.759  1.00  0.00     0.074 A 
ATOM     37  C   UNL A   1      37.998  32.713  32.644  1.00  0.00     0.049 A 
ATOM     38  N   UNL A   1      39.389  30.442  31.229  1.00  0.00    -0.248 NA
ATOM     39  C   UNL A   1      37.958  30.765  29.414  1.00  0.00     0.031 C 
ATOM     40  C   UNL A   1      37.326  33.781  33.389  1.00  0.00     0.029 A 
ATOM     41  N   UNL A   1      38.985  32.287  33.496  1.00  0.00    -0.354 N 
ATOM     42  C   UNL A   1      39.675  29.503  30.244  1.00  0.00     0.074 A 
ATOM     43  C   UNL A   1      38.712  29.702  29.183  1.00  0.00     0.031 C 
ATOM     44  C   UNL A   1      37.940  33.946  34.570  1.00  0.00     0.029 A 
ATOM     45  C   UNL A   1      39.012  32.964  34.694  1.00  0.00     0.049 A 
ATOM     46  H   UNL A   1      39.616  31.566  33.271  1.00  0.00     0.167 HD
ATOM     47  C   UNL A   1      40.666  28.576  30.219  1.00  0.00     0.034 A 
ATOM     48  C   UNL A   1      39.801  32.802  35.775  1.00  0.00     0.034 A 
ATOM     49  C   UNL A   1      41.619  28.396  31.287  1.00  0.00     0.049 A 
ATOM     50  C   UNL A   1      40.869  31.738  35.740  1.00  0.00     0.074 A 
ATOM     51  C   UNL A   1      42.692  27.525  31.346  1.00  0.00     0.029 A 
ATOM     52  N   UNL A   1      41.608  29.091  32.491  1.00  0.00    -0.354 N 
ATOM     53  N   UNL A   1      41.161  30.892  34.780  1.00  0.00    -0.248 NA
ATOM     54  C   UNL A   1      41.721  31.617  36.930  1.00  0.00     0.031 C 
ATOM     55  C   UNL A   1      43.278  27.634  32.611  1.00  0.00     0.029 A 
ATOM     56  C   UNL A   1      42.631  28.640  33.311  1.00  0.00     0.049 A 
ATOM     57  H   UNL A   1      40.967  29.801  32.727  1.00  0.00     0.167 HD
ATOM     58  C   UNL A   1      42.253  30.159  35.239  1.00  0.00     0.074 A 
ATOM     59  C   UNL A   1      42.575  30.676  36.554  1.00  0.00     0.031 C 
ATOM     60  C   UNL A   1      42.934  29.156  34.627  1.00  0.00     0.034 A 
BRANCH  47  61
ATOM     61  C   UNL A   1      40.743  27.673  29.010  1.00  0.00     0.023 A 
ATOM     62  C   UNL A   1      41.710  27.861  28.005  1.00  0.00     0.031 A 
ATOM     63  C   UNL A   1      39.820  26.626  28.841  1.00  0.00     0.131 A 
ATOM     64  C   UNL A   1      41.680  27.071  26.845  1.00  0.00     0.055 A 
ATOM     65  C   UNL A   1      39.852  25.785  27.727  1.00  0.00     0.041 A 
ATOM     66  F   UNL A   1      38.858  26.409  29.752  1.00  0.00    -0.206 F 
ATOM     67  C   UNL A   1      40.776  26.017  26.712  1.00  0.00     0.022 A 
BRANCH  64  68
ATOM     68  S   UNL A   1      42.735  27.548  25.448  1.00  0.00     0.124 S 
ATOM     69  O   UNL A   1      43.985  27.888  26.125  1.00  0.00    -0.237 OA
ATOM     70  O   UNL A   1      42.755  26.334  24.641  1.00  0.00    -0.237 OA
ATOM     71  O   UNL A   1      42.028  28.680  24.856  1.00  0.00    -0.744 OA
ENDBRANCH  64  68
ENDBRANCH  47  61
BRANCH  48  72
ATOM     72  C   UNL A   1      39.608  33.653  36.985  1.00  0.00     0.023 A 
ATOM     73  C   UNL A   1      39.111  33.111  38.181  1.00  0.00     0.031 A 
ATOM     74  C   UNL A   1      39.878  35.033  36.950  1.00  0.00     0.131 A 
ATOM     75  C   UNL A   1      38.854  33.950  39.276  1.00  0.00     0.055 A 
ATOM     76  C   UNL A   1      39.678  35.854  38.062  1.00  0.00     0.041 A 
ATOM     77  F   UNL A   1      40.357  35.605  35.834  1.00  0.00    -0.206 F 
ATOM     78  C   UNL A   1      39.149  35.315  39.231  1.00  0.00     0.022 A 
BRANCH  75  79
ATOM     79  S   UNL A   1      38.040  33.247  40.736  1.00  0.00     0.124 S 
ATOM     80  O   UNL A   1      38.690  31.946  40.840  1.00  0.00    -0.237 OA
ATOM     81  O   UNL A   1      38.379  34.219  41.770  1.00  0.00    -0.237 OA
ATOM     82  O   UNL A   1      36.629  33.212  40.356  1.00  0.00    -0.744 OA
ENDBRANCH  75  79
ENDBRANCH  48  72
BRANCH  60  83
ATOM     83  C   UNL A   1      44.126  28.586  35.359  1.00  0.00     0.023 A 
ATOM     84  C   UNL A   1      44.011  27.486  36.227  1.00  0.00     0.031 A 
ATOM     85  C   UNL A   1      45.399  29.163  35.189  1.00  0.00     0.131 A 
ATOM     86  C   UNL A   1      45.135  27.034  36.935  1.00  0.00     0.055 A 
ATOM     87  C   UNL A   1      46.525  28.665  35.843  1.00  0.00     0.041 A 
ATOM     88  F   UNL A   1      45.568  30.219  34.377  1.00  0.00    -0.206 F 
ATOM     89  C   UNL A   1      46.395  27.603  36.733  1.00  0.00     0.022 A 
BRANCH  86  90
ATOM     90  S   UNL A   1      44.909  25.757  38.203  1.00  0.00     0.124 S 
ATOM     91  O   UNL A   1      46.146  24.990  38.084  1.00  0.00    -0.237 OA
ATOM     92  O   UNL A   1      44.765  26.547  39.421  1.00  0.00    -0.237 OA
ATOM     93  O   UNL A   1      43.702  25.056  37.772  1.00  0.00    -0.744 OA
ENDBRANCH  86  90
ENDBRANCH  60  83
ENDBRANCH  34  35
ENDBRANCH  26  29
ENDBRANCH  24  25
ENDBRANCH  23  24
ENDBRANCH  22  23
ENDBRANCH   1  22
TORSDOF 21
ENDMDL
MODEL 3
REMARK VINA RESULT:      -9.6      6.380     11.412
REMARK SMILES CC(C)C[N@@H+](C[C@@H](C)C(=O)NCCCCCCNC(=O)c1ccc(-c2c3nc(c(-c4cc(S(=O)(=O)[O-])ccc4F)c4ccc([nH]4)c(-c4cc(S(=O)(=O)[O-])ccc4F)c4nc(c(-c5cc(S(=O)(=O)[O-])ccc5F)c5ccc2[nH]5)C=C4)C=C3)cc1)C1CCCC1
REMARK SMILES IDX 14 1 13 2 12 3 11 4 9 5 10 6 7 8 8 9 6 10 5 11 4 13 2 14
REMARK SMILES IDX 1 15 3 16 84 17 85 18 88 19 86 20 87 21 15 22 16 23 17 24
REMARK SMILES IDX 18 25 19 26 20 28 21 29 22 30 83 31 23 32 82 33 24 34 25 35
REMARK SMILES IDX 26 36 76 37 27 38 81 39 75 40 77 41 28 42 80 43 74 44 73 45
REMARK SMILES IDX 29 47 61 48 41 49 60 50 42 51 45 52 59 53 78 54 43 55 44 56
REMARK SMILES IDX 58 58 79 59 46 60 30 61 31 62 39 63 32 64 38 65 40 66 37 67
REMARK SMILES IDX 33 68 34 69 35 70 36 71 62 72 63 73 71 74 64 75 70 76 72 77
REMARK SMILES IDX 69 78 65 79 66 80 67 81 68 82 47 83 48 84 56 85 49 86 55 87
REMARK SMILES IDX 57 88 54 89 50 90 51 91 52 92 53 93
REMARK H PARENT 11 7 5 12 18 27 77 46 45 57
REMARK Flexibility Score: inf
ROOT
ATOM      1  C   UNL A   1      38.230  22.931  26.505  1.00  0.00     0.002 C 
ENDROOT
BRANCH   1   2
ATOM      2  C   UNL A   1      37.272  23.035  25.311  1.00  0.00     0.021 C 
BRANCH   2   3
ATOM      3  C   UNL A   1      36.216  24.127  25.504  1.00  0.00     0.116 C 
BRANCH   3   4
ATOM      4  N   UNL A   1      35.095  23.871  24.616  1.00  0.00    -0.356 N 
ATOM      5  C   UNL A   1      33.790  23.597  24.890  1.00  0.00     0.228 C 
ATOM      6  O   UNL A   1      33.087  23.183  23.963  1.00  0.00    -0.275 OA
ATOM      7  H   UNL A   1      35.316  23.900  23.657  1.00  0.00     0.163 HD
BRANCH   5   8
ATOM      8  C   UNL A   1      33.169  23.929  26.245  1.00  0.00     0.130 C 
ATOM      9  C   UNL A   1      32.555  22.622  26.743  1.00  0.00     0.024 C 
BRANCH   8  10
ATOM     10  C   UNL A   1      32.356  25.259  26.222  1.00  0.00     0.275 C 
BRANCH  10  11
ATOM     11  N   UNL A   1      32.395  26.210  25.092  1.00  0.00    -0.332 N 
ATOM     12  H   UNL A   1      32.939  25.733  24.374  1.00  0.00     0.348 HD
BRANCH  11  13
ATOM     13  C   UNL A   1      33.170  27.418  25.408  1.00  0.00     0.265 C 
BRANCH  13  14
ATOM     14  C   UNL A   1      33.202  27.931  26.874  1.00  0.00     0.038 C 
ATOM     15  C   UNL A   1      34.298  28.963  27.161  1.00  0.00     0.013 C 
ATOM     16  C   UNL A   1      31.844  28.578  27.191  1.00  0.00     0.013 C 
ENDBRANCH  13  14
ENDBRANCH  11  13
BRANCH  11  17
ATOM     17  C   UNL A   1      31.180  26.369  24.286  1.00  0.00     0.184 C 
ATOM     18  C   UNL A   1      29.836  26.009  24.942  1.00  0.00     0.065 C 
ATOM     19  C   UNL A   1      30.894  27.755  23.719  1.00  0.00     0.065 C 
ATOM     20  C   UNL A   1      28.795  26.547  23.957  1.00  0.00     0.006 C 
ATOM     21  C   UNL A   1      29.440  27.749  23.272  1.00  0.00     0.006 C 
ENDBRANCH  11  17
ENDBRANCH  10  11
ENDBRANCH   8  10
ENDBRANCH   5   8
ENDBRANCH   3   4
ENDBRANCH   2   3
ENDBRANCH   1   2
BRANCH   1  22
ATOM     22  C   UNL A   1      39.613  22.378  26.146  1.00  0.00     0.002 C 
BRANCH  22  23
ATOM     23  C   UNL A   1      39.676  20.852  26.058  1.00  0.00     0.021 C 
BRANCH  23  24
ATOM     24  C   UNL A   1      40.754  20.228  26.937  1.00  0.00     0.116 C 
BRANCH  24  25
ATOM     25  N   UNL A   1      41.750  19.528  26.140  1.00  0.00    -0.352 N 
ATOM     26  C   UNL A   1      42.866  20.026  25.518  1.00  0.00     0.251 C 
ATOM     27  H   UNL A   1      41.601  18.560  26.032  1.00  0.00     0.163 HD
ATOM     28  O   UNL A   1      43.451  19.355  24.678  1.00  0.00    -0.269 OA
BRANCH  26  29
ATOM     29  C   UNL A   1      43.337  21.384  25.862  1.00  0.00     0.039 A 
ATOM     30  C   UNL A   1      43.158  22.418  24.943  1.00  0.00     0.014 A 
ATOM     31  C   UNL A   1      43.946  21.630  27.096  1.00  0.00     0.014 A 
ATOM     32  C   UNL A   1      43.541  23.715  25.285  1.00  0.00     0.010 A 
ATOM     33  C   UNL A   1      44.253  22.935  27.466  1.00  0.00     0.010 A 
ATOM     34  C   UNL A   1      44.059  23.990  26.562  1.00  0.00    -0.014 A 
BRANCH  34  35
ATOM     35  C   UNL A   1      44.411  25.376  26.967  1.00  0.00     0.031 A 
ATOM     36  C   UNL A   1      43.360  26.281  27.547  1.00  0.00     0.074 A 
ATOM     37  C   UNL A   1      45.663  25.832  26.761  1.00  0.00     0.049 A 
ATOM     38  N   UNL A   1      43.452  27.537  27.900  1.00  0.00    -0.248 NA
ATOM     39  C   UNL A   1      42.018  25.704  27.725  1.00  0.00     0.031 C 
ATOM     40  C   UNL A   1      46.757  25.056  26.171  1.00  0.00     0.029 A 
ATOM     41  N   UNL A   1      46.226  27.056  27.017  1.00  0.00    -0.354 N 
ATOM     42  C   UNL A   1      42.182  27.904  28.332  1.00  0.00     0.074 A 
ATOM     43  C   UNL A   1      41.324  26.756  28.130  1.00  0.00     0.031 C 
ATOM     44  C   UNL A   1      47.864  25.812  26.141  1.00  0.00     0.029 A 
ATOM     45  C   UNL A   1      47.551  27.141  26.655  1.00  0.00     0.049 A 
ATOM     46  H   UNL A   1      45.729  27.803  27.422  1.00  0.00     0.167 HD
ATOM     47  C   UNL A   1      41.776  29.082  28.870  1.00  0.00     0.034 A 
ATOM     48  C   UNL A   1      48.411  28.177  26.716  1.00  0.00     0.034 A 
ATOM     49  C   UNL A   1      42.650  30.213  29.066  1.00  0.00     0.049 A 
ATOM     50  C   UNL A   1      47.927  29.490  27.280  1.00  0.00     0.074 A 
ATOM     51  C   UNL A   1      42.359  31.435  29.646  1.00  0.00     0.029 A 
ATOM     52  N   UNL A   1      43.983  30.268  28.676  1.00  0.00    -0.354 N 
ATOM     53  N   UNL A   1      46.735  29.805  27.733  1.00  0.00    -0.248 NA
ATOM     54  C   UNL A   1      48.907  30.581  27.352  1.00  0.00     0.031 C 
ATOM     55  C   UNL A   1      43.487  32.254  29.534  1.00  0.00     0.029 A 
ATOM     56  C   UNL A   1      44.514  31.515  28.968  1.00  0.00     0.049 A 
ATOM     57  H   UNL A   1      44.478  29.529  28.253  1.00  0.00     0.167 HD
ATOM     58  C   UNL A   1      46.834  31.122  28.174  1.00  0.00     0.074 A 
ATOM     59  C   UNL A   1      48.204  31.534  27.946  1.00  0.00     0.031 C 
ATOM     60  C   UNL A   1      45.881  31.918  28.724  1.00  0.00     0.034 A 
BRANCH  47  61
ATOM     61  C   UNL A   1      40.320  29.207  29.253  1.00  0.00     0.023 A 
ATOM     62  C   UNL A   1      39.899  29.148  30.594  1.00  0.00     0.031 A 
ATOM     63  C   UNL A   1      39.332  29.358  28.264  1.00  0.00     0.131 A 
ATOM     64  C   UNL A   1      38.530  29.158  30.902  1.00  0.00     0.055 A 
ATOM     65  C   UNL A   1      37.976  29.457  28.583  1.00  0.00     0.041 A 
ATOM     66  F   UNL A   1      39.666  29.396  26.964  1.00  0.00    -0.206 F 
ATOM     67  C   UNL A   1      37.567  29.340  29.908  1.00  0.00     0.022 A 
BRANCH  64  68
ATOM     68  S   UNL A   1      38.022  28.767  32.599  1.00  0.00     0.124 S 
ATOM     69  O   UNL A   1      36.653  29.279  32.622  1.00  0.00    -0.237 OA
ATOM     70  O   UNL A   1      38.163  27.317  32.644  1.00  0.00    -0.237 OA
ATOM     71  O   UNL A   1      38.972  29.513  33.421  1.00  0.00    -0.744 OA
ENDBRANCH  64  68
ENDBRANCH  47  61
BRANCH  48  72
ATOM     72  C   UNL A   1      49.811  28.026  26.223  1.00  0.00     0.023 A 
ATOM     73  C   UNL A   1      50.140  28.299  24.885  1.00  0.00     0.031 A 
ATOM     74  C   UNL A   1      50.833  27.567  27.072  1.00  0.00     0.131 A 
ATOM     75  C   UNL A   1      51.445  28.063  24.424  1.00  0.00     0.055 A 
ATOM     76  C   UNL A   1      52.144  27.391  26.623  1.00  0.00     0.041 A 
ATOM     77  F   UNL A   1      50.575  27.293  28.361  1.00  0.00    -0.206 F 
ATOM     78  C   UNL A   1      52.453  27.626  25.287  1.00  0.00     0.022 A 
BRANCH  75  79
ATOM     79  S   UNL A   1      51.787  28.247  22.652  1.00  0.00     0.124 S 
ATOM     80  O   UNL A   1      51.854  26.856  22.219  1.00  0.00    -0.237 OA
ATOM     81  O   UNL A   1      50.627  29.006  22.197  1.00  0.00    -0.237 OA
ATOM     82  O   UNL A   1      53.055  28.973  22.624  1.00  0.00    -0.744 OA
ENDBRANCH  75  79
ENDBRANCH  48  72
BRANCH  60  83
ATOM     83  C   UNL A   1      46.306  33.300  29.162  1.00  0.00     0.023 A 
ATOM     84  C   UNL A   1      46.230  34.410  28.303  1.00  0.00     0.031 A 
ATOM     85  C   UNL A   1      46.804  33.505  30.463  1.00  0.00     0.131 A 
ATOM     86  C   UNL A   1      46.699  35.660  28.734  1.00  0.00     0.055 A 
ATOM     87  C   UNL A   1      47.204  34.765  30.908  1.00  0.00     0.041 A 
ATOM     88  F   UNL A   1      46.904  32.481  31.326  1.00  0.00    -0.206 F 
ATOM     89  C   UNL A   1      47.165  35.849  30.036  1.00  0.00     0.022 A 
BRANCH  86  90
ATOM     90  S   UNL A   1      46.786  37.017  27.533  1.00  0.00     0.124 S 
ATOM     91  O   UNL A   1      46.186  38.120  28.278  1.00  0.00    -0.237 OA
ATOM     92  O   UNL A   1      48.220  37.123  27.284  1.00  0.00    -0.237 OA
ATOM     93  O   UNL A   1      45.996  36.529  26.405  1.00  0.00    -0.744 OA
ENDBRANCH  86  90
ENDBRANCH  60  83
ENDBRANCH  34  35
ENDBRANCH  26  29
ENDBRANCH  24  25
ENDBRANCH  23  24
ENDBRANCH  22  23
ENDBRANCH   1  22
TORSDOF 21
ENDMDL
