MODEL 1
REMARK VINA RESULT:     -10.9      0.000      0.000
REMARK SMILES CC(C)Cc1ccc([C@@H](C)C(=O)NCCCCCCNC(=O)c2ccc(-c3c4nc(c(-c5cc(S(=O)(=O)[O-])ccc5F)c5ccc([nH]5)c(-c5cc(S(=O)(=O)[O-])ccc5F)c5nc(c(-c6cc(S(=O)(=O)[O-])ccc6F)c6ccc3[nH]6)C=C5)C=C4)cc2)cc1
REMARK SMILES IDX 16 1 15 2 14 3 13 4 11 5 12 6 9 8 10 9 8 10 5 11 6 12 87 13
REMARK SMILES IDX 7 14 86 15 4 16 2 17 1 18 3 19 17 20 18 21 19 22 20 23 21 24
REMARK SMILES IDX 22 26 23 27 24 28 85 29 25 30 84 31 26 32 27 33 28 34 78 35
REMARK SMILES IDX 29 36 83 37 77 38 79 39 30 40 82 41 76 42 75 43 31 45 63 46
REMARK SMILES IDX 43 47 62 48 44 49 47 50 61 51 80 52 45 53 46 54 60 56 81 57
REMARK SMILES IDX 48 58 32 59 33 60 41 61 34 62 40 63 42 64 39 65 35 66 36 67
REMARK SMILES IDX 37 68 38 69 64 70 65 71 73 72 66 73 72 74 74 75 71 76 67 77
REMARK SMILES IDX 68 78 69 79 70 80 49 81 50 82 58 83 51 84 57 85 59 86 56 87
REMARK SMILES IDX 52 88 53 89 54 90 55 91
REMARK H PARENT 13 7 20 25 79 44 47 55
REMARK Flexibility Score: inf
ROOT
ATOM      1  C   UNL A   1      36.941  22.134  24.860  1.00  0.00     0.002 C 
ENDROOT
BRANCH   1   2
ATOM      2  C   UNL A   1      36.640  22.776  23.503  1.00  0.00     0.021 C 
BRANCH   2   3
ATOM      3  C   UNL A   1      35.351  23.598  23.484  1.00  0.00     0.116 C 
BRANCH   3   4
ATOM      4  N   UNL A   1      34.770  23.720  24.804  1.00  0.00    -0.356 N 
ATOM      5  C   UNL A   1      33.521  23.436  25.264  1.00  0.00     0.227 C 
ATOM      6  O   UNL A   1      33.289  23.719  26.447  1.00  0.00    -0.274 OA
ATOM      7  H   UNL A   1      35.386  24.067  25.489  1.00  0.00     0.163 HD
BRANCH   5   8
ATOM      8  C   UNL A   1      32.433  22.774  24.407  1.00  0.00     0.105 C 
ATOM      9  C   UNL A   1      31.015  23.252  24.724  1.00  0.00     0.023 C 
BRANCH   8  10
ATOM     10  C   UNL A   1      32.608  21.272  24.251  1.00  0.00    -0.036 A 
ATOM     11  C   UNL A   1      32.985  18.477  24.034  1.00  0.00    -0.048 A 
ATOM     12  C   UNL A   1      32.353  19.193  23.015  1.00  0.00     0.004 A 
ATOM     13  C   UNL A   1      33.404  19.159  25.180  1.00  0.00     0.004 A 
ATOM     14  C   UNL A   1      32.203  20.576  23.107  1.00  0.00     0.005 A 
ATOM     15  C   UNL A   1      33.203  20.538  25.292  1.00  0.00     0.005 A 
BRANCH  11  16
ATOM     16  C   UNL A   1      33.281  17.009  23.843  1.00  0.00     0.038 C 
BRANCH  16  17
ATOM     17  C   UNL A   1      33.544  16.296  25.187  1.00  0.00    -0.013 C 
ATOM     18  C   UNL A   1      32.618  15.092  25.382  1.00  0.00     0.008 C 
ATOM     19  C   UNL A   1      35.004  15.861  25.285  1.00  0.00     0.008 C 
ENDBRANCH  16  17
ENDBRANCH  11  16
ENDBRANCH   8  10
ENDBRANCH   5   8
ENDBRANCH   3   4
ENDBRANCH   2   3
ENDBRANCH   1   2
BRANCH   1  20
ATOM     20  C   UNL A   1      36.707  20.619  24.927  1.00  0.00     0.002 C 
BRANCH  20  21
ATOM     21  C   UNL A   1      37.975  19.759  24.966  1.00  0.00     0.021 C 
BRANCH  21  22
ATOM     22  C   UNL A   1      39.018  20.208  25.987  1.00  0.00     0.116 C 
BRANCH  22  23
ATOM     23  N   UNL A   1      40.121  19.265  26.075  1.00  0.00    -0.352 N 
ATOM     24  C   UNL A   1      41.472  19.501  26.136  1.00  0.00     0.251 C 
ATOM     25  H   UNL A   1      39.861  18.315  26.093  1.00  0.00     0.163 HD
ATOM     26  O   UNL A   1      42.258  18.579  25.938  1.00  0.00    -0.269 OA
BRANCH  24  27
ATOM     27  C   UNL A   1      41.975  20.861  26.429  1.00  0.00     0.039 A 
ATOM     28  C   UNL A   1      42.121  21.772  25.380  1.00  0.00     0.014 A 
ATOM     29  C   UNL A   1      42.334  21.227  27.730  1.00  0.00     0.014 A 
ATOM     30  C   UNL A   1      42.576  23.066  25.643  1.00  0.00     0.010 A 
ATOM     31  C   UNL A   1      42.725  22.536  28.001  1.00  0.00     0.010 A 
ATOM     32  C   UNL A   1      42.853  23.469  26.960  1.00  0.00    -0.014 A 
BRANCH  32  33
ATOM     33  C   UNL A   1      43.294  24.856  27.267  1.00  0.00     0.031 A 
ATOM     34  C   UNL A   1      42.341  25.820  27.922  1.00  0.00     0.074 A 
ATOM     35  C   UNL A   1      44.528  25.261  26.907  1.00  0.00     0.049 A 
ATOM     36  N   UNL A   1      42.500  27.092  28.186  1.00  0.00    -0.248 NA
ATOM     37  C   UNL A   1      41.024  25.288  28.307  1.00  0.00     0.031 C 
ATOM     38  C   UNL A   1      45.531  24.425  26.244  1.00  0.00     0.029 A 
ATOM     39  N   UNL A   1      45.149  26.478  27.039  1.00  0.00    -0.354 N 
ATOM     40  C   UNL A   1      41.306  27.513  28.762  1.00  0.00     0.074 A 
ATOM     41  C   UNL A   1      40.411  26.376  28.750  1.00  0.00     0.031 C 
ATOM     42  C   UNL A   1      46.646  25.147  26.045  1.00  0.00     0.029 A 
ATOM     43  C   UNL A   1      46.424  26.509  26.521  1.00  0.00     0.049 A 
ATOM     44  H   UNL A   1      44.722  27.256  27.465  1.00  0.00     0.167 HD
ATOM     45  C   UNL A   1      40.993  28.730  29.274  1.00  0.00     0.034 A 
ATOM     46  C   UNL A   1      47.306  27.524  26.424  1.00  0.00     0.034 A 
ATOM     47  C   UNL A   1      41.900  29.852  29.289  1.00  0.00     0.049 A 
ATOM     48  C   UNL A   1      46.919  28.878  26.968  1.00  0.00     0.074 A 
ATOM     49  C   UNL A   1      41.697  31.117  29.810  1.00  0.00     0.029 A 
ATOM     50  N   UNL A   1      43.183  29.844  28.757  1.00  0.00    -0.354 N 
ATOM     51  N   UNL A   1      45.796  29.249  27.540  1.00  0.00    -0.248 NA
ATOM     52  C   UNL A   1      47.921  29.947  26.865  1.00  0.00     0.031 C 
ATOM     53  C   UNL A   1      42.830  31.892  29.540  1.00  0.00     0.029 A 
ATOM     54  C   UNL A   1      43.772  31.090  28.917  1.00  0.00     0.049 A 
ATOM     55  H   UNL A   1      43.612  29.069  28.328  1.00  0.00     0.167 HD
ATOM     56  C   UNL A   1      45.976  30.583  27.898  1.00  0.00     0.074 A 
ATOM     57  C   UNL A   1      47.319  30.944  27.494  1.00  0.00     0.031 C 
ATOM     58  C   UNL A   1      45.113  31.433  28.509  1.00  0.00     0.034 A 
BRANCH  45  59
ATOM     59  C   UNL A   1      39.607  28.911  29.845  1.00  0.00     0.023 A 
ATOM     60  C   UNL A   1      38.574  29.500  29.095  1.00  0.00     0.031 A 
ATOM     61  C   UNL A   1      39.313  28.490  31.154  1.00  0.00     0.131 A 
ATOM     62  C   UNL A   1      37.316  29.711  29.681  1.00  0.00     0.055 A 
ATOM     63  C   UNL A   1      38.038  28.632  31.704  1.00  0.00     0.041 A 
ATOM     64  F   UNL A   1      40.265  27.939  31.924  1.00  0.00    -0.206 F 
ATOM     65  C   UNL A   1      37.033  29.256  30.971  1.00  0.00     0.022 A 
BRANCH  62  66
ATOM     66  S   UNL A   1      36.093  30.695  28.774  1.00  0.00     0.124 S 
ATOM     67  O   UNL A   1      36.950  31.588  27.999  1.00  0.00    -0.237 OA
ATOM     68  O   UNL A   1      35.371  29.681  28.014  1.00  0.00    -0.237 OA
ATOM     69  O   UNL A   1      35.323  31.345  29.834  1.00  0.00    -0.744 OA
ENDBRANCH  62  66
ENDBRANCH  45  59
BRANCH  46  70
ATOM     70  C   UNL A   1      48.637  27.322  25.780  1.00  0.00     0.023 A 
ATOM     71  C   UNL A   1      48.826  27.588  24.415  1.00  0.00     0.031 A 
ATOM     72  C   UNL A   1      49.720  26.789  26.501  1.00  0.00     0.131 A 
ATOM     73  C   UNL A   1      50.042  27.258  23.798  1.00  0.00     0.055 A 
ATOM     74  C   UNL A   1      50.951  26.523  25.897  1.00  0.00     0.041 A 
ATOM     75  F   UNL A   1      49.600  26.518  27.810  1.00  0.00    -0.206 F 
ATOM     76  C   UNL A   1      51.111  26.740  24.531  1.00  0.00     0.022 A 
BRANCH  73  77
ATOM     77  S   UNL A   1      50.166  27.402  21.993  1.00  0.00     0.124 S 
ATOM     78  O   UNL A   1      49.078  26.535  21.552  1.00  0.00    -0.237 OA
ATOM     79  O   UNL A   1      49.968  28.834  21.791  1.00  0.00    -0.237 OA
ATOM     80  O   UNL A   1      51.512  26.913  21.704  1.00  0.00    -0.744 OA
ENDBRANCH  73  77
ENDBRANCH  46  70
BRANCH  58  81
ATOM     81  C   UNL A   1      45.623  32.817  28.827  1.00  0.00     0.023 A 
ATOM     82  C   UNL A   1      45.411  33.903  27.961  1.00  0.00     0.031 A 
ATOM     83  C   UNL A   1      46.342  33.047  30.015  1.00  0.00     0.131 A 
ATOM     84  C   UNL A   1      45.964  35.157  28.264  1.00  0.00     0.055 A 
ATOM     85  C   UNL A   1      46.835  34.310  30.341  1.00  0.00     0.041 A 
ATOM     86  F   UNL A   1      46.573  32.046  30.878  1.00  0.00    -0.206 F 
ATOM     87  C   UNL A   1      46.660  35.371  29.457  1.00  0.00     0.022 A 
BRANCH  84  88
ATOM     88  S   UNL A   1      45.840  36.484  27.034  1.00  0.00     0.124 S 
ATOM     89  O   UNL A   1      46.247  37.653  27.807  1.00  0.00    -0.237 OA
ATOM     90  O   UNL A   1      46.777  36.043  26.005  1.00  0.00    -0.237 OA
ATOM     91  O   UNL A   1      44.432  36.457  26.642  1.00  0.00    -0.744 OA
ENDBRANCH  84  88
ENDBRANCH  58  81
ENDBRANCH  32  33
ENDBRANCH  24  27
ENDBRANCH  22  23
ENDBRANCH  21  22
ENDBRANCH  20  21
ENDBRANCH   1  20
TORSDOF 19
ENDMDL
MODEL 2
REMARK VINA RESULT:     -10.9      0.885      7.641
REMARK SMILES CC(C)Cc1ccc([C@@H](C)C(=O)NCCCCCCNC(=O)c2ccc(-c3c4nc(c(-c5cc(S(=O)(=O)[O-])ccc5F)c5ccc([nH]5)c(-c5cc(S(=O)(=O)[O-])ccc5F)c5nc(c(-c6cc(S(=O)(=O)[O-])ccc6F)c6ccc3[nH]6)C=C5)C=C4)cc2)cc1
REMARK SMILES IDX 16 1 15 2 14 3 13 4 11 5 12 6 9 8 10 9 8 10 5 11 6 12 87 13
REMARK SMILES IDX 7 14 86 15 4 16 2 17 1 18 3 19 17 20 18 21 19 22 20 23 21 24
REMARK SMILES IDX 22 26 23 27 24 28 85 29 25 30 84 31 26 32 27 33 28 34 78 35
REMARK SMILES IDX 29 36 83 37 77 38 79 39 30 40 82 41 76 42 75 43 31 45 63 46
REMARK SMILES IDX 43 47 62 48 44 49 47 50 61 51 80 52 45 53 46 54 60 56 81 57
REMARK SMILES IDX 48 58 32 59 33 60 41 61 34 62 40 63 42 64 39 65 35 66 36 67
REMARK SMILES IDX 37 68 38 69 64 70 65 71 73 72 66 73 72 74 74 75 71 76 67 77
REMARK SMILES IDX 68 78 69 79 70 80 49 81 50 82 58 83 51 84 57 85 59 86 56 87
REMARK SMILES IDX 52 88 53 89 54 90 55 91
REMARK H PARENT 13 7 20 25 79 44 47 55
REMARK Flexibility Score: inf
ROOT
ATOM      1  C   UNL A   1      36.657  21.831  24.858  1.00  0.00     0.002 C 
ENDROOT
BRANCH   1   2
ATOM      2  C   UNL A   1      36.024  22.519  23.645  1.00  0.00     0.021 C 
BRANCH   2   3
ATOM      3  C   UNL A   1      35.360  23.857  23.973  1.00  0.00     0.116 C 
BRANCH   3   4
ATOM      4  N   UNL A   1      34.726  23.839  25.274  1.00  0.00    -0.356 N 
ATOM      5  C   UNL A   1      33.473  23.469  25.656  1.00  0.00     0.227 C 
ATOM      6  O   UNL A   1      33.185  23.637  26.848  1.00  0.00    -0.274 OA
ATOM      7  H   UNL A   1      35.301  24.146  26.011  1.00  0.00     0.163 HD
BRANCH   5   8
ATOM      8  C   UNL A   1      32.445  22.847  24.701  1.00  0.00     0.105 C 
ATOM      9  C   UNL A   1      31.017  23.349  24.911  1.00  0.00     0.023 C 
BRANCH   8  10
ATOM     10  C   UNL A   1      32.603  21.344  24.529  1.00  0.00    -0.036 A 
ATOM     11  C   UNL A   1      32.861  18.556  24.127  1.00  0.00    -0.048 A 
ATOM     12  C   UNL A   1      33.124  19.125  25.375  1.00  0.00     0.004 A 
ATOM     13  C   UNL A   1      32.495  19.392  23.067  1.00  0.00     0.004 A 
ATOM     14  C   UNL A   1      32.958  20.494  25.581  1.00  0.00     0.005 A 
ATOM     15  C   UNL A   1      32.384  20.771  23.264  1.00  0.00     0.005 A 
BRANCH  11  16
ATOM     16  C   UNL A   1      32.888  17.055  23.969  1.00  0.00     0.038 C 
BRANCH  16  17
ATOM     17  C   UNL A   1      33.380  16.351  25.252  1.00  0.00    -0.013 C 
ATOM     18  C   UNL A   1      32.502  15.150  25.613  1.00  0.00     0.008 C 
ATOM     19  C   UNL A   1      34.835  15.914  25.097  1.00  0.00     0.008 C 
ENDBRANCH  16  17
ENDBRANCH  11  16
ENDBRANCH   8  10
ENDBRANCH   5   8
ENDBRANCH   3   4
ENDBRANCH   2   3
ENDBRANCH   1   2
BRANCH   1  20
ATOM     20  C   UNL A   1      36.547  20.301  24.866  1.00  0.00     0.002 C 
BRANCH  20  21
ATOM     21  C   UNL A   1      37.875  19.547  24.996  1.00  0.00     0.021 C 
BRANCH  21  22
ATOM     22  C   UNL A   1      38.996  20.343  25.660  1.00  0.00     0.116 C 
BRANCH  22  23
ATOM     23  N   UNL A   1      40.086  19.479  26.085  1.00  0.00    -0.352 N 
ATOM     24  C   UNL A   1      41.376  19.800  26.426  1.00  0.00     0.251 C 
ATOM     25  H   UNL A   1      39.866  18.520  26.135  1.00  0.00     0.163 HD
ATOM     26  O   UNL A   1      42.222  18.914  26.501  1.00  0.00    -0.269 OA
BRANCH  24  27
ATOM     27  C   UNL A   1      41.745  21.208  26.692  1.00  0.00     0.039 A 
ATOM     28  C   UNL A   1      41.868  22.092  25.617  1.00  0.00     0.014 A 
ATOM     29  C   UNL A   1      42.001  21.648  27.994  1.00  0.00     0.014 A 
ATOM     30  C   UNL A   1      42.196  23.430  25.854  1.00  0.00     0.010 A 
ATOM     31  C   UNL A   1      42.263  22.995  28.234  1.00  0.00     0.010 A 
ATOM     32  C   UNL A   1      42.367  23.900  27.166  1.00  0.00    -0.014 A 
BRANCH  32  33
ATOM     33  C   UNL A   1      42.670  25.329  27.442  1.00  0.00     0.031 A 
ATOM     34  C   UNL A   1      44.035  25.883  27.133  1.00  0.00     0.074 A 
ATOM     35  C   UNL A   1      41.736  26.112  28.019  1.00  0.00     0.049 A 
ATOM     36  N   UNL A   1      44.524  27.071  27.383  1.00  0.00    -0.248 NA
ATOM     37  C   UNL A   1      44.985  24.969  26.477  1.00  0.00     0.031 C 
ATOM     38  C   UNL A   1      40.386  25.681  28.389  1.00  0.00     0.029 A 
ATOM     39  N   UNL A   1      41.779  27.428  28.405  1.00  0.00    -0.354 N 
ATOM     40  C   UNL A   1      45.836  27.045  26.922  1.00  0.00     0.074 A 
ATOM     41  C   UNL A   1      46.085  25.706  26.435  1.00  0.00     0.031 C 
ATOM     42  C   UNL A   1      39.725  26.719  28.929  1.00  0.00     0.029 A 
ATOM     43  C   UNL A   1      40.615  27.874  28.990  1.00  0.00     0.049 A 
ATOM     44  H   UNL A   1      42.569  28.001  28.276  1.00  0.00     0.167 HD
ATOM     45  C   UNL A   1      46.744  28.054  26.888  1.00  0.00     0.034 A 
ATOM     46  C   UNL A   1      40.307  29.070  29.529  1.00  0.00     0.034 A 
ATOM     47  C   UNL A   1      46.478  29.389  27.367  1.00  0.00     0.049 A 
ATOM     48  C   UNL A   1      41.348  30.164  29.512  1.00  0.00     0.074 A 
ATOM     49  C   UNL A   1      47.313  30.492  27.351  1.00  0.00     0.029 A 
ATOM     50  N   UNL A   1      45.287  29.802  27.951  1.00  0.00    -0.354 N 
ATOM     51  N   UNL A   1      42.574  30.132  29.042  1.00  0.00    -0.248 NA
ATOM     52  C   UNL A   1      40.959  31.459  30.087  1.00  0.00     0.031 C 
ATOM     53  C   UNL A   1      46.652  31.554  27.978  1.00  0.00     0.029 A 
ATOM     54  C   UNL A   1      45.375  31.136  28.318  1.00  0.00     0.049 A 
ATOM     55  H   UNL A   1      44.496  29.232  28.084  1.00  0.00     0.167 HD
ATOM     56  C   UNL A   1      43.085  31.414  29.230  1.00  0.00     0.074 A 
ATOM     57  C   UNL A   1      42.031  32.196  29.841  1.00  0.00     0.031 C 
ATOM     58  C   UNL A   1      44.313  31.903  28.925  1.00  0.00     0.034 A 
BRANCH  45  59
ATOM     59  C   UNL A   1      48.111  27.744  26.327  1.00  0.00     0.023 A 
ATOM     60  C   UNL A   1      48.366  27.790  24.945  1.00  0.00     0.031 A 
ATOM     61  C   UNL A   1      49.172  27.399  27.182  1.00  0.00     0.131 A 
ATOM     62  C   UNL A   1      49.631  27.433  24.455  1.00  0.00     0.055 A 
ATOM     63  C   UNL A   1      50.450  27.121  26.694  1.00  0.00     0.041 A 
ATOM     64  F   UNL A   1      48.983  27.319  28.509  1.00  0.00    -0.206 F 
ATOM     65  C   UNL A   1      50.683  27.125  25.321  1.00  0.00     0.022 A 
BRANCH  62  66
ATOM     66  S   UNL A   1      49.849  27.261  22.663  1.00  0.00     0.124 S 
ATOM     67  O   UNL A   1      49.632  28.632  22.208  1.00  0.00    -0.237 OA
ATOM     68  O   UNL A   1      51.215  26.760  22.557  1.00  0.00    -0.237 OA
ATOM     69  O   UNL A   1      48.805  26.312  22.281  1.00  0.00    -0.744 OA
ENDBRANCH  62  66
ENDBRANCH  45  59
BRANCH  46  70
ATOM     70  C   UNL A   1      38.970  29.309  30.147  1.00  0.00     0.023 A 
ATOM     71  C   UNL A   1      37.984  30.045  29.471  1.00  0.00     0.031 A 
ATOM     72  C   UNL A   1      38.683  28.871  31.452  1.00  0.00     0.131 A 
ATOM     73  C   UNL A   1      36.787  30.379  30.124  1.00  0.00     0.055 A 
ATOM     74  C   UNL A   1      37.465  29.150  32.075  1.00  0.00     0.041 A 
ATOM     75  F   UNL A   1      39.587  28.161  32.146  1.00  0.00    -0.206 F 
ATOM     76  C   UNL A   1      36.515  29.926  31.416  1.00  0.00     0.022 A 
BRANCH  73  77
ATOM     77  S   UNL A   1      35.642  31.521  29.302  1.00  0.00     0.124 S 
ATOM     78  O   UNL A   1      34.990  32.157  30.442  1.00  0.00    -0.237 OA
ATOM     79  O   UNL A   1      36.554  32.360  28.532  1.00  0.00    -0.237 OA
ATOM     80  O   UNL A   1      34.790  30.637  28.509  1.00  0.00    -0.744 OA
ENDBRANCH  73  77
ENDBRANCH  46  70
BRANCH  58  81
ATOM     81  C   UNL A   1      44.555  33.368  29.194  1.00  0.00     0.023 A 
ATOM     82  C   UNL A   1      44.047  34.371  28.352  1.00  0.00     0.031 A 
ATOM     83  C   UNL A   1      45.318  33.762  30.309  1.00  0.00     0.131 A 
ATOM     84  C   UNL A   1      44.356  35.716  28.602  1.00  0.00     0.055 A 
ATOM     85  C   UNL A   1      45.570  35.105  30.588  1.00  0.00     0.041 A 
ATOM     86  F   UNL A   1      45.829  32.846  31.146  1.00  0.00    -0.206 F 
ATOM     87  C   UNL A   1      45.100  36.091  29.725  1.00  0.00     0.022 A 
BRANCH  84  88
ATOM     88  S   UNL A   1      43.850  36.967  27.390  1.00  0.00     0.124 S 
ATOM     89  O   UNL A   1      42.971  37.821  28.183  1.00  0.00    -0.237 OA
ATOM     90  O   UNL A   1      45.126  37.556  26.998  1.00  0.00    -0.237 OA
ATOM     91  O   UNL A   1      43.183  36.185  26.350  1.00  0.00    -0.744 OA
ENDBRANCH  84  88
ENDBRANCH  58  81
ENDBRANCH  32  33
ENDBRANCH  24  27
ENDBRANCH  22  23
ENDBRANCH  21  22
ENDBRANCH  20  21
ENDBRANCH   1  20
TORSDOF 19
ENDMDL
MODEL 3
REMARK VINA RESULT:     -10.6      5.354      8.787
REMARK SMILES CC(C)Cc1ccc([C@@H](C)C(=O)NCCCCCCNC(=O)c2ccc(-c3c4nc(c(-c5cc(S(=O)(=O)[O-])ccc5F)c5ccc([nH]5)c(-c5cc(S(=O)(=O)[O-])ccc5F)c5nc(c(-c6cc(S(=O)(=O)[O-])ccc6F)c6ccc3[nH]6)C=C5)C=C4)cc2)cc1
REMARK SMILES IDX 16 1 15 2 14 3 13 4 11 5 12 6 9 8 10 9 8 10 5 11 6 12 87 13
REMARK SMILES IDX 7 14 86 15 4 16 2 17 1 18 3 19 17 20 18 21 19 22 20 23 21 24
REMARK SMILES IDX 22 26 23 27 24 28 85 29 25 30 84 31 26 32 27 33 28 34 78 35
REMARK SMILES IDX 29 36 83 37 77 38 79 39 30 40 82 41 76 42 75 43 31 45 63 46
REMARK SMILES IDX 43 47 62 48 44 49 47 50 61 51 80 52 45 53 46 54 60 56 81 57
REMARK SMILES IDX 48 58 32 59 33 60 41 61 34 62 40 63 42 64 39 65 35 66 36 67
REMARK SMILES IDX 37 68 38 69 64 70 65 71 73 72 66 73 72 74 74 75 71 76 67 77
REMARK SMILES IDX 68 78 69 79 70 80 49 81 50 82 58 83 51 84 57 85 59 86 56 87
REMARK SMILES IDX 52 88 53 89 54 90 55 91
REMARK H PARENT 13 7 20 25 79 44 47 55
REMARK Flexibility Score: inf
ROOT
ATOM      1  C   UNL A   1      34.015  26.073  24.507  1.00  0.00     0.002 C 
ENDROOT
BRANCH   1   2
ATOM      2  C   UNL A   1      34.660  25.317  25.671  1.00  0.00     0.021 C 
BRANCH   2   3
ATOM      3  C   UNL A   1      34.413  23.808  25.637  1.00  0.00     0.116 C 
BRANCH   3   4
ATOM      4  N   UNL A   1      33.713  23.350  26.819  1.00  0.00    -0.356 N 
ATOM      5  C   UNL A   1      32.457  22.854  26.981  1.00  0.00     0.227 C 
ATOM      6  O   UNL A   1      32.101  22.614  28.143  1.00  0.00    -0.274 OA
ATOM      7  H   UNL A   1      34.238  23.407  27.649  1.00  0.00     0.163 HD
BRANCH   5   8
ATOM      8  C   UNL A   1      31.503  22.564  25.814  1.00  0.00     0.105 C 
ATOM      9  C   UNL A   1      31.882  21.332  24.992  1.00  0.00     0.023 C 
BRANCH   8  10
ATOM     10  C   UNL A   1      31.119  23.801  25.018  1.00  0.00    -0.036 A 
ATOM     11  C   UNL A   1      30.444  26.066  23.463  1.00  0.00    -0.048 A 
ATOM     12  C   UNL A   1      30.237  26.061  24.844  1.00  0.00     0.004 A 
ATOM     13  C   UNL A   1      30.964  24.920  22.853  1.00  0.00     0.004 A 
ATOM     14  C   UNL A   1      30.607  24.959  25.613  1.00  0.00     0.005 A 
ATOM     15  C   UNL A   1      31.282  23.797  23.621  1.00  0.00     0.005 A 
BRANCH  11  16
ATOM     16  C   UNL A   1      30.189  27.327  22.674  1.00  0.00     0.038 C 
BRANCH  16  17
ATOM     17  C   UNL A   1      29.568  28.437  23.549  1.00  0.00    -0.013 C 
ATOM     18  C   UNL A   1      30.606  29.485  23.960  1.00  0.00     0.008 C 
ATOM     19  C   UNL A   1      28.404  29.104  22.820  1.00  0.00     0.008 C 
ENDBRANCH  16  17
ENDBRANCH  11  16
ENDBRANCH   8  10
ENDBRANCH   5   8
ENDBRANCH   3   4
ENDBRANCH   2   3
ENDBRANCH   1   2
BRANCH   1  20
ATOM     20  C   UNL A   1      33.569  27.506  24.831  1.00  0.00     0.002 C 
BRANCH  20  21
ATOM     21  C   UNL A   1      34.276  28.159  26.023  1.00  0.00     0.021 C 
BRANCH  21  22
ATOM     22  C   UNL A   1      33.338  28.705  27.098  1.00  0.00     0.116 C 
BRANCH  22  23
ATOM     23  N   UNL A   1      33.414  30.154  27.188  1.00  0.00    -0.352 N 
ATOM     24  C   UNL A   1      34.346  30.944  27.814  1.00  0.00     0.251 C 
ATOM     25  H   UNL A   1      32.689  30.641  26.734  1.00  0.00     0.163 HD
ATOM     26  O   UNL A   1      34.101  32.131  28.009  1.00  0.00    -0.269 OA
BRANCH  24  27
ATOM     27  C   UNL A   1      35.632  30.365  28.260  1.00  0.00     0.039 A 
ATOM     28  C   UNL A   1      36.744  30.456  27.419  1.00  0.00     0.014 A 
ATOM     29  C   UNL A   1      35.733  29.705  29.488  1.00  0.00     0.014 A 
ATOM     30  C   UNL A   1      37.972  29.931  27.834  1.00  0.00     0.010 A 
ATOM     31  C   UNL A   1      36.971  29.241  29.928  1.00  0.00     0.010 A 
ATOM     32  C   UNL A   1      38.103  29.346  29.104  1.00  0.00    -0.014 A 
BRANCH  32  33
ATOM     33  C   UNL A   1      39.411  28.825  29.583  1.00  0.00     0.031 A 
ATOM     34  C   UNL A   1      40.151  29.542  30.680  1.00  0.00     0.074 A 
ATOM     35  C   UNL A   1      39.955  27.742  28.993  1.00  0.00     0.049 A 
ATOM     36  N   UNL A   1      41.340  29.302  31.172  1.00  0.00    -0.248 NA
ATOM     37  C   UNL A   1      39.471  30.698  31.288  1.00  0.00     0.031 C 
ATOM     38  C   UNL A   1      39.345  26.978  27.902  1.00  0.00     0.029 A 
ATOM     39  N   UNL A   1      41.146  27.098  29.219  1.00  0.00    -0.354 N 
ATOM     40  C   UNL A   1      41.554  30.278  32.140  1.00  0.00     0.074 A 
ATOM     41  C   UNL A   1      40.398  31.149  32.121  1.00  0.00     0.031 C 
ATOM     42  C   UNL A   1      40.155  25.960  27.569  1.00  0.00     0.029 A 
ATOM     43  C   UNL A   1      41.364  26.024  28.385  1.00  0.00     0.049 A 
ATOM     44  H   UNL A   1      41.786  27.378  29.913  1.00  0.00     0.167 HD
ATOM     45  C   UNL A   1      42.608  30.421  32.982  1.00  0.00     0.034 A 
ATOM     46  C   UNL A   1      42.424  25.198  28.279  1.00  0.00     0.034 A 
ATOM     47  C   UNL A   1      43.749  29.538  32.998  1.00  0.00     0.049 A 
ATOM     48  C   UNL A   1      43.600  25.402  29.203  1.00  0.00     0.074 A 
ATOM     49  C   UNL A   1      44.854  29.572  33.829  1.00  0.00     0.029 A 
ATOM     50  N   UNL A   1      43.932  28.461  32.139  1.00  0.00    -0.354 N 
ATOM     51  N   UNL A   1      43.771  26.311  30.136  1.00  0.00    -0.248 NA
ATOM     52  C   UNL A   1      44.721  24.462  29.069  1.00  0.00     0.031 C 
ATOM     53  C   UNL A   1      45.733  28.557  33.435  1.00  0.00     0.029 A 
ATOM     54  C   UNL A   1      45.143  27.840  32.408  1.00  0.00     0.049 A 
ATOM     55  H   UNL A   1      43.297  28.179  31.443  1.00  0.00     0.167 HD
ATOM     56  C   UNL A   1      45.000  26.024  30.723  1.00  0.00     0.074 A 
ATOM     57  C   UNL A   1      45.518  24.851  30.052  1.00  0.00     0.031 C 
ATOM     58  C   UNL A   1      45.644  26.669  31.729  1.00  0.00     0.034 A 
BRANCH  45  59
ATOM     59  C   UNL A   1      42.579  31.583  33.945  1.00  0.00     0.023 A 
ATOM     60  C   UNL A   1      41.889  31.509  35.168  1.00  0.00     0.031 A 
ATOM     61  C   UNL A   1      43.248  32.782  33.638  1.00  0.00     0.131 A 
ATOM     62  C   UNL A   1      41.830  32.631  36.008  1.00  0.00     0.055 A 
ATOM     63  C   UNL A   1      43.250  33.868  34.514  1.00  0.00     0.041 A 
ATOM     64  F   UNL A   1      43.906  32.918  32.476  1.00  0.00    -0.206 F 
ATOM     65  C   UNL A   1      42.528  33.802  35.702  1.00  0.00     0.022 A 
BRANCH  62  66
ATOM     66  S   UNL A   1      40.728  32.579  37.447  1.00  0.00     0.124 S 
ATOM     67  O   UNL A   1      40.348  33.984  37.577  1.00  0.00    -0.237 OA
ATOM     68  O   UNL A   1      39.676  31.670  37.007  1.00  0.00    -0.237 OA
ATOM     69  O   UNL A   1      41.585  32.071  38.517  1.00  0.00    -0.744 OA
ENDBRANCH  62  66
ENDBRANCH  45  59
BRANCH  46  70
ATOM     70  C   UNL A   1      42.446  24.110  27.258  1.00  0.00     0.023 A 
ATOM     71  C   UNL A   1      41.800  22.886  27.493  1.00  0.00     0.031 A 
ATOM     72  C   UNL A   1      43.175  24.248  26.064  1.00  0.00     0.131 A 
ATOM     73  C   UNL A   1      41.951  21.827  26.584  1.00  0.00     0.055 A 
ATOM     74  C   UNL A   1      43.269  23.213  25.130  1.00  0.00     0.041 A 
ATOM     75  F   UNL A   1      43.811  25.397  25.783  1.00  0.00    -0.206 F 
ATOM     76  C   UNL A   1      42.670  21.986  25.399  1.00  0.00     0.022 A 
BRANCH  73  77
ATOM     77  S   UNL A   1      41.294  20.197  27.037  1.00  0.00     0.124 S 
ATOM     78  O   UNL A   1      40.221  20.030  26.063  1.00  0.00    -0.237 OA
ATOM     79  O   UNL A   1      42.463  19.342  26.858  1.00  0.00    -0.237 OA
ATOM     80  O   UNL A   1      40.860  20.378  28.420  1.00  0.00    -0.744 OA
ENDBRANCH  73  77
ENDBRANCH  46  70
BRANCH  58  81
ATOM     81  C   UNL A   1      46.951  26.077  32.198  1.00  0.00     0.023 A 
ATOM     82  C   UNL A   1      47.013  25.175  33.273  1.00  0.00     0.031 A 
ATOM     83  C   UNL A   1      48.154  26.435  31.562  1.00  0.00     0.131 A 
ATOM     84  C   UNL A   1      48.258  24.705  33.719  1.00  0.00     0.055 A 
ATOM     85  C   UNL A   1      49.382  25.915  31.970  1.00  0.00     0.041 A 
ATOM     86  F   UNL A   1      48.153  27.293  30.530  1.00  0.00    -0.206 F 
ATOM     87  C   UNL A   1      49.441  25.056  33.064  1.00  0.00     0.022 A 
BRANCH  84  88
ATOM     88  S   UNL A   1      48.319  23.699  35.228  1.00  0.00     0.124 S 
ATOM     89  O   UNL A   1      49.673  23.957  35.709  1.00  0.00    -0.237 OA
ATOM     90  O   UNL A   1      47.240  24.270  36.027  1.00  0.00    -0.237 OA
ATOM     91  O   UNL A   1      48.080  22.341  34.744  1.00  0.00    -0.744 OA
ENDBRANCH  84  88
ENDBRANCH  58  81
ENDBRANCH  32  33
ENDBRANCH  24  27
ENDBRANCH  22  23
ENDBRANCH  21  22
ENDBRANCH  20  21
ENDBRANCH   1  20
TORSDOF 19
ENDMDL
