MODEL 1
REMARK VINA RESULT:     -11.8      0.000      0.000
REMARK SMILES COc1ccc(NC(=O)[C@@H]2CC=CC[C@H]2C(=O)NCCCCCCNC(=O)c2ccc(-c3c4nc(c(-c5cc(S(=O)(=O)[O-])ccc5F)c5ccc([nH]5)c(-c5cc(S(=O)(=O)[O-])ccc5F)c5nc(c(-c6cc(S(=O)(=O)[O-])ccc6F)c6ccc3[nH]6)C=C5)C=C4)cc2)cc1Cl
REMARK SMILES IDX 21 1 20 2 19 3 18 4 16 5 17 6 15 8 10 9 11 10 12 11 14 12
REMARK SMILES IDX 13 13 8 14 7 15 9 17 6 18 3 19 4 20 92 21 5 22 91 23 93 24
REMARK SMILES IDX 2 25 1 26 22 27 23 28 24 29 25 30 26 31 27 33 28 34 29 35
REMARK SMILES IDX 90 36 30 37 89 38 31 39 32 40 33 41 83 42 34 43 88 44 82 45
REMARK SMILES IDX 84 46 35 47 87 48 81 49 80 50 36 52 68 53 48 54 67 55 49 56
REMARK SMILES IDX 52 57 66 58 85 59 50 60 51 61 65 63 86 64 53 65 37 66 38 67
REMARK SMILES IDX 46 68 39 69 45 70 47 71 44 72 40 73 41 74 42 75 43 76 69 77
REMARK SMILES IDX 70 78 78 79 71 80 77 81 79 82 76 83 72 84 73 85 74 86 75 87
REMARK SMILES IDX 54 88 55 89 63 90 56 91 62 92 64 93 61 94 57 95 58 96 59 97
REMARK SMILES IDX 60 98
REMARK H PARENT 18 7 7 16 25 32 84 51 52 62
REMARK Flexibility Score: inf
ROOT
ATOM      1  C   UNL A   1      37.487  22.034  25.328  1.00  0.00     0.002 C 
ENDROOT
BRANCH   1   2
ATOM      2  C   UNL A   1      36.627  23.149  24.707  1.00  0.00     0.021 C 
BRANCH   2   3
ATOM      3  C   UNL A   1      35.615  23.789  25.657  1.00  0.00     0.116 C 
BRANCH   3   4
ATOM      4  N   UNL A   1      35.306  22.873  26.725  1.00  0.00    -0.356 N 
ATOM      5  C   UNL A   1      34.061  22.552  27.139  1.00  0.00     0.224 C 
ATOM      6  O   UNL A   1      33.880  22.646  28.349  1.00  0.00    -0.275 OA
ATOM      7  H   UNL A   1      36.062  22.447  27.190  1.00  0.00     0.163 HD
BRANCH   5   8
ATOM      8  C   UNL A   1      32.981  22.113  26.151  1.00  0.00     0.095 C 
ATOM      9  C   UNL A   1      32.193  23.304  25.587  1.00  0.00     0.095 C 
ATOM     10  C   UNL A   1      31.511  23.008  24.224  1.00  0.00     0.041 C 
ATOM     11  C   UNL A   1      32.130  21.971  23.351  1.00  0.00    -0.030 C 
ATOM     12  C   UNL A   1      33.585  21.084  25.158  1.00  0.00     0.041 C 
ATOM     13  C   UNL A   1      33.052  21.105  23.771  1.00  0.00    -0.030 C 
BRANCH   9  14
ATOM     14  C   UNL A   1      31.102  24.072  26.399  1.00  0.00     0.228 C 
ATOM     15  N   UNL A   1      30.468  25.244  26.146  1.00  0.00    -0.326 N 
ATOM     16  H   UNL A   1      29.710  25.396  26.754  1.00  0.00     0.169 HD
ATOM     17  O   UNL A   1      30.626  23.480  27.389  1.00  0.00    -0.274 OA
BRANCH  15  18
ATOM     18  C   UNL A   1      30.629  26.287  25.231  1.00  0.00     0.042 A 
ATOM     19  C   UNL A   1      30.457  28.702  23.869  1.00  0.00     0.137 A 
ATOM     20  C   UNL A   1      29.860  27.559  23.333  1.00  0.00     0.050 A 
ATOM     21  C   UNL A   1      31.315  28.586  24.966  1.00  0.00     0.085 A 
ATOM     22  C   UNL A   1      29.995  26.333  23.993  1.00  0.00     0.030 A 
ATOM     23  C   UNL A   1      31.428  27.363  25.631  1.00  0.00     0.050 A 
ATOM     24  Cl  UNL A   1      32.163  29.951  25.596  1.00  0.00    -0.080 Cl
BRANCH  19  25
ATOM     25  O   UNL A   1      29.963  29.928  23.500  1.00  0.00    -0.495 OA
ATOM     26  C   UNL A   1      29.637  30.001  22.124  1.00  0.00     0.278 C 
ENDBRANCH  19  25
ENDBRANCH  15  18
ENDBRANCH   9  14
ENDBRANCH   5   8
ENDBRANCH   3   4
ENDBRANCH   2   3
ENDBRANCH   1   2
BRANCH   1  27
ATOM     27  C   UNL A   1      37.352  20.648  24.689  1.00  0.00     0.002 C 
BRANCH  27  28
ATOM     28  C   UNL A   1      38.393  19.628  25.138  1.00  0.00     0.021 C 
BRANCH  28  29
ATOM     29  C   UNL A   1      39.434  20.195  26.083  1.00  0.00     0.116 C 
BRANCH  29  30
ATOM     30  N   UNL A   1      40.640  19.394  26.081  1.00  0.00    -0.352 N 
ATOM     31  C   UNL A   1      41.941  19.831  26.143  1.00  0.00     0.251 C 
ATOM     32  H   UNL A   1      40.514  18.419  26.030  1.00  0.00     0.163 HD
ATOM     33  O   UNL A   1      42.860  19.073  25.868  1.00  0.00    -0.269 OA
BRANCH  31  34
ATOM     34  C   UNL A   1      42.200  21.238  26.522  1.00  0.00     0.039 A 
ATOM     35  C   UNL A   1      42.254  22.211  25.525  1.00  0.00     0.014 A 
ATOM     36  C   UNL A   1      42.376  21.592  27.865  1.00  0.00     0.014 A 
ATOM     37  C   UNL A   1      42.469  23.543  25.879  1.00  0.00     0.010 A 
ATOM     38  C   UNL A   1      42.482  22.930  28.222  1.00  0.00     0.010 A 
ATOM     39  C   UNL A   1      42.571  23.916  27.229  1.00  0.00    -0.014 A 
BRANCH  39  40
ATOM     40  C   UNL A   1      42.860  25.320  27.616  1.00  0.00     0.031 A 
ATOM     41  C   UNL A   1      44.252  25.868  27.431  1.00  0.00     0.074 A 
ATOM     42  C   UNL A   1      41.889  26.088  28.149  1.00  0.00     0.049 A 
ATOM     43  N   UNL A   1      44.724  27.052  27.726  1.00  0.00    -0.248 NA
ATOM     44  C   UNL A   1      45.256  24.949  26.870  1.00  0.00     0.031 C 
ATOM     45  C   UNL A   1      40.515  25.653  28.409  1.00  0.00     0.029 A 
ATOM     46  N   UNL A   1      41.907  27.395  28.561  1.00  0.00    -0.354 N 
ATOM     47  C   UNL A   1      46.077  27.011  27.403  1.00  0.00     0.074 A 
ATOM     48  C   UNL A   1      46.364  25.664  26.965  1.00  0.00     0.031 C 
ATOM     49  C   UNL A   1      39.813  26.688  28.897  1.00  0.00     0.029 A 
ATOM     50  C   UNL A   1      40.693  27.845  29.029  1.00  0.00     0.049 A 
ATOM     51  H   UNL A   1      42.713  27.959  28.527  1.00  0.00     0.167 HD
ATOM     52  C   UNL A   1      46.988  28.014  27.437  1.00  0.00     0.034 A 
ATOM     53  C   UNL A   1      40.337  29.052  29.510  1.00  0.00     0.034 A 
ATOM     54  C   UNL A   1      46.676  29.357  27.858  1.00  0.00     0.049 A 
ATOM     55  C   UNL A   1      41.373  30.148  29.557  1.00  0.00     0.074 A 
ATOM     56  C   UNL A   1      47.503  30.465  27.887  1.00  0.00     0.029 A 
ATOM     57  N   UNL A   1      45.436  29.774  28.328  1.00  0.00    -0.354 N 
ATOM     58  N   UNL A   1      42.637  30.110  29.201  1.00  0.00    -0.248 NA
ATOM     59  C   UNL A   1      40.928  31.456  30.052  1.00  0.00     0.031 C 
ATOM     60  C   UNL A   1      46.789  31.530  28.449  1.00  0.00     0.029 A 
ATOM     61  C   UNL A   1      45.487  31.114  28.679  1.00  0.00     0.049 A 
ATOM     62  H   UNL A   1      44.639  29.201  28.402  1.00  0.00     0.167 HD
ATOM     63  C   UNL A   1      43.123  31.402  29.386  1.00  0.00     0.074 A 
ATOM     64  C   UNL A   1      42.013  32.193  29.875  1.00  0.00     0.031 C 
ATOM     65  C   UNL A   1      44.370  31.892  29.165  1.00  0.00     0.034 A 
BRANCH  52  66
ATOM     66  C   UNL A   1      48.408  27.680  27.036  1.00  0.00     0.023 A 
ATOM     67  C   UNL A   1      48.896  27.939  25.742  1.00  0.00     0.031 A 
ATOM     68  C   UNL A   1      49.277  27.060  27.950  1.00  0.00     0.131 A 
ATOM     69  C   UNL A   1      50.178  27.504  25.375  1.00  0.00     0.055 A 
ATOM     70  C   UNL A   1      50.585  26.714  27.606  1.00  0.00     0.041 A 
ATOM     71  F   UNL A   1      48.864  26.763  29.193  1.00  0.00    -0.206 F 
ATOM     72  C   UNL A   1      51.038  26.921  26.308  1.00  0.00     0.022 A 
BRANCH  69  73
ATOM     73  S   UNL A   1      50.647  27.567  23.623  1.00  0.00     0.124 S 
ATOM     74  O   UNL A   1      49.449  27.031  22.980  1.00  0.00    -0.237 OA
ATOM     75  O   UNL A   1      50.902  28.987  23.415  1.00  0.00    -0.237 OA
ATOM     76  O   UNL A   1      51.822  26.703  23.552  1.00  0.00    -0.744 OA
ENDBRANCH  69  73
ENDBRANCH  52  66
BRANCH  53  77
ATOM     77  C   UNL A   1      38.941  29.300  29.981  1.00  0.00     0.023 A 
ATOM     78  C   UNL A   1      38.002  29.939  29.155  1.00  0.00     0.031 A 
ATOM     79  C   UNL A   1      38.542  28.950  31.283  1.00  0.00     0.131 A 
ATOM     80  C   UNL A   1      36.731  30.259  29.659  1.00  0.00     0.055 A 
ATOM     81  C   UNL A   1      37.257  29.216  31.758  1.00  0.00     0.041 A 
ATOM     82  F   UNL A   1      39.399  28.334  32.114  1.00  0.00    -0.206 F 
ATOM     83  C   UNL A   1      36.347  29.889  30.949  1.00  0.00     0.022 A 
BRANCH  80  84
ATOM     84  S   UNL A   1      35.619  31.262  28.634  1.00  0.00     0.124 S 
ATOM     85  O   UNL A   1      34.981  30.244  27.808  1.00  0.00    -0.237 OA
ATOM     86  O   UNL A   1      34.773  31.898  29.638  1.00  0.00    -0.237 OA
ATOM     87  O   UNL A   1      36.528  32.161  27.927  1.00  0.00    -0.744 OA
ENDBRANCH  80  84
ENDBRANCH  53  77
BRANCH  65  88
ATOM     88  C   UNL A   1      44.578  33.372  29.384  1.00  0.00     0.023 A 
ATOM     89  C   UNL A   1      44.207  34.330  28.423  1.00  0.00     0.031 A 
ATOM     90  C   UNL A   1      45.178  33.829  30.572  1.00  0.00     0.131 A 
ATOM     91  C   UNL A   1      44.505  35.684  28.636  1.00  0.00     0.055 A 
ATOM     92  C   UNL A   1      45.403  35.185  30.810  1.00  0.00     0.041 A 
ATOM     93  F   UNL A   1      45.556  32.961  31.524  1.00  0.00    -0.206 F 
ATOM     94  C   UNL A   1      45.083  36.120  29.831  1.00  0.00     0.022 A 
BRANCH  91  95
ATOM     95  S   UNL A   1      44.243  36.855  27.276  1.00  0.00     0.124 S 
ATOM     96  O   UNL A   1      43.743  38.031  27.981  1.00  0.00    -0.237 OA
ATOM     97  O   UNL A   1      45.581  36.976  26.707  1.00  0.00    -0.237 OA
ATOM     98  O   UNL A   1      43.267  36.179  26.424  1.00  0.00    -0.744 OA
ENDBRANCH  91  95
ENDBRANCH  65  88
ENDBRANCH  39  40
ENDBRANCH  31  34
ENDBRANCH  29  30
ENDBRANCH  28  29
ENDBRANCH  27  28
ENDBRANCH   1  27
TORSDOF 19
ENDMDL
MODEL 2
REMARK VINA RESULT:     -11.7      1.624      7.560
REMARK SMILES COc1ccc(NC(=O)[C@@H]2CC=CC[C@H]2C(=O)NCCCCCCNC(=O)c2ccc(-c3c4nc(c(-c5cc(S(=O)(=O)[O-])ccc5F)c5ccc([nH]5)c(-c5cc(S(=O)(=O)[O-])ccc5F)c5nc(c(-c6cc(S(=O)(=O)[O-])ccc6F)c6ccc3[nH]6)C=C5)C=C4)cc2)cc1Cl
REMARK SMILES IDX 21 1 20 2 19 3 18 4 16 5 17 6 15 8 10 9 11 10 12 11 14 12
REMARK SMILES IDX 13 13 8 14 7 15 9 17 6 18 3 19 4 20 92 21 5 22 91 23 93 24
REMARK SMILES IDX 2 25 1 26 22 27 23 28 24 29 25 30 26 31 27 33 28 34 29 35
REMARK SMILES IDX 90 36 30 37 89 38 31 39 32 40 33 41 83 42 34 43 88 44 82 45
REMARK SMILES IDX 84 46 35 47 87 48 81 49 80 50 36 52 68 53 48 54 67 55 49 56
REMARK SMILES IDX 52 57 66 58 85 59 50 60 51 61 65 63 86 64 53 65 37 66 38 67
REMARK SMILES IDX 46 68 39 69 45 70 47 71 44 72 40 73 41 74 42 75 43 76 69 77
REMARK SMILES IDX 70 78 78 79 71 80 77 81 79 82 76 83 72 84 73 85 74 86 75 87
REMARK SMILES IDX 54 88 55 89 63 90 56 91 62 92 64 93 61 94 57 95 58 96 59 97
REMARK SMILES IDX 60 98
REMARK H PARENT 18 7 7 16 25 32 84 51 52 62
REMARK Flexibility Score: inf
ROOT
ATOM      1  C   UNL A   1      37.524  22.078  25.077  1.00  0.00     0.002 C 
ENDROOT
BRANCH   1   2
ATOM      2  C   UNL A   1      36.537  23.093  24.473  1.00  0.00     0.021 C 
BRANCH   2   3
ATOM      3  C   UNL A   1      35.627  23.790  25.483  1.00  0.00     0.116 C 
BRANCH   3   4
ATOM      4  N   UNL A   1      35.350  22.899  26.581  1.00  0.00    -0.356 N 
ATOM      5  C   UNL A   1      34.117  22.592  27.041  1.00  0.00     0.224 C 
ATOM      6  O   UNL A   1      33.975  22.714  28.253  1.00  0.00    -0.275 OA
ATOM      7  H   UNL A   1      36.119  22.481  27.031  1.00  0.00     0.163 HD
BRANCH   5   8
ATOM      8  C   UNL A   1      33.005  22.134  26.098  1.00  0.00     0.095 C 
ATOM      9  C   UNL A   1      32.186  23.313  25.553  1.00  0.00     0.095 C 
ATOM     10  C   UNL A   1      31.457  22.998  24.219  1.00  0.00     0.041 C 
ATOM     11  C   UNL A   1      32.053  21.959  23.333  1.00  0.00    -0.030 C 
ATOM     12  C   UNL A   1      33.582  21.102  25.092  1.00  0.00     0.041 C 
ATOM     13  C   UNL A   1      32.998  21.105  23.725  1.00  0.00    -0.030 C 
BRANCH   9  14
ATOM     14  C   UNL A   1      31.119  24.078  26.398  1.00  0.00     0.228 C 
ATOM     15  N   UNL A   1      30.428  25.216  26.136  1.00  0.00    -0.326 N 
ATOM     16  H   UNL A   1      29.704  25.369  26.783  1.00  0.00     0.169 HD
ATOM     17  O   UNL A   1      30.725  23.514  27.439  1.00  0.00    -0.274 OA
BRANCH  15  18
ATOM     18  C   UNL A   1      30.497  26.223  25.170  1.00  0.00     0.042 A 
ATOM     19  C   UNL A   1      30.282  28.623  23.787  1.00  0.00     0.137 A 
ATOM     20  C   UNL A   1      29.476  27.541  23.429  1.00  0.00     0.050 A 
ATOM     21  C   UNL A   1      31.336  28.434  24.686  1.00  0.00     0.085 A 
ATOM     22  C   UNL A   1      29.625  26.317  24.090  1.00  0.00     0.030 A 
ATOM     23  C   UNL A   1      31.464  27.216  25.357  1.00  0.00     0.050 A 
ATOM     24  Cl  UNL A   1      32.428  29.712  25.077  1.00  0.00    -0.080 Cl
BRANCH  19  25
ATOM     25  O   UNL A   1      29.846  29.888  23.485  1.00  0.00    -0.495 OA
ATOM     26  C   UNL A   1      29.578  30.065  22.105  1.00  0.00     0.278 C 
ENDBRANCH  19  25
ENDBRANCH  15  18
ENDBRANCH   9  14
ENDBRANCH   5   8
ENDBRANCH   3   4
ENDBRANCH   2   3
ENDBRANCH   1   2
BRANCH   1  27
ATOM     27  C   UNL A   1      37.204  20.600  24.825  1.00  0.00     0.002 C 
BRANCH  27  28
ATOM     28  C   UNL A   1      38.342  19.634  25.135  1.00  0.00     0.021 C 
BRANCH  28  29
ATOM     29  C   UNL A   1      39.504  20.275  25.869  1.00  0.00     0.116 C 
BRANCH  29  30
ATOM     30  N   UNL A   1      40.529  19.302  26.185  1.00  0.00    -0.352 N 
ATOM     31  C   UNL A   1      41.868  19.529  26.391  1.00  0.00     0.251 C 
ATOM     32  H   UNL A   1      40.232  18.367  26.262  1.00  0.00     0.163 HD
ATOM     33  O   UNL A   1      42.659  18.596  26.387  1.00  0.00    -0.269 OA
BRANCH  31  34
ATOM     34  C   UNL A   1      42.331  20.920  26.591  1.00  0.00     0.039 A 
ATOM     35  C   UNL A   1      42.479  21.751  25.481  1.00  0.00     0.014 A 
ATOM     36  C   UNL A   1      42.604  21.401  27.877  1.00  0.00     0.014 A 
ATOM     37  C   UNL A   1      42.887  23.073  25.665  1.00  0.00     0.010 A 
ATOM     38  C   UNL A   1      42.905  22.744  28.066  1.00  0.00     0.010 A 
ATOM     39  C   UNL A   1      43.090  23.584  26.958  1.00  0.00    -0.014 A 
BRANCH  39  40
ATOM     40  C   UNL A   1      43.583  24.969  27.165  1.00  0.00     0.031 A 
ATOM     41  C   UNL A   1      42.646  26.014  27.715  1.00  0.00     0.074 A 
ATOM     42  C   UNL A   1      44.850  25.292  26.839  1.00  0.00     0.049 A 
ATOM     43  N   UNL A   1      42.862  27.283  27.947  1.00  0.00    -0.248 NA
ATOM     44  C   UNL A   1      41.271  25.579  28.014  1.00  0.00     0.031 C 
ATOM     45  C   UNL A   1      45.835  24.374  26.264  1.00  0.00     0.029 A 
ATOM     46  N   UNL A   1      45.529  26.478  26.952  1.00  0.00    -0.354 N 
ATOM     47  C   UNL A   1      41.651  27.797  28.399  1.00  0.00     0.074 A 
ATOM     48  C   UNL A   1      40.687  26.722  28.335  1.00  0.00     0.031 C 
ATOM     49  C   UNL A   1      47.002  25.020  26.114  1.00  0.00     0.029 A 
ATOM     50  C   UNL A   1      46.839  26.407  26.536  1.00  0.00     0.049 A 
ATOM     51  H   UNL A   1      45.117  27.303  27.296  1.00  0.00     0.167 HD
ATOM     52  C   UNL A   1      41.375  29.043  28.859  1.00  0.00     0.034 A 
ATOM     53  C   UNL A   1      47.795  27.356  26.501  1.00  0.00     0.034 A 
ATOM     54  C   UNL A   1      42.356  30.096  28.935  1.00  0.00     0.049 A 
ATOM     55  C   UNL A   1      47.461  28.741  26.999  1.00  0.00     0.074 A 
ATOM     56  C   UNL A   1      42.206  31.380  29.427  1.00  0.00     0.029 A 
ATOM     57  N   UNL A   1      43.673  29.988  28.502  1.00  0.00    -0.354 N 
ATOM     58  N   UNL A   1      46.324  29.200  27.471  1.00  0.00    -0.248 NA
ATOM     59  C   UNL A   1      48.545  29.730  26.977  1.00  0.00     0.031 C 
ATOM     60  C   UNL A   1      43.404  32.072  29.219  1.00  0.00     0.029 A 
ATOM     61  C   UNL A   1      44.334  31.192  28.687  1.00  0.00     0.049 A 
ATOM     62  H   UNL A   1      44.076  29.176  28.119  1.00  0.00     0.167 HD
ATOM     63  C   UNL A   1      46.573  30.518  27.846  1.00  0.00     0.074 A 
ATOM     64  C   UNL A   1      47.967  30.773  27.553  1.00  0.00     0.031 C 
ATOM     65  C   UNL A   1      45.728  31.432  28.390  1.00  0.00     0.034 A 
BRANCH  52  66
ATOM     66  C   UNL A   1      39.953  29.331  29.282  1.00  0.00     0.023 A 
ATOM     67  C   UNL A   1      39.583  29.423  30.637  1.00  0.00     0.031 A 
ATOM     68  C   UNL A   1      38.941  29.480  28.317  1.00  0.00     0.131 A 
ATOM     69  C   UNL A   1      38.233  29.571  30.987  1.00  0.00     0.055 A 
ATOM     70  C   UNL A   1      37.612  29.721  28.672  1.00  0.00     0.041 A 
ATOM     71  F   UNL A   1      39.223  29.377  27.008  1.00  0.00    -0.206 F 
ATOM     72  C   UNL A   1      37.248  29.752  30.014  1.00  0.00     0.022 A 
BRANCH  69  73
ATOM     73  S   UNL A   1      37.762  29.364  32.728  1.00  0.00     0.124 S 
ATOM     74  O   UNL A   1      37.649  27.911  32.830  1.00  0.00    -0.237 OA
ATOM     75  O   UNL A   1      38.885  29.969  33.433  1.00  0.00    -0.237 OA
ATOM     76  O   UNL A   1      36.497  30.088  32.828  1.00  0.00    -0.744 OA
ENDBRANCH  69  73
ENDBRANCH  52  66
BRANCH  53  77
ATOM     77  C   UNL A   1      49.160  27.040  25.985  1.00  0.00     0.023 A 
ATOM     78  C   UNL A   1      49.554  27.428  24.694  1.00  0.00     0.031 A 
ATOM     79  C   UNL A   1      50.073  26.297  26.755  1.00  0.00     0.131 A 
ATOM     80  C   UNL A   1      50.801  27.023  24.192  1.00  0.00     0.055 A 
ATOM     81  C   UNL A   1      51.336  25.950  26.274  1.00  0.00     0.041 A 
ATOM     82  F   UNL A   1      49.750  25.903  27.998  1.00  0.00    -0.206 F 
ATOM     83  C   UNL A   1      51.700  26.300  24.977  1.00  0.00     0.022 A 
BRANCH  80  84
ATOM     84  S   UNL A   1      51.190  27.369  22.453  1.00  0.00     0.124 S 
ATOM     85  O   UNL A   1      51.188  28.827  22.435  1.00  0.00    -0.237 OA
ATOM     86  O   UNL A   1      52.491  26.727  22.300  1.00  0.00    -0.237 OA
ATOM     87  O   UNL A   1      50.093  26.733  21.727  1.00  0.00    -0.744 OA
ENDBRANCH  80  84
ENDBRANCH  53  77
BRANCH  65  88
ATOM     88  C   UNL A   1      46.315  32.772  28.769  1.00  0.00     0.023 A 
ATOM     89  C   UNL A   1      46.320  33.864  27.883  1.00  0.00     0.031 A 
ATOM     90  C   UNL A   1      46.898  32.949  30.037  1.00  0.00     0.131 A 
ATOM     91  C   UNL A   1      46.959  35.057  28.250  1.00  0.00     0.055 A 
ATOM     92  C   UNL A   1      47.465  34.164  30.424  1.00  0.00     0.041 A 
ATOM     93  F   UNL A   1      46.926  31.942  30.924  1.00  0.00    -0.206 F 
ATOM     94  C   UNL A   1      47.514  35.221  29.522  1.00  0.00     0.022 A 
BRANCH  91  95
ATOM     95  S   UNL A   1      47.167  36.353  26.997  1.00  0.00     0.124 S 
ATOM     96  O   UNL A   1      47.995  37.326  27.702  1.00  0.00    -0.237 OA
ATOM     97  O   UNL A   1      47.818  35.632  25.909  1.00  0.00    -0.237 OA
ATOM     98  O   UNL A   1      45.798  36.786  26.722  1.00  0.00    -0.744 OA
ENDBRANCH  91  95
ENDBRANCH  65  88
ENDBRANCH  39  40
ENDBRANCH  31  34
ENDBRANCH  29  30
ENDBRANCH  28  29
ENDBRANCH  27  28
ENDBRANCH   1  27
TORSDOF 19
ENDMDL
MODEL 3
REMARK VINA RESULT:     -11.5      5.242     10.428
REMARK SMILES COc1ccc(NC(=O)[C@@H]2CC=CC[C@H]2C(=O)NCCCCCCNC(=O)c2ccc(-c3c4nc(c(-c5cc(S(=O)(=O)[O-])ccc5F)c5ccc([nH]5)c(-c5cc(S(=O)(=O)[O-])ccc5F)c5nc(c(-c6cc(S(=O)(=O)[O-])ccc6F)c6ccc3[nH]6)C=C5)C=C4)cc2)cc1Cl
REMARK SMILES IDX 21 1 20 2 19 3 18 4 16 5 17 6 15 8 10 9 11 10 12 11 14 12
REMARK SMILES IDX 13 13 8 14 7 15 9 17 6 18 3 19 4 20 92 21 5 22 91 23 93 24
REMARK SMILES IDX 2 25 1 26 22 27 23 28 24 29 25 30 26 31 27 33 28 34 29 35
REMARK SMILES IDX 90 36 30 37 89 38 31 39 32 40 33 41 83 42 34 43 88 44 82 45
REMARK SMILES IDX 84 46 35 47 87 48 81 49 80 50 36 52 68 53 48 54 67 55 49 56
REMARK SMILES IDX 52 57 66 58 85 59 50 60 51 61 65 63 86 64 53 65 37 66 38 67
REMARK SMILES IDX 46 68 39 69 45 70 47 71 44 72 40 73 41 74 42 75 43 76 69 77
REMARK SMILES IDX 70 78 78 79 71 80 77 81 79 82 76 83 72 84 73 85 74 86 75 87
REMARK SMILES IDX 54 88 55 89 63 90 56 91 62 92 64 93 61 94 57 95 58 96 59 97
REMARK SMILES IDX 60 98
REMARK H PARENT 18 7 7 16 25 32 84 51 52 62
REMARK Flexibility Score: inf
ROOT
ATOM      1  C   UNL A   1      31.848  27.077  24.802  1.00  0.00     0.002 C 
ENDROOT
BRANCH   1   2
ATOM      2  C   UNL A   1      31.725  26.345  23.453  1.00  0.00     0.021 C 
BRANCH   2   3
ATOM      3  C   UNL A   1      30.967  25.019  23.505  1.00  0.00     0.116 C 
BRANCH   3   4
ATOM      4  N   UNL A   1      31.731  23.997  22.837  1.00  0.00    -0.356 N 
ATOM      5  C   UNL A   1      33.048  23.761  23.029  1.00  0.00     0.224 C 
ATOM      6  O   UNL A   1      33.715  23.697  22.002  1.00  0.00    -0.275 OA
ATOM      7  H   UNL A   1      31.259  23.426  22.190  1.00  0.00     0.163 HD
BRANCH   5   8
ATOM      8  C   UNL A   1      33.631  23.594  24.432  1.00  0.00     0.095 C 
ATOM      9  C   UNL A   1      33.671  22.123  24.872  1.00  0.00     0.095 C 
ATOM     10  C   UNL A   1      34.719  21.834  25.979  1.00  0.00     0.041 C 
ATOM     11  C   UNL A   1      35.912  22.726  26.053  1.00  0.00    -0.030 C 
ATOM     12  C   UNL A   1      34.927  24.441  24.551  1.00  0.00     0.041 C 
ATOM     13  C   UNL A   1      36.002  23.895  25.420  1.00  0.00    -0.030 C 
BRANCH   9  14
ATOM     14  C   UNL A   1      32.405  21.332  25.331  1.00  0.00     0.228 C 
ATOM     15  N   UNL A   1      32.173  19.997  25.407  1.00  0.00    -0.326 N 
ATOM     16  H   UNL A   1      31.340  19.792  25.888  1.00  0.00     0.169 HD
ATOM     17  O   UNL A   1      31.480  22.004  25.829  1.00  0.00    -0.274 OA
BRANCH  15  18
ATOM     18  C   UNL A   1      32.828  18.845  24.968  1.00  0.00     0.042 A 
ATOM     19  C   UNL A   1      34.300  16.493  24.827  1.00  0.00     0.137 A 
ATOM     20  C   UNL A   1      34.842  17.682  24.335  1.00  0.00     0.050 A 
ATOM     21  C   UNL A   1      32.951  16.444  25.187  1.00  0.00     0.085 A 
ATOM     22  C   UNL A   1      34.077  18.853  24.356  1.00  0.00     0.030 A 
ATOM     23  C   UNL A   1      32.200  17.621  25.226  1.00  0.00     0.050 A 
ATOM     24  Cl  UNL A   1      32.206  14.972  25.697  1.00  0.00    -0.080 Cl
BRANCH  19  25
ATOM     25  O   UNL A   1      35.160  15.499  25.221  1.00  0.00    -0.495 OA
ATOM     26  C   UNL A   1      36.330  15.996  25.846  1.00  0.00     0.278 C 
ENDBRANCH  19  25
ENDBRANCH  15  18
ENDBRANCH   9  14
ENDBRANCH   5   8
ENDBRANCH   3   4
ENDBRANCH   2   3
ENDBRANCH   1   2
BRANCH   1  27
ATOM     27  C   UNL A   1      32.374  28.516  24.739  1.00  0.00     0.002 C 
BRANCH  27  28
ATOM     28  C   UNL A   1      33.625  28.780  25.569  1.00  0.00     0.021 C 
BRANCH  28  29
ATOM     29  C   UNL A   1      33.332  29.243  26.982  1.00  0.00     0.116 C 
BRANCH  29  30
ATOM     30  N   UNL A   1      33.236  30.686  27.056  1.00  0.00    -0.352 N 
ATOM     31  C   UNL A   1      34.037  31.548  27.763  1.00  0.00     0.251 C 
ATOM     32  H   UNL A   1      32.509  31.100  26.535  1.00  0.00     0.163 HD
ATOM     33  O   UNL A   1      33.687  32.705  27.948  1.00  0.00    -0.269 OA
BRANCH  31  34
ATOM     34  C   UNL A   1      35.313  31.041  28.315  1.00  0.00     0.039 A 
ATOM     35  C   UNL A   1      36.475  31.791  28.136  1.00  0.00     0.014 A 
ATOM     36  C   UNL A   1      35.354  29.833  29.020  1.00  0.00     0.014 A 
ATOM     37  C   UNL A   1      37.676  31.334  28.680  1.00  0.00     0.010 A 
ATOM     38  C   UNL A   1      36.526  29.435  29.650  1.00  0.00     0.010 A 
ATOM     39  C   UNL A   1      37.709  30.161  29.452  1.00  0.00    -0.014 A 
BRANCH  39  40
ATOM     40  C   UNL A   1      38.991  29.631  29.984  1.00  0.00     0.031 A 
ATOM     41  C   UNL A   1      39.514  30.145  31.300  1.00  0.00     0.074 A 
ATOM     42  C   UNL A   1      39.687  28.716  29.282  1.00  0.00     0.049 A 
ATOM     43  N   UNL A   1      40.619  29.839  31.931  1.00  0.00    -0.248 NA
ATOM     44  C   UNL A   1      38.702  31.166  31.983  1.00  0.00     0.031 C 
ATOM     45  C   UNL A   1      39.297  28.173  27.979  1.00  0.00     0.029 A 
ATOM     46  N   UNL A   1      40.866  28.076  29.568  1.00  0.00    -0.354 N 
ATOM     47  C   UNL A   1      40.641  30.639  33.069  1.00  0.00     0.074 A 
ATOM     48  C   UNL A   1      39.480  31.498  33.000  1.00  0.00     0.031 C 
ATOM     49  C   UNL A   1      40.198  27.253  27.600  1.00  0.00     0.029 A 
ATOM     50  C   UNL A   1      41.253  27.172  28.605  1.00  0.00     0.049 A 
ATOM     51  H   UNL A   1      41.387  28.248  30.385  1.00  0.00     0.167 HD
ATOM     52  C   UNL A   1      41.528  30.635  34.094  1.00  0.00     0.034 A 
ATOM     53  C   UNL A   1      42.335  26.371  28.545  1.00  0.00     0.034 A 
ATOM     54  C   UNL A   1      42.669  29.756  34.152  1.00  0.00     0.049 A 
ATOM     55  C   UNL A   1      43.321  26.398  29.687  1.00  0.00     0.074 A 
ATOM     56  C   UNL A   1      43.607  29.628  35.160  1.00  0.00     0.029 A 
ATOM     57  N   UNL A   1      43.030  28.855  33.157  1.00  0.00    -0.354 N 
ATOM     58  N   UNL A   1      43.301  27.124  30.782  1.00  0.00    -0.248 NA
ATOM     59  C   UNL A   1      44.463  25.481  29.595  1.00  0.00     0.031 C 
ATOM     60  C   UNL A   1      44.577  28.710  34.742  1.00  0.00     0.029 A 
ATOM     61  C   UNL A   1      44.193  28.192  33.515  1.00  0.00     0.049 A 
ATOM     62  H   UNL A   1      42.532  28.710  32.320  1.00  0.00     0.167 HD
ATOM     63  C   UNL A   1      44.404  26.715  31.528  1.00  0.00     0.074 A 
ATOM     64  C   UNL A   1      45.057  25.675  30.762  1.00  0.00     0.031 C 
ATOM     65  C   UNL A   1      44.834  27.155  32.739  1.00  0.00     0.034 A 
BRANCH  52  66
ATOM     66  C   UNL A   1      41.309  31.632  35.209  1.00  0.00     0.023 A 
ATOM     67  C   UNL A   1      40.238  31.513  36.114  1.00  0.00     0.031 A 
ATOM     68  C   UNL A   1      42.164  32.740  35.350  1.00  0.00     0.131 A 
ATOM     69  C   UNL A   1      40.001  32.524  37.057  1.00  0.00     0.055 A 
ATOM     70  C   UNL A   1      41.976  33.694  36.352  1.00  0.00     0.041 A 
ATOM     71  F   UNL A   1      43.189  32.925  34.503  1.00  0.00    -0.206 F 
ATOM     72  C   UNL A   1      40.881  33.598  37.203  1.00  0.00     0.022 A 
BRANCH  69  73
ATOM     73  S   UNL A   1      38.440  32.496  37.983  1.00  0.00     0.124 S 
ATOM     74  O   UNL A   1      38.913  32.295  39.351  1.00  0.00    -0.237 OA
ATOM     75  O   UNL A   1      37.875  33.808  37.688  1.00  0.00    -0.237 OA
ATOM     76  O   UNL A   1      37.721  31.362  37.408  1.00  0.00    -0.744 OA
ENDBRANCH  69  73
ENDBRANCH  52  66
BRANCH  53  77
ATOM     77  C   UNL A   1      42.550  25.472  27.372  1.00  0.00     0.023 A 
ATOM     78  C   UNL A   1      42.016  24.174  27.348  1.00  0.00     0.031 A 
ATOM     79  C   UNL A   1      43.338  25.879  26.281  1.00  0.00     0.131 A 
ATOM     80  C   UNL A   1      42.324  23.310  26.285  1.00  0.00     0.055 A 
ATOM     81  C   UNL A   1      43.591  25.037  25.197  1.00  0.00     0.041 A 
ATOM     82  F   UNL A   1      43.871  27.112  26.250  1.00  0.00    -0.206 F 
ATOM     83  C   UNL A   1      43.095  23.737  25.203  1.00  0.00     0.022 A 
BRANCH  80  84
ATOM     84  S   UNL A   1      41.785  21.580  26.388  1.00  0.00     0.124 S 
ATOM     85  O   UNL A   1      42.019  21.282  27.796  1.00  0.00    -0.237 OA
ATOM     86  O   UNL A   1      40.389  21.674  25.975  1.00  0.00    -0.237 OA
ATOM     87  O   UNL A   1      42.667  20.893  25.448  1.00  0.00    -0.744 OA
ENDBRANCH  80  84
ENDBRANCH  53  77
BRANCH  65  88
ATOM     88  C   UNL A   1      46.031  26.455  33.341  1.00  0.00     0.023 A 
ATOM     89  C   UNL A   1      45.925  25.207  33.980  1.00  0.00     0.031 A 
ATOM     90  C   UNL A   1      47.298  27.064  33.289  1.00  0.00     0.131 A 
ATOM     91  C   UNL A   1      47.049  24.645  34.602  1.00  0.00     0.055 A 
ATOM     92  C   UNL A   1      48.428  26.462  33.844  1.00  0.00     0.041 A 
ATOM     93  F   UNL A   1      47.460  28.257  32.695  1.00  0.00    -0.206 F 
ATOM     94  C   UNL A   1      48.304  25.254  34.522  1.00  0.00     0.022 A 
BRANCH  91  95
ATOM     95  S   UNL A   1      46.825  23.165  35.628  1.00  0.00     0.124 S 
ATOM     96  O   UNL A   1      45.849  22.405  34.854  1.00  0.00    -0.237 OA
ATOM     97  O   UNL A   1      48.173  22.610  35.673  1.00  0.00    -0.237 OA
ATOM     98  O   UNL A   1      46.332  23.698  36.896  1.00  0.00    -0.744 OA
ENDBRANCH  91  95
ENDBRANCH  65  88
ENDBRANCH  39  40
ENDBRANCH  31  34
ENDBRANCH  29  30
ENDBRANCH  28  29
ENDBRANCH  27  28
ENDBRANCH   1  27
TORSDOF 19
ENDMDL
