MODEL 1
REMARK VINA RESULT:     -12.7      0.000      0.000
REMARK SMILES CCn1cnc(S(=O)(=O)N2CCC(C)(C(=O)NCCCCCCNC(=O)c3ccc(-c4c5nc(c(-c6cc(S(=O)(=O)[O-])ccc6F)c6ccc([nH]6)c(-c6cc(S(=O)(=O)[O-])ccc6F)c6nc(c(-c7cc(S(=O)(=O)[O-])ccc7F)c7ccc4[nH]7)C=C6)C=C5)cc3)CC2)c1
REMARK SMILES IDX 20 1 19 2 18 3 17 4 15 5 16 6 13 8 10 9 11 10 91 11 12 12
REMARK SMILES IDX 90 13 14 14 7 15 8 16 9 17 6 18 3 19 4 20 92 21 5 22 2 23
REMARK SMILES IDX 1 24 21 25 22 26 23 27 24 28 25 29 26 31 27 32 28 33 89 34
REMARK SMILES IDX 29 35 88 36 30 37 31 38 32 39 82 40 33 41 87 42 81 43 83 44
REMARK SMILES IDX 34 45 86 46 80 47 79 48 35 50 67 51 47 52 66 53 48 54 51 55
REMARK SMILES IDX 65 56 84 57 49 58 50 59 64 61 85 62 52 63 36 64 37 65 45 66
REMARK SMILES IDX 38 67 44 68 46 69 43 70 39 71 40 72 41 73 42 74 68 75 69 76
REMARK SMILES IDX 77 77 70 78 76 79 78 80 75 81 71 82 72 83 73 84 74 85 53 86
REMARK SMILES IDX 54 87 62 88 55 89 61 90 63 91 60 92 56 93 57 94 58 95 59 96
REMARK H PARENT 17 7 24 30 83 49 51 60
REMARK Flexibility Score: inf
ROOT
ATOM      1  C   UNL A   1      32.135  29.972  25.719  1.00  0.00     0.002 C 
ENDROOT
BRANCH   1   2
ATOM      2  C   UNL A   1      32.245  29.242  24.383  1.00  0.00     0.021 C 
BRANCH   2   3
ATOM      3  C   UNL A   1      33.504  28.392  24.297  1.00  0.00     0.116 C 
BRANCH   3   4
ATOM      4  N   UNL A   1      33.541  27.645  23.039  1.00  0.00    -0.356 N 
ATOM      5  C   UNL A   1      33.611  26.295  22.808  1.00  0.00     0.226 C 
ATOM      6  O   UNL A   1      33.684  25.896  21.648  1.00  0.00    -0.275 OA
ATOM      7  H   UNL A   1      33.512  28.202  22.228  1.00  0.00     0.163 HD
BRANCH   5   8
ATOM      8  C   UNL A   1      33.531  25.343  24.005  1.00  0.00     0.049 C 
ATOM      9  N   UNL A   1      32.324  22.674  23.938  1.00  0.00    -0.196 NA
ATOM     10  C   UNL A   1      33.499  22.865  23.101  1.00  0.00     0.103 C 
ATOM     11  C   UNL A   1      31.398  23.805  23.862  1.00  0.00     0.103 C 
ATOM     12  C   UNL A   1      34.325  24.036  23.616  1.00  0.00     0.033 C 
ATOM     13  C   UNL A   1      32.046  25.062  24.429  1.00  0.00     0.033 C 
ATOM     14  C   UNL A   1      34.175  26.169  25.184  1.00  0.00     0.022 C 
BRANCH   9  15
ATOM     15  S   UNL A   1      32.274  21.480  25.149  1.00  0.00     0.262 S 
ATOM     16  O   UNL A   1      30.947  21.464  25.704  1.00  0.00    -0.205 OA
ATOM     17  O   UNL A   1      33.465  21.643  25.972  1.00  0.00    -0.205 OA
BRANCH  15  18
ATOM     18  C   UNL A   1      32.464  19.867  24.467  1.00  0.00     0.188 A 
ATOM     19  N   UNL A   1      32.921  17.708  24.340  1.00  0.00    -0.336 N 
ATOM     20  C   UNL A   1      32.517  18.161  23.124  1.00  0.00     0.201 A 
ATOM     21  C   UNL A   1      32.877  18.779  25.175  1.00  0.00     0.129 A 
ATOM     22  N   UNL A   1      32.229  19.456  23.159  1.00  0.00    -0.224 NA
BRANCH  19  23
ATOM     23  C   UNL A   1      33.313  16.407  24.834  1.00  0.00     0.120 C 
ATOM     24  C   UNL A   1      34.781  16.093  24.991  1.00  0.00     0.027 C 
ENDBRANCH  19  23
ENDBRANCH  15  18
ENDBRANCH   9  15
ENDBRANCH   5   8
ENDBRANCH   3   4
ENDBRANCH   2   3
ENDBRANCH   1   2
BRANCH   1  25
ATOM     25  C   UNL A   1      33.071  29.435  26.812  1.00  0.00     0.002 C 
BRANCH  25  26
ATOM     26  C   UNL A   1      34.222  30.368  27.218  1.00  0.00     0.021 C 
BRANCH  26  27
ATOM     27  C   UNL A   1      35.401  29.633  27.833  1.00  0.00     0.116 C 
BRANCH  27  28
ATOM     28  N   UNL A   1      35.556  29.959  29.249  1.00  0.00    -0.352 N 
ATOM     29  C   UNL A   1      36.508  29.500  30.136  1.00  0.00     0.251 C 
ATOM     30  H   UNL A   1      34.896  30.589  29.617  1.00  0.00     0.163 HD
ATOM     31  O   UNL A   1      36.290  29.529  31.342  1.00  0.00    -0.269 OA
BRANCH  29  32
ATOM     32  C   UNL A   1      37.783  28.993  29.602  1.00  0.00     0.039 A 
ATOM     33  C   UNL A   1      38.408  29.580  28.499  1.00  0.00     0.014 A 
ATOM     34  C   UNL A   1      38.362  27.907  30.251  1.00  0.00     0.014 A 
ATOM     35  C   UNL A   1      39.652  29.091  28.101  1.00  0.00     0.010 A 
ATOM     36  C   UNL A   1      39.655  27.553  29.979  1.00  0.00     0.010 A 
ATOM     37  C   UNL A   1      40.273  28.082  28.857  1.00  0.00    -0.014 A 
BRANCH  37  38
ATOM     38  C   UNL A   1      41.646  27.660  28.602  1.00  0.00     0.031 A 
ATOM     39  C   UNL A   1      41.721  26.391  27.835  1.00  0.00     0.074 A 
ATOM     40  C   UNL A   1      42.718  28.458  28.813  1.00  0.00     0.049 A 
ATOM     41  N   UNL A   1      42.024  25.221  28.288  1.00  0.00    -0.248 NA
ATOM     42  C   UNL A   1      41.179  26.367  26.464  1.00  0.00     0.031 C 
ATOM     43  C   UNL A   1      42.738  29.845  29.294  1.00  0.00     0.029 A 
ATOM     44  N   UNL A   1      44.034  28.227  28.552  1.00  0.00    -0.354 N 
ATOM     45  C   UNL A   1      42.008  24.378  27.183  1.00  0.00     0.074 A 
ATOM     46  C   UNL A   1      41.229  25.062  26.190  1.00  0.00     0.031 C 
ATOM     47  C   UNL A   1      43.958  30.391  29.082  1.00  0.00     0.029 A 
ATOM     48  C   UNL A   1      44.859  29.355  28.609  1.00  0.00     0.049 A 
ATOM     49  H   UNL A   1      44.381  27.331  28.339  1.00  0.00     0.167 HD
ATOM     50  C   UNL A   1      42.902  23.354  27.086  1.00  0.00     0.034 A 
ATOM     51  C   UNL A   1      46.186  29.434  28.302  1.00  0.00     0.034 A 
ATOM     52  C   UNL A   1      43.515  23.098  28.376  1.00  0.00     0.049 A 
ATOM     53  C   UNL A   1      46.714  28.052  28.414  1.00  0.00     0.074 A 
ATOM     54  C   UNL A   1      43.039  22.761  29.629  1.00  0.00     0.029 A 
ATOM     55  N   UNL A   1      44.783  23.598  28.589  1.00  0.00    -0.354 N 
ATOM     56  N   UNL A   1      46.747  27.396  29.542  1.00  0.00    -0.248 NA
ATOM     57  C   UNL A   1      46.707  27.222  27.218  1.00  0.00     0.031 C 
ATOM     58  C   UNL A   1      43.822  23.533  30.541  1.00  0.00     0.029 A 
ATOM     59  C   UNL A   1      44.801  24.217  29.815  1.00  0.00     0.049 A 
ATOM     60  H   UNL A   1      45.544  23.525  27.969  1.00  0.00     0.167 HD
ATOM     61  C   UNL A   1      46.311  26.118  29.227  1.00  0.00     0.074 A 
ATOM     62  C   UNL A   1      46.397  26.043  27.767  1.00  0.00     0.031 C 
ATOM     63  C   UNL A   1      45.644  25.354  30.144  1.00  0.00     0.034 A 
BRANCH  50  64
ATOM     64  C   UNL A   1      43.545  22.888  25.792  1.00  0.00     0.023 A 
ATOM     65  C   UNL A   1      43.597  21.496  25.584  1.00  0.00     0.031 A 
ATOM     66  C   UNL A   1      44.349  23.661  24.922  1.00  0.00     0.131 A 
ATOM     67  C   UNL A   1      44.508  20.931  24.674  1.00  0.00     0.055 A 
ATOM     68  C   UNL A   1      45.208  23.095  23.974  1.00  0.00     0.041 A 
ATOM     69  F   UNL A   1      44.421  24.994  24.978  1.00  0.00    -0.206 F 
ATOM     70  C   UNL A   1      45.322  21.722  23.871  1.00  0.00     0.022 A 
BRANCH  67  71
ATOM     71  S   UNL A   1      44.740  19.138  24.708  1.00  0.00     0.124 S 
ATOM     72  O   UNL A   1      43.409  18.681  25.095  1.00  0.00    -0.237 OA
ATOM     73  O   UNL A   1      45.143  18.864  23.332  1.00  0.00    -0.237 OA
ATOM     74  O   UNL A   1      45.784  18.952  25.713  1.00  0.00    -0.744 OA
ENDBRANCH  67  71
ENDBRANCH  50  64
BRANCH  51  75
ATOM     75  C   UNL A   1      46.911  30.538  27.596  1.00  0.00     0.023 A 
ATOM     76  C   UNL A   1      46.268  31.642  26.982  1.00  0.00     0.031 A 
ATOM     77  C   UNL A   1      48.311  30.638  27.753  1.00  0.00     0.131 A 
ATOM     78  C   UNL A   1      47.023  32.770  26.560  1.00  0.00     0.055 A 
ATOM     79  C   UNL A   1      49.046  31.755  27.344  1.00  0.00     0.041 A 
ATOM     80  F   UNL A   1      49.006  29.684  28.392  1.00  0.00    -0.206 F 
ATOM     81  C   UNL A   1      48.404  32.830  26.753  1.00  0.00     0.022 A 
BRANCH  78  82
ATOM     82  S   UNL A   1      46.213  34.225  25.803  1.00  0.00     0.124 S 
ATOM     83  O   UNL A   1      45.801  34.998  26.969  1.00  0.00    -0.237 OA
ATOM     84  O   UNL A   1      47.282  34.795  24.992  1.00  0.00    -0.237 OA
ATOM     85  O   UNL A   1      45.108  33.645  25.036  1.00  0.00    -0.744 OA
ENDBRANCH  78  82
ENDBRANCH  51  75
BRANCH  63  86
ATOM     86  C   UNL A   1      45.640  25.817  31.592  1.00  0.00     0.023 A 
ATOM     87  C   UNL A   1      44.501  26.252  32.312  1.00  0.00     0.031 A 
ATOM     88  C   UNL A   1      46.847  25.691  32.302  1.00  0.00     0.131 A 
ATOM     89  C   UNL A   1      44.606  26.552  33.688  1.00  0.00     0.055 A 
ATOM     90  C   UNL A   1      46.940  25.964  33.666  1.00  0.00     0.041 A 
ATOM     91  F   UNL A   1      47.957  25.258  31.682  1.00  0.00    -0.206 F 
ATOM     92  C   UNL A   1      45.821  26.400  34.363  1.00  0.00     0.022 A 
BRANCH  89  93
ATOM     93  S   UNL A   1      43.165  27.156  34.630  1.00  0.00     0.124 S 
ATOM     94  O   UNL A   1      43.763  27.974  35.679  1.00  0.00    -0.237 OA
ATOM     95  O   UNL A   1      42.399  27.877  33.617  1.00  0.00    -0.237 OA
ATOM     96  O   UNL A   1      42.528  25.926  35.108  1.00  0.00    -0.744 OA
ENDBRANCH  89  93
ENDBRANCH  63  86
ENDBRANCH  37  38
ENDBRANCH  29  32
ENDBRANCH  27  28
ENDBRANCH  26  27
ENDBRANCH  25  26
ENDBRANCH   1  25
TORSDOF 19
ENDMDL
MODEL 2
REMARK VINA RESULT:     -12.7      1.458      1.995
REMARK SMILES CCn1cnc(S(=O)(=O)N2CCC(C)(C(=O)NCCCCCCNC(=O)c3ccc(-c4c5nc(c(-c6cc(S(=O)(=O)[O-])ccc6F)c6ccc([nH]6)c(-c6cc(S(=O)(=O)[O-])ccc6F)c6nc(c(-c7cc(S(=O)(=O)[O-])ccc7F)c7ccc4[nH]7)C=C6)C=C5)cc3)CC2)c1
REMARK SMILES IDX 20 1 19 2 18 3 17 4 15 5 16 6 13 8 10 9 11 10 91 11 12 12
REMARK SMILES IDX 90 13 14 14 7 15 8 16 9 17 6 18 3 19 4 20 92 21 5 22 2 23
REMARK SMILES IDX 1 24 21 25 22 26 23 27 24 28 25 29 26 31 27 32 28 33 89 34
REMARK SMILES IDX 29 35 88 36 30 37 31 38 32 39 82 40 33 41 87 42 81 43 83 44
REMARK SMILES IDX 34 45 86 46 80 47 79 48 35 50 67 51 47 52 66 53 48 54 51 55
REMARK SMILES IDX 65 56 84 57 49 58 50 59 64 61 85 62 52 63 36 64 37 65 45 66
REMARK SMILES IDX 38 67 44 68 46 69 43 70 39 71 40 72 41 73 42 74 68 75 69 76
REMARK SMILES IDX 77 77 70 78 76 79 78 80 75 81 71 82 72 83 73 84 74 85 53 86
REMARK SMILES IDX 54 87 62 88 55 89 61 90 63 91 60 92 56 93 57 94 58 95 59 96
REMARK H PARENT 17 7 24 30 83 49 51 60
REMARK Flexibility Score: inf
ROOT
ATOM      1  C   UNL A   1      32.317  30.035  27.177  1.00  0.00     0.002 C 
ENDROOT
BRANCH   1   2
ATOM      2  C   UNL A   1      31.804  30.183  25.747  1.00  0.00     0.021 C 
BRANCH   2   3
ATOM      3  C   UNL A   1      32.538  29.267  24.779  1.00  0.00     0.116 C 
BRANCH   3   4
ATOM      4  N   UNL A   1      31.636  28.792  23.728  1.00  0.00    -0.356 N 
ATOM      5  C   UNL A   1      31.467  27.538  23.201  1.00  0.00     0.226 C 
ATOM      6  O   UNL A   1      30.674  27.386  22.275  1.00  0.00    -0.275 OA
ATOM      7  H   UNL A   1      31.058  29.486  23.337  1.00  0.00     0.163 HD
BRANCH   5   8
ATOM      8  C   UNL A   1      32.231  26.370  23.834  1.00  0.00     0.049 C 
ATOM      9  N   UNL A   1      31.004  24.251  25.445  1.00  0.00    -0.196 NA
ATOM     10  C   UNL A   1      30.587  24.318  24.052  1.00  0.00     0.103 C 
ATOM     11  C   UNL A   1      31.081  25.574  26.065  1.00  0.00     0.103 C 
ATOM     12  C   UNL A   1      31.639  25.041  23.223  1.00  0.00     0.033 C 
ATOM     13  C   UNL A   1      32.166  26.412  25.402  1.00  0.00     0.033 C 
ATOM     14  C   UNL A   1      33.733  26.652  23.448  1.00  0.00     0.022 C 
BRANCH   9  15
ATOM     15  S   UNL A   1      31.709  22.848  26.100  1.00  0.00     0.262 S 
ATOM     16  O   UNL A   1      30.959  21.713  25.633  1.00  0.00    -0.205 OA
ATOM     17  O   UNL A   1      31.948  23.099  27.515  1.00  0.00    -0.205 OA
BRANCH  15  18
ATOM     18  C   UNL A   1      33.325  22.580  25.453  1.00  0.00     0.188 A 
ATOM     19  N   UNL A   1      35.440  22.955  24.929  1.00  0.00    -0.336 N 
ATOM     20  C   UNL A   1      35.073  21.723  24.490  1.00  0.00     0.201 A 
ATOM     21  C   UNL A   1      34.344  23.481  25.537  1.00  0.00     0.129 A 
ATOM     22  N   UNL A   1      33.808  21.457  24.788  1.00  0.00    -0.224 NA
BRANCH  19  23
ATOM     23  C   UNL A   1      36.681  23.696  24.884  1.00  0.00     0.120 C 
ATOM     24  C   UNL A   1      37.661  23.556  26.025  1.00  0.00     0.027 C 
ENDBRANCH  19  23
ENDBRANCH  15  18
ENDBRANCH   9  15
ENDBRANCH   5   8
ENDBRANCH   3   4
ENDBRANCH   2   3
ENDBRANCH   1   2
BRANCH   1  25
ATOM     25  C   UNL A   1      33.344  31.098  27.594  1.00  0.00     0.002 C 
BRANCH  25  26
ATOM     26  C   UNL A   1      34.809  30.770  27.269  1.00  0.00     0.021 C 
BRANCH  26  27
ATOM     27  C   UNL A   1      35.350  29.591  28.061  1.00  0.00     0.116 C 
BRANCH  27  28
ATOM     28  N   UNL A   1      35.536  29.932  29.469  1.00  0.00    -0.352 N 
ATOM     29  C   UNL A   1      36.532  29.516  30.328  1.00  0.00     0.251 C 
ATOM     30  H   UNL A   1      34.863  30.538  29.854  1.00  0.00     0.163 HD
ATOM     31  O   UNL A   1      36.351  29.544  31.541  1.00  0.00    -0.269 OA
BRANCH  29  32
ATOM     32  C   UNL A   1      37.809  29.055  29.757  1.00  0.00     0.039 A 
ATOM     33  C   UNL A   1      38.407  29.698  28.671  1.00  0.00     0.014 A 
ATOM     34  C   UNL A   1      38.417  27.954  30.353  1.00  0.00     0.014 A 
ATOM     35  C   UNL A   1      39.654  29.250  28.237  1.00  0.00     0.010 A 
ATOM     36  C   UNL A   1      39.712  27.636  30.050  1.00  0.00     0.010 A 
ATOM     37  C   UNL A   1      40.305  28.222  28.943  1.00  0.00    -0.014 A 
BRANCH  37  38
ATOM     38  C   UNL A   1      41.681  27.837  28.652  1.00  0.00     0.031 A 
ATOM     39  C   UNL A   1      41.771  26.565  27.892  1.00  0.00     0.074 A 
ATOM     40  C   UNL A   1      42.736  28.667  28.828  1.00  0.00     0.049 A 
ATOM     41  N   UNL A   1      42.119  25.407  28.344  1.00  0.00    -0.248 NA
ATOM     42  C   UNL A   1      41.192  26.516  26.537  1.00  0.00     0.031 C 
ATOM     43  C   UNL A   1      42.729  30.058  29.299  1.00  0.00     0.029 A 
ATOM     44  N   UNL A   1      44.050  28.471  28.532  1.00  0.00    -0.354 N 
ATOM     45  C   UNL A   1      42.097  24.556  27.246  1.00  0.00     0.074 A 
ATOM     46  C   UNL A   1      41.271  25.210  26.271  1.00  0.00     0.031 C 
ATOM     47  C   UNL A   1      43.927  30.636  29.049  1.00  0.00     0.029 A 
ATOM     48  C   UNL A   1      44.843  29.622  28.558  1.00  0.00     0.049 A 
ATOM     49  H   UNL A   1      44.416  27.583  28.316  1.00  0.00     0.167 HD
ATOM     50  C   UNL A   1      43.016  23.557  27.131  1.00  0.00     0.034 A 
ATOM     51  C   UNL A   1      46.159  29.736  28.214  1.00  0.00     0.034 A 
ATOM     52  C   UNL A   1      43.672  23.328  28.406  1.00  0.00     0.049 A 
ATOM     53  C   UNL A   1      46.729  28.370  28.320  1.00  0.00     0.074 A 
ATOM     54  C   UNL A   1      43.241  22.987  29.673  1.00  0.00     0.029 A 
ATOM     55  N   UNL A   1      44.931  23.866  28.580  1.00  0.00    -0.354 N 
ATOM     56  N   UNL A   1      46.812  27.724  29.451  1.00  0.00    -0.248 NA
ATOM     57  C   UNL A   1      46.713  27.532  27.131  1.00  0.00     0.031 C 
ATOM     58  C   UNL A   1      44.026  23.788  30.558  1.00  0.00     0.029 A 
ATOM     59  C   UNL A   1      44.965  24.494  29.801  1.00  0.00     0.049 A 
ATOM     60  H   UNL A   1      45.676  23.809  27.939  1.00  0.00     0.167 HD
ATOM     61  C   UNL A   1      46.403  26.432  29.158  1.00  0.00     0.074 A 
ATOM     62  C   UNL A   1      46.451  26.348  27.696  1.00  0.00     0.031 C 
ATOM     63  C   UNL A   1      45.784  25.656  30.098  1.00  0.00     0.034 A 
BRANCH  50  64
ATOM     64  C   UNL A   1      43.637  23.099  25.823  1.00  0.00     0.023 A 
ATOM     65  C   UNL A   1      43.553  21.723  25.538  1.00  0.00     0.031 A 
ATOM     66  C   UNL A   1      44.532  23.834  25.010  1.00  0.00     0.131 A 
ATOM     67  C   UNL A   1      44.421  21.119  24.612  1.00  0.00     0.055 A 
ATOM     68  C   UNL A   1      45.349  23.236  24.045  1.00  0.00     0.041 A 
ATOM     69  F   UNL A   1      44.736  25.147  25.143  1.00  0.00    -0.206 F 
ATOM     70  C   UNL A   1      45.327  21.866  23.867  1.00  0.00     0.022 A 
BRANCH  67  71
ATOM     71  S   UNL A   1      44.471  19.312  24.547  1.00  0.00     0.124 S 
ATOM     72  O   UNL A   1      45.629  19.025  25.389  1.00  0.00    -0.237 OA
ATOM     73  O   UNL A   1      43.168  18.958  25.099  1.00  0.00    -0.237 OA
ATOM     74  O   UNL A   1      44.645  19.030  23.124  1.00  0.00    -0.744 OA
ENDBRANCH  67  71
ENDBRANCH  50  64
BRANCH  51  75
ATOM     75  C   UNL A   1      46.832  30.855  27.480  1.00  0.00     0.023 A 
ATOM     76  C   UNL A   1      46.151  31.981  26.956  1.00  0.00     0.031 A 
ATOM     77  C   UNL A   1      48.242  30.939  27.519  1.00  0.00     0.131 A 
ATOM     78  C   UNL A   1      46.879  33.116  26.503  1.00  0.00     0.055 A 
ATOM     79  C   UNL A   1      48.951  32.062  27.082  1.00  0.00     0.041 A 
ATOM     80  F   UNL A   1      48.978  29.961  28.069  1.00  0.00    -0.206 F 
ATOM     81  C   UNL A   1      48.272  33.158  26.578  1.00  0.00     0.022 A 
BRANCH  78  82
ATOM     82  S   UNL A   1      46.022  34.599  25.860  1.00  0.00     0.124 S 
ATOM     83  O   UNL A   1      45.561  34.153  24.551  1.00  0.00    -0.237 OA
ATOM     84  O   UNL A   1      44.993  34.829  26.868  1.00  0.00    -0.237 OA
ATOM     85  O   UNL A   1      47.076  35.615  25.822  1.00  0.00    -0.744 OA
ENDBRANCH  78  82
ENDBRANCH  51  75
BRANCH  63  86
ATOM     86  C   UNL A   1      45.807  26.130  31.542  1.00  0.00     0.023 A 
ATOM     87  C   UNL A   1      44.708  26.684  32.243  1.00  0.00     0.031 A 
ATOM     88  C   UNL A   1      46.986  25.890  32.270  1.00  0.00     0.131 A 
ATOM     89  C   UNL A   1      44.824  26.984  33.617  1.00  0.00     0.055 A 
ATOM     90  C   UNL A   1      47.087  26.164  33.633  1.00  0.00     0.041 A 
ATOM     91  F   UNL A   1      48.055  25.342  31.670  1.00  0.00    -0.206 F 
ATOM     92  C   UNL A   1      46.008  26.716  34.311  1.00  0.00     0.022 A 
BRANCH  89  93
ATOM     93  S   UNL A   1      43.438  27.738  34.535  1.00  0.00     0.124 S 
ATOM     94  O   UNL A   1      44.076  28.807  35.296  1.00  0.00    -0.237 OA
ATOM     95  O   UNL A   1      42.540  28.164  33.464  1.00  0.00    -0.237 OA
ATOM     96  O   UNL A   1      42.926  26.634  35.350  1.00  0.00    -0.744 OA
ENDBRANCH  89  93
ENDBRANCH  63  86
ENDBRANCH  37  38
ENDBRANCH  29  32
ENDBRANCH  27  28
ENDBRANCH  26  27
ENDBRANCH  25  26
ENDBRANCH   1  25
TORSDOF 19
ENDMDL
MODEL 3
REMARK VINA RESULT:     -12.7      3.206      8.677
REMARK SMILES CCn1cnc(S(=O)(=O)N2CCC(C)(C(=O)NCCCCCCNC(=O)c3ccc(-c4c5nc(c(-c6cc(S(=O)(=O)[O-])ccc6F)c6ccc([nH]6)c(-c6cc(S(=O)(=O)[O-])ccc6F)c6nc(c(-c7cc(S(=O)(=O)[O-])ccc7F)c7ccc4[nH]7)C=C6)C=C5)cc3)CC2)c1
REMARK SMILES IDX 20 1 19 2 18 3 17 4 15 5 16 6 13 8 10 9 11 10 91 11 12 12
REMARK SMILES IDX 90 13 14 14 7 15 8 16 9 17 6 18 3 19 4 20 92 21 5 22 2 23
REMARK SMILES IDX 1 24 21 25 22 26 23 27 24 28 25 29 26 31 27 32 28 33 89 34
REMARK SMILES IDX 29 35 88 36 30 37 31 38 32 39 82 40 33 41 87 42 81 43 83 44
REMARK SMILES IDX 34 45 86 46 80 47 79 48 35 50 67 51 47 52 66 53 48 54 51 55
REMARK SMILES IDX 65 56 84 57 49 58 50 59 64 61 85 62 52 63 36 64 37 65 45 66
REMARK SMILES IDX 38 67 44 68 46 69 43 70 39 71 40 72 41 73 42 74 68 75 69 76
REMARK SMILES IDX 77 77 70 78 76 79 78 80 75 81 71 82 72 83 73 84 74 85 53 86
REMARK SMILES IDX 54 87 62 88 55 89 61 90 63 91 60 92 56 93 57 94 58 95 59 96
REMARK H PARENT 17 7 24 30 83 49 51 60
REMARK Flexibility Score: inf
ROOT
ATOM      1  C   UNL A   1      36.258  21.910  24.627  1.00  0.00     0.002 C 
ENDROOT
BRANCH   1   2
ATOM      2  C   UNL A   1      36.675  22.927  25.686  1.00  0.00     0.021 C 
BRANCH   2   3
ATOM      3  C   UNL A   1      35.487  23.705  26.231  1.00  0.00     0.116 C 
BRANCH   3   4
ATOM      4  N   UNL A   1      34.301  22.853  26.313  1.00  0.00    -0.356 N 
ATOM      5  C   UNL A   1      32.997  23.109  25.974  1.00  0.00     0.226 C 
ATOM      6  O   UNL A   1      32.150  22.243  26.182  1.00  0.00    -0.275 OA
ATOM      7  H   UNL A   1      34.465  21.951  26.670  1.00  0.00     0.163 HD
BRANCH   5   8
ATOM      8  C   UNL A   1      32.667  24.440  25.291  1.00  0.00     0.049 C 
ATOM      9  N   UNL A   1      32.891  24.940  22.412  1.00  0.00    -0.196 NA
ATOM     10  C   UNL A   1      31.909  23.943  22.813  1.00  0.00     0.103 C 
ATOM     11  C   UNL A   1      34.150  24.807  23.146  1.00  0.00     0.103 C 
ATOM     12  C   UNL A   1      31.502  24.161  24.264  1.00  0.00     0.033 C 
ATOM     13  C   UNL A   1      33.935  25.086  24.628  1.00  0.00     0.033 C 
ATOM     14  C   UNL A   1      32.267  25.385  26.487  1.00  0.00     0.022 C 
BRANCH   9  15
ATOM     15  S   UNL A   1      32.449  26.318  21.518  1.00  0.00     0.262 S 
ATOM     16  O   UNL A   1      31.491  25.916  20.524  1.00  0.00    -0.205 OA
ATOM     17  O   UNL A   1      33.674  27.031  21.181  1.00  0.00    -0.205 OA
BRANCH  15  18
ATOM     18  C   UNL A   1      31.564  27.471  22.513  1.00  0.00     0.188 A 
ATOM     19  N   UNL A   1      31.119  28.887  24.151  1.00  0.00    -0.336 N 
ATOM     20  C   UNL A   1      30.041  28.786  23.331  1.00  0.00     0.201 A 
ATOM     21  C   UNL A   1      32.069  28.068  23.629  1.00  0.00     0.129 A 
ATOM     22  N   UNL A   1      30.269  27.946  22.329  1.00  0.00    -0.224 NA
BRANCH  19  23
ATOM     23  C   UNL A   1      31.393  29.665  25.339  1.00  0.00     0.120 C 
ATOM     24  C   UNL A   1      32.807  29.729  25.865  1.00  0.00     0.027 C 
ENDBRANCH  19  23
ENDBRANCH  15  18
ENDBRANCH   9  15
ENDBRANCH   5   8
ENDBRANCH   3   4
ENDBRANCH   2   3
ENDBRANCH   1   2
BRANCH   1  25
ATOM     25  C   UNL A   1      36.478  20.446  25.035  1.00  0.00     0.002 C 
BRANCH  25  26
ATOM     26  C   UNL A   1      37.876  19.878  24.746  1.00  0.00     0.021 C 
BRANCH  26  27
ATOM     27  C   UNL A   1      38.898  20.231  25.814  1.00  0.00     0.116 C 
BRANCH  27  28
ATOM     28  N   UNL A   1      40.009  19.282  25.826  1.00  0.00    -0.352 N 
ATOM     29  C   UNL A   1      41.360  19.544  25.922  1.00  0.00     0.251 C 
ATOM     30  H   UNL A   1      39.760  18.332  25.758  1.00  0.00     0.163 HD
ATOM     31  O   UNL A   1      42.177  18.720  25.523  1.00  0.00    -0.269 OA
BRANCH  29  32
ATOM     32  C   UNL A   1      41.791  20.818  26.521  1.00  0.00     0.039 A 
ATOM     33  C   UNL A   1      42.304  21.862  25.748  1.00  0.00     0.014 A 
ATOM     34  C   UNL A   1      41.654  20.956  27.899  1.00  0.00     0.014 A 
ATOM     35  C   UNL A   1      42.618  23.065  26.378  1.00  0.00     0.010 A 
ATOM     36  C   UNL A   1      41.785  22.187  28.483  1.00  0.00     0.010 A 
ATOM     37  C   UNL A   1      42.343  23.221  27.748  1.00  0.00    -0.014 A 
BRANCH  37  38
ATOM     38  C   UNL A   1      42.477  24.508  28.422  1.00  0.00     0.031 A 
ATOM     39  C   UNL A   1      41.344  25.424  28.137  1.00  0.00     0.074 A 
ATOM     40  C   UNL A   1      43.391  24.745  29.392  1.00  0.00     0.049 A 
ATOM     41  N   UNL A   1      41.346  26.450  27.354  1.00  0.00    -0.248 NA
ATOM     42  C   UNL A   1      39.996  25.031  28.585  1.00  0.00     0.031 C 
ATOM     43  C   UNL A   1      44.373  23.815  29.962  1.00  0.00     0.029 A 
ATOM     44  N   UNL A   1      43.578  25.860  30.151  1.00  0.00    -0.354 N 
ATOM     45  C   UNL A   1      40.077  27.005  27.462  1.00  0.00     0.074 A 
ATOM     46  C   UNL A   1      39.245  25.959  27.986  1.00  0.00     0.031 C 
ATOM     47  C   UNL A   1      44.887  24.328  31.104  1.00  0.00     0.029 A 
ATOM     48  C   UNL A   1      44.406  25.689  31.263  1.00  0.00     0.049 A 
ATOM     49  H   UNL A   1      43.161  26.724  29.931  1.00  0.00     0.167 HD
ATOM     50  C   UNL A   1      39.909  28.356  27.413  1.00  0.00     0.034 A 
ATOM     51  C   UNL A   1      44.690  26.599  32.240  1.00  0.00     0.034 A 
ATOM     52  C   UNL A   1      41.102  28.991  26.883  1.00  0.00     0.049 A 
ATOM     53  C   UNL A   1      44.408  27.932  31.651  1.00  0.00     0.074 A 
ATOM     54  C   UNL A   1      41.816  28.888  25.705  1.00  0.00     0.029 A 
ATOM     55  N   UNL A   1      41.968  29.575  27.785  1.00  0.00    -0.354 N 
ATOM     56  N   UNL A   1      45.080  28.416  30.642  1.00  0.00    -0.248 NA
ATOM     57  C   UNL A   1      43.072  28.483  31.823  1.00  0.00     0.031 C 
ATOM     58  C   UNL A   1      43.188  28.939  26.100  1.00  0.00     0.029 A 
ATOM     59  C   UNL A   1      43.245  29.176  27.476  1.00  0.00     0.049 A 
ATOM     60  H   UNL A   1      41.713  30.173  28.525  1.00  0.00     0.167 HD
ATOM     61  C   UNL A   1      44.122  28.970  29.805  1.00  0.00     0.074 A 
ATOM     62  C   UNL A   1      42.917  29.069  30.632  1.00  0.00     0.031 C 
ATOM     63  C   UNL A   1      44.309  29.016  28.452  1.00  0.00     0.034 A 
BRANCH  50  64
ATOM     64  C   UNL A   1      38.890  29.131  28.230  1.00  0.00     0.023 A 
ATOM     65  C   UNL A   1      39.018  29.052  29.629  1.00  0.00     0.031 A 
ATOM     66  C   UNL A   1      37.671  29.675  27.762  1.00  0.00     0.131 A 
ATOM     67  C   UNL A   1      37.937  29.353  30.476  1.00  0.00     0.055 A 
ATOM     68  C   UNL A   1      36.620  30.033  28.613  1.00  0.00     0.041 A 
ATOM     69  F   UNL A   1      37.381  29.823  26.466  1.00  0.00    -0.206 F 
ATOM     70  C   UNL A   1      36.733  29.837  29.976  1.00  0.00     0.022 A 
BRANCH  67  71
ATOM     71  S   UNL A   1      38.078  28.913  32.224  1.00  0.00     0.124 S 
ATOM     72  O   UNL A   1      36.764  29.300  32.727  1.00  0.00    -0.237 OA
ATOM     73  O   UNL A   1      38.345  27.480  32.149  1.00  0.00    -0.237 OA
ATOM     74  O   UNL A   1      39.194  29.733  32.690  1.00  0.00    -0.744 OA
ENDBRANCH  67  71
ENDBRANCH  50  64
BRANCH  51  75
ATOM     75  C   UNL A   1      44.841  26.365  33.711  1.00  0.00     0.023 A 
ATOM     76  C   UNL A   1      43.793  26.528  34.651  1.00  0.00     0.031 A 
ATOM     77  C   UNL A   1      46.001  25.707  34.177  1.00  0.00     0.131 A 
ATOM     78  C   UNL A   1      43.936  26.045  35.980  1.00  0.00     0.055 A 
ATOM     79  C   UNL A   1      46.132  25.225  35.483  1.00  0.00     0.041 A 
ATOM     80  F   UNL A   1      47.020  25.431  33.348  1.00  0.00    -0.206 F 
ATOM     81  C   UNL A   1      45.097  25.385  36.389  1.00  0.00     0.022 A 
BRANCH  78  82
ATOM     82  S   UNL A   1      42.583  26.206  37.200  1.00  0.00     0.124 S 
ATOM     83  O   UNL A   1      41.922  27.435  36.777  1.00  0.00    -0.237 OA
ATOM     84  O   UNL A   1      41.836  24.968  37.008  1.00  0.00    -0.237 OA
ATOM     85  O   UNL A   1      43.284  26.302  38.482  1.00  0.00    -0.744 OA
ENDBRANCH  78  82
ENDBRANCH  51  75
BRANCH  63  86
ATOM     86  C   UNL A   1      45.697  28.711  27.911  1.00  0.00     0.023 A 
ATOM     87  C   UNL A   1      46.151  27.439  27.484  1.00  0.00     0.031 A 
ATOM     88  C   UNL A   1      46.557  29.806  27.715  1.00  0.00     0.131 A 
ATOM     89  C   UNL A   1      47.427  27.304  26.897  1.00  0.00     0.055 A 
ATOM     90  C   UNL A   1      47.806  29.672  27.112  1.00  0.00     0.041 A 
ATOM     91  F   UNL A   1      46.174  31.042  28.075  1.00  0.00    -0.206 F 
ATOM     92  C   UNL A   1      48.248  28.420  26.704  1.00  0.00     0.022 A 
BRANCH  89  93
ATOM     93  S   UNL A   1      48.055  25.672  26.376  1.00  0.00     0.124 S 
ATOM     94  O   UNL A   1      48.269  24.972  27.638  1.00  0.00    -0.237 OA
ATOM     95  O   UNL A   1      46.970  25.164  25.540  1.00  0.00    -0.237 OA
ATOM     96  O   UNL A   1      49.282  25.994  25.644  1.00  0.00    -0.744 OA
ENDBRANCH  89  93
ENDBRANCH  63  86
ENDBRANCH  37  38
ENDBRANCH  29  32
ENDBRANCH  27  28
ENDBRANCH  26  27
ENDBRANCH  25  26
ENDBRANCH   1  25
TORSDOF 19
ENDMDL
