MODEL 1
REMARK VINA RESULT:     -11.5      0.000      0.000
REMARK SMILES O=C(Cn1nc(-c2ccco2)ccc1=O)NCCCCCCNC(=O)c1ccc(-c2c3nc(c(-c4cc(S(=O)(=O)[O-])ccc4F)c4ccc([nH]4)c(-c4cc(S(=O)(=O)[O-])ccc4F)c4nc(c(-c5cc(S(=O)(=O)[O-])ccc5F)c5ccc2[nH]5)C=C4)C=C3)cc1
REMARK SMILES IDX 20 1 19 2 18 3 17 4 16 5 1 6 2 7 3 9 4 10 5 11 14 12 6 13
REMARK SMILES IDX 13 14 15 15 12 16 7 17 8 18 11 19 9 20 10 21 21 22 22 23
REMARK SMILES IDX 23 24 24 25 25 27 26 28 27 29 88 30 28 31 87 32 29 33 30 34
REMARK SMILES IDX 31 35 81 36 32 37 86 38 80 39 82 40 33 41 85 42 79 43 78 44
REMARK SMILES IDX 34 46 66 47 46 48 65 49 47 50 50 51 64 52 83 53 48 54 49 55
REMARK SMILES IDX 63 57 84 58 51 59 35 60 36 61 44 62 37 63 43 64 45 65 42 66
REMARK SMILES IDX 38 67 39 68 40 69 41 70 67 71 68 72 76 73 69 74 75 75 77 76
REMARK SMILES IDX 74 77 70 78 71 79 72 80 73 81 52 82 53 83 61 84 54 85 60 86
REMARK SMILES IDX 62 87 59 88 55 89 56 90 57 91 58 92
REMARK H PARENT 16 8 23 26 82 45 50 56
REMARK Flexibility Score: inf
ROOT
ATOM      1  C   UNL A   1      31.395  29.143  25.409  1.00  0.00     0.002 C 
ENDROOT
BRANCH   1   2
ATOM      2  C   UNL A   1      31.867  28.263  26.572  1.00  0.00     0.002 C 
BRANCH   2   3
ATOM      3  C   UNL A   1      33.261  27.642  26.427  1.00  0.00     0.021 C 
BRANCH   3   4
ATOM      4  C   UNL A   1      33.931  27.867  25.076  1.00  0.00     0.116 C 
BRANCH   4   5
ATOM      5  N   UNL A   1      33.602  26.847  24.100  1.00  0.00    -0.354 N 
ATOM      6  O   UNL A   1      33.005  28.295  22.432  1.00  0.00    -0.273 OA
ATOM      7  C   UNL A   1      33.299  27.154  22.793  1.00  0.00     0.241 C 
ATOM      8  H   UNL A   1      33.595  25.904  24.381  1.00  0.00     0.163 HD
BRANCH   7   9
ATOM      9  C   UNL A   1      33.240  25.981  21.802  1.00  0.00     0.248 C 
BRANCH   9  10
ATOM     10  N   UNL A   1      33.097  24.640  22.369  1.00  0.00    -0.220 N 
ATOM     11  N   UNL A   1      34.276  24.017  22.760  1.00  0.00    -0.166 NA
ATOM     12  C   UNL A   1      31.851  24.228  22.833  1.00  0.00     0.267 A 
ATOM     13  C   UNL A   1      34.185  22.868  23.361  1.00  0.00     0.126 A 
ATOM     14  C   UNL A   1      31.789  22.848  23.358  1.00  0.00     0.076 A 
ATOM     15  O   UNL A   1      30.819  24.888  22.768  1.00  0.00    -0.268 OA
ATOM     16  C   UNL A   1      32.907  22.160  23.589  1.00  0.00     0.040 A 
BRANCH  13  17
ATOM     17  C   UNL A   1      35.376  22.259  23.899  1.00  0.00     0.154 A 
ATOM     18  C   UNL A   1      36.703  22.643  23.830  1.00  0.00     0.052 A 
ATOM     19  O   UNL A   1      35.268  21.128  24.662  1.00  0.00    -0.463 OA
ATOM     20  C   UNL A   1      37.439  21.705  24.593  1.00  0.00     0.043 A 
ATOM     21  C   UNL A   1      36.524  20.786  25.051  1.00  0.00     0.196 A 
ENDBRANCH  13  17
ENDBRANCH   9  10
ENDBRANCH   7   9
ENDBRANCH   4   5
ENDBRANCH   3   4
ENDBRANCH   2   3
ENDBRANCH   1   2
BRANCH   1  22
ATOM     22  C   UNL A   1      31.399  30.650  25.667  1.00  0.00     0.021 C 
BRANCH  22  23
ATOM     23  C   UNL A   1      31.920  31.082  27.032  1.00  0.00     0.116 C 
BRANCH  23  24
ATOM     24  N   UNL A   1      31.964  32.528  27.204  1.00  0.00    -0.352 N 
ATOM     25  C   UNL A   1      32.992  33.310  27.684  1.00  0.00     0.251 C 
ATOM     26  H   UNL A   1      31.148  33.010  26.942  1.00  0.00     0.163 HD
ATOM     27  O   UNL A   1      32.818  34.512  27.865  1.00  0.00    -0.269 OA
BRANCH  25  28
ATOM     28  C   UNL A   1      34.286  32.679  28.029  1.00  0.00     0.039 A 
ATOM     29  C   UNL A   1      34.342  31.332  28.391  1.00  0.00     0.014 A 
ATOM     30  C   UNL A   1      35.441  33.465  28.061  1.00  0.00     0.014 A 
ATOM     31  C   UNL A   1      35.503  30.824  28.966  1.00  0.00     0.010 A 
ATOM     32  C   UNL A   1      36.630  32.927  28.564  1.00  0.00     0.010 A 
ATOM     33  C   UNL A   1      36.653  31.622  29.083  1.00  0.00    -0.014 A 
BRANCH  33  34
ATOM     34  C   UNL A   1      37.853  31.087  29.783  1.00  0.00     0.031 A 
ATOM     35  C   UNL A   1      38.146  31.476  31.208  1.00  0.00     0.074 A 
ATOM     36  C   UNL A   1      38.646  30.199  29.153  1.00  0.00     0.049 A 
ATOM     37  N   UNL A   1      39.126  31.087  31.983  1.00  0.00    -0.248 NA
ATOM     38  C   UNL A   1      37.223  32.427  31.850  1.00  0.00     0.031 C 
ATOM     39  C   UNL A   1      38.452  29.737  27.779  1.00  0.00     0.029 A 
ATOM     40  N   UNL A   1      39.753  29.511  29.583  1.00  0.00    -0.354 N 
ATOM     41  C   UNL A   1      38.947  31.751  33.192  1.00  0.00     0.074 A 
ATOM     42  C   UNL A   1      37.786  32.598  33.038  1.00  0.00     0.031 C 
ATOM     43  C   UNL A   1      39.374  28.809  27.494  1.00  0.00     0.029 A 
ATOM     44  C   UNL A   1      40.270  28.655  28.639  1.00  0.00     0.049 A 
ATOM     45  H   UNL A   1      40.140  29.621  30.481  1.00  0.00     0.167 HD
ATOM     46  C   UNL A   1      39.676  31.650  34.330  1.00  0.00     0.034 A 
ATOM     47  C   UNL A   1      41.348  27.844  28.678  1.00  0.00     0.034 A 
ATOM     48  C   UNL A   1      40.817  30.784  34.480  1.00  0.00     0.049 A 
ATOM     49  C   UNL A   1      42.159  27.771  29.946  1.00  0.00     0.074 A 
ATOM     50  C   UNL A   1      41.606  30.598  35.601  1.00  0.00     0.029 A 
ATOM     51  N   UNL A   1      41.328  29.955  33.491  1.00  0.00    -0.354 N 
ATOM     52  N   UNL A   1      41.956  28.382  31.090  1.00  0.00    -0.248 NA
ATOM     53  C   UNL A   1      43.344  26.902  29.936  1.00  0.00     0.031 C 
ATOM     54  C   UNL A   1      42.625  29.702  35.276  1.00  0.00     0.029 A 
ATOM     55  C   UNL A   1      42.434  29.274  33.971  1.00  0.00     0.049 A 
ATOM     56  H   UNL A   1      40.959  29.865  32.583  1.00  0.00     0.167 HD
ATOM     57  C   UNL A   1      42.974  27.958  31.938  1.00  0.00     0.074 A 
ATOM     58  C   UNL A   1      43.778  27.018  31.186  1.00  0.00     0.031 C 
ATOM     59  C   UNL A   1      43.221  28.323  33.221  1.00  0.00     0.034 A 
BRANCH  46  60
ATOM     60  C   UNL A   1      39.269  32.475  35.526  1.00  0.00     0.023 A 
ATOM     61  C   UNL A   1      39.728  33.800  35.659  1.00  0.00     0.031 A 
ATOM     62  C   UNL A   1      38.543  31.914  36.592  1.00  0.00     0.131 A 
ATOM     63  C   UNL A   1      39.484  34.507  36.843  1.00  0.00     0.055 A 
ATOM     64  C   UNL A   1      38.271  32.636  37.755  1.00  0.00     0.041 A 
ATOM     65  F   UNL A   1      38.083  30.654  36.514  1.00  0.00    -0.206 F 
ATOM     66  C   UNL A   1      38.752  33.934  37.889  1.00  0.00     0.022 A 
BRANCH  63  67
ATOM     67  S   UNL A   1      40.156  36.172  37.100  1.00  0.00     0.124 S 
ATOM     68  O   UNL A   1      41.550  35.884  37.430  1.00  0.00    -0.237 OA
ATOM     69  O   UNL A   1      39.941  36.793  35.795  1.00  0.00    -0.237 OA
ATOM     70  O   UNL A   1      39.356  36.709  38.195  1.00  0.00    -0.744 OA
ENDBRANCH  63  67
ENDBRANCH  46  60
BRANCH  47  71
ATOM     71  C   UNL A   1      41.673  27.015  27.481  1.00  0.00     0.023 A 
ATOM     72  C   UNL A   1      41.349  25.647  27.442  1.00  0.00     0.031 A 
ATOM     73  C   UNL A   1      42.420  27.547  26.417  1.00  0.00     0.131 A 
ATOM     74  C   UNL A   1      41.839  24.842  26.406  1.00  0.00     0.055 A 
ATOM     75  C   UNL A   1      42.843  26.757  25.346  1.00  0.00     0.041 A 
ATOM     76  F   UNL A   1      42.764  28.844  26.414  1.00  0.00    -0.206 F 
ATOM     77  C   UNL A   1      42.570  25.392  25.349  1.00  0.00     0.022 A 
BRANCH  74  78
ATOM     78  S   UNL A   1      41.674  23.036  26.477  1.00  0.00     0.124 S 
ATOM     79  O   UNL A   1      42.324  22.623  25.237  1.00  0.00    -0.237 OA
ATOM     80  O   UNL A   1      42.398  22.718  27.705  1.00  0.00    -0.237 OA
ATOM     81  O   UNL A   1      40.232  22.824  26.536  1.00  0.00    -0.744 OA
ENDBRANCH  74  78
ENDBRANCH  47  71
BRANCH  59  82
ATOM     82  C   UNL A   1      44.407  27.717  33.932  1.00  0.00     0.023 A 
ATOM     83  C   UNL A   1      44.245  26.551  34.705  1.00  0.00     0.031 A 
ATOM     84  C   UNL A   1      45.645  28.381  33.981  1.00  0.00     0.131 A 
ATOM     85  C   UNL A   1      45.287  26.112  35.530  1.00  0.00     0.055 A 
ATOM     86  C   UNL A   1      46.697  27.912  34.769  1.00  0.00     0.041 A 
ATOM     87  F   UNL A   1      45.845  29.502  33.269  1.00  0.00    -0.206 F 
ATOM     88  C   UNL A   1      46.515  26.781  35.561  1.00  0.00     0.022 A 
BRANCH  85  89
ATOM     89  S   UNL A   1      45.060  24.710  36.661  1.00  0.00     0.124 S 
ATOM     90  O   UNL A   1      45.300  23.569  35.779  1.00  0.00    -0.237 OA
ATOM     91  O   UNL A   1      46.095  24.953  37.662  1.00  0.00    -0.237 OA
ATOM     92  O   UNL A   1      43.687  24.855  37.130  1.00  0.00    -0.744 OA
ENDBRANCH  85  89
ENDBRANCH  59  82
ENDBRANCH  33  34
ENDBRANCH  25  28
ENDBRANCH  23  24
ENDBRANCH  22  23
ENDBRANCH   1  22
TORSDOF 18
ENDMDL
MODEL 2
REMARK VINA RESULT:     -11.4      4.756     10.411
REMARK SMILES O=C(Cn1nc(-c2ccco2)ccc1=O)NCCCCCCNC(=O)c1ccc(-c2c3nc(c(-c4cc(S(=O)(=O)[O-])ccc4F)c4ccc([nH]4)c(-c4cc(S(=O)(=O)[O-])ccc4F)c4nc(c(-c5cc(S(=O)(=O)[O-])ccc5F)c5ccc2[nH]5)C=C4)C=C3)cc1
REMARK SMILES IDX 20 1 19 2 18 3 17 4 16 5 1 6 2 7 3 9 4 10 5 11 14 12 6 13
REMARK SMILES IDX 13 14 15 15 12 16 7 17 8 18 11 19 9 20 10 21 21 22 22 23
REMARK SMILES IDX 23 24 24 25 25 27 26 28 27 29 88 30 28 31 87 32 29 33 30 34
REMARK SMILES IDX 31 35 81 36 32 37 86 38 80 39 82 40 33 41 85 42 79 43 78 44
REMARK SMILES IDX 34 46 66 47 46 48 65 49 47 50 50 51 64 52 83 53 48 54 49 55
REMARK SMILES IDX 63 57 84 58 51 59 35 60 36 61 44 62 37 63 43 64 45 65 42 66
REMARK SMILES IDX 38 67 39 68 40 69 41 70 67 71 68 72 76 73 69 74 75 75 77 76
REMARK SMILES IDX 74 77 70 78 71 79 72 80 73 81 52 82 53 83 61 84 54 85 60 86
REMARK SMILES IDX 62 87 59 88 55 89 56 90 57 91 58 92
REMARK H PARENT 16 8 23 26 82 45 50 56
REMARK Flexibility Score: inf
ROOT
ATOM      1  C   UNL A   1      36.658  22.602  23.469  1.00  0.00     0.002 C 
ENDROOT
BRANCH   1   2
ATOM      2  C   UNL A   1      35.290  23.292  23.446  1.00  0.00     0.002 C 
BRANCH   2   3
ATOM      3  C   UNL A   1      34.093  22.435  23.873  1.00  0.00     0.021 C 
BRANCH   3   4
ATOM      4  C   UNL A   1      32.760  23.172  23.933  1.00  0.00     0.116 C 
BRANCH   4   5
ATOM      5  N   UNL A   1      32.754  24.405  23.170  1.00  0.00    -0.354 N 
ATOM      6  O   UNL A   1      30.480  24.653  23.135  1.00  0.00    -0.273 OA
ATOM      7  C   UNL A   1      31.603  25.128  22.956  1.00  0.00     0.241 C 
ATOM      8  H   UNL A   1      33.601  24.735  22.793  1.00  0.00     0.163 HD
BRANCH   7   9
ATOM      9  C   UNL A   1      31.771  26.541  22.376  1.00  0.00     0.248 C 
BRANCH   9  10
ATOM     10  N   UNL A   1      31.463  27.664  23.263  1.00  0.00    -0.220 N 
ATOM     11  N   UNL A   1      32.380  27.903  24.279  1.00  0.00    -0.166 NA
ATOM     12  C   UNL A   1      30.545  28.624  22.848  1.00  0.00     0.267 A 
ATOM     13  C   UNL A   1      32.197  28.952  25.025  1.00  0.00     0.126 A 
ATOM     14  C   UNL A   1      30.269  29.704  23.819  1.00  0.00     0.076 A 
ATOM     15  O   UNL A   1      29.918  28.596  21.795  1.00  0.00    -0.268 OA
ATOM     16  C   UNL A   1      31.036  29.858  24.898  1.00  0.00     0.040 A 
BRANCH  13  17
ATOM     17  C   UNL A   1      33.200  29.305  26.000  1.00  0.00     0.154 A 
ATOM     18  C   UNL A   1      34.340  28.639  26.412  1.00  0.00     0.052 A 
ATOM     19  O   UNL A   1      33.116  30.509  26.646  1.00  0.00    -0.463 OA
ATOM     20  C   UNL A   1      34.987  29.481  27.348  1.00  0.00     0.043 A 
ATOM     21  C   UNL A   1      34.186  30.591  27.478  1.00  0.00     0.196 A 
ENDBRANCH  13  17
ENDBRANCH   9  10
ENDBRANCH   7   9
ENDBRANCH   4   5
ENDBRANCH   3   4
ENDBRANCH   2   3
ENDBRANCH   1   2
BRANCH   1  22
ATOM     22  C   UNL A   1      36.735  21.297  24.261  1.00  0.00     0.021 C 
BRANCH  22  23
ATOM     23  C   UNL A   1      37.444  21.385  25.607  1.00  0.00     0.116 C 
BRANCH  23  24
ATOM     24  N   UNL A   1      38.579  20.479  25.724  1.00  0.00    -0.352 N 
ATOM     25  C   UNL A   1      39.839  20.733  26.222  1.00  0.00     0.251 C 
ATOM     26  H   UNL A   1      38.425  19.562  25.404  1.00  0.00     0.163 HD
ATOM     27  O   UNL A   1      40.716  19.877  26.146  1.00  0.00    -0.269 OA
BRANCH  25  28
ATOM     28  C   UNL A   1      40.138  22.063  26.798  1.00  0.00     0.039 A 
ATOM     29  C   UNL A   1      39.591  23.218  26.236  1.00  0.00     0.014 A 
ATOM     30  C   UNL A   1      41.035  22.158  27.867  1.00  0.00     0.014 A 
ATOM     31  C   UNL A   1      40.085  24.464  26.611  1.00  0.00     0.010 A 
ATOM     32  C   UNL A   1      41.469  23.416  28.297  1.00  0.00     0.010 A 
ATOM     33  C   UNL A   1      41.047  24.577  27.628  1.00  0.00    -0.014 A 
BRANCH  33  34
ATOM     34  C   UNL A   1      41.627  25.910  27.948  1.00  0.00     0.031 A 
ATOM     35  C   UNL A   1      42.998  26.289  27.453  1.00  0.00     0.074 A 
ATOM     36  C   UNL A   1      40.890  26.805  28.634  1.00  0.00     0.049 A 
ATOM     37  N   UNL A   1      43.649  27.414  27.611  1.00  0.00    -0.248 NA
ATOM     38  C   UNL A   1      43.739  25.277  26.682  1.00  0.00     0.031 C 
ATOM     39  C   UNL A   1      39.545  26.555  29.151  1.00  0.00     0.029 A 
ATOM     40  N   UNL A   1      41.150  28.103  28.995  1.00  0.00    -0.354 N 
ATOM     41  C   UNL A   1      44.874  27.241  26.975  1.00  0.00     0.074 A 
ATOM     42  C   UNL A   1      44.893  25.890  26.460  1.00  0.00     0.031 C 
ATOM     43  C   UNL A   1      39.078  27.675  29.718  1.00  0.00     0.029 A 
ATOM     44  C   UNL A   1      40.114  28.705  29.670  1.00  0.00     0.049 A 
ATOM     45  H   UNL A   1      41.999  28.559  28.793  1.00  0.00     0.167 HD
ATOM     46  C   UNL A   1      45.882  28.133  26.821  1.00  0.00     0.034 A 
ATOM     47  C   UNL A   1      40.005  29.941  30.200  1.00  0.00     0.034 A 
ATOM     48  C   UNL A   1      45.842  29.485  27.318  1.00  0.00     0.049 A 
ATOM     49  C   UNL A   1      41.151  30.906  30.041  1.00  0.00     0.074 A 
ATOM     50  C   UNL A   1      46.806  30.470  27.193  1.00  0.00     0.029 A 
ATOM     51  N   UNL A   1      44.786  30.048  28.022  1.00  0.00    -0.354 N 
ATOM     52  N   UNL A   1      42.289  30.736  29.409  1.00  0.00    -0.248 NA
ATOM     53  C   UNL A   1      41.006  32.230  30.663  1.00  0.00     0.031 C 
ATOM     54  C   UNL A   1      46.360  31.607  27.867  1.00  0.00     0.029 A 
ATOM     55  C   UNL A   1      45.087  31.358  28.356  1.00  0.00     0.049 A 
ATOM     56  H   UNL A   1      43.947  29.585  28.250  1.00  0.00     0.167 HD
ATOM     57  C   UNL A   1      42.985  31.933  29.541  1.00  0.00     0.074 A 
ATOM     58  C   UNL A   1      42.131  32.830  30.291  1.00  0.00     0.031 C 
ATOM     59  C   UNL A   1      44.223  32.254  29.088  1.00  0.00     0.034 A 
BRANCH  46  60
ATOM     60  C   UNL A   1      47.121  27.706  26.073  1.00  0.00     0.023 A 
ATOM     61  C   UNL A   1      47.229  27.949  24.690  1.00  0.00     0.031 A 
ATOM     62  C   UNL A   1      48.127  26.945  26.694  1.00  0.00     0.131 A 
ATOM     63  C   UNL A   1      48.301  27.410  23.969  1.00  0.00     0.055 A 
ATOM     64  C   UNL A   1      49.213  26.441  25.978  1.00  0.00     0.041 A 
ATOM     65  F   UNL A   1      48.069  26.685  28.011  1.00  0.00    -0.206 F 
ATOM     66  C   UNL A   1      49.298  26.663  24.606  1.00  0.00     0.022 A 
BRANCH  63  67
ATOM     67  S   UNL A   1      48.417  27.603  22.169  1.00  0.00     0.124 S 
ATOM     68  O   UNL A   1      49.570  28.490  22.037  1.00  0.00    -0.237 OA
ATOM     69  O   UNL A   1      48.635  26.228  21.727  1.00  0.00    -0.237 OA
ATOM     70  O   UNL A   1      47.135  28.190  21.796  1.00  0.00    -0.744 OA
ENDBRANCH  63  67
ENDBRANCH  46  60
BRANCH  47  71
ATOM     71  C   UNL A   1      38.736  30.324  30.887  1.00  0.00     0.023 A 
ATOM     72  C   UNL A   1      37.812  31.184  30.267  1.00  0.00     0.031 A 
ATOM     73  C   UNL A   1      38.491  29.937  32.215  1.00  0.00     0.131 A 
ATOM     74  C   UNL A   1      36.733  31.694  30.999  1.00  0.00     0.055 A 
ATOM     75  C   UNL A   1      37.372  30.388  32.918  1.00  0.00     0.041 A 
ATOM     76  F   UNL A   1      39.349  29.127  32.853  1.00  0.00    -0.206 F 
ATOM     77  C   UNL A   1      36.498  31.289  32.316  1.00  0.00     0.022 A 
BRANCH  74  78
ATOM     78  S   UNL A   1      35.690  33.014  30.318  1.00  0.00     0.124 S 
ATOM     79  O   UNL A   1      36.084  34.162  31.129  1.00  0.00    -0.237 OA
ATOM     80  O   UNL A   1      36.124  33.048  28.923  1.00  0.00    -0.237 OA
ATOM     81  O   UNL A   1      34.332  32.526  30.531  1.00  0.00    -0.744 OA
ENDBRANCH  74  78
ENDBRANCH  47  71
BRANCH  59  82
ATOM     82  C   UNL A   1      44.763  33.635  29.370  1.00  0.00     0.023 A 
ATOM     83  C   UNL A   1      44.574  34.670  28.434  1.00  0.00     0.031 A 
ATOM     84  C   UNL A   1      45.600  33.879  30.471  1.00  0.00     0.131 A 
ATOM     85  C   UNL A   1      45.251  35.885  28.592  1.00  0.00     0.055 A 
ATOM     86  C   UNL A   1      46.236  35.109  30.650  1.00  0.00     0.041 A 
ATOM     87  F   UNL A   1      45.820  32.920  31.386  1.00  0.00    -0.206 F 
ATOM     88  C   UNL A   1      46.075  36.113  29.699  1.00  0.00     0.022 A 
BRANCH  85  89
ATOM     89  S   UNL A   1      45.160  37.182  27.325  1.00  0.00     0.124 S 
ATOM     90  O   UNL A   1      46.145  36.719  26.349  1.00  0.00    -0.237 OA
ATOM     91  O   UNL A   1      43.767  37.093  26.895  1.00  0.00    -0.237 OA
ATOM     92  O   UNL A   1      45.520  38.400  28.041  1.00  0.00    -0.744 OA
ENDBRANCH  85  89
ENDBRANCH  59  82
ENDBRANCH  33  34
ENDBRANCH  25  28
ENDBRANCH  23  24
ENDBRANCH  22  23
ENDBRANCH   1  22
TORSDOF 18
ENDMDL
MODEL 3
REMARK VINA RESULT:     -11.2      1.925      2.321
REMARK SMILES O=C(Cn1nc(-c2ccco2)ccc1=O)NCCCCCCNC(=O)c1ccc(-c2c3nc(c(-c4cc(S(=O)(=O)[O-])ccc4F)c4ccc([nH]4)c(-c4cc(S(=O)(=O)[O-])ccc4F)c4nc(c(-c5cc(S(=O)(=O)[O-])ccc5F)c5ccc2[nH]5)C=C4)C=C3)cc1
REMARK SMILES IDX 20 1 19 2 18 3 17 4 16 5 1 6 2 7 3 9 4 10 5 11 14 12 6 13
REMARK SMILES IDX 13 14 15 15 12 16 7 17 8 18 11 19 9 20 10 21 21 22 22 23
REMARK SMILES IDX 23 24 24 25 25 27 26 28 27 29 88 30 28 31 87 32 29 33 30 34
REMARK SMILES IDX 31 35 81 36 32 37 86 38 80 39 82 40 33 41 85 42 79 43 78 44
REMARK SMILES IDX 34 46 66 47 46 48 65 49 47 50 50 51 64 52 83 53 48 54 49 55
REMARK SMILES IDX 63 57 84 58 51 59 35 60 36 61 44 62 37 63 43 64 45 65 42 66
REMARK SMILES IDX 38 67 39 68 40 69 41 70 67 71 68 72 76 73 69 74 75 75 77 76
REMARK SMILES IDX 74 77 70 78 71 79 72 80 73 81 52 82 53 83 61 84 54 85 60 86
REMARK SMILES IDX 62 87 59 88 55 89 56 90 57 91 58 92
REMARK H PARENT 16 8 23 26 82 45 50 56
REMARK Flexibility Score: inf
ROOT
ATOM      1  C   UNL A   1      31.677  29.128  25.159  1.00  0.00     0.002 C 
ENDROOT
BRANCH   1   2
ATOM      2  C   UNL A   1      30.624  28.529  24.220  1.00  0.00     0.002 C 
BRANCH   2   3
ATOM      3  C   UNL A   1      30.874  28.713  22.719  1.00  0.00     0.021 C 
BRANCH   3   4
ATOM      4  C   UNL A   1      31.493  27.510  22.015  1.00  0.00     0.116 C 
BRANCH   4   5
ATOM      5  N   UNL A   1      31.974  26.497  22.933  1.00  0.00    -0.354 N 
ATOM      6  O   UNL A   1      33.642  25.717  21.574  1.00  0.00    -0.273 OA
ATOM      7  C   UNL A   1      33.118  25.771  22.688  1.00  0.00     0.241 C 
ATOM      8  H   UNL A   1      31.466  26.322  23.758  1.00  0.00     0.163 HD
BRANCH   7   9
ATOM      9  C   UNL A   1      33.668  24.933  23.853  1.00  0.00     0.248 C 
BRANCH   9  10
ATOM     10  N   UNL A   1      32.745  23.991  24.487  1.00  0.00    -0.220 N 
ATOM     11  N   UNL A   1      32.915  22.654  24.149  1.00  0.00    -0.166 NA
ATOM     12  C   UNL A   1      32.045  24.386  25.623  1.00  0.00     0.267 A 
ATOM     13  C   UNL A   1      32.184  21.774  24.766  1.00  0.00     0.126 A 
ATOM     14  C   UNL A   1      31.111  23.385  26.178  1.00  0.00     0.076 A 
ATOM     15  O   UNL A   1      32.097  25.500  26.134  1.00  0.00    -0.268 OA
ATOM     16  C   UNL A   1      31.139  22.122  25.752  1.00  0.00     0.040 A 
BRANCH  13  17
ATOM     17  C   UNL A   1      32.429  20.371  24.539  1.00  0.00     0.154 A 
ATOM     18  C   UNL A   1      32.856  19.373  25.396  1.00  0.00     0.052 A 
ATOM     19  O   UNL A   1      32.179  19.836  23.304  1.00  0.00    -0.463 OA
ATOM     20  C   UNL A   1      32.859  18.170  24.650  1.00  0.00     0.043 A 
ATOM     21  C   UNL A   1      32.470  18.511  23.376  1.00  0.00     0.196 A 
ENDBRANCH  13  17
ENDBRANCH   9  10
ENDBRANCH   7   9
ENDBRANCH   4   5
ENDBRANCH   3   4
ENDBRANCH   2   3
ENDBRANCH   1   2
BRANCH   1  22
ATOM     22  C   UNL A   1      31.418  30.561  25.625  1.00  0.00     0.021 C 
BRANCH  22  23
ATOM     23  C   UNL A   1      32.114  30.967  26.919  1.00  0.00     0.116 C 
BRANCH  23  24
ATOM     24  N   UNL A   1      32.164  32.409  27.121  1.00  0.00    -0.352 N 
ATOM     25  C   UNL A   1      33.189  33.175  27.632  1.00  0.00     0.251 C 
ATOM     26  H   UNL A   1      31.355  32.902  26.857  1.00  0.00     0.163 HD
ATOM     27  O   UNL A   1      33.020  34.374  27.835  1.00  0.00    -0.269 OA
BRANCH  25  28
ATOM     28  C   UNL A   1      34.474  32.529  27.983  1.00  0.00     0.039 A 
ATOM     29  C   UNL A   1      34.516  31.174  28.320  1.00  0.00     0.014 A 
ATOM     30  C   UNL A   1      35.634  33.306  28.046  1.00  0.00     0.014 A 
ATOM     31  C   UNL A   1      35.666  30.648  28.902  1.00  0.00     0.010 A 
ATOM     32  C   UNL A   1      36.812  32.750  28.556  1.00  0.00     0.010 A 
ATOM     33  C   UNL A   1      36.819  31.436  29.049  1.00  0.00    -0.014 A 
BRANCH  33  34
ATOM     34  C   UNL A   1      38.005  30.879  29.756  1.00  0.00     0.031 A 
ATOM     35  C   UNL A   1      38.277  31.233  31.195  1.00  0.00     0.074 A 
ATOM     36  C   UNL A   1      38.805  30.003  29.118  1.00  0.00     0.049 A 
ATOM     37  N   UNL A   1      39.243  30.822  31.976  1.00  0.00    -0.248 NA
ATOM     38  C   UNL A   1      37.347  32.172  31.844  1.00  0.00     0.031 C 
ATOM     39  C   UNL A   1      38.632  29.575  27.730  1.00  0.00     0.029 A 
ATOM     40  N   UNL A   1      39.902  29.300  29.550  1.00  0.00    -0.354 N 
ATOM     41  C   UNL A   1      39.047  31.458  33.197  1.00  0.00     0.074 A 
ATOM     42  C   UNL A   1      37.891  32.313  33.044  1.00  0.00     0.031 C 
ATOM     43  C   UNL A   1      39.555  28.649  27.439  1.00  0.00     0.029 A 
ATOM     44  C   UNL A   1      40.432  28.465  28.594  1.00  0.00     0.049 A 
ATOM     45  H   UNL A   1      40.276  29.387  30.456  1.00  0.00     0.167 HD
ATOM     46  C   UNL A   1      39.756  31.327  34.344  1.00  0.00     0.034 A 
ATOM     47  C   UNL A   1      41.506  27.649  28.631  1.00  0.00     0.034 A 
ATOM     48  C   UNL A   1      40.892  30.453  34.492  1.00  0.00     0.049 A 
ATOM     49  C   UNL A   1      42.295  27.542  29.910  1.00  0.00     0.074 A 
ATOM     50  C   UNL A   1      41.662  30.237  35.621  1.00  0.00     0.029 A 
ATOM     51  N   UNL A   1      41.416  29.646  33.492  1.00  0.00    -0.354 N 
ATOM     52  N   UNL A   1      42.076  28.127  31.065  1.00  0.00    -0.248 NA
ATOM     53  C   UNL A   1      43.478  26.669  29.899  1.00  0.00     0.031 C 
ATOM     54  C   UNL A   1      42.682  29.345  35.291  1.00  0.00     0.029 A 
ATOM     55  C   UNL A   1      42.511  28.949  33.973  1.00  0.00     0.049 A 
ATOM     56  H   UNL A   1      41.061  29.578  32.576  1.00  0.00     0.167 HD
ATOM     57  C   UNL A   1      43.079  27.679  31.919  1.00  0.00     0.074 A 
ATOM     58  C   UNL A   1      43.892  26.754  31.158  1.00  0.00     0.031 C 
ATOM     59  C   UNL A   1      43.307  28.012  33.214  1.00  0.00     0.034 A 
BRANCH  46  60
ATOM     60  C   UNL A   1      39.333  32.126  35.553  1.00  0.00     0.023 A 
ATOM     61  C   UNL A   1      38.610  31.505  36.590  1.00  0.00     0.031 A 
ATOM     62  C   UNL A   1      39.526  33.517  35.617  1.00  0.00     0.131 A 
ATOM     63  C   UNL A   1      38.079  32.280  37.630  1.00  0.00     0.055 A 
ATOM     64  C   UNL A   1      39.027  34.279  36.674  1.00  0.00     0.041 A 
ATOM     65  F   UNL A   1      40.210  34.155  34.652  1.00  0.00    -0.206 F 
ATOM     66  C   UNL A   1      38.290  33.662  37.681  1.00  0.00     0.022 A 
BRANCH  63  67
ATOM     67  S   UNL A   1      37.046  31.538  38.922  1.00  0.00     0.124 S 
ATOM     68  O   UNL A   1      36.854  30.183  38.410  1.00  0.00    -0.237 OA
ATOM     69  O   UNL A   1      37.905  31.643  40.099  1.00  0.00    -0.237 OA
ATOM     70  O   UNL A   1      35.850  32.372  38.937  1.00  0.00    -0.744 OA
ENDBRANCH  63  67
ENDBRANCH  46  60
BRANCH  47  71
ATOM     71  C   UNL A   1      41.847  26.847  27.420  1.00  0.00     0.023 A 
ATOM     72  C   UNL A   1      41.552  25.473  27.359  1.00  0.00     0.031 A 
ATOM     73  C   UNL A   1      42.580  27.413  26.364  1.00  0.00     0.131 A 
ATOM     74  C   UNL A   1      42.058  24.696  26.309  1.00  0.00     0.055 A 
ATOM     75  C   UNL A   1      43.019  26.649  25.280  1.00  0.00     0.041 A 
ATOM     76  F   UNL A   1      42.896  28.717  26.383  1.00  0.00    -0.206 F 
ATOM     77  C   UNL A   1      42.776  25.279  25.261  1.00  0.00     0.022 A 
BRANCH  74  78
ATOM     78  S   UNL A   1      41.933  22.886  26.350  1.00  0.00     0.124 S 
ATOM     79  O   UNL A   1      42.699  22.555  27.547  1.00  0.00    -0.237 OA
ATOM     80  O   UNL A   1      40.489  22.688  26.449  1.00  0.00    -0.237 OA
ATOM     81  O   UNL A   1      42.528  22.471  25.084  1.00  0.00    -0.744 OA
ENDBRANCH  74  78
ENDBRANCH  47  71
BRANCH  59  82
ATOM     82  C   UNL A   1      44.479  27.385  33.929  1.00  0.00     0.023 A 
ATOM     83  C   UNL A   1      44.357  26.097  34.487  1.00  0.00     0.031 A 
ATOM     84  C   UNL A   1      45.645  28.121  34.202  1.00  0.00     0.131 A 
ATOM     85  C   UNL A   1      45.362  25.604  35.327  1.00  0.00     0.055 A 
ATOM     86  C   UNL A   1      46.665  27.605  35.003  1.00  0.00     0.041 A 
ATOM     87  F   UNL A   1      45.803  29.356  33.702  1.00  0.00    -0.206 F 
ATOM     88  C   UNL A   1      46.519  26.347  35.583  1.00  0.00     0.022 A 
BRANCH  85  89
ATOM     89  S   UNL A   1      45.167  24.020  36.192  1.00  0.00     0.124 S 
ATOM     90  O   UNL A   1      46.276  23.240  35.647  1.00  0.00    -0.237 OA
ATOM     91  O   UNL A   1      45.310  24.414  37.590  1.00  0.00    -0.237 OA
ATOM     92  O   UNL A   1      43.837  23.566  35.801  1.00  0.00    -0.744 OA
ENDBRANCH  85  89
ENDBRANCH  59  82
ENDBRANCH  33  34
ENDBRANCH  25  28
ENDBRANCH  23  24
ENDBRANCH  22  23
ENDBRANCH   1  22
TORSDOF 18
ENDMDL
