MODEL 1
REMARK VINA RESULT:     -11.3      0.000      0.000
REMARK SMILES O=C(NCCCCCCNC(=O)c1cccc(Nc2ccc([N+](=O)[O-])cc2)c1)c1ccc(-c2c3nc(c(-c4cc(S(=O)(=O)[O-])ccc4F)c4ccc([nH]4)c(-c4cc(S(=O)(=O)[O-])ccc4F)c4nc(c(-c5cc(S(=O)(=O)[O-])ccc5F)c5ccc2[nH]5)C=C4)C=C3)cc1
REMARK SMILES IDX 6 1 5 2 4 3 3 4 1 5 2 6 29 8 30 9 91 10 31 11 90 12 32 13
REMARK SMILES IDX 33 14 34 15 84 16 35 17 89 18 83 19 85 20 36 21 88 22 82 23
REMARK SMILES IDX 81 24 37 26 69 27 49 28 68 29 50 30 53 31 67 32 86 33 51 34
REMARK SMILES IDX 52 35 66 37 87 38 54 39 38 40 39 41 47 42 40 43 46 44 48 45
REMARK SMILES IDX 45 46 41 47 42 48 43 49 44 50 70 51 71 52 79 53 72 54 78 55
REMARK SMILES IDX 80 56 77 57 73 58 74 59 75 60 76 61 55 62 56 63 64 64 57 65
REMARK SMILES IDX 63 66 65 67 62 68 58 69 59 70 60 71 61 72 7 73 8 74 9 75
REMARK SMILES IDX 10 76 11 77 12 79 13 80 14 81 28 82 15 83 17 84 16 85 18 86
REMARK SMILES IDX 19 88 20 89 27 90 21 91 26 92 22 93 23 94 24 95 25 96
REMARK H PARENT 3 7 85 25 53 36 10 78 18 87
REMARK Flexibility Score: inf
ROOT
ATOM      1  C   UNL A   1      39.607  22.448  26.830  1.00  0.00     0.002 C 
ENDROOT
BRANCH   1   2
ATOM      2  C   UNL A   1      39.785  21.113  26.106  1.00  0.00     0.021 C 
BRANCH   2   3
ATOM      3  C   UNL A   1      40.462  20.017  26.921  1.00  0.00     0.116 C 
BRANCH   3   4
ATOM      4  N   UNL A   1      41.501  19.328  26.175  1.00  0.00    -0.352 N 
ATOM      5  O   UNL A   1      43.370  19.132  24.926  1.00  0.00    -0.269 OA
ATOM      6  C   UNL A   1      42.676  19.828  25.664  1.00  0.00     0.251 C 
ATOM      7  H   UNL A   1      41.344  18.370  26.013  1.00  0.00     0.163 HD
BRANCH   6   8
ATOM      8  C   UNL A   1      43.090  21.210  25.989  1.00  0.00     0.039 A 
ATOM      9  C   UNL A   1      43.545  21.538  27.270  1.00  0.00     0.014 A 
ATOM     10  C   UNL A   1      43.026  22.191  24.996  1.00  0.00     0.014 A 
ATOM     11  C   UNL A   1      43.814  22.865  27.591  1.00  0.00     0.010 A 
ATOM     12  C   UNL A   1      43.370  23.511  25.299  1.00  0.00     0.010 A 
ATOM     13  C   UNL A   1      43.742  23.864  26.606  1.00  0.00    -0.014 A 
BRANCH  13  14
ATOM     14  C   UNL A   1      44.109  25.263  26.952  1.00  0.00     0.031 A 
ATOM     15  C   UNL A   1      43.096  26.205  27.542  1.00  0.00     0.074 A 
ATOM     16  C   UNL A   1      45.374  25.673  26.738  1.00  0.00     0.049 A 
ATOM     17  N   UNL A   1      43.236  27.461  27.881  1.00  0.00    -0.248 NA
ATOM     18  C   UNL A   1      41.748  25.668  27.771  1.00  0.00     0.031 C 
ATOM     19  C   UNL A   1      46.440  24.846  26.169  1.00  0.00     0.029 A 
ATOM     20  N   UNL A   1      45.982  26.879  26.978  1.00  0.00    -0.354 N 
ATOM     21  C   UNL A   1      41.995  27.873  28.352  1.00  0.00     0.074 A 
ATOM     22  C   UNL A   1      41.104  26.738  28.217  1.00  0.00     0.031 C 
ATOM     23  C   UNL A   1      47.577  25.556  26.134  1.00  0.00     0.029 A 
ATOM     24  C   UNL A   1      47.308  26.907  26.612  1.00  0.00     0.049 A 
ATOM     25  H   UNL A   1      45.514  27.649  27.373  1.00  0.00     0.167 HD
ATOM     26  C   UNL A   1      41.635  29.082  28.855  1.00  0.00     0.034 A 
ATOM     27  C   UNL A   1      48.202  27.912  26.633  1.00  0.00     0.034 A 
ATOM     28  C   UNL A   1      42.539  30.203  28.975  1.00  0.00     0.049 A 
ATOM     29  C   UNL A   1      47.767  29.257  27.148  1.00  0.00     0.074 A 
ATOM     30  C   UNL A   1      42.289  31.462  29.493  1.00  0.00     0.029 A 
ATOM     31  N   UNL A   1      43.866  30.206  28.559  1.00  0.00    -0.354 N 
ATOM     32  N   UNL A   1      46.592  29.627  27.602  1.00  0.00    -0.248 NA
ATOM     33  C   UNL A   1      48.780  30.319  27.156  1.00  0.00     0.031 C 
ATOM     34  C   UNL A   1      43.439  32.244  29.329  1.00  0.00     0.029 A 
ATOM     35  C   UNL A   1      44.434  31.453  28.779  1.00  0.00     0.049 A 
ATOM     36  H   UNL A   1      44.335  29.436  28.164  1.00  0.00     0.167 HD
ATOM     37  C   UNL A   1      46.731  30.961  27.969  1.00  0.00     0.074 A 
ATOM     38  C   UNL A   1      48.108  31.324  27.700  1.00  0.00     0.031 C 
ATOM     39  C   UNL A   1      45.805  31.808  28.487  1.00  0.00     0.034 A 
BRANCH  26  40
ATOM     40  C   UNL A   1      40.192  29.263  29.266  1.00  0.00     0.023 A 
ATOM     41  C   UNL A   1      39.791  29.206  30.613  1.00  0.00     0.031 A 
ATOM     42  C   UNL A   1      39.196  29.469  28.294  1.00  0.00     0.131 A 
ATOM     43  C   UNL A   1      38.429  29.277  30.944  1.00  0.00     0.055 A 
ATOM     44  C   UNL A   1      37.851  29.619  28.637  1.00  0.00     0.041 A 
ATOM     45  F   UNL A   1      39.513  29.513  26.991  1.00  0.00    -0.206 F 
ATOM     46  C   UNL A   1      37.458  29.509  29.967  1.00  0.00     0.022 A 
BRANCH  43  47
ATOM     47  S   UNL A   1      37.932  28.917  32.651  1.00  0.00     0.124 S 
ATOM     48  O   UNL A   1      39.041  29.489  33.412  1.00  0.00    -0.237 OA
ATOM     49  O   UNL A   1      36.656  29.615  32.764  1.00  0.00    -0.237 OA
ATOM     50  O   UNL A   1      37.851  27.458  32.686  1.00  0.00    -0.744 OA
ENDBRANCH  43  47
ENDBRANCH  26  40
BRANCH  27  51
ATOM     51  C   UNL A   1      49.582  27.694  26.120  1.00  0.00     0.023 A 
ATOM     52  C   UNL A   1      49.901  27.920  24.774  1.00  0.00     0.031 A 
ATOM     53  C   UNL A   1      50.605  27.242  26.975  1.00  0.00     0.131 A 
ATOM     54  C   UNL A   1      51.201  27.663  24.311  1.00  0.00     0.055 A 
ATOM     55  C   UNL A   1      51.908  27.037  26.522  1.00  0.00     0.041 A 
ATOM     56  F   UNL A   1      50.353  27.017  28.274  1.00  0.00    -0.206 F 
ATOM     57  C   UNL A   1      52.209  27.237  25.180  1.00  0.00     0.022 A 
BRANCH  54  58
ATOM     58  S   UNL A   1      51.541  27.831  22.538  1.00  0.00     0.124 S 
ATOM     59  O   UNL A   1      52.392  26.673  22.287  1.00  0.00    -0.237 OA
ATOM     60  O   UNL A   1      50.200  27.778  21.966  1.00  0.00    -0.237 OA
ATOM     61  O   UNL A   1      52.207  29.128  22.440  1.00  0.00    -0.744 OA
ENDBRANCH  54  58
ENDBRANCH  27  51
BRANCH  39  62
ATOM     62  C   UNL A   1      46.274  33.200  28.830  1.00  0.00     0.023 A 
ATOM     63  C   UNL A   1      46.183  34.259  27.909  1.00  0.00     0.031 A 
ATOM     64  C   UNL A   1      46.845  33.463  30.088  1.00  0.00     0.131 A 
ATOM     65  C   UNL A   1      46.707  35.518  28.239  1.00  0.00     0.055 A 
ATOM     66  C   UNL A   1      47.310  34.732  30.432  1.00  0.00     0.041 A 
ATOM     67  F   UNL A   1      46.960  32.487  31.003  1.00  0.00    -0.206 F 
ATOM     68  C   UNL A   1      47.255  35.766  29.501  1.00  0.00     0.022 A 
BRANCH  65  69
ATOM     69  S   UNL A   1      46.747  36.808  26.964  1.00  0.00     0.124 S 
ATOM     70  O   UNL A   1      47.064  36.039  25.765  1.00  0.00    -0.237 OA
ATOM     71  O   UNL A   1      45.396  37.355  27.032  1.00  0.00    -0.237 OA
ATOM     72  O   UNL A   1      47.802  37.709  27.421  1.00  0.00    -0.744 OA
ENDBRANCH  65  69
ENDBRANCH  39  62
ENDBRANCH  13  14
ENDBRANCH   6   8
ENDBRANCH   3   4
ENDBRANCH   2   3
ENDBRANCH   1   2
BRANCH   1  73
ATOM     73  C   UNL A   1      38.474  23.336  26.309  1.00  0.00     0.002 C 
BRANCH  73  74
ATOM     74  C   UNL A   1      37.655  22.759  25.151  1.00  0.00     0.021 C 
BRANCH  74  75
ATOM     75  C   UNL A   1      36.515  21.827  25.558  1.00  0.00     0.116 C 
BRANCH  75  76
ATOM     76  N   UNL A   1      35.564  22.487  26.436  1.00  0.00    -0.352 N 
ATOM     77  C   UNL A   1      34.334  23.014  26.140  1.00  0.00     0.251 C 
ATOM     78  H   UNL A   1      35.841  22.566  27.377  1.00  0.00     0.163 HD
ATOM     79  O   UNL A   1      33.740  23.703  26.963  1.00  0.00    -0.269 OA
BRANCH  77  80
ATOM     80  C   UNL A   1      33.721  22.762  24.821  1.00  0.00     0.041 A 
ATOM     81  C   UNL A   1      33.583  23.829  23.935  1.00  0.00     0.014 A 
ATOM     82  C   UNL A   1      33.233  21.491  24.488  1.00  0.00     0.039 A 
ATOM     83  C   UNL A   1      32.997  23.613  22.693  1.00  0.00     0.003 A 
ATOM     84  C   UNL A   1      32.638  21.259  23.242  1.00  0.00     0.039 A 
ATOM     85  C   UNL A   1      32.538  22.337  22.350  1.00  0.00     0.026 A 
BRANCH  84  86
ATOM     86  N   UNL A   1      32.189  19.962  22.932  1.00  0.00    -0.356 N 
ATOM     87  H   UNL A   1      31.522  19.918  22.209  1.00  0.00     0.167 HD
BRANCH  86  88
ATOM     88  C   UNL A   1      32.540  18.722  23.488  1.00  0.00     0.039 A 
ATOM     89  C   UNL A   1      33.283  17.820  22.714  1.00  0.00     0.033 A 
ATOM     90  C   UNL A   1      32.259  18.393  24.821  1.00  0.00     0.033 A 
ATOM     91  C   UNL A   1      33.775  16.634  23.266  1.00  0.00     0.088 A 
ATOM     92  C   UNL A   1      32.733  17.206  25.386  1.00  0.00     0.088 A 
ATOM     93  C   UNL A   1      33.510  16.339  24.609  1.00  0.00     0.269 A 
BRANCH  93  94
ATOM     94  N   UNL A   1      34.088  15.135  25.217  1.00  0.00     0.062 N 
ATOM     95  O   UNL A   1      33.318  14.207  25.503  1.00  0.00    -0.258 OA
ATOM     96  O   UNL A   1      35.318  15.100  25.374  1.00  0.00    -0.258 OA
ENDBRANCH  93  94
ENDBRANCH  86  88
ENDBRANCH  84  86
ENDBRANCH  77  80
ENDBRANCH  75  76
ENDBRANCH  74  75
ENDBRANCH  73  74
ENDBRANCH   1  73
TORSDOF 19
ENDMDL
MODEL 2
REMARK VINA RESULT:     -11.2      1.247      7.800
REMARK SMILES O=C(NCCCCCCNC(=O)c1cccc(Nc2ccc([N+](=O)[O-])cc2)c1)c1ccc(-c2c3nc(c(-c4cc(S(=O)(=O)[O-])ccc4F)c4ccc([nH]4)c(-c4cc(S(=O)(=O)[O-])ccc4F)c4nc(c(-c5cc(S(=O)(=O)[O-])ccc5F)c5ccc2[nH]5)C=C4)C=C3)cc1
REMARK SMILES IDX 6 1 5 2 4 3 3 4 1 5 2 6 29 8 30 9 91 10 31 11 90 12 32 13
REMARK SMILES IDX 33 14 34 15 84 16 35 17 89 18 83 19 85 20 36 21 88 22 82 23
REMARK SMILES IDX 81 24 37 26 69 27 49 28 68 29 50 30 53 31 67 32 86 33 51 34
REMARK SMILES IDX 52 35 66 37 87 38 54 39 38 40 39 41 47 42 40 43 46 44 48 45
REMARK SMILES IDX 45 46 41 47 42 48 43 49 44 50 70 51 71 52 79 53 72 54 78 55
REMARK SMILES IDX 80 56 77 57 73 58 74 59 75 60 76 61 55 62 56 63 64 64 57 65
REMARK SMILES IDX 63 66 65 67 62 68 58 69 59 70 60 71 61 72 7 73 8 74 9 75
REMARK SMILES IDX 10 76 11 77 12 79 13 80 14 81 28 82 15 83 17 84 16 85 18 86
REMARK SMILES IDX 19 88 20 89 27 90 21 91 26 92 22 93 23 94 24 95 25 96
REMARK H PARENT 3 7 85 25 53 36 10 78 18 87
REMARK Flexibility Score: inf
ROOT
ATOM      1  C   UNL A   1      40.651  21.364  26.691  1.00  0.00     0.002 C 
ENDROOT
BRANCH   1   2
ATOM      2  C   UNL A   1      40.924  19.899  26.346  1.00  0.00     0.021 C 
BRANCH   2   3
ATOM      3  C   UNL A   1      42.294  19.377  26.764  1.00  0.00     0.116 C 
BRANCH   3   4
ATOM      4  N   UNL A   1      43.118  18.996  25.628  1.00  0.00    -0.352 N 
ATOM      5  O   UNL A   1      44.450  19.318  23.837  1.00  0.00    -0.269 OA
ATOM      6  C   UNL A   1      43.942  19.780  24.856  1.00  0.00     0.251 C 
ATOM      7  H   UNL A   1      43.080  18.046  25.377  1.00  0.00     0.163 HD
BRANCH   6   8
ATOM      8  C   UNL A   1      44.200  21.183  25.246  1.00  0.00     0.039 A 
ATOM      9  C   UNL A   1      45.122  21.490  26.251  1.00  0.00     0.014 A 
ATOM     10  C   UNL A   1      43.511  22.208  24.591  1.00  0.00     0.014 A 
ATOM     11  C   UNL A   1      45.262  22.804  26.686  1.00  0.00     0.010 A 
ATOM     12  C   UNL A   1      43.709  23.537  24.978  1.00  0.00     0.010 A 
ATOM     13  C   UNL A   1      44.567  23.843  26.047  1.00  0.00    -0.014 A 
BRANCH  13  14
ATOM     14  C   UNL A   1      44.790  25.248  26.478  1.00  0.00     0.031 A 
ATOM     15  C   UNL A   1      46.144  25.890  26.354  1.00  0.00     0.074 A 
ATOM     16  C   UNL A   1      43.750  25.947  26.974  1.00  0.00     0.049 A 
ATOM     17  N   UNL A   1      46.522  27.094  26.700  1.00  0.00    -0.248 NA
ATOM     18  C   UNL A   1      47.215  25.068  25.775  1.00  0.00     0.031 C 
ATOM     19  C   UNL A   1      42.392  25.426  27.141  1.00  0.00     0.029 A 
ATOM     20  N   UNL A   1      43.667  27.241  27.420  1.00  0.00    -0.354 N 
ATOM     21  C   UNL A   1      47.876  27.175  26.395  1.00  0.00     0.074 A 
ATOM     22  C   UNL A   1      48.259  25.880  25.869  1.00  0.00     0.031 C 
ATOM     23  C   UNL A   1      41.604  26.398  27.622  1.00  0.00     0.029 A 
ATOM     24  C   UNL A   1      42.411  27.589  27.861  1.00  0.00     0.049 A 
ATOM     25  H   UNL A   1      44.431  27.860  27.425  1.00  0.00     0.167 HD
ATOM     26  C   UNL A   1      48.717  28.232  26.534  1.00  0.00     0.034 A 
ATOM     27  C   UNL A   1      41.962  28.728  28.420  1.00  0.00     0.034 A 
ATOM     28  C   UNL A   1      48.314  29.514  27.067  1.00  0.00     0.049 A 
ATOM     29  C   UNL A   1      42.924  29.868  28.611  1.00  0.00     0.074 A 
ATOM     30  C   UNL A   1      49.075  30.659  27.228  1.00  0.00     0.029 A 
ATOM     31  N   UNL A   1      47.042  29.818  27.539  1.00  0.00    -0.354 N 
ATOM     32  N   UNL A   1      44.199  29.933  28.305  1.00  0.00    -0.248 NA
ATOM     33  C   UNL A   1      42.386  31.091  29.220  1.00  0.00     0.031 C 
ATOM     34  C   UNL A   1      48.285  31.630  27.856  1.00  0.00     0.029 A 
ATOM     35  C   UNL A   1      47.008  31.119  28.019  1.00  0.00     0.049 A 
ATOM     36  H   UNL A   1      46.277  29.199  27.534  1.00  0.00     0.167 HD
ATOM     37  C   UNL A   1      44.611  31.211  28.666  1.00  0.00     0.074 A 
ATOM     38  C   UNL A   1      43.444  31.888  29.195  1.00  0.00     0.031 C 
ATOM     39  C   UNL A   1      45.841  31.776  28.564  1.00  0.00     0.034 A 
BRANCH  26  40
ATOM     40  C   UNL A   1      50.163  28.025  26.148  1.00  0.00     0.023 A 
ATOM     41  C   UNL A   1      50.608  28.187  24.823  1.00  0.00     0.031 A 
ATOM     42  C   UNL A   1      51.109  27.635  27.114  1.00  0.00     0.131 A 
ATOM     43  C   UNL A   1      51.938  27.887  24.488  1.00  0.00     0.055 A 
ATOM     44  C   UNL A   1      52.449  27.416  26.789  1.00  0.00     0.041 A 
ATOM     45  F   UNL A   1      50.741  27.445  28.391  1.00  0.00    -0.206 F 
ATOM     46  C   UNL A   1      52.867  27.527  25.467  1.00  0.00     0.022 A 
BRANCH  43  47
ATOM     47  S   UNL A   1      52.399  27.833  22.734  1.00  0.00     0.124 S 
ATOM     48  O   UNL A   1      51.198  27.262  22.128  1.00  0.00    -0.237 OA
ATOM     49  O   UNL A   1      52.659  29.236  22.431  1.00  0.00    -0.237 OA
ATOM     50  O   UNL A   1      53.572  26.961  22.713  1.00  0.00    -0.744 OA
ENDBRANCH  43  47
ENDBRANCH  26  40
BRANCH  27  51
ATOM     51  C   UNL A   1      40.547  28.830  28.870  1.00  0.00     0.023 A 
ATOM     52  C   UNL A   1      40.207  28.730  30.227  1.00  0.00     0.031 A 
ATOM     53  C   UNL A   1      39.508  29.022  27.940  1.00  0.00     0.131 A 
ATOM     54  C   UNL A   1      38.859  28.787  30.614  1.00  0.00     0.055 A 
ATOM     55  C   UNL A   1      38.175  29.130  28.335  1.00  0.00     0.041 A 
ATOM     56  F   UNL A   1      39.782  29.132  26.631  1.00  0.00    -0.206 F 
ATOM     57  C   UNL A   1      37.843  29.001  29.679  1.00  0.00     0.022 A 
BRANCH  54  58
ATOM     58  S   UNL A   1      38.444  28.511  32.358  1.00  0.00     0.124 S 
ATOM     59  O   UNL A   1      38.391  27.055  32.424  1.00  0.00    -0.237 OA
ATOM     60  O   UNL A   1      39.568  29.144  33.040  1.00  0.00    -0.237 OA
ATOM     61  O   UNL A   1      37.161  29.191  32.514  1.00  0.00    -0.744 OA
ENDBRANCH  54  58
ENDBRANCH  27  51
BRANCH  39  62
ATOM     62  C   UNL A   1      45.966  33.214  29.003  1.00  0.00     0.023 A 
ATOM     63  C   UNL A   1      45.770  34.281  28.107  1.00  0.00     0.031 A 
ATOM     64  C   UNL A   1      46.313  33.519  30.331  1.00  0.00     0.131 A 
ATOM     65  C   UNL A   1      45.978  35.600  28.538  1.00  0.00     0.055 A 
ATOM     66  C   UNL A   1      46.460  34.835  30.768  1.00  0.00     0.041 A 
ATOM     67  F   UNL A   1      46.516  32.539  31.226  1.00  0.00    -0.206 F 
ATOM     68  C   UNL A   1      46.305  35.885  29.866  1.00  0.00     0.022 A 
BRANCH  65  69
ATOM     69  S   UNL A   1      45.903  36.938  27.316  1.00  0.00     0.124 S 
ATOM     70  O   UNL A   1      46.835  37.913  27.875  1.00  0.00    -0.237 OA
ATOM     71  O   UNL A   1      46.337  36.269  26.093  1.00  0.00    -0.237 OA
ATOM     72  O   UNL A   1      44.499  37.342  27.334  1.00  0.00    -0.744 OA
ENDBRANCH  65  69
ENDBRANCH  39  62
ENDBRANCH  13  14
ENDBRANCH   6   8
ENDBRANCH   3   4
ENDBRANCH   2   3
ENDBRANCH   1   2
BRANCH   1  73
ATOM     73  C   UNL A   1      39.261  21.882  26.315  1.00  0.00     0.002 C 
BRANCH  73  74
ATOM     74  C   UNL A   1      38.973  23.341  26.682  1.00  0.00     0.021 C 
BRANCH  74  75
ATOM     75  C   UNL A   1      37.701  23.928  26.072  1.00  0.00     0.116 C 
BRANCH  75  76
ATOM     76  N   UNL A   1      37.637  23.708  24.637  1.00  0.00    -0.352 N 
ATOM     77  C   UNL A   1      36.544  23.472  23.845  1.00  0.00     0.251 C 
ATOM     78  H   UNL A   1      38.501  23.732  24.167  1.00  0.00     0.163 HD
ATOM     79  O   UNL A   1      36.687  23.121  22.678  1.00  0.00    -0.269 OA
BRANCH  77  80
ATOM     80  C   UNL A   1      35.184  23.630  24.398  1.00  0.00     0.041 A 
ATOM     81  C   UNL A   1      34.837  24.850  24.976  1.00  0.00     0.014 A 
ATOM     82  C   UNL A   1      34.280  22.559  24.396  1.00  0.00     0.039 A 
ATOM     83  C   UNL A   1      33.565  25.013  25.513  1.00  0.00     0.003 A 
ATOM     84  C   UNL A   1      32.997  22.709  24.934  1.00  0.00     0.039 A 
ATOM     85  C   UNL A   1      32.654  23.953  25.483  1.00  0.00     0.026 A 
BRANCH  84  86
ATOM     86  N   UNL A   1      32.106  21.620  24.885  1.00  0.00    -0.356 N 
ATOM     87  H   UNL A   1      31.158  21.856  25.010  1.00  0.00     0.167 HD
BRANCH  86  88
ATOM     88  C   UNL A   1      32.353  20.252  24.686  1.00  0.00     0.039 A 
ATOM     89  C   UNL A   1      32.169  19.711  23.406  1.00  0.00     0.033 A 
ATOM     90  C   UNL A   1      32.871  19.431  25.696  1.00  0.00     0.033 A 
ATOM     91  C   UNL A   1      32.533  18.391  23.124  1.00  0.00     0.088 A 
ATOM     92  C   UNL A   1      33.229  18.106  25.435  1.00  0.00     0.088 A 
ATOM     93  C   UNL A   1      33.078  17.597  24.140  1.00  0.00     0.269 A 
BRANCH  93  94
ATOM     94  N   UNL A   1      33.534  16.236  23.832  1.00  0.00     0.062 N 
ATOM     95  O   UNL A   1      33.148  15.318  24.570  1.00  0.00    -0.258 OA
ATOM     96  O   UNL A   1      34.249  16.078  22.832  1.00  0.00    -0.258 OA
ENDBRANCH  93  94
ENDBRANCH  86  88
ENDBRANCH  84  86
ENDBRANCH  77  80
ENDBRANCH  75  76
ENDBRANCH  74  75
ENDBRANCH  73  74
ENDBRANCH   1  73
TORSDOF 19
ENDMDL
MODEL 3
REMARK VINA RESULT:     -11.0      2.786      4.583
REMARK SMILES O=C(NCCCCCCNC(=O)c1cccc(Nc2ccc([N+](=O)[O-])cc2)c1)c1ccc(-c2c3nc(c(-c4cc(S(=O)(=O)[O-])ccc4F)c4ccc([nH]4)c(-c4cc(S(=O)(=O)[O-])ccc4F)c4nc(c(-c5cc(S(=O)(=O)[O-])ccc5F)c5ccc2[nH]5)C=C4)C=C3)cc1
REMARK SMILES IDX 6 1 5 2 4 3 3 4 1 5 2 6 29 8 30 9 91 10 31 11 90 12 32 13
REMARK SMILES IDX 33 14 34 15 84 16 35 17 89 18 83 19 85 20 36 21 88 22 82 23
REMARK SMILES IDX 81 24 37 26 69 27 49 28 68 29 50 30 53 31 67 32 86 33 51 34
REMARK SMILES IDX 52 35 66 37 87 38 54 39 38 40 39 41 47 42 40 43 46 44 48 45
REMARK SMILES IDX 45 46 41 47 42 48 43 49 44 50 70 51 71 52 79 53 72 54 78 55
REMARK SMILES IDX 80 56 77 57 73 58 74 59 75 60 76 61 55 62 56 63 64 64 57 65
REMARK SMILES IDX 63 66 65 67 62 68 58 69 59 70 60 71 61 72 7 73 8 74 9 75
REMARK SMILES IDX 10 76 11 77 12 79 13 80 14 81 28 82 15 83 17 84 16 85 18 86
REMARK SMILES IDX 19 88 20 89 27 90 21 91 26 92 22 93 23 94 24 95 25 96
REMARK H PARENT 3 7 85 25 53 36 10 78 18 87
REMARK Flexibility Score: inf
ROOT
ATOM      1  C   UNL A   1      38.540  22.226  25.771  1.00  0.00     0.002 C 
ENDROOT
BRANCH   1   2
ATOM      2  C   UNL A   1      39.036  20.830  25.392  1.00  0.00     0.021 C 
BRANCH   2   3
ATOM      3  C   UNL A   1      39.662  20.032  26.530  1.00  0.00     0.116 C 
BRANCH   3   4
ATOM      4  N   UNL A   1      40.819  19.262  26.102  1.00  0.00    -0.352 N 
ATOM      5  O   UNL A   1      42.918  18.927  25.351  1.00  0.00    -0.269 OA
ATOM      6  C   UNL A   1      42.100  19.693  25.853  1.00  0.00     0.251 C 
ATOM      7  H   UNL A   1      40.663  18.299  25.974  1.00  0.00     0.163 HD
BRANCH   6   8
ATOM      8  C   UNL A   1      42.483  21.086  26.171  1.00  0.00     0.039 A 
ATOM      9  C   UNL A   1      42.572  22.051  25.164  1.00  0.00     0.014 A 
ATOM     10  C   UNL A   1      42.752  21.431  27.498  1.00  0.00     0.014 A 
ATOM     11  C   UNL A   1      43.049  23.323  25.464  1.00  0.00     0.010 A 
ATOM     12  C   UNL A   1      43.158  22.732  27.809  1.00  0.00     0.010 A 
ATOM     13  C   UNL A   1      43.336  23.682  26.791  1.00  0.00    -0.014 A 
BRANCH  13  14
ATOM     14  C   UNL A   1      43.771  25.069  27.098  1.00  0.00     0.031 A 
ATOM     15  C   UNL A   1      42.812  26.071  27.681  1.00  0.00     0.074 A 
ATOM     16  C   UNL A   1      45.050  25.417  26.856  1.00  0.00     0.049 A 
ATOM     17  N   UNL A   1      43.014  27.326  27.989  1.00  0.00    -0.248 NA
ATOM     18  C   UNL A   1      41.444  25.602  27.942  1.00  0.00     0.031 C 
ATOM     19  C   UNL A   1      46.068  24.529  26.291  1.00  0.00     0.029 A 
ATOM     20  N   UNL A   1      45.716  26.598  27.059  1.00  0.00    -0.354 N 
ATOM     21  C   UNL A   1      41.800  27.805  28.468  1.00  0.00     0.074 A 
ATOM     22  C   UNL A   1      40.857  26.709  28.373  1.00  0.00     0.031 C 
ATOM     23  C   UNL A   1      47.236  25.185  26.223  1.00  0.00     0.029 A 
ATOM     24  C   UNL A   1      47.036  26.557  26.673  1.00  0.00     0.049 A 
ATOM     25  H   UNL A   1      45.290  27.398  27.443  1.00  0.00     0.167 HD
ATOM     26  C   UNL A   1      41.504  29.041  28.948  1.00  0.00     0.034 A 
ATOM     27  C   UNL A   1      47.975  27.521  26.658  1.00  0.00     0.034 A 
ATOM     28  C   UNL A   1      42.460  30.122  29.028  1.00  0.00     0.049 A 
ATOM     29  C   UNL A   1      47.610  28.896  27.147  1.00  0.00     0.074 A 
ATOM     30  C   UNL A   1      42.276  31.402  29.520  1.00  0.00     0.029 A 
ATOM     31  N   UNL A   1      43.779  30.054  28.592  1.00  0.00    -0.354 N 
ATOM     32  N   UNL A   1      46.460  29.329  27.609  1.00  0.00    -0.248 NA
ATOM     33  C   UNL A   1      48.670  29.910  27.116  1.00  0.00     0.031 C 
ATOM     34  C   UNL A   1      43.457  32.127  29.321  1.00  0.00     0.029 A 
ATOM     35  C   UNL A   1      44.407  31.278  28.775  1.00  0.00     0.049 A 
ATOM     36  H   UNL A   1      44.206  29.254  28.209  1.00  0.00     0.167 HD
ATOM     37  C   UNL A   1      46.665  30.663  27.943  1.00  0.00     0.074 A 
ATOM     38  C   UNL A   1      48.053  30.956  27.646  1.00  0.00     0.031 C 
ATOM     39  C   UNL A   1      45.787  31.563  28.455  1.00  0.00     0.034 A 
BRANCH  26  40
ATOM     40  C   UNL A   1      40.078  29.296  29.376  1.00  0.00     0.023 A 
ATOM     41  C   UNL A   1      39.696  29.287  30.730  1.00  0.00     0.031 A 
ATOM     42  C   UNL A   1      39.077  29.527  28.414  1.00  0.00     0.131 A 
ATOM     43  C   UNL A   1      38.343  29.429  31.078  1.00  0.00     0.055 A 
ATOM     44  C   UNL A   1      37.745  29.747  28.773  1.00  0.00     0.041 A 
ATOM     45  F   UNL A   1      39.375  29.528  27.106  1.00  0.00    -0.206 F 
ATOM     46  C   UNL A   1      37.369  29.684  30.111  1.00  0.00     0.022 A 
BRANCH  43  47
ATOM     47  S   UNL A   1      37.857  29.129  32.800  1.00  0.00     0.124 S 
ATOM     48  O   UNL A   1      36.605  29.879  32.892  1.00  0.00    -0.237 OA
ATOM     49  O   UNL A   1      37.734  27.677  32.848  1.00  0.00    -0.237 OA
ATOM     50  O   UNL A   1      38.965  29.688  33.574  1.00  0.00    -0.744 OA
ENDBRANCH  43  47
ENDBRANCH  26  40
BRANCH  27  51
ATOM     51  C   UNL A   1      49.336  27.227  26.129  1.00  0.00     0.023 A 
ATOM     52  C   UNL A   1      50.405  26.946  26.991  1.00  0.00     0.031 A 
ATOM     53  C   UNL A   1      49.587  27.235  24.744  1.00  0.00     0.131 A 
ATOM     54  C   UNL A   1      51.685  26.716  26.463  1.00  0.00     0.055 A 
ATOM     55  C   UNL A   1      50.849  26.956  24.222  1.00  0.00     0.041 A 
ATOM     56  F   UNL A   1      48.595  27.492  23.877  1.00  0.00    -0.206 F 
ATOM     57  C   UNL A   1      51.911  26.705  25.084  1.00  0.00     0.022 A 
BRANCH  54  58
ATOM     58  S   UNL A   1      53.071  26.497  27.612  1.00  0.00     0.124 S 
ATOM     59  O   UNL A   1      53.706  27.810  27.567  1.00  0.00    -0.237 OA
ATOM     60  O   UNL A   1      52.384  26.157  28.853  1.00  0.00    -0.237 OA
ATOM     61  O   UNL A   1      53.842  25.411  27.011  1.00  0.00    -0.744 OA
ENDBRANCH  54  58
ENDBRANCH  27  51
BRANCH  39  62
ATOM     62  C   UNL A   1      46.325  32.940  28.758  1.00  0.00     0.023 A 
ATOM     63  C   UNL A   1      46.259  33.983  27.817  1.00  0.00     0.031 A 
ATOM     64  C   UNL A   1      46.935  33.202  29.997  1.00  0.00     0.131 A 
ATOM     65  C   UNL A   1      46.845  35.224  28.110  1.00  0.00     0.055 A 
ATOM     66  C   UNL A   1      47.463  34.456  30.305  1.00  0.00     0.041 A 
ATOM     67  F   UNL A   1      47.029  32.241  30.930  1.00  0.00    -0.206 F 
ATOM     68  C   UNL A   1      47.433  35.472  29.353  1.00  0.00     0.022 A 
BRANCH  65  69
ATOM     69  S   UNL A   1      46.911  36.485  26.808  1.00  0.00     0.124 S 
ATOM     70  O   UNL A   1      48.060  37.286  27.219  1.00  0.00    -0.237 OA
ATOM     71  O   UNL A   1      47.092  35.682  25.603  1.00  0.00    -0.237 OA
ATOM     72  O   UNL A   1      45.617  37.157  26.914  1.00  0.00    -0.744 OA
ENDBRANCH  65  69
ENDBRANCH  39  62
ENDBRANCH  13  14
ENDBRANCH   6   8
ENDBRANCH   3   4
ENDBRANCH   2   3
ENDBRANCH   1   2
BRANCH   1  73
ATOM     73  C   UNL A   1      37.085  22.531  25.405  1.00  0.00     0.002 C 
BRANCH  73  74
ATOM     74  C   UNL A   1      36.118  21.346  25.479  1.00  0.00     0.021 C 
BRANCH  74  75
ATOM     75  C   UNL A   1      34.965  21.505  26.469  1.00  0.00     0.116 C 
BRANCH  75  76
ATOM     76  N   UNL A   1      33.819  20.690  26.101  1.00  0.00    -0.352 N 
ATOM     77  C   UNL A   1      32.772  20.993  25.271  1.00  0.00     0.251 C 
ATOM     78  H   UNL A   1      33.791  19.794  26.504  1.00  0.00     0.163 HD
ATOM     79  O   UNL A   1      31.790  20.259  25.217  1.00  0.00    -0.269 OA
BRANCH  77  80
ATOM     80  C   UNL A   1      32.816  22.214  24.442  1.00  0.00     0.041 A 
ATOM     81  C   UNL A   1      33.501  22.172  23.229  1.00  0.00     0.014 A 
ATOM     82  C   UNL A   1      32.233  23.408  24.891  1.00  0.00     0.039 A 
ATOM     83  C   UNL A   1      33.564  23.316  22.441  1.00  0.00     0.003 A 
ATOM     84  C   UNL A   1      32.290  24.567  24.110  1.00  0.00     0.039 A 
ATOM     85  C   UNL A   1      32.956  24.498  22.877  1.00  0.00     0.026 A 
BRANCH  84  86
ATOM     86  N   UNL A   1      31.666  25.738  24.580  1.00  0.00    -0.356 N 
ATOM     87  H   UNL A   1      31.882  25.975  25.511  1.00  0.00     0.167 HD
BRANCH  86  88
ATOM     88  C   UNL A   1      30.785  26.619  23.935  1.00  0.00     0.039 A 
ATOM     89  C   UNL A   1      29.405  26.383  24.025  1.00  0.00     0.033 A 
ATOM     90  C   UNL A   1      31.228  27.780  23.287  1.00  0.00     0.033 A 
ATOM     91  C   UNL A   1      28.484  27.304  23.520  1.00  0.00     0.088 A 
ATOM     92  C   UNL A   1      30.320  28.706  22.766  1.00  0.00     0.088 A 
ATOM     93  C   UNL A   1      28.947  28.473  22.904  1.00  0.00     0.269 A 
BRANCH  93  94
ATOM     94  N   UNL A   1      27.986  29.481  22.441  1.00  0.00     0.062 N 
ATOM     95  O   UNL A   1      27.163  29.913  23.261  1.00  0.00    -0.258 OA
ATOM     96  O   UNL A   1      28.076  29.869  21.267  1.00  0.00    -0.258 OA
ENDBRANCH  93  94
ENDBRANCH  86  88
ENDBRANCH  84  86
ENDBRANCH  77  80
ENDBRANCH  75  76
ENDBRANCH  74  75
ENDBRANCH  73  74
ENDBRANCH   1  73
TORSDOF 19
ENDMDL
