MODEL 1
REMARK VINA RESULT:     -10.3      0.000      0.000
REMARK SMILES COc1cc(/C=N/[NH+]=C2\NC(=O)[C@@H](CC(=O)NCCCCCCNC(=O)c3ccc(-c4c5nc(c(-c6cc(S(=O)(=O)[O-])ccc6F)c6ccc([nH]6)c(-c6cc(S(=O)(=O)[O-])ccc6F)c6nc(c(-c7cc(S(=O)(=O)[O-])ccc7F)c7ccc4[nH]7)C=C6)C=C5)cc3)S2)cc(I)c1OC
REMARK SMILES IDX 20 1 19 2 18 3 17 4 15 5 16 6 14 8 13 9 8 10 9 11 10 13
REMARK SMILES IDX 90 14 11 15 12 17 7 18 6 19 5 20 3 21 4 22 94 23 92 24 91 25
REMARK SMILES IDX 93 26 2 27 1 28 95 29 96 30 21 31 22 32 23 33 24 34 25 35
REMARK SMILES IDX 26 37 27 38 28 39 89 40 29 41 88 42 30 43 31 44 32 45 82 46
REMARK SMILES IDX 33 47 87 48 81 49 83 50 34 51 86 52 80 53 79 54 35 56 67 57
REMARK SMILES IDX 47 58 66 59 48 60 51 61 65 62 84 63 49 64 50 65 64 67 85 68
REMARK SMILES IDX 52 69 36 70 37 71 45 72 38 73 44 74 46 75 43 76 39 77 40 78
REMARK SMILES IDX 41 79 42 80 68 81 69 82 77 83 70 84 76 85 78 86 75 87 71 88
REMARK SMILES IDX 72 89 73 90 74 91 53 92 54 93 62 94 55 95 61 96 63 97 60 98
REMARK SMILES IDX 56 99 57 100 58 101 59 102
REMARK H PARENT 17 7 8 12 10 16 24 36 83 55 51 66
REMARK Flexibility Score: inf
ROOT
ATOM      1  C   UNL A   1      35.102  31.605  28.566  1.00  0.00     0.002 C 
ENDROOT
BRANCH   1   2
ATOM      2  C   UNL A   1      35.491  30.303  27.861  1.00  0.00     0.021 C 
BRANCH   2   3
ATOM      3  C   UNL A   1      34.291  29.411  27.540  1.00  0.00     0.116 C 
BRANCH   3   4
ATOM      4  N   UNL A   1      33.076  30.201  27.492  1.00  0.00    -0.356 N 
ATOM      5  C   UNL A   1      32.265  30.455  26.432  1.00  0.00     0.221 C 
ATOM      6  O   UNL A   1      31.356  31.275  26.556  1.00  0.00    -0.275 OA
ATOM      7  H   UNL A   1      32.802  30.611  28.345  1.00  0.00     0.163 HD
BRANCH   5   8
ATOM      8  C   UNL A   1      32.485  29.722  25.133  1.00  0.00     0.127 C 
BRANCH   8   9
ATOM      9  C   UNL A   1      31.394  28.685  24.880  1.00  0.00     0.183 C 
ATOM     10  N   UNL A   1      32.724  25.793  22.722  1.00  0.00    -0.142 N 
ATOM     11  C   UNL A   1      32.270  26.640  23.582  1.00  0.00     0.337 C 
ATOM     12  H   UNL A   1      32.627  25.903  21.749  1.00  0.00     0.343 HD
ATOM     13  N   UNL A   1      32.343  26.508  24.926  1.00  0.00    -0.202 N 
ATOM     14  S   UNL A   1      31.405  28.069  23.148  1.00  0.00    -0.020 SA
ATOM     15  C   UNL A   1      31.732  27.451  25.696  1.00  0.00     0.322 C 
ATOM     16  H   UNL A   1      32.823  25.752  25.336  1.00  0.00     0.316 HD
ATOM     17  O   UNL A   1      31.535  27.321  26.893  1.00  0.00    -0.246 OA
BRANCH  10  18
ATOM     18  N   UNL A   1      33.369  24.701  23.313  1.00  0.00    -0.093 NA
ATOM     19  C   UNL A   1      32.752  23.592  23.054  1.00  0.00     0.166 C 
BRANCH  19  20
ATOM     20  C   UNL A   1      33.220  22.335  23.634  1.00  0.00     0.002 A 
ATOM     21  C   UNL A   1      32.904  20.010  24.125  1.00  0.00     0.162 A 
ATOM     22  C   UNL A   1      32.418  21.204  23.592  1.00  0.00     0.060 A 
ATOM     23  C   UNL A   1      34.212  19.928  24.684  1.00  0.00     0.174 A 
ATOM     24  C   UNL A   1      35.013  21.085  24.686  1.00  0.00     0.060 A 
ATOM     25  C   UNL A   1      34.499  22.291  24.177  1.00  0.00     0.028 A 
ATOM     26  I   UNL A   1      37.023  21.278  25.304  1.00  0.00    -0.040 I 
BRANCH  21  27
ATOM     27  O   UNL A   1      32.127  18.874  24.203  1.00  0.00    -0.493 OA
ATOM     28  C   UNL A   1      31.973  18.127  23.002  1.00  0.00     0.278 C 
ENDBRANCH  21  27
BRANCH  23  29
ATOM     29  O   UNL A   1      34.503  18.655  25.093  1.00  0.00    -0.492 OA
ATOM     30  C   UNL A   1      35.092  17.696  24.243  1.00  0.00     0.278 C 
ENDBRANCH  23  29
ENDBRANCH  19  20
ENDBRANCH  10  18
ENDBRANCH   8   9
ENDBRANCH   5   8
ENDBRANCH   3   4
ENDBRANCH   2   3
ENDBRANCH   1   2
BRANCH   1  31
ATOM     31  C   UNL A   1      35.763  32.858  27.982  1.00  0.00     0.002 C 
BRANCH  31  32
ATOM     32  C   UNL A   1      34.809  34.032  27.751  1.00  0.00     0.021 C 
BRANCH  32  33
ATOM     33  C   UNL A   1      33.381  33.768  28.216  1.00  0.00     0.116 C 
BRANCH  33  34
ATOM     34  N   UNL A   1      32.918  34.817  29.111  1.00  0.00    -0.352 N 
ATOM     35  C   UNL A   1      33.255  35.048  30.420  1.00  0.00     0.251 C 
ATOM     36  H   UNL A   1      32.271  35.449  28.722  1.00  0.00     0.163 HD
ATOM     37  O   UNL A   1      32.564  35.799  31.101  1.00  0.00    -0.269 OA
BRANCH  35  38
ATOM     38  C   UNL A   1      34.444  34.386  30.998  1.00  0.00     0.039 A 
ATOM     39  C   UNL A   1      34.279  33.192  31.702  1.00  0.00     0.014 A 
ATOM     40  C   UNL A   1      35.713  34.956  30.867  1.00  0.00     0.014 A 
ATOM     41  C   UNL A   1      35.395  32.555  32.249  1.00  0.00     0.010 A 
ATOM     42  C   UNL A   1      36.832  34.276  31.335  1.00  0.00     0.010 A 
ATOM     43  C   UNL A   1      36.683  33.081  32.054  1.00  0.00    -0.014 A 
BRANCH  43  44
ATOM     44  C   UNL A   1      37.878  32.421  32.639  1.00  0.00     0.031 A 
ATOM     45  C   UNL A   1      38.590  31.340  31.869  1.00  0.00     0.074 A 
ATOM     46  C   UNL A   1      38.301  32.769  33.871  1.00  0.00     0.049 A 
ATOM     47  N   UNL A   1      39.621  30.614  32.218  1.00  0.00    -0.248 NA
ATOM     48  C   UNL A   1      38.049  31.012  30.540  1.00  0.00     0.031 C 
ATOM     49  C   UNL A   1      37.671  33.776  34.726  1.00  0.00     0.029 A 
ATOM     50  N   UNL A   1      39.358  32.315  34.617  1.00  0.00    -0.354 N 
ATOM     51  C   UNL A   1      39.843  29.738  31.160  1.00  0.00     0.074 A 
ATOM     52  C   UNL A   1      38.792  29.973  30.194  1.00  0.00     0.031 C 
ATOM     53  C   UNL A   1      38.375  33.890  35.863  1.00  0.00     0.029 A 
ATOM     54  C   UNL A   1      39.476  32.932  35.841  1.00  0.00     0.049 A 
ATOM     55  H   UNL A   1      39.975  31.614  34.306  1.00  0.00     0.167 HD
ATOM     56  C   UNL A   1      40.848  28.842  30.996  1.00  0.00     0.034 A 
ATOM     57  C   UNL A   1      40.368  32.742  36.834  1.00  0.00     0.034 A 
ATOM     58  C   UNL A   1      41.892  28.627  31.968  1.00  0.00     0.049 A 
ATOM     59  C   UNL A   1      41.459  31.718  36.642  1.00  0.00     0.074 A 
ATOM     60  C   UNL A   1      42.978  27.773  31.893  1.00  0.00     0.029 A 
ATOM     61  N   UNL A   1      41.976  29.266  33.199  1.00  0.00    -0.354 N 
ATOM     62  N   UNL A   1      41.682  30.927  35.618  1.00  0.00    -0.248 NA
ATOM     63  C   UNL A   1      42.430  31.578  37.734  1.00  0.00     0.031 C 
ATOM     64  C   UNL A   1      43.673  27.840  33.105  1.00  0.00     0.029 A 
ATOM     65  C   UNL A   1      43.079  28.805  33.902  1.00  0.00     0.049 A 
ATOM     66  H   UNL A   1      41.344  29.947  33.525  1.00  0.00     0.167 HD
ATOM     67  C   UNL A   1      42.845  30.226  35.927  1.00  0.00     0.074 A 
ATOM     68  C   UNL A   1      43.280  30.701  37.225  1.00  0.00     0.031 C 
ATOM     69  C   UNL A   1      43.500  29.282  35.200  1.00  0.00     0.034 A 
BRANCH  56  70
ATOM     70  C   UNL A   1      40.841  28.016  29.728  1.00  0.00     0.023 A 
ATOM     71  C   UNL A   1      41.765  28.241  28.691  1.00  0.00     0.031 A 
ATOM     72  C   UNL A   1      39.873  27.014  29.534  1.00  0.00     0.131 A 
ATOM     73  C   UNL A   1      41.646  27.543  27.480  1.00  0.00     0.055 A 
ATOM     74  C   UNL A   1      39.818  26.257  28.363  1.00  0.00     0.041 A 
ATOM     75  F   UNL A   1      38.947  26.767  30.475  1.00  0.00    -0.206 F 
ATOM     76  C   UNL A   1      40.697  26.531  27.319  1.00  0.00     0.022 A 
BRANCH  73  77
ATOM     77  S   UNL A   1      42.636  28.094  26.063  1.00  0.00     0.124 S 
ATOM     78  O   UNL A   1      41.956  27.431  24.953  1.00  0.00    -0.237 OA
ATOM     79  O   UNL A   1      42.496  29.544  26.126  1.00  0.00    -0.237 OA
ATOM     80  O   UNL A   1      43.973  27.582  26.360  1.00  0.00    -0.744 OA
ENDBRANCH  73  77
ENDBRANCH  56  70
BRANCH  57  81
ATOM     81  C   UNL A   1      40.275  33.532  38.096  1.00  0.00     0.023 A 
ATOM     82  C   UNL A   1      39.344  33.201  39.092  1.00  0.00     0.031 A 
ATOM     83  C   UNL A   1      41.089  34.661  38.306  1.00  0.00     0.131 A 
ATOM     84  C   UNL A   1      39.209  34.018  40.225  1.00  0.00     0.055 A 
ATOM     85  C   UNL A   1      40.993  35.435  39.463  1.00  0.00     0.041 A 
ATOM     86  F   UNL A   1      42.000  35.021  37.387  1.00  0.00    -0.206 F 
ATOM     87  C   UNL A   1      40.038  35.125  40.424  1.00  0.00     0.022 A 
BRANCH  84  88
ATOM     88  S   UNL A   1      37.865  33.670  41.392  1.00  0.00     0.124 S 
ATOM     89  O   UNL A   1      38.525  32.793  42.352  1.00  0.00    -0.237 OA
ATOM     90  O   UNL A   1      37.525  35.006  41.870  1.00  0.00    -0.237 OA
ATOM     91  O   UNL A   1      36.847  33.032  40.559  1.00  0.00    -0.744 OA
ENDBRANCH  84  88
ENDBRANCH  57  81
BRANCH  69  92
ATOM     92  C   UNL A   1      44.797  28.753  35.770  1.00  0.00     0.023 A 
ATOM     93  C   UNL A   1      44.836  27.651  36.642  1.00  0.00     0.031 A 
ATOM     94  C   UNL A   1      46.014  29.383  35.451  1.00  0.00     0.131 A 
ATOM     95  C   UNL A   1      46.052  27.261  37.222  1.00  0.00     0.055 A 
ATOM     96  C   UNL A   1      47.231  28.943  35.971  1.00  0.00     0.041 A 
ATOM     97  F   UNL A   1      46.040  30.443  34.626  1.00  0.00    -0.206 F 
ATOM     98  C   UNL A   1      47.253  27.887  36.876  1.00  0.00     0.022 A 
BRANCH  95  99
ATOM     99  S   UNL A   1      46.028  26.007  38.533  1.00  0.00     0.124 S 
ATOM    100  O   UNL A   1      46.900  24.976  37.981  1.00  0.00    -0.237 OA
ATOM    101  O   UNL A   1      46.556  26.743  39.677  1.00  0.00    -0.237 OA
ATOM    102  O   UNL A   1      44.617  25.640  38.631  1.00  0.00    -0.744 OA
ENDBRANCH  95  99
ENDBRANCH  69  92
ENDBRANCH  43  44
ENDBRANCH  35  38
ENDBRANCH  33  34
ENDBRANCH  32  33
ENDBRANCH  31  32
ENDBRANCH   1  31
TORSDOF 21
ENDMDL
MODEL 2
REMARK VINA RESULT:     -10.0      5.165      9.351
REMARK SMILES COc1cc(/C=N/[NH+]=C2\NC(=O)[C@@H](CC(=O)NCCCCCCNC(=O)c3ccc(-c4c5nc(c(-c6cc(S(=O)(=O)[O-])ccc6F)c6ccc([nH]6)c(-c6cc(S(=O)(=O)[O-])ccc6F)c6nc(c(-c7cc(S(=O)(=O)[O-])ccc7F)c7ccc4[nH]7)C=C6)C=C5)cc3)S2)cc(I)c1OC
REMARK SMILES IDX 20 1 19 2 18 3 17 4 15 5 16 6 14 8 13 9 8 10 9 11 10 13
REMARK SMILES IDX 90 14 11 15 12 17 7 18 6 19 5 20 3 21 4 22 94 23 92 24 91 25
REMARK SMILES IDX 93 26 2 27 1 28 95 29 96 30 21 31 22 32 23 33 24 34 25 35
REMARK SMILES IDX 26 37 27 38 28 39 89 40 29 41 88 42 30 43 31 44 32 45 82 46
REMARK SMILES IDX 33 47 87 48 81 49 83 50 34 51 86 52 80 53 79 54 35 56 67 57
REMARK SMILES IDX 47 58 66 59 48 60 51 61 65 62 84 63 49 64 50 65 64 67 85 68
REMARK SMILES IDX 52 69 36 70 37 71 45 72 38 73 44 74 46 75 43 76 39 77 40 78
REMARK SMILES IDX 41 79 42 80 68 81 69 82 77 83 70 84 76 85 78 86 75 87 71 88
REMARK SMILES IDX 72 89 73 90 74 91 53 92 54 93 62 94 55 95 61 96 63 97 60 98
REMARK SMILES IDX 56 99 57 100 58 101 59 102
REMARK H PARENT 17 7 8 12 10 16 24 36 83 55 51 66
REMARK Flexibility Score: inf
ROOT
ATOM      1  C   UNL A   1      33.685  22.461  25.006  1.00  0.00     0.002 C 
ENDROOT
BRANCH   1   2
ATOM      2  C   UNL A   1      32.930  21.818  23.839  1.00  0.00     0.021 C 
BRANCH   2   3
ATOM      3  C   UNL A   1      31.965  22.778  23.143  1.00  0.00     0.116 C 
BRANCH   3   4
ATOM      4  N   UNL A   1      32.570  23.311  21.938  1.00  0.00    -0.356 N 
ATOM      5  C   UNL A   1      32.891  24.597  21.641  1.00  0.00     0.221 C 
ATOM      6  O   UNL A   1      33.262  24.875  20.501  1.00  0.00    -0.275 OA
ATOM      7  H   UNL A   1      32.775  22.648  21.237  1.00  0.00     0.163 HD
BRANCH   5   8
ATOM      8  C   UNL A   1      32.798  25.654  22.712  1.00  0.00     0.127 C 
BRANCH   8   9
ATOM      9  C   UNL A   1      32.210  26.955  22.169  1.00  0.00     0.183 C 
ATOM     10  N   UNL A   1      31.162  29.289  25.040  1.00  0.00    -0.142 N 
ATOM     11  C   UNL A   1      31.645  28.629  24.043  1.00  0.00     0.337 C 
ATOM     12  H   UNL A   1      30.237  29.188  25.360  1.00  0.00     0.343 HD
ATOM     13  N   UNL A   1      32.894  28.768  23.542  1.00  0.00    -0.202 N 
ATOM     14  S   UNL A   1      30.730  27.498  23.114  1.00  0.00    -0.020 SA
ATOM     15  C   UNL A   1      33.218  28.059  22.424  1.00  0.00     0.322 C 
ATOM     16  H   UNL A   1      33.549  29.364  23.972  1.00  0.00     0.316 HD
ATOM     17  O   UNL A   1      34.218  28.270  21.758  1.00  0.00    -0.246 OA
BRANCH  10  18
ATOM     18  N   UNL A   1      32.087  30.164  25.620  1.00  0.00    -0.093 NA
ATOM     19  C   UNL A   1      32.780  29.575  26.542  1.00  0.00     0.166 C 
BRANCH  19  20
ATOM     20  C   UNL A   1      33.758  30.329  27.325  1.00  0.00     0.002 A 
ATOM     21  C   UNL A   1      35.893  30.504  28.401  1.00  0.00     0.162 A 
ATOM     22  C   UNL A   1      34.966  29.749  27.681  1.00  0.00     0.060 A 
ATOM     23  C   UNL A   1      35.630  31.860  28.750  1.00  0.00     0.174 A 
ATOM     24  C   UNL A   1      34.406  32.430  28.351  1.00  0.00     0.060 A 
ATOM     25  C   UNL A   1      33.466  31.648  27.655  1.00  0.00     0.028 A 
ATOM     26  I   UNL A   1      33.761  34.427  28.581  1.00  0.00    -0.040 I 
BRANCH  21  27
ATOM     27  O   UNL A   1      37.071  29.963  28.869  1.00  0.00    -0.493 OA
ATOM     28  C   UNL A   1      38.101  29.758  27.908  1.00  0.00     0.278 C 
ENDBRANCH  21  27
BRANCH  23  29
ATOM     29  O   UNL A   1      36.693  32.424  29.401  1.00  0.00    -0.492 OA
ATOM     30  C   UNL A   1      37.377  33.554  28.907  1.00  0.00     0.278 C 
ENDBRANCH  23  29
ENDBRANCH  19  20
ENDBRANCH  10  18
ENDBRANCH   8   9
ENDBRANCH   5   8
ENDBRANCH   3   4
ENDBRANCH   2   3
ENDBRANCH   1   2
BRANCH   1  31
ATOM     31  C   UNL A   1      35.182  22.141  25.040  1.00  0.00     0.002 C 
BRANCH  31  32
ATOM     32  C   UNL A   1      36.096  23.345  24.799  1.00  0.00     0.021 C 
BRANCH  32  33
ATOM     33  C   UNL A   1      37.145  23.551  25.885  1.00  0.00     0.116 C 
BRANCH  33  34
ATOM     34  N   UNL A   1      37.875  22.322  26.152  1.00  0.00    -0.352 N 
ATOM     35  C   UNL A   1      39.201  22.153  26.457  1.00  0.00     0.251 C 
ATOM     36  H   UNL A   1      37.342  21.496  26.107  1.00  0.00     0.163 HD
ATOM     37  O   UNL A   1      39.706  21.037  26.375  1.00  0.00    -0.269 OA
BRANCH  35  38
ATOM     38  C   UNL A   1      40.011  23.317  26.876  1.00  0.00     0.039 A 
ATOM     39  C   UNL A   1      39.804  24.547  26.251  1.00  0.00     0.014 A 
ATOM     40  C   UNL A   1      40.990  23.186  27.866  1.00  0.00     0.014 A 
ATOM     41  C   UNL A   1      40.560  25.655  26.641  1.00  0.00     0.010 A 
ATOM     42  C   UNL A   1      41.679  24.308  28.314  1.00  0.00     0.010 A 
ATOM     43  C   UNL A   1      41.490  25.550  27.689  1.00  0.00    -0.014 A 
BRANCH  43  44
ATOM     44  C   UNL A   1      42.309  26.715  28.107  1.00  0.00     0.031 A 
ATOM     45  C   UNL A   1      43.687  26.909  27.529  1.00  0.00     0.074 A 
ATOM     46  C   UNL A   1      41.831  27.578  29.025  1.00  0.00     0.049 A 
ATOM     47  N   UNL A   1      44.575  27.832  27.792  1.00  0.00    -0.248 NA
ATOM     48  C   UNL A   1      44.135  25.909  26.546  1.00  0.00     0.031 C 
ATOM     49  C   UNL A   1      40.526  27.474  29.681  1.00  0.00     0.029 A 
ATOM     50  N   UNL A   1      42.385  28.710  29.566  1.00  0.00    -0.354 N 
ATOM     51  C   UNL A   1      45.688  27.519  27.019  1.00  0.00     0.074 A 
ATOM     52  C   UNL A   1      45.389  26.278  26.338  1.00  0.00     0.031 C 
ATOM     53  C   UNL A   1      40.365  28.520  30.507  1.00  0.00     0.029 A 
ATOM     54  C   UNL A   1      41.571  29.341  30.479  1.00  0.00     0.049 A 
ATOM     55  H   UNL A   1      43.280  29.040  29.324  1.00  0.00     0.167 HD
ATOM     56  C   UNL A   1      46.841  28.218  26.866  1.00  0.00     0.034 A 
ATOM     57  C   UNL A   1      41.778  30.453  31.213  1.00  0.00     0.034 A 
ATOM     58  C   UNL A   1      47.118  29.458  27.548  1.00  0.00     0.049 A 
ATOM     59  C   UNL A   1      43.080  31.197  31.050  1.00  0.00     0.074 A 
ATOM     60  C   UNL A   1      48.234  30.269  27.445  1.00  0.00     0.029 A 
ATOM     61  N   UNL A   1      46.273  30.065  28.470  1.00  0.00    -0.354 N 
ATOM     62  N   UNL A   1      44.107  30.912  30.283  1.00  0.00    -0.248 NA
ATOM     63  C   UNL A   1      43.241  32.423  31.840  1.00  0.00     0.031 C 
ATOM     64  C   UNL A   1      48.098  31.322  28.356  1.00  0.00     0.029 A 
ATOM     65  C   UNL A   1      46.856  31.223  28.962  1.00  0.00     0.049 A 
ATOM     66  H   UNL A   1      45.389  29.721  28.736  1.00  0.00     0.167 HD
ATOM     67  C   UNL A   1      45.018  31.950  30.467  1.00  0.00     0.074 A 
ATOM     68  C   UNL A   1      44.409  32.870  31.406  1.00  0.00     0.031 C 
ATOM     69  C   UNL A   1      46.241  32.131  29.904  1.00  0.00     0.034 A 
BRANCH  56  70
ATOM     70  C   UNL A   1      47.890  27.633  25.945  1.00  0.00     0.023 A 
ATOM     71  C   UNL A   1      47.968  27.994  24.587  1.00  0.00     0.031 A 
ATOM     72  C   UNL A   1      48.801  26.673  26.420  1.00  0.00     0.131 A 
ATOM     73  C   UNL A   1      48.870  27.336  23.737  1.00  0.00     0.055 A 
ATOM     74  C   UNL A   1      49.760  26.090  25.589  1.00  0.00     0.041 A 
ATOM     75  F   UNL A   1      48.763  26.267  27.700  1.00  0.00    -0.206 F 
ATOM     76  C   UNL A   1      49.787  26.407  24.234  1.00  0.00     0.022 A 
BRANCH  73  77
ATOM     77  S   UNL A   1      48.710  27.587  21.947  1.00  0.00     0.124 S 
ATOM     78  O   UNL A   1      49.812  28.510  21.681  1.00  0.00    -0.237 OA
ATOM     79  O   UNL A   1      48.866  26.235  21.424  1.00  0.00    -0.237 OA
ATOM     80  O   UNL A   1      47.375  28.164  21.801  1.00  0.00    -0.744 OA
ENDBRANCH  73  77
ENDBRANCH  56  70
BRANCH  57  81
ATOM     81  C   UNL A   1      40.736  30.936  32.165  1.00  0.00     0.023 A 
ATOM     82  C   UNL A   1      40.815  30.643  33.536  1.00  0.00     0.031 A 
ATOM     83  C   UNL A   1      39.620  31.662  31.711  1.00  0.00     0.131 A 
ATOM     84  C   UNL A   1      39.773  31.025  34.395  1.00  0.00     0.055 A 
ATOM     85  C   UNL A   1      38.615  32.091  32.579  1.00  0.00     0.041 A 
ATOM     86  F   UNL A   1      39.495  31.972  30.410  1.00  0.00    -0.206 F 
ATOM     87  C   UNL A   1      38.680  31.760  33.928  1.00  0.00     0.022 A 
BRANCH  84  88
ATOM     88  S   UNL A   1      39.817  30.460  36.118  1.00  0.00     0.124 S 
ATOM     89  O   UNL A   1      40.405  31.611  36.792  1.00  0.00    -0.237 OA
ATOM     90  O   UNL A   1      38.406  30.208  36.390  1.00  0.00    -0.237 OA
ATOM     91  O   UNL A   1      40.661  29.268  36.064  1.00  0.00    -0.744 OA
ENDBRANCH  84  88
ENDBRANCH  57  81
BRANCH  69  92
ATOM     92  C   UNL A   1      46.970  33.412  30.242  1.00  0.00     0.023 A 
ATOM     93  C   UNL A   1      46.825  34.580  29.473  1.00  0.00     0.031 A 
ATOM     94  C   UNL A   1      47.848  33.452  31.341  1.00  0.00     0.131 A 
ATOM     95  C   UNL A   1      47.599  35.712  29.768  1.00  0.00     0.055 A 
ATOM     96  C   UNL A   1      48.558  34.605  31.676  1.00  0.00     0.041 A 
ATOM     97  F   UNL A   1      48.031  32.366  32.110  1.00  0.00    -0.206 F 
ATOM     98  C   UNL A   1      48.450  35.738  30.877  1.00  0.00     0.022 A 
BRANCH  95  99
ATOM     99  S   UNL A   1      47.578  37.108  28.609  1.00  0.00     0.124 S 
ATOM    100  O   UNL A   1      48.835  37.779  28.920  1.00  0.00    -0.237 OA
ATOM    101  O   UNL A   1      47.516  36.437  27.315  1.00  0.00    -0.237 OA
ATOM    102  O   UNL A   1      46.372  37.845  28.983  1.00  0.00    -0.744 OA
ENDBRANCH  95  99
ENDBRANCH  69  92
ENDBRANCH  43  44
ENDBRANCH  35  38
ENDBRANCH  33  34
ENDBRANCH  32  33
ENDBRANCH  31  32
ENDBRANCH   1  31
TORSDOF 21
ENDMDL
MODEL 3
REMARK VINA RESULT:     -10.0      2.266      7.651
REMARK SMILES COc1cc(/C=N/[NH+]=C2\NC(=O)[C@@H](CC(=O)NCCCCCCNC(=O)c3ccc(-c4c5nc(c(-c6cc(S(=O)(=O)[O-])ccc6F)c6ccc([nH]6)c(-c6cc(S(=O)(=O)[O-])ccc6F)c6nc(c(-c7cc(S(=O)(=O)[O-])ccc7F)c7ccc4[nH]7)C=C6)C=C5)cc3)S2)cc(I)c1OC
REMARK SMILES IDX 20 1 19 2 18 3 17 4 15 5 16 6 14 8 13 9 8 10 9 11 10 13
REMARK SMILES IDX 90 14 11 15 12 17 7 18 6 19 5 20 3 21 4 22 94 23 92 24 91 25
REMARK SMILES IDX 93 26 2 27 1 28 95 29 96 30 21 31 22 32 23 33 24 34 25 35
REMARK SMILES IDX 26 37 27 38 28 39 89 40 29 41 88 42 30 43 31 44 32 45 82 46
REMARK SMILES IDX 33 47 87 48 81 49 83 50 34 51 86 52 80 53 79 54 35 56 67 57
REMARK SMILES IDX 47 58 66 59 48 60 51 61 65 62 84 63 49 64 50 65 64 67 85 68
REMARK SMILES IDX 52 69 36 70 37 71 45 72 38 73 44 74 46 75 43 76 39 77 40 78
REMARK SMILES IDX 41 79 42 80 68 81 69 82 77 83 70 84 76 85 78 86 75 87 71 88
REMARK SMILES IDX 72 89 73 90 74 91 53 92 54 93 62 94 55 95 61 96 63 97 60 98
REMARK SMILES IDX 56 99 57 100 58 101 59 102
REMARK H PARENT 17 7 8 12 10 16 24 36 83 55 51 66
REMARK Flexibility Score: inf
ROOT
ATOM      1  C   UNL A   1      35.144  31.987  28.559  1.00  0.00     0.002 C 
ENDROOT
BRANCH   1   2
ATOM      2  C   UNL A   1      35.563  30.772  27.726  1.00  0.00     0.021 C 
BRANCH   2   3
ATOM      3  C   UNL A   1      34.439  29.752  27.542  1.00  0.00     0.116 C 
BRANCH   3   4
ATOM      4  N   UNL A   1      33.151  30.419  27.540  1.00  0.00    -0.356 N 
ATOM      5  C   UNL A   1      32.238  30.509  26.538  1.00  0.00     0.221 C 
ATOM      6  O   UNL A   1      31.264  31.248  26.678  1.00  0.00    -0.275 OA
ATOM      7  H   UNL A   1      32.905  30.869  28.381  1.00  0.00     0.163 HD
BRANCH   5   8
ATOM      8  C   UNL A   1      32.428  29.697  25.282  1.00  0.00     0.127 C 
BRANCH   8   9
ATOM      9  C   UNL A   1      31.183  28.880  24.947  1.00  0.00     0.183 C 
ATOM     10  N   UNL A   1      32.045  25.973  22.581  1.00  0.00    -0.142 N 
ATOM     11  C   UNL A   1      31.725  26.819  23.500  1.00  0.00     0.337 C 
ATOM     12  H   UNL A   1      31.984  26.170  21.618  1.00  0.00     0.343 HD
ATOM     13  N   UNL A   1      31.752  26.577  24.831  1.00  0.00    -0.202 N 
ATOM     14  S   UNL A   1      31.120  28.401  23.173  1.00  0.00    -0.020 SA
ATOM     15  C   UNL A   1      31.294  27.550  25.668  1.00  0.00     0.322 C 
ATOM     16  H   UNL A   1      32.091  25.723  25.184  1.00  0.00     0.316 HD
ATOM     17  O   UNL A   1      31.058  27.366  26.850  1.00  0.00    -0.246 OA
BRANCH  10  18
ATOM     18  N   UNL A   1      32.488  24.747  23.089  1.00  0.00    -0.093 NA
ATOM     19  C   UNL A   1      33.747  24.788  23.387  1.00  0.00     0.166 C 
BRANCH  19  20
ATOM     20  C   UNL A   1      34.429  23.588  23.871  1.00  0.00     0.002 A 
ATOM     21  C   UNL A   1      36.388  22.486  24.704  1.00  0.00     0.162 A 
ATOM     22  C   UNL A   1      35.772  23.638  24.215  1.00  0.00     0.060 A 
ATOM     23  C   UNL A   1      35.658  21.274  24.879  1.00  0.00     0.174 A 
ATOM     24  C   UNL A   1      34.290  21.263  24.547  1.00  0.00     0.060 A 
ATOM     25  C   UNL A   1      33.689  22.421  24.023  1.00  0.00     0.028 A 
ATOM     26  I   UNL A   1      32.899  19.696  24.808  1.00  0.00    -0.040 I 
BRANCH  21  27
ATOM     27  O   UNL A   1      37.738  22.437  24.975  1.00  0.00    -0.493 OA
ATOM     28  C   UNL A   1      38.198  23.243  26.055  1.00  0.00     0.278 C 
ENDBRANCH  21  27
BRANCH  23  29
ATOM     29  O   UNL A   1      36.441  20.292  25.422  1.00  0.00    -0.492 OA
ATOM     30  C   UNL A   1      36.936  19.208  24.669  1.00  0.00     0.278 C 
ENDBRANCH  23  29
ENDBRANCH  19  20
ENDBRANCH  10  18
ENDBRANCH   8   9
ENDBRANCH   5   8
ENDBRANCH   3   4
ENDBRANCH   2   3
ENDBRANCH   1   2
BRANCH   1  31
ATOM     31  C   UNL A   1      35.612  33.331  27.992  1.00  0.00     0.002 C 
BRANCH  31  32
ATOM     32  C   UNL A   1      34.549  34.432  28.007  1.00  0.00     0.021 C 
BRANCH  32  33
ATOM     33  C   UNL A   1      33.266  34.042  28.732  1.00  0.00     0.116 C 
BRANCH  33  34
ATOM     34  N   UNL A   1      32.940  35.001  29.776  1.00  0.00    -0.352 N 
ATOM     35  C   UNL A   1      33.418  35.077  31.058  1.00  0.00     0.251 C 
ATOM     36  H   UNL A   1      32.283  35.690  29.527  1.00  0.00     0.163 HD
ATOM     37  O   UNL A   1      32.832  35.770  31.885  1.00  0.00    -0.269 OA
BRANCH  35  38
ATOM     38  C   UNL A   1      34.631  34.320  31.435  1.00  0.00     0.039 A 
ATOM     39  C   UNL A   1      35.884  34.893  31.212  1.00  0.00     0.014 A 
ATOM     40  C   UNL A   1      34.531  33.038  31.982  1.00  0.00     0.014 A 
ATOM     41  C   UNL A   1      37.037  34.189  31.568  1.00  0.00     0.010 A 
ATOM     42  C   UNL A   1      35.674  32.377  32.417  1.00  0.00     0.010 A 
ATOM     43  C   UNL A   1      36.942  32.934  32.191  1.00  0.00    -0.014 A 
BRANCH  43  44
ATOM     44  C   UNL A   1      38.158  32.168  32.563  1.00  0.00     0.031 A 
ATOM     45  C   UNL A   1      38.878  32.484  33.849  1.00  0.00     0.074 A 
ATOM     46  C   UNL A   1      38.633  31.217  31.736  1.00  0.00     0.049 A 
ATOM     47  N   UNL A   1      39.976  31.964  34.335  1.00  0.00    -0.248 NA
ATOM     48  C   UNL A   1      38.300  33.550  34.683  1.00  0.00     0.031 C 
ATOM     49  C   UNL A   1      38.042  30.848  30.448  1.00  0.00     0.029 A 
ATOM     50  N   UNL A   1      39.719  30.387  31.852  1.00  0.00    -0.354 N 
ATOM     51  C   UNL A   1      40.225  32.646  35.521  1.00  0.00     0.074 A 
ATOM     52  C   UNL A   1      39.207  33.667  35.639  1.00  0.00     0.031 C 
ATOM     53  C   UNL A   1      38.750  29.841  29.912  1.00  0.00     0.029 A 
ATOM     54  C   UNL A   1      39.873  29.526  30.790  1.00  0.00     0.049 A 
ATOM     55  H   UNL A   1      40.331  30.406  32.622  1.00  0.00     0.167 HD
ATOM     56  C   UNL A   1      41.195  32.421  36.443  1.00  0.00     0.034 A 
ATOM     57  C   UNL A   1      40.815  28.592  30.550  1.00  0.00     0.034 A 
ATOM     58  C   UNL A   1      42.198  31.392  36.311  1.00  0.00     0.049 A 
ATOM     59  C   UNL A   1      41.902  28.381  31.575  1.00  0.00     0.074 A 
ATOM     60  C   UNL A   1      43.205  31.051  37.195  1.00  0.00     0.029 A 
ATOM     61  N   UNL A   1      42.326  30.542  35.219  1.00  0.00    -0.354 N 
ATOM     62  N   UNL A   1      42.101  29.004  32.713  1.00  0.00    -0.248 NA
ATOM     63  C   UNL A   1      42.880  27.324  31.288  1.00  0.00     0.031 C 
ATOM     64  C   UNL A   1      43.986  30.050  36.607  1.00  0.00     0.029 A 
ATOM     65  C   UNL A   1      43.412  29.698  35.396  1.00  0.00     0.049 A 
ATOM     66  H   UNL A   1      41.732  30.540  34.433  1.00  0.00     0.167 HD
ATOM     67  C   UNL A   1      43.203  28.384  33.298  1.00  0.00     0.074 A 
ATOM     68  C   UNL A   1      43.612  27.331  32.391  1.00  0.00     0.031 C 
ATOM     69  C   UNL A   1      43.814  28.654  34.481  1.00  0.00     0.034 A 
BRANCH  56  70
ATOM     70  C   UNL A   1      41.224  33.326  37.655  1.00  0.00     0.023 A 
ATOM     71  C   UNL A   1      42.183  34.346  37.795  1.00  0.00     0.031 A 
ATOM     72  C   UNL A   1      40.306  33.144  38.705  1.00  0.00     0.131 A 
ATOM     73  C   UNL A   1      42.259  35.080  38.989  1.00  0.00     0.055 A 
ATOM     74  C   UNL A   1      40.328  33.941  39.851  1.00  0.00     0.041 A 
ATOM     75  F   UNL A   1      39.382  32.171  38.644  1.00  0.00    -0.206 F 
ATOM     76  C   UNL A   1      41.320  34.904  40.007  1.00  0.00     0.022 A 
BRANCH  73  77
ATOM     77  S   UNL A   1      43.704  36.143  39.259  1.00  0.00     0.124 S 
ATOM     78  O   UNL A   1      44.136  35.720  40.589  1.00  0.00    -0.237 OA
ATOM     79  O   UNL A   1      44.580  35.773  38.154  1.00  0.00    -0.237 OA
ATOM     80  O   UNL A   1      43.151  37.495  39.193  1.00  0.00    -0.744 OA
ENDBRANCH  73  77
ENDBRANCH  56  70
BRANCH  57  81
ATOM     81  C   UNL A   1      40.779  27.784  29.297  1.00  0.00     0.023 A 
ATOM     82  C   UNL A   1      41.683  28.028  28.252  1.00  0.00     0.031 A 
ATOM     83  C   UNL A   1      39.808  26.783  29.107  1.00  0.00     0.131 A 
ATOM     84  C   UNL A   1      41.566  27.321  27.045  1.00  0.00     0.055 A 
ATOM     85  C   UNL A   1      39.734  26.041  27.927  1.00  0.00     0.041 A 
ATOM     86  F   UNL A   1      38.920  26.506  30.076  1.00  0.00    -0.206 F 
ATOM     87  C   UNL A   1      40.606  26.319  26.881  1.00  0.00     0.022 A 
BRANCH  84  88
ATOM     88  S   UNL A   1      42.625  27.799  25.652  1.00  0.00     0.124 S 
ATOM     89  O   UNL A   1      43.874  28.127  26.328  1.00  0.00    -0.237 OA
ATOM     90  O   UNL A   1      42.630  26.583  24.845  1.00  0.00    -0.237 OA
ATOM     91  O   UNL A   1      41.917  28.932  25.059  1.00  0.00    -0.744 OA
ENDBRANCH  84  88
ENDBRANCH  57  81
BRANCH  69  92
ATOM     92  C   UNL A   1      44.952  27.746  34.889  1.00  0.00     0.023 A 
ATOM     93  C   UNL A   1      46.282  27.995  34.506  1.00  0.00     0.031 A 
ATOM     94  C   UNL A   1      44.693  26.595  35.656  1.00  0.00     0.131 A 
ATOM     95  C   UNL A   1      47.287  27.070  34.825  1.00  0.00     0.055 A 
ATOM     96  C   UNL A   1      45.709  25.718  36.036  1.00  0.00     0.041 A 
ATOM     97  F   UNL A   1      43.443  26.302  36.049  1.00  0.00    -0.206 F 
ATOM     98  C   UNL A   1      47.012  25.943  35.606  1.00  0.00     0.022 A 
BRANCH  95  99
ATOM     99  S   UNL A   1      48.935  27.290  34.100  1.00  0.00     0.124 S 
ATOM    100  O   UNL A   1      49.038  28.743  34.017  1.00  0.00    -0.237 OA
ATOM    101  O   UNL A   1      49.797  26.645  35.084  1.00  0.00    -0.237 OA
ATOM    102  O   UNL A   1      48.839  26.600  32.814  1.00  0.00    -0.744 OA
ENDBRANCH  95  99
ENDBRANCH  69  92
ENDBRANCH  43  44
ENDBRANCH  35  38
ENDBRANCH  33  34
ENDBRANCH  32  33
ENDBRANCH  31  32
ENDBRANCH   1  31
TORSDOF 21
ENDMDL
