MODEL 1
REMARK VINA RESULT:     -10.7      0.000      0.000
REMARK SMILES O=C(CCCCCC(F)(F)c1ccccc1)NCCCCCCNC(=O)c1ccc(-c2c3nc(c(-c4cc(S(=O)(=O)[O-])ccc4F)c4ccc([nH]4)c(-c4cc(S(=O)(=O)[O-])ccc4F)c4nc(c(-c5cc(S(=O)(=O)[O-])ccc5F)c5ccc2[nH]5)C=C4)C=C3)cc1
REMARK SMILES IDX 19 1 18 2 17 3 1 4 2 5 3 7 4 8 5 9 6 10 7 11 8 12 9 13 10 14
REMARK SMILES IDX 11 15 12 16 16 17 13 18 15 19 14 20 20 21 21 22 22 23 23 24
REMARK SMILES IDX 24 25 25 26 26 28 27 29 28 30 89 31 29 32 88 33 30 34 31 35
REMARK SMILES IDX 32 36 82 37 33 38 87 39 81 40 83 41 34 42 86 43 80 44 79 45
REMARK SMILES IDX 35 47 67 48 47 49 66 50 48 51 51 52 65 53 84 54 49 55 50 56
REMARK SMILES IDX 64 58 85 59 52 60 36 61 37 62 45 63 38 64 44 65 46 66 43 67
REMARK SMILES IDX 39 68 40 69 41 70 42 71 68 72 69 73 77 74 70 75 76 76 78 77
REMARK SMILES IDX 75 78 71 79 72 80 73 81 74 82 53 83 54 84 62 85 55 86 61 87
REMARK SMILES IDX 63 88 60 89 56 90 57 91 58 92 59 93
REMARK H PARENT 17 6 24 27 83 46 51 57
REMARK Flexibility Score: inf
ROOT
ATOM      1  C   UNL A   1      33.586  22.640  27.667  1.00  0.00     0.021 C 
ENDROOT
BRANCH   1   2
ATOM      2  C   UNL A   1      32.165  22.902  27.177  1.00  0.00     0.116 C 
BRANCH   2   3
ATOM      3  N   UNL A   1      32.146  23.059  25.742  1.00  0.00    -0.356 N 
ATOM      4  O   UNL A   1      31.774  20.856  25.193  1.00  0.00    -0.275 OA
ATOM      5  C   UNL A   1      31.873  22.035  24.873  1.00  0.00     0.219 C 
ATOM      6  H   UNL A   1      32.339  23.949  25.368  1.00  0.00     0.163 HD
BRANCH   5   7
ATOM      7  C   UNL A   1      31.627  22.526  23.463  1.00  0.00     0.100 C 
BRANCH   7   8
ATOM      8  C   UNL A   1      32.939  22.593  22.682  1.00  0.00     0.010 C 
BRANCH   8   9
ATOM      9  C   UNL A   1      33.590  23.981  22.579  1.00  0.00     0.001 C 
BRANCH   9  10
ATOM     10  C   UNL A   1      32.647  25.187  22.680  1.00  0.00     0.007 C 
BRANCH  10  11
ATOM     11  C   UNL A   1      33.214  26.560  22.287  1.00  0.00     0.082 C 
BRANCH  11  12
ATOM     12  C   UNL A   1      32.551  27.799  22.925  1.00  0.00     0.273 C 
ATOM     13  F   UNL A   1      33.146  28.903  22.383  1.00  0.00    -0.201 F 
ATOM     14  F   UNL A   1      31.262  27.833  22.463  1.00  0.00    -0.201 F 
BRANCH  12  15
ATOM     15  C   UNL A   1      32.581  27.801  24.438  1.00  0.00     0.021 A 
ATOM     16  C   UNL A   1      31.386  27.870  25.173  1.00  0.00     0.010 A 
ATOM     17  C   UNL A   1      33.803  27.840  25.129  1.00  0.00     0.010 A 
ATOM     18  C   UNL A   1      31.416  28.079  26.553  1.00  0.00     0.001 A 
ATOM     19  C   UNL A   1      33.830  28.063  26.506  1.00  0.00     0.001 A 
ATOM     20  C   UNL A   1      32.638  28.201  27.213  1.00  0.00     0.000 A 
ENDBRANCH  12  15
ENDBRANCH  11  12
ENDBRANCH  10  11
ENDBRANCH   9  10
ENDBRANCH   8   9
ENDBRANCH   7   8
ENDBRANCH   5   7
ENDBRANCH   2   3
ENDBRANCH   1   2
BRANCH   1  21
ATOM     21  C   UNL A   1      34.677  22.838  26.601  1.00  0.00     0.002 C 
BRANCH  21  22
ATOM     22  C   UNL A   1      35.361  21.557  26.113  1.00  0.00     0.002 C 
BRANCH  22  23
ATOM     23  C   UNL A   1      35.934  21.629  24.697  1.00  0.00     0.021 C 
BRANCH  23  24
ATOM     24  C   UNL A   1      37.443  21.847  24.620  1.00  0.00     0.116 C 
BRANCH  24  25
ATOM     25  N   UNL A   1      38.192  20.800  25.294  1.00  0.00    -0.352 N 
ATOM     26  C   UNL A   1      39.281  20.908  26.125  1.00  0.00     0.251 C 
ATOM     27  H   UNL A   1      37.875  19.882  25.130  1.00  0.00     0.163 HD
ATOM     28  O   UNL A   1      39.885  19.894  26.464  1.00  0.00    -0.269 OA
BRANCH  26  29
ATOM     29  C   UNL A   1      39.739  22.241  26.581  1.00  0.00     0.039 A 
ATOM     30  C   UNL A   1      40.818  22.311  27.466  1.00  0.00     0.014 A 
ATOM     31  C   UNL A   1      39.119  23.415  26.144  1.00  0.00     0.014 A 
ATOM     32  C   UNL A   1      41.311  23.556  27.861  1.00  0.00     0.010 A 
ATOM     33  C   UNL A   1      39.662  24.655  26.475  1.00  0.00     0.010 A 
ATOM     34  C   UNL A   1      40.763  24.741  27.339  1.00  0.00    -0.014 A 
BRANCH  34  35
ATOM     35  C   UNL A   1      41.359  26.062  27.678  1.00  0.00     0.031 A 
ATOM     36  C   UNL A   1      42.739  26.430  27.206  1.00  0.00     0.074 A 
ATOM     37  C   UNL A   1      40.658  26.921  28.445  1.00  0.00     0.049 A 
ATOM     38  N   UNL A   1      43.405  27.544  27.382  1.00  0.00    -0.248 NA
ATOM     39  C   UNL A   1      43.480  25.401  26.462  1.00  0.00     0.031 C 
ATOM     40  C   UNL A   1      39.331  26.660  29.007  1.00  0.00     0.029 A 
ATOM     41  N   UNL A   1      40.953  28.191  28.875  1.00  0.00    -0.354 N 
ATOM     42  C   UNL A   1      44.643  27.348  26.780  1.00  0.00     0.074 A 
ATOM     43  C   UNL A   1      44.656  25.984  26.293  1.00  0.00     0.031 C 
ATOM     44  C   UNL A   1      38.904  27.752  29.659  1.00  0.00     0.029 A 
ATOM     45  C   UNL A   1      39.944  28.775  29.605  1.00  0.00     0.049 A 
ATOM     46  H   UNL A   1      41.806  28.642  28.679  1.00  0.00     0.167 HD
ATOM     47  C   UNL A   1      45.664  28.230  26.629  1.00  0.00     0.034 A 
ATOM     48  C   UNL A   1      39.860  29.998  30.166  1.00  0.00     0.034 A 
ATOM     49  C   UNL A   1      45.631  29.587  27.121  1.00  0.00     0.049 A 
ATOM     50  C   UNL A   1      41.017  30.950  30.005  1.00  0.00     0.074 A 
ATOM     51  C   UNL A   1      46.577  30.586  26.962  1.00  0.00     0.029 A 
ATOM     52  N   UNL A   1      44.607  30.135  27.887  1.00  0.00    -0.354 N 
ATOM     53  N   UNL A   1      42.151  30.777  29.364  1.00  0.00    -0.248 NA
ATOM     54  C   UNL A   1      40.875  32.266  30.636  1.00  0.00     0.031 C 
ATOM     55  C   UNL A   1      46.169  31.702  27.702  1.00  0.00     0.029 A 
ATOM     56  C   UNL A   1      44.923  31.439  28.247  1.00  0.00     0.049 A 
ATOM     57  H   UNL A   1      43.779  29.666  28.137  1.00  0.00     0.167 HD
ATOM     58  C   UNL A   1      42.845  31.978  29.492  1.00  0.00     0.074 A 
ATOM     59  C   UNL A   1      41.986  32.870  30.246  1.00  0.00     0.031 C 
ATOM     60  C   UNL A   1      44.076  32.313  29.029  1.00  0.00     0.034 A 
BRANCH  47  61
ATOM     61  C   UNL A   1      46.915  27.735  25.934  1.00  0.00     0.023 A 
ATOM     62  C   UNL A   1      47.189  28.036  24.587  1.00  0.00     0.031 A 
ATOM     63  C   UNL A   1      47.832  26.916  26.620  1.00  0.00     0.131 A 
ATOM     64  C   UNL A   1      48.294  27.455  23.948  1.00  0.00     0.055 A 
ATOM     65  C   UNL A   1      48.981  26.416  26.002  1.00  0.00     0.041 A 
ATOM     66  F   UNL A   1      47.619  26.573  27.899  1.00  0.00    -0.206 F 
ATOM     67  C   UNL A   1      49.208  26.669  24.652  1.00  0.00     0.022 A 
BRANCH  64  68
ATOM     68  S   UNL A   1      48.426  27.599  22.144  1.00  0.00     0.124 S 
ATOM     69  O   UNL A   1      49.588  28.473  22.001  1.00  0.00    -0.237 OA
ATOM     70  O   UNL A   1      48.613  26.214  21.729  1.00  0.00    -0.237 OA
ATOM     71  O   UNL A   1      47.153  28.202  21.754  1.00  0.00    -0.744 OA
ENDBRANCH  64  68
ENDBRANCH  47  61
BRANCH  48  72
ATOM     72  C   UNL A   1      38.640  30.403  30.921  1.00  0.00     0.023 A 
ATOM     73  C   UNL A   1      37.579  31.062  30.278  1.00  0.00     0.031 A 
ATOM     74  C   UNL A   1      38.529  30.172  32.304  1.00  0.00     0.131 A 
ATOM     75  C   UNL A   1      36.478  31.509  31.023  1.00  0.00     0.055 A 
ATOM     76  C   UNL A   1      37.406  30.568  33.030  1.00  0.00     0.041 A 
ATOM     77  F   UNL A   1      39.513  29.544  32.968  1.00  0.00    -0.206 F 
ATOM     78  C   UNL A   1      36.376  31.252  32.392  1.00  0.00     0.022 A 
BRANCH  75  79
ATOM     79  S   UNL A   1      35.212  32.504  30.189  1.00  0.00     0.124 S 
ATOM     80  O   UNL A   1      34.765  31.597  29.138  1.00  0.00    -0.237 OA
ATOM     81  O   UNL A   1      34.262  32.754  31.269  1.00  0.00    -0.237 OA
ATOM     82  O   UNL A   1      35.951  33.678  29.728  1.00  0.00    -0.744 OA
ENDBRANCH  75  79
ENDBRANCH  48  72
BRANCH  60  83
ATOM     83  C   UNL A   1      44.548  33.722  29.311  1.00  0.00     0.023 A 
ATOM     84  C   UNL A   1      44.184  34.802  28.484  1.00  0.00     0.031 A 
ATOM     85  C   UNL A   1      45.417  33.983  30.385  1.00  0.00     0.131 A 
ATOM     86  C   UNL A   1      44.756  36.066  28.690  1.00  0.00     0.055 A 
ATOM     87  C   UNL A   1      45.919  35.261  30.634  1.00  0.00     0.041 A 
ATOM     88  F   UNL A   1      45.806  32.994  31.205  1.00  0.00    -0.206 F 
ATOM     89  C   UNL A   1      45.606  36.308  29.772  1.00  0.00     0.022 A 
BRANCH  86  90
ATOM     90  S   UNL A   1      44.489  37.353  27.439  1.00  0.00     0.124 S 
ATOM     91  O   UNL A   1      44.407  38.559  28.259  1.00  0.00    -0.237 OA
ATOM     92  O   UNL A   1      45.680  37.229  26.605  1.00  0.00    -0.237 OA
ATOM     93  O   UNL A   1      43.238  36.954  26.798  1.00  0.00    -0.744 OA
ENDBRANCH  86  90
ENDBRANCH  60  83
ENDBRANCH  34  35
ENDBRANCH  26  29
ENDBRANCH  24  25
ENDBRANCH  23  24
ENDBRANCH  22  23
ENDBRANCH  21  22
ENDBRANCH   1  21
TORSDOF 22
ENDMDL
MODEL 2
REMARK VINA RESULT:     -10.5      1.074      7.606
REMARK SMILES O=C(CCCCCC(F)(F)c1ccccc1)NCCCCCCNC(=O)c1ccc(-c2c3nc(c(-c4cc(S(=O)(=O)[O-])ccc4F)c4ccc([nH]4)c(-c4cc(S(=O)(=O)[O-])ccc4F)c4nc(c(-c5cc(S(=O)(=O)[O-])ccc5F)c5ccc2[nH]5)C=C4)C=C3)cc1
REMARK SMILES IDX 19 1 18 2 17 3 1 4 2 5 3 7 4 8 5 9 6 10 7 11 8 12 9 13 10 14
REMARK SMILES IDX 11 15 12 16 16 17 13 18 15 19 14 20 20 21 21 22 22 23 23 24
REMARK SMILES IDX 24 25 25 26 26 28 27 29 28 30 89 31 29 32 88 33 30 34 31 35
REMARK SMILES IDX 32 36 82 37 33 38 87 39 81 40 83 41 34 42 86 43 80 44 79 45
REMARK SMILES IDX 35 47 67 48 47 49 66 50 48 51 51 52 65 53 84 54 49 55 50 56
REMARK SMILES IDX 64 58 85 59 52 60 36 61 37 62 45 63 38 64 44 65 46 66 43 67
REMARK SMILES IDX 39 68 40 69 41 70 42 71 68 72 69 73 77 74 70 75 76 76 78 77
REMARK SMILES IDX 75 78 71 79 72 80 73 81 74 82 53 83 54 84 62 85 55 86 61 87
REMARK SMILES IDX 63 88 60 89 56 90 57 91 58 92 59 93
REMARK H PARENT 17 6 24 27 83 46 51 57
REMARK Flexibility Score: inf
ROOT
ATOM      1  C   UNL A   1      33.493  22.425  27.749  1.00  0.00     0.021 C 
ENDROOT
BRANCH   1   2
ATOM      2  C   UNL A   1      32.252  23.187  27.292  1.00  0.00     0.116 C 
BRANCH   2   3
ATOM      3  N   UNL A   1      32.239  23.316  25.854  1.00  0.00    -0.356 N 
ATOM      4  O   UNL A   1      31.058  21.399  25.380  1.00  0.00    -0.275 OA
ATOM      5  C   UNL A   1      31.575  22.452  25.023  1.00  0.00     0.219 C 
ATOM      6  H   UNL A   1      32.734  24.065  25.449  1.00  0.00     0.163 HD
BRANCH   5   7
ATOM      7  C   UNL A   1      31.476  22.977  23.607  1.00  0.00     0.100 C 
BRANCH   7   8
ATOM      8  C   UNL A   1      32.562  22.356  22.729  1.00  0.00     0.010 C 
BRANCH   8   9
ATOM      9  C   UNL A   1      33.615  23.328  22.175  1.00  0.00     0.001 C 
BRANCH   9  10
ATOM     10  C   UNL A   1      33.378  24.819  22.447  1.00  0.00     0.007 C 
BRANCH  10  11
ATOM     11  C   UNL A   1      33.898  25.385  23.778  1.00  0.00     0.082 C 
BRANCH  11  12
ATOM     12  C   UNL A   1      33.312  26.736  24.240  1.00  0.00     0.273 C 
ATOM     13  F   UNL A   1      33.556  26.848  25.580  1.00  0.00    -0.201 F 
ATOM     14  F   UNL A   1      34.080  27.712  23.662  1.00  0.00    -0.201 F 
BRANCH  12  15
ATOM     15  C   UNL A   1      31.852  26.923  23.893  1.00  0.00     0.021 A 
ATOM     16  C   UNL A   1      31.472  27.798  22.862  1.00  0.00     0.010 A 
ATOM     17  C   UNL A   1      30.850  26.308  24.661  1.00  0.00     0.010 A 
ATOM     18  C   UNL A   1      30.129  28.129  22.676  1.00  0.00     0.001 A 
ATOM     19  C   UNL A   1      29.510  26.652  24.483  1.00  0.00     0.001 A 
ATOM     20  C   UNL A   1      29.152  27.576  23.503  1.00  0.00     0.000 A 
ENDBRANCH  12  15
ENDBRANCH  11  12
ENDBRANCH  10  11
ENDBRANCH   9  10
ENDBRANCH   8   9
ENDBRANCH   7   8
ENDBRANCH   5   7
ENDBRANCH   2   3
ENDBRANCH   1   2
BRANCH   1  21
ATOM     21  C   UNL A   1      34.676  22.481  26.767  1.00  0.00     0.002 C 
BRANCH  21  22
ATOM     22  C   UNL A   1      34.981  21.175  26.029  1.00  0.00     0.002 C 
BRANCH  22  23
ATOM     23  C   UNL A   1      35.513  21.345  24.605  1.00  0.00     0.021 C 
BRANCH  23  24
ATOM     24  C   UNL A   1      37.010  21.620  24.502  1.00  0.00     0.116 C 
BRANCH  24  25
ATOM     25  N   UNL A   1      37.814  20.545  25.055  1.00  0.00    -0.352 N 
ATOM     26  C   UNL A   1      38.997  20.613  25.751  1.00  0.00     0.251 C 
ATOM     27  H   UNL A   1      37.462  19.637  24.910  1.00  0.00     0.163 HD
ATOM     28  O   UNL A   1      39.618  19.580  25.990  1.00  0.00    -0.269 OA
BRANCH  26  29
ATOM     29  C   UNL A   1      39.534  21.926  26.178  1.00  0.00     0.039 A 
ATOM     30  C   UNL A   1      40.812  21.975  26.741  1.00  0.00     0.014 A 
ATOM     31  C   UNL A   1      38.792  23.101  26.029  1.00  0.00     0.014 A 
ATOM     32  C   UNL A   1      41.367  23.207  27.093  1.00  0.00     0.010 A 
ATOM     33  C   UNL A   1      39.378  24.335  26.306  1.00  0.00     0.010 A 
ATOM     34  C   UNL A   1      40.672  24.403  26.843  1.00  0.00    -0.014 A 
BRANCH  34  35
ATOM     35  C   UNL A   1      41.309  25.719  27.120  1.00  0.00     0.031 A 
ATOM     36  C   UNL A   1      40.601  26.760  27.944  1.00  0.00     0.074 A 
ATOM     37  C   UNL A   1      42.523  25.985  26.597  1.00  0.00     0.049 A 
ATOM     38  N   UNL A   1      41.013  27.948  28.309  1.00  0.00    -0.248 NA
ATOM     39  C   UNL A   1      39.239  26.435  28.392  1.00  0.00     0.031 C 
ATOM     40  C   UNL A   1      43.288  25.077  25.740  1.00  0.00     0.029 A 
ATOM     41  N   UNL A   1      43.333  27.086  26.717  1.00  0.00    -0.354 N 
ATOM     42  C   UNL A   1      39.962  28.515  29.022  1.00  0.00     0.074 A 
ATOM     43  C   UNL A   1      38.871  27.564  28.978  1.00  0.00     0.031 C 
ATOM     44  C   UNL A   1      44.476  25.634  25.457  1.00  0.00     0.029 A 
ATOM     45  C   UNL A   1      44.540  26.956  26.070  1.00  0.00     0.049 A 
ATOM     46  H   UNL A   1      43.075  27.893  27.219  1.00  0.00     0.167 HD
ATOM     47  C   UNL A   1      39.919  29.707  29.670  1.00  0.00     0.034 A 
ATOM     48  C   UNL A   1      45.585  27.803  25.982  1.00  0.00     0.034 A 
ATOM     49  C   UNL A   1      41.020  30.642  29.703  1.00  0.00     0.049 A 
ATOM     50  C   UNL A   1      45.503  29.131  26.690  1.00  0.00     0.074 A 
ATOM     51  C   UNL A   1      41.111  31.843  30.385  1.00  0.00     0.029 A 
ATOM     52  N   UNL A   1      42.215  30.495  29.007  1.00  0.00    -0.354 N 
ATOM     53  N   UNL A   1      44.532  29.620  27.427  1.00  0.00    -0.248 NA
ATOM     54  C   UNL A   1      46.667  30.015  26.560  1.00  0.00     0.031 C 
ATOM     55  C   UNL A   1      42.317  32.460  30.034  1.00  0.00     0.029 A 
ATOM     56  C   UNL A   1      43.027  31.604  29.207  1.00  0.00     0.049 A 
ATOM     57  H   UNL A   1      42.452  29.716  28.454  1.00  0.00     0.167 HD
ATOM     58  C   UNL A   1      44.983  30.860  27.872  1.00  0.00     0.074 A 
ATOM     59  C   UNL A   1      46.322  31.025  27.343  1.00  0.00     0.031 C 
ATOM     60  C   UNL A   1      44.349  31.777  28.648  1.00  0.00     0.034 A 
BRANCH  47  61
ATOM     61  C   UNL A   1      38.625  30.078  30.361  1.00  0.00     0.023 A 
ATOM     62  C   UNL A   1      37.581  30.738  29.687  1.00  0.00     0.031 A 
ATOM     63  C   UNL A   1      38.444  29.798  31.729  1.00  0.00     0.131 A 
ATOM     64  C   UNL A   1      36.451  31.173  30.396  1.00  0.00     0.055 A 
ATOM     65  C   UNL A   1      37.276  30.153  32.407  1.00  0.00     0.041 A 
ATOM     66  F   UNL A   1      39.409  29.191  32.436  1.00  0.00    -0.206 F 
ATOM     67  C   UNL A   1      36.278  30.861  31.745  1.00  0.00     0.022 A 
BRANCH  64  68
ATOM     68  S   UNL A   1      35.293  32.301  29.570  1.00  0.00     0.124 S 
ATOM     69  O   UNL A   1      34.472  32.753  30.691  1.00  0.00    -0.237 OA
ATOM     70  O   UNL A   1      36.184  33.297  28.987  1.00  0.00    -0.237 OA
ATOM     71  O   UNL A   1      34.602  31.441  28.611  1.00  0.00    -0.744 OA
ENDBRANCH  64  68
ENDBRANCH  47  61
BRANCH  48  72
ATOM     72  C   UNL A   1      46.803  27.427  25.208  1.00  0.00     0.023 A 
ATOM     73  C   UNL A   1      46.971  27.849  23.879  1.00  0.00     0.031 A 
ATOM     74  C   UNL A   1      47.800  26.610  25.770  1.00  0.00     0.131 A 
ATOM     75  C   UNL A   1      48.083  27.414  23.142  1.00  0.00     0.055 A 
ATOM     76  C   UNL A   1      48.933  26.228  25.051  1.00  0.00     0.041 A 
ATOM     77  F   UNL A   1      47.690  26.181  27.039  1.00  0.00    -0.206 F 
ATOM     78  C   UNL A   1      49.074  26.620  23.724  1.00  0.00     0.022 A 
BRANCH  75  79
ATOM     79  S   UNL A   1      48.177  27.838  21.381  1.00  0.00     0.124 S 
ATOM     80  O   UNL A   1      49.130  28.942  21.391  1.00  0.00    -0.237 OA
ATOM     81  O   UNL A   1      48.648  26.589  20.792  1.00  0.00    -0.237 OA
ATOM     82  O   UNL A   1      46.802  28.203  21.045  1.00  0.00    -0.744 OA
ENDBRANCH  75  79
ENDBRANCH  48  72
BRANCH  60  83
ATOM     83  C   UNL A   1      45.123  33.032  28.987  1.00  0.00     0.023 A 
ATOM     84  C   UNL A   1      45.025  34.195  28.200  1.00  0.00     0.031 A 
ATOM     85  C   UNL A   1      46.012  33.050  30.076  1.00  0.00     0.131 A 
ATOM     86  C   UNL A   1      45.865  35.289  28.458  1.00  0.00     0.055 A 
ATOM     87  C   UNL A   1      46.786  34.172  30.377  1.00  0.00     0.041 A 
ATOM     88  F   UNL A   1      46.155  31.971  30.861  1.00  0.00    -0.206 F 
ATOM     89  C   UNL A   1      46.731  35.293  29.554  1.00  0.00     0.022 A 
BRANCH  86  90
ATOM     90  S   UNL A   1      45.916  36.647  27.255  1.00  0.00     0.124 S 
ATOM     91  O   UNL A   1      46.614  37.688  28.005  1.00  0.00    -0.237 OA
ATOM     92  O   UNL A   1      46.657  36.054  26.147  1.00  0.00    -0.237 OA
ATOM     93  O   UNL A   1      44.506  36.918  26.985  1.00  0.00    -0.744 OA
ENDBRANCH  86  90
ENDBRANCH  60  83
ENDBRANCH  34  35
ENDBRANCH  26  29
ENDBRANCH  24  25
ENDBRANCH  23  24
ENDBRANCH  22  23
ENDBRANCH  21  22
ENDBRANCH   1  21
TORSDOF 22
ENDMDL
MODEL 3
REMARK VINA RESULT:     -10.0      8.857     13.318
REMARK SMILES O=C(CCCCCC(F)(F)c1ccccc1)NCCCCCCNC(=O)c1ccc(-c2c3nc(c(-c4cc(S(=O)(=O)[O-])ccc4F)c4ccc([nH]4)c(-c4cc(S(=O)(=O)[O-])ccc4F)c4nc(c(-c5cc(S(=O)(=O)[O-])ccc5F)c5ccc2[nH]5)C=C4)C=C3)cc1
REMARK SMILES IDX 19 1 18 2 17 3 1 4 2 5 3 7 4 8 5 9 6 10 7 11 8 12 9 13 10 14
REMARK SMILES IDX 11 15 12 16 16 17 13 18 15 19 14 20 20 21 21 22 22 23 23 24
REMARK SMILES IDX 24 25 25 26 26 28 27 29 28 30 89 31 29 32 88 33 30 34 31 35
REMARK SMILES IDX 32 36 82 37 33 38 87 39 81 40 83 41 34 42 86 43 80 44 79 45
REMARK SMILES IDX 35 47 67 48 47 49 66 50 48 51 51 52 65 53 84 54 49 55 50 56
REMARK SMILES IDX 64 58 85 59 52 60 36 61 37 62 45 63 38 64 44 65 46 66 43 67
REMARK SMILES IDX 39 68 40 69 41 70 42 71 68 72 69 73 77 74 70 75 76 76 78 77
REMARK SMILES IDX 75 78 71 79 72 80 73 81 74 82 53 83 54 84 62 85 55 86 61 87
REMARK SMILES IDX 63 88 60 89 56 90 57 91 58 92 59 93
REMARK H PARENT 17 6 24 27 83 46 51 57
REMARK Flexibility Score: inf
ROOT
ATOM      1  C   UNL A   1      45.971  19.621  35.117  1.00  0.00     0.021 C 
ENDROOT
BRANCH   1   2
ATOM      2  C   UNL A   1      45.343  18.721  36.179  1.00  0.00     0.116 C 
BRANCH   2   3
ATOM      3  N   UNL A   1      46.072  18.823  37.422  1.00  0.00    -0.356 N 
ATOM      4  O   UNL A   1      44.637  17.586  38.727  1.00  0.00    -0.275 OA
ATOM      5  C   UNL A   1      45.698  18.180  38.572  1.00  0.00     0.219 C 
ATOM      6  H   UNL A   1      46.882  19.384  37.443  1.00  0.00     0.163 HD
BRANCH   5   7
ATOM      7  C   UNL A   1      46.781  18.214  39.629  1.00  0.00     0.100 C 
BRANCH   7   8
ATOM      8  C   UNL A   1      46.405  17.320  40.811  1.00  0.00     0.010 C 
BRANCH   8   9
ATOM      9  C   UNL A   1      45.836  18.039  42.043  1.00  0.00     0.001 C 
BRANCH   9  10
ATOM     10  C   UNL A   1      44.521  17.487  42.610  1.00  0.00     0.007 C 
BRANCH  10  11
ATOM     11  C   UNL A   1      44.096  16.080  42.161  1.00  0.00     0.082 C 
BRANCH  11  12
ATOM     12  C   UNL A   1      43.862  15.034  43.271  1.00  0.00     0.273 C 
ATOM     13  F   UNL A   1      45.088  14.556  43.645  1.00  0.00    -0.201 F 
ATOM     14  F   UNL A   1      43.406  15.720  44.365  1.00  0.00    -0.201 F 
BRANCH  12  15
ATOM     15  C   UNL A   1      42.899  13.933  42.885  1.00  0.00     0.021 A 
ATOM     16  C   UNL A   1      42.345  13.893  41.595  1.00  0.00     0.010 A 
ATOM     17  C   UNL A   1      42.462  12.999  43.838  1.00  0.00     0.010 A 
ATOM     18  C   UNL A   1      41.307  13.008  41.299  1.00  0.00     0.001 A 
ATOM     19  C   UNL A   1      41.414  12.126  43.544  1.00  0.00     0.001 A 
ATOM     20  C   UNL A   1      40.825  12.144  42.282  1.00  0.00     0.000 A 
ENDBRANCH  12  15
ENDBRANCH  11  12
ENDBRANCH  10  11
ENDBRANCH   9  10
ENDBRANCH   8   9
ENDBRANCH   7   8
ENDBRANCH   5   7
ENDBRANCH   2   3
ENDBRANCH   1   2
BRANCH   1  21
ATOM     21  C   UNL A   1      45.354  21.026  35.024  1.00  0.00     0.002 C 
BRANCH  21  22
ATOM     22  C   UNL A   1      46.313  22.138  34.587  1.00  0.00     0.002 C 
BRANCH  22  23
ATOM     23  C   UNL A   1      47.340  22.559  35.639  1.00  0.00     0.021 C 
BRANCH  23  24
ATOM     24  C   UNL A   1      47.967  23.932  35.418  1.00  0.00     0.116 C 
BRANCH  24  25
ATOM     25  N   UNL A   1      47.968  24.744  36.623  1.00  0.00    -0.352 N 
ATOM     26  C   UNL A   1      47.286  25.908  36.887  1.00  0.00     0.251 C 
ATOM     27  H   UNL A   1      48.539  24.415  37.354  1.00  0.00     0.163 HD
ATOM     28  O   UNL A   1      47.549  26.544  37.904  1.00  0.00    -0.269 OA
BRANCH  26  29
ATOM     29  C   UNL A   1      46.268  26.407  35.933  1.00  0.00     0.039 A 
ATOM     30  C   UNL A   1      45.024  25.774  35.891  1.00  0.00     0.014 A 
ATOM     31  C   UNL A   1      46.529  27.489  35.087  1.00  0.00     0.014 A 
ATOM     32  C   UNL A   1      44.025  26.264  35.048  1.00  0.00     0.010 A 
ATOM     33  C   UNL A   1      45.507  28.025  34.306  1.00  0.00     0.010 A 
ATOM     34  C   UNL A   1      44.243  27.419  34.276  1.00  0.00    -0.014 A 
BRANCH  34  35
ATOM     35  C   UNL A   1      43.143  28.001  33.460  1.00  0.00     0.031 A 
ATOM     36  C   UNL A   1      42.981  27.633  32.010  1.00  0.00     0.074 A 
ATOM     37  C   UNL A   1      42.305  28.892  34.027  1.00  0.00     0.049 A 
ATOM     38  N   UNL A   1      42.067  28.020  31.155  1.00  0.00    -0.248 NA
ATOM     39  C   UNL A   1      43.995  26.736  31.438  1.00  0.00     0.031 C 
ATOM     40  C   UNL A   1      42.390  29.368  35.410  1.00  0.00     0.029 A 
ATOM     41  N   UNL A   1      41.210  29.547  33.521  1.00  0.00    -0.354 N 
ATOM     42  C   UNL A   1      42.399  27.422  29.944  1.00  0.00     0.074 A 
ATOM     43  C   UNL A   1      43.635  26.700  30.164  1.00  0.00     0.031 C 
ATOM     44  C   UNL A   1      41.362  30.193  35.657  1.00  0.00     0.029 A 
ATOM     45  C   UNL A   1      40.570  30.346  34.440  1.00  0.00     0.049 A 
ATOM     46  H   UNL A   1      40.911  29.454  32.587  1.00  0.00     0.167 HD
ATOM     47  C   UNL A   1      41.724  27.452  28.767  1.00  0.00     0.034 A 
ATOM     48  C   UNL A   1      39.469  31.112  34.321  1.00  0.00     0.034 A 
ATOM     49  C   UNL A   1      40.490  28.177  28.569  1.00  0.00     0.049 A 
ATOM     50  C   UNL A   1      38.751  31.150  32.996  1.00  0.00     0.074 A 
ATOM     51  C   UNL A   1      39.686  28.220  27.443  1.00  0.00     0.029 A 
ATOM     52  N   UNL A   1      39.889  29.004  29.512  1.00  0.00    -0.354 N 
ATOM     53  N   UNL A   1      39.033  30.514  31.881  1.00  0.00    -0.248 NA
ATOM     54  C   UNL A   1      37.559  32.001  32.921  1.00  0.00     0.031 C 
ATOM     55  C   UNL A   1      38.654  29.136  27.672  1.00  0.00     0.029 A 
ATOM     56  C   UNL A   1      38.753  29.598  28.975  1.00  0.00     0.049 A 
ATOM     57  H   UNL A   1      40.220  29.148  30.427  1.00  0.00     0.167 HD
ATOM     58  C   UNL A   1      38.033  30.870  30.980  1.00  0.00     0.074 A 
ATOM     59  C   UNL A   1      37.129  31.750  31.694  1.00  0.00     0.031 C 
ATOM     60  C   UNL A   1      37.875  30.502  29.682  1.00  0.00     0.034 A 
BRANCH  47  61
ATOM     61  C   UNL A   1      42.332  26.710  27.596  1.00  0.00     0.023 A 
ATOM     62  C   UNL A   1      42.231  25.313  27.466  1.00  0.00     0.031 A 
ATOM     63  C   UNL A   1      43.055  27.407  26.611  1.00  0.00     0.131 A 
ATOM     64  C   UNL A   1      42.914  24.652  26.433  1.00  0.00     0.055 A 
ATOM     65  C   UNL A   1      43.656  26.752  25.533  1.00  0.00     0.041 A 
ATOM     66  F   UNL A   1      43.208  28.738  26.688  1.00  0.00    -0.206 F 
ATOM     67  C   UNL A   1      43.603  25.364  25.450  1.00  0.00     0.022 A 
BRANCH  64  68
ATOM     68  S   UNL A   1      43.033  22.842  26.493  1.00  0.00     0.124 S 
ATOM     69  O   UNL A   1      44.477  22.643  26.588  1.00  0.00    -0.237 OA
ATOM     70  O   UNL A   1      42.263  22.515  27.687  1.00  0.00    -0.237 OA
ATOM     71  O   UNL A   1      42.437  22.417  25.228  1.00  0.00    -0.744 OA
ENDBRANCH  64  68
ENDBRANCH  47  61
BRANCH  48  72
ATOM     72  C   UNL A   1      38.964  31.900  35.482  1.00  0.00     0.023 A 
ATOM     73  C   UNL A   1      38.351  31.262  36.574  1.00  0.00     0.031 A 
ATOM     74  C   UNL A   1      39.053  33.303  35.505  1.00  0.00     0.131 A 
ATOM     75  C   UNL A   1      37.809  32.027  37.617  1.00  0.00     0.055 A 
ATOM     76  C   UNL A   1      38.563  34.056  36.573  1.00  0.00     0.041 A 
ATOM     77  F   UNL A   1      39.632  33.963  34.489  1.00  0.00    -0.206 F 
ATOM     78  C   UNL A   1      37.924  33.419  37.632  1.00  0.00     0.022 A 
BRANCH  75  79
ATOM     79  S   UNL A   1      36.875  31.180  38.921  1.00  0.00     0.124 S 
ATOM     80  O   UNL A   1      37.779  31.300  40.059  1.00  0.00    -0.237 OA
ATOM     81  O   UNL A   1      35.652  31.974  38.985  1.00  0.00    -0.237 OA
ATOM     82  O   UNL A   1      36.709  29.826  38.395  1.00  0.00    -0.744 OA
ENDBRANCH  75  79
ENDBRANCH  48  72
BRANCH  60  83
ATOM     83  C   UNL A   1      36.655  31.040  28.967  1.00  0.00     0.023 A 
ATOM     84  C   UNL A   1      35.625  30.190  28.522  1.00  0.00     0.031 A 
ATOM     85  C   UNL A   1      36.545  32.411  28.678  1.00  0.00     0.131 A 
ATOM     86  C   UNL A   1      34.583  30.704  27.736  1.00  0.00     0.055 A 
ATOM     87  C   UNL A   1      35.462  32.930  27.966  1.00  0.00     0.041 A 
ATOM     88  F   UNL A   1      37.496  33.273  29.071  1.00  0.00    -0.206 F 
ATOM     89  C   UNL A   1      34.483  32.072  27.472  1.00  0.00     0.022 A 
BRANCH  86  90
ATOM     90  S   UNL A   1      33.439  29.540  26.942  1.00  0.00     0.124 S 
ATOM     91  O   UNL A   1      34.032  28.251  27.290  1.00  0.00    -0.237 OA
ATOM     92  O   UNL A   1      32.172  29.855  27.592  1.00  0.00    -0.237 OA
ATOM     93  O   UNL A   1      33.517  29.895  25.527  1.00  0.00    -0.744 OA
ENDBRANCH  86  90
ENDBRANCH  60  83
ENDBRANCH  34  35
ENDBRANCH  26  29
ENDBRANCH  24  25
ENDBRANCH  23  24
ENDBRANCH  22  23
ENDBRANCH  21  22
ENDBRANCH   1  21
TORSDOF 22
ENDMDL
