MODEL 1
REMARK VINA RESULT:     -14.3      0.000      0.000
REMARK SMILES Cc1ccccc1NC(=S)NN1C(=O)CS[C@H]1c1ccccc1C(=O)NCCCCCCNC(=O)c1ccc(-c2c3nc(c(-c4cc(S(=O)(=O)[O-])ccc4F)c4ccc([nH]4)c(-c4cc(S(=O)(=O)[O-])ccc4F)c4nc(c(-c5cc(S(=O)(=O)[O-])ccc5F)c5ccc2[nH]5)C=C4)C=C3)cc1
REMARK SMILES IDX 28 1 27 2 26 3 24 4 25 5 23 7 18 8 19 9 20 10 22 11 21 12
REMARK SMILES IDX 17 13 12 14 13 15 14 16 15 17 16 18 11 19 9 21 10 22 8 23
REMARK SMILES IDX 7 25 1 26 2 27 3 28 4 29 6 30 5 31 29 32 30 33 31 34 32 35
REMARK SMILES IDX 33 36 34 37 35 39 36 40 37 41 98 42 38 43 97 44 39 45 40 46
REMARK SMILES IDX 41 47 91 48 42 49 96 50 90 51 92 52 43 53 95 54 89 55 88 56
REMARK SMILES IDX 44 58 76 59 56 60 75 61 57 62 60 63 74 64 93 65 58 66 59 67
REMARK SMILES IDX 73 69 94 70 61 71 45 72 46 73 54 74 47 75 53 76 55 77 52 78
REMARK SMILES IDX 48 79 49 80 50 81 51 82 77 83 78 84 86 85 79 86 85 87 87 88
REMARK SMILES IDX 84 89 80 90 81 91 82 92 83 93 62 94 63 95 71 96 64 97 70 98
REMARK SMILES IDX 72 99 69 100 65 101 66 102 67 103 68 104
REMARK H PARENT 26 6 11 20 8 24 33 38 92 57 60 68
REMARK Flexibility Score: inf
ROOT
ATOM      1  C   UNL A   1      39.533  23.155  26.405  1.00  0.00     0.021 C 
ENDROOT
BRANCH   1   2
ATOM      2  C   UNL A   1      37.962  23.040  26.298  1.00  0.00     0.116 C 
BRANCH   2   3
ATOM      3  N   UNL A   1      37.324  21.778  25.775  1.00  0.00    -0.352 N 
ATOM      4  C   UNL A   1      36.521  21.815  24.612  1.00  0.00     0.251 C 
ATOM      5  O   UNL A   1      37.020  22.209  23.556  1.00  0.00    -0.269 OA
ATOM      6  H   UNL A   1      37.467  20.925  26.247  1.00  0.00     0.163 HD
BRANCH   4   7
ATOM      7  C   UNL A   1      35.083  21.241  24.547  1.00  0.00     0.046 A 
ATOM      8  C   UNL A   1      33.877  21.897  24.218  1.00  0.00    -0.001 A 
ATOM      9  C   UNL A   1      32.627  21.213  24.330  1.00  0.00     0.007 A 
ATOM     10  C   UNL A   1      32.541  19.885  24.699  1.00  0.00     0.000 A 
ATOM     11  C   UNL A   1      34.960  19.864  24.857  1.00  0.00     0.014 A 
ATOM     12  C   UNL A   1      33.716  19.202  24.941  1.00  0.00     0.001 A 
BRANCH   8  13
ATOM     13  C   UNL A   1      33.787  23.363  24.045  1.00  0.00     0.197 C 
ATOM     14  N   UNL A   1      32.530  24.047  24.158  1.00  0.00    -0.236 N 
ATOM     15  C   UNL A   1      32.960  25.240  23.475  1.00  0.00     0.252 C 
ATOM     16  O   UNL A   1      32.889  25.425  22.261  1.00  0.00    -0.272 OA
ATOM     17  C   UNL A   1      34.043  25.932  24.275  1.00  0.00     0.174 C 
ATOM     18  S   UNL A   1      34.904  24.502  25.001  1.00  0.00    -0.120 SA
BRANCH  14  19
ATOM     19  N   UNL A   1      31.955  24.058  25.637  1.00  0.00    -0.270 N 
ATOM     20  H   UNL A   1      32.606  23.976  26.370  1.00  0.00     0.191 HD
BRANCH  19  21
ATOM     21  C   UNL A   1      30.612  24.174  25.991  1.00  0.00     0.189 C 
ATOM     22  S   UNL A   1      29.896  22.873  26.787  1.00  0.00    -0.039 S 
BRANCH  21  23
ATOM     23  N   UNL A   1      29.843  25.315  25.870  1.00  0.00    -0.331 N 
ATOM     24  H   UNL A   1      29.000  25.295  26.377  1.00  0.00     0.169 HD
BRANCH  23  25
ATOM     25  C   UNL A   1      30.062  26.500  25.142  1.00  0.00     0.043 A 
ATOM     26  C   UNL A   1      32.068  27.836  26.822  1.00  0.00     0.046 C 
ATOM     27  C   UNL A   1      31.213  27.817  25.594  1.00  0.00    -0.028 A 
ATOM     28  C   UNL A   1      31.091  29.426  24.760  1.00  0.00     0.005 A 
ATOM     29  C   UNL A   1      29.884  29.696  23.454  1.00  0.00     0.000 A 
ATOM     30  C   UNL A   1      28.947  26.781  23.793  1.00  0.00     0.026 A 
ATOM     31  C   UNL A   1      28.774  28.373  23.007  1.00  0.00     0.002 A 
ENDBRANCH  23  25
ENDBRANCH  21  23
ENDBRANCH  19  21
ENDBRANCH  14  19
ENDBRANCH   8  13
ENDBRANCH   4   7
ENDBRANCH   2   3
ENDBRANCH   1   2
BRANCH   1  32
ATOM     32  C   UNL A   1      40.463  22.096  27.502  1.00  0.00     0.002 C 
BRANCH  32  33
ATOM     33  C   UNL A   1      41.535  20.195  27.468  1.00  0.00     0.002 C 
BRANCH  33  34
ATOM     34  C   UNL A   1      42.320  19.144  26.296  1.00  0.00     0.021 C 
BRANCH  34  35
ATOM     35  C   UNL A   1      43.326  19.519  25.202  1.00  0.00     0.116 C 
BRANCH  35  36
ATOM     36  N   UNL A   1      44.617  20.096  25.567  1.00  0.00    -0.352 N 
ATOM     37  C   UNL A   1      45.057  21.316  25.032  1.00  0.00     0.251 C 
ATOM     38  H   UNL A   1      45.194  19.616  26.204  1.00  0.00     0.163 HD
ATOM     39  O   UNL A   1      46.044  21.445  24.323  1.00  0.00    -0.269 OA
BRANCH  37  40
ATOM     40  C   UNL A   1      44.343  22.507  25.551  1.00  0.00     0.039 A 
ATOM     41  C   UNL A   1      44.202  23.661  24.774  1.00  0.00     0.014 A 
ATOM     42  C   UNL A   1      44.113  22.533  26.918  1.00  0.00     0.014 A 
ATOM     43  C   UNL A   1      44.059  24.881  25.426  1.00  0.00     0.010 A 
ATOM     44  C   UNL A   1      44.231  23.724  27.565  1.00  0.00     0.010 A 
ATOM     45  C   UNL A   1      44.199  24.894  26.813  1.00  0.00    -0.014 A 
BRANCH  45  46
ATOM     46  C   UNL A   1      44.064  26.062  27.649  1.00  0.00     0.031 A 
ATOM     47  C   UNL A   1      42.745  26.710  27.556  1.00  0.00     0.074 A 
ATOM     48  C   UNL A   1      45.050  26.321  28.531  1.00  0.00     0.049 A 
ATOM     49  N   UNL A   1      42.537  27.974  27.591  1.00  0.00    -0.248 NA
ATOM     50  C   UNL A   1      41.518  25.950  27.264  1.00  0.00     0.031 C 
ATOM     51  C   UNL A   1      45.070  27.252  29.649  1.00  0.00     0.029 A 
ATOM     52  N   UNL A   1      46.381  25.886  28.423  1.00  0.00    -0.354 N 
ATOM     53  C   UNL A   1      41.173  28.131  27.747  1.00  0.00     0.074 A 
ATOM     54  C   UNL A   1      40.583  26.899  27.314  1.00  0.00     0.031 C 
ATOM     55  C   UNL A   1      46.352  27.582  29.901  1.00  0.00     0.029 A 
ATOM     56  C   UNL A   1      47.170  26.966  28.865  1.00  0.00     0.049 A 
ATOM     57  H   UNL A   1      46.697  25.009  28.104  1.00  0.00     0.167 HD
ATOM     58  C   UNL A   1      40.717  29.176  28.487  1.00  0.00     0.034 A 
ATOM     59  C   UNL A   1      47.928  27.655  27.961  1.00  0.00     0.034 A 
ATOM     60  C   UNL A   1      41.859  29.923  29.004  1.00  0.00     0.049 A 
ATOM     61  C   UNL A   1      47.441  29.058  27.757  1.00  0.00     0.074 A 
ATOM     62  C   UNL A   1      42.532  29.863  30.214  1.00  0.00     0.029 A 
ATOM     63  N   UNL A   1      42.705  30.550  28.108  1.00  0.00    -0.354 N 
ATOM     64  N   UNL A   1      46.213  29.446  27.972  1.00  0.00    -0.248 NA
ATOM     65  C   UNL A   1      48.328  30.145  27.372  1.00  0.00     0.031 C 
ATOM     66  C   UNL A   1      43.824  30.421  30.012  1.00  0.00     0.029 A 
ATOM     67  C   UNL A   1      43.920  30.831  28.692  1.00  0.00     0.049 A 
ATOM     68  H   UNL A   1      42.470  30.767  27.178  1.00  0.00     0.167 HD
ATOM     69  C   UNL A   1      46.130  30.801  27.782  1.00  0.00     0.074 A 
ATOM     70  C   UNL A   1      47.489  31.190  27.441  1.00  0.00     0.031 C 
ATOM     71  C   UNL A   1      44.952  31.488  27.911  1.00  0.00     0.034 A 
BRANCH  58  72
ATOM     72  C   UNL A   1      39.324  29.342  29.037  1.00  0.00     0.023 A 
ATOM     73  C   UNL A   1      39.178  29.367  30.438  1.00  0.00     0.031 A 
ATOM     74  C   UNL A   1      38.132  29.486  28.303  1.00  0.00     0.131 A 
ATOM     75  C   UNL A   1      37.921  29.468  31.051  1.00  0.00     0.055 A 
ATOM     76  C   UNL A   1      36.870  29.556  28.913  1.00  0.00     0.041 A 
ATOM     77  F   UNL A   1      38.127  29.619  26.970  1.00  0.00    -0.206 F 
ATOM     78  C   UNL A   1      36.758  29.546  30.296  1.00  0.00     0.022 A 
BRANCH  75  79
ATOM     79  S   UNL A   1      37.851  29.520  32.860  1.00  0.00     0.124 S 
ATOM     80  O   UNL A   1      37.458  28.153  33.188  1.00  0.00    -0.237 OA
ATOM     81  O   UNL A   1      39.213  29.904  33.211  1.00  0.00    -0.237 OA
ATOM     82  O   UNL A   1      36.835  30.536  33.129  1.00  0.00    -0.744 OA
ENDBRANCH  75  79
ENDBRANCH  58  72
BRANCH  59  83
ATOM     83  C   UNL A   1      48.547  26.775  26.933  1.00  0.00     0.023 A 
ATOM     84  C   UNL A   1      48.160  27.023  25.606  1.00  0.00     0.031 A 
ATOM     85  C   UNL A   1      49.783  26.150  27.152  1.00  0.00     0.131 A 
ATOM     86  C   UNL A   1      49.080  26.856  24.564  1.00  0.00     0.055 A 
ATOM     87  C   UNL A   1      50.698  25.975  26.103  1.00  0.00     0.041 A 
ATOM     88  F   UNL A   1      50.180  25.837  28.394  1.00  0.00    -0.206 F 
ATOM     89  C   UNL A   1      50.372  26.389  24.811  1.00  0.00     0.022 A 
BRANCH  86  90
ATOM     90  S   UNL A   1      48.574  27.412  22.920  1.00  0.00     0.124 S 
ATOM     91  O   UNL A   1      48.506  26.168  22.164  1.00  0.00    -0.237 OA
ATOM     92  O   UNL A   1      47.288  28.043  23.204  1.00  0.00    -0.237 OA
ATOM     93  O   UNL A   1      49.647  28.321  22.525  1.00  0.00    -0.744 OA
ENDBRANCH  86  90
ENDBRANCH  59  83
BRANCH  71  94
ATOM     94  C   UNL A   1      44.682  32.866  27.346  1.00  0.00     0.023 A 
ATOM     95  C   UNL A   1      44.966  34.031  28.059  1.00  0.00     0.031 A 
ATOM     96  C   UNL A   1      44.198  33.075  26.029  1.00  0.00     0.131 A 
ATOM     97  C   UNL A   1      44.656  35.299  27.555  1.00  0.00     0.055 A 
ATOM     98  C   UNL A   1      44.006  34.344  25.476  1.00  0.00     0.041 A 
ATOM     99  F   UNL A   1      43.906  32.063  25.199  1.00  0.00    -0.206 F 
ATOM    100  C   UNL A   1      44.203  35.472  26.254  1.00  0.00     0.022 A 
BRANCH  97 101
ATOM    101  S   UNL A   1      44.768  36.685  28.705  1.00  0.00     0.124 S 
ATOM    102  O   UNL A   1      43.945  37.692  28.038  1.00  0.00    -0.237 OA
ATOM    103  O   UNL A   1      44.204  36.121  29.928  1.00  0.00    -0.237 OA
ATOM    104  O   UNL A   1      46.198  36.978  28.752  1.00  0.00    -0.744 OA
ENDBRANCH  97 101
ENDBRANCH  71  94
ENDBRANCH  45  46
ENDBRANCH  37  40
ENDBRANCH  35  36
ENDBRANCH  34  35
ENDBRANCH  33  34
ENDBRANCH  32  33
ENDBRANCH   1  32
TORSDOF 21
ENDMDL
MODEL 2
REMARK VINA RESULT:     -12.4      4.430      6.444
REMARK SMILES Cc1ccccc1NC(=S)NN1C(=O)CS[C@H]1c1ccccc1C(=O)NCCCCCCNC(=O)c1ccc(-c2c3nc(c(-c4cc(S(=O)(=O)[O-])ccc4F)c4ccc([nH]4)c(-c4cc(S(=O)(=O)[O-])ccc4F)c4nc(c(-c5cc(S(=O)(=O)[O-])ccc5F)c5ccc2[nH]5)C=C4)C=C3)cc1
REMARK SMILES IDX 28 1 27 2 26 3 24 4 25 5 23 7 18 8 19 9 20 10 22 11 21 12
REMARK SMILES IDX 17 13 12 14 13 15 14 16 15 17 16 18 11 19 9 21 10 22 8 23
REMARK SMILES IDX 7 25 1 26 2 27 3 28 4 29 6 30 5 31 29 32 30 33 31 34 32 35
REMARK SMILES IDX 33 36 34 37 35 39 36 40 37 41 98 42 38 43 97 44 39 45 40 46
REMARK SMILES IDX 41 47 91 48 42 49 96 50 90 51 92 52 43 53 95 54 89 55 88 56
REMARK SMILES IDX 44 58 76 59 56 60 75 61 57 62 60 63 74 64 93 65 58 66 59 67
REMARK SMILES IDX 73 69 94 70 61 71 45 72 46 73 54 74 47 75 53 76 55 77 52 78
REMARK SMILES IDX 48 79 49 80 50 81 51 82 77 83 78 84 86 85 79 86 85 87 87 88
REMARK SMILES IDX 84 89 80 90 81 91 82 92 83 93 62 94 63 95 71 96 64 97 70 98
REMARK SMILES IDX 72 99 69 100 65 101 66 102 67 103 68 104
REMARK H PARENT 26 6 11 20 8 24 33 38 92 57 60 68
REMARK Flexibility Score: inf
ROOT
ATOM      1  C   UNL A   1      39.279  23.294  27.003  1.00  0.00     0.021 C 
ENDROOT
BRANCH   1   2
ATOM      2  C   UNL A   1      38.147  23.249  25.901  1.00  0.00     0.116 C 
BRANCH   2   3
ATOM      3  N   UNL A   1      37.536  21.933  25.491  1.00  0.00    -0.352 N 
ATOM      4  C   UNL A   1      36.619  21.878  24.416  1.00  0.00     0.251 C 
ATOM      5  O   UNL A   1      36.985  22.256  23.301  1.00  0.00    -0.269 OA
ATOM      6  H   UNL A   1      37.776  21.109  25.975  1.00  0.00     0.163 HD
BRANCH   4   7
ATOM      7  C   UNL A   1      35.218  21.224  24.519  1.00  0.00     0.046 A 
ATOM      8  C   UNL A   1      33.948  21.799  24.296  1.00  0.00    -0.001 A 
ATOM      9  C   UNL A   1      32.759  21.052  24.559  1.00  0.00     0.007 A 
ATOM     10  C   UNL A   1      32.790  19.736  24.979  1.00  0.00     0.000 A 
ATOM     11  C   UNL A   1      35.209  19.855  24.886  1.00  0.00     0.014 A 
ATOM     12  C   UNL A   1      34.022  19.129  25.120  1.00  0.00     0.001 A 
BRANCH   8  13
ATOM     13  C   UNL A   1      33.755  23.250  24.085  1.00  0.00     0.197 C 
ATOM     14  N   UNL A   1      32.468  23.859  24.266  1.00  0.00    -0.236 N 
ATOM     15  C   UNL A   1      32.774  25.052  23.518  1.00  0.00     0.252 C 
ATOM     16  O   UNL A   1      32.608  25.190  22.307  1.00  0.00    -0.272 OA
ATOM     17  C   UNL A   1      33.864  25.836  24.218  1.00  0.00     0.174 C 
ATOM     18  S   UNL A   1      34.862  24.487  24.925  1.00  0.00    -0.120 SA
BRANCH  14  19
ATOM     19  N   UNL A   1      31.997  23.887  25.781  1.00  0.00    -0.270 N 
ATOM     20  H   UNL A   1      32.679  23.697  26.465  1.00  0.00     0.191 HD
BRANCH  19  21
ATOM     21  C   UNL A   1      30.706  24.156  26.231  1.00  0.00     0.189 C 
ATOM     22  S   UNL A   1      29.853  22.901  26.963  1.00  0.00    -0.039 S 
BRANCH  21  23
ATOM     23  N   UNL A   1      30.104  25.399  26.254  1.00  0.00    -0.331 N 
ATOM     24  H   UNL A   1      29.377  25.490  26.912  1.00  0.00     0.169 HD
BRANCH  23  25
ATOM     25  C   UNL A   1      30.355  26.558  25.495  1.00  0.00     0.043 A 
ATOM     26  C   UNL A   1      32.052  28.091  27.339  1.00  0.00     0.046 C 
ATOM     27  C   UNL A   1      31.366  27.961  26.014  1.00  0.00    -0.028 A 
ATOM     28  C   UNL A   1      31.271  29.517  25.082  1.00  0.00     0.005 A 
ATOM     29  C   UNL A   1      30.233  29.652  23.620  1.00  0.00     0.000 A 
ATOM     30  C   UNL A   1      29.412  26.706  24.000  1.00  0.00     0.026 A 
ATOM     31  C   UNL A   1      29.261  28.245  23.111  1.00  0.00     0.002 A 
ENDBRANCH  23  25
ENDBRANCH  21  23
ENDBRANCH  19  21
ENDBRANCH  14  19
ENDBRANCH   8  13
ENDBRANCH   4   7
ENDBRANCH   2   3
ENDBRANCH   1   2
BRANCH   1  32
ATOM     32  C   UNL A   1      40.929  22.708  26.654  1.00  0.00     0.002 C 
BRANCH  32  33
ATOM     33  C   UNL A   1      43.001  23.174  27.159  1.00  0.00     0.002 C 
BRANCH  33  34
ATOM     34  C   UNL A   1      43.961  24.567  27.641  1.00  0.00     0.021 C 
BRANCH  34  35
ATOM     35  C   UNL A   1      43.618  26.055  27.504  1.00  0.00     0.116 C 
BRANCH  35  36
ATOM     36  N   UNL A   1      43.064  26.562  26.251  1.00  0.00    -0.352 N 
ATOM     37  C   UNL A   1      41.679  26.643  26.036  1.00  0.00     0.251 C 
ATOM     38  H   UNL A   1      43.677  26.853  25.539  1.00  0.00     0.163 HD
ATOM     39  O   UNL A   1      41.074  26.015  25.180  1.00  0.00    -0.269 OA
BRANCH  37  40
ATOM     40  C   UNL A   1      41.000  27.712  26.806  1.00  0.00     0.039 A 
ATOM     41  C   UNL A   1      41.672  28.886  27.163  1.00  0.00     0.014 A 
ATOM     42  C   UNL A   1      39.803  27.362  27.412  1.00  0.00     0.014 A 
ATOM     43  C   UNL A   1      41.247  29.570  28.296  1.00  0.00     0.010 A 
ATOM     44  C   UNL A   1      39.539  27.865  28.648  1.00  0.00     0.010 A 
ATOM     45  C   UNL A   1      40.262  28.972  29.081  1.00  0.00    -0.014 A 
BRANCH  45  46
ATOM     46  C   UNL A   1      39.692  29.547  30.275  1.00  0.00     0.031 A 
ATOM     47  C   UNL A   1      38.924  30.780  30.034  1.00  0.00     0.074 A 
ATOM     48  C   UNL A   1      39.761  28.828  31.414  1.00  0.00     0.049 A 
ATOM     49  N   UNL A   1      38.891  31.797  30.812  1.00  0.00    -0.248 NA
ATOM     50  C   UNL A   1      38.212  31.023  28.768  1.00  0.00     0.031 C 
ATOM     51  C   UNL A   1      39.068  29.029  32.678  1.00  0.00     0.029 A 
ATOM     52  N   UNL A   1      40.705  27.827  31.695  1.00  0.00    -0.354 N 
ATOM     53  C   UNL A   1      37.860  32.594  30.353  1.00  0.00     0.074 A 
ATOM     54  C   UNL A   1      37.636  32.204  28.993  1.00  0.00     0.031 C 
ATOM     55  C   UNL A   1      39.801  28.461  33.656  1.00  0.00     0.029 A 
ATOM     56  C   UNL A   1      41.043  27.994  33.052  1.00  0.00     0.049 A 
ATOM     57  H   UNL A   1      41.058  27.150  31.073  1.00  0.00     0.167 HD
ATOM     58  C   UNL A   1      37.126  33.296  31.257  1.00  0.00     0.034 A 
ATOM     59  C   UNL A   1      42.287  28.454  33.380  1.00  0.00     0.034 A 
ATOM     60  C   UNL A   1      37.617  32.997  32.598  1.00  0.00     0.049 A 
ATOM     61  C   UNL A   1      42.250  29.825  33.987  1.00  0.00     0.074 A 
ATOM     62  C   UNL A   1      37.200  32.083  33.552  1.00  0.00     0.029 A 
ATOM     63  N   UNL A   1      38.908  33.360  32.931  1.00  0.00    -0.354 N 
ATOM     64  N   UNL A   1      41.294  30.691  33.783  1.00  0.00    -0.248 NA
ATOM     65  C   UNL A   1      43.251  30.286  34.936  1.00  0.00     0.031 C 
ATOM     66  C   UNL A   1      38.291  31.862  34.437  1.00  0.00     0.029 A 
ATOM     67  C   UNL A   1      39.351  32.655  34.028  1.00  0.00     0.049 A 
ATOM     68  H   UNL A   1      39.440  34.033  32.449  1.00  0.00     0.167 HD
ATOM     69  C   UNL A   1      41.518  31.798  34.558  1.00  0.00     0.074 A 
ATOM     70  C   UNL A   1      42.738  31.477  35.283  1.00  0.00     0.031 C 
ATOM     71  C   UNL A   1      40.692  32.889  34.533  1.00  0.00     0.034 A 
BRANCH  58  72
ATOM     72  C   UNL A   1      35.792  33.953  31.009  1.00  0.00     0.023 A 
ATOM     73  C   UNL A   1      35.374  34.939  31.924  1.00  0.00     0.031 A 
ATOM     74  C   UNL A   1      34.904  33.699  29.948  1.00  0.00     0.131 A 
ATOM     75  C   UNL A   1      34.129  35.575  31.813  1.00  0.00     0.055 A 
ATOM     76  C   UNL A   1      33.645  34.311  29.850  1.00  0.00     0.041 A 
ATOM     77  F   UNL A   1      35.225  32.892  28.928  1.00  0.00    -0.206 F 
ATOM     78  C   UNL A   1      33.250  35.255  30.787  1.00  0.00     0.022 A 
BRANCH  75  79
ATOM     79  S   UNL A   1      33.705  36.848  33.029  1.00  0.00     0.124 S 
ATOM     80  O   UNL A   1      34.230  36.275  34.264  1.00  0.00    -0.237 OA
ATOM     81  O   UNL A   1      34.404  38.017  32.510  1.00  0.00    -0.237 OA
ATOM     82  O   UNL A   1      32.247  36.915  32.950  1.00  0.00    -0.744 OA
ENDBRANCH  75  79
ENDBRANCH  58  72
BRANCH  59  83
ATOM     83  C   UNL A   1      43.358  27.902  32.506  1.00  0.00     0.023 A 
ATOM     84  C   UNL A   1      43.730  28.706  31.417  1.00  0.00     0.031 A 
ATOM     85  C   UNL A   1      44.293  26.976  32.990  1.00  0.00     0.131 A 
ATOM     86  C   UNL A   1      45.062  28.732  30.986  1.00  0.00     0.055 A 
ATOM     87  C   UNL A   1      45.624  27.000  32.549  1.00  0.00     0.041 A 
ATOM     88  F   UNL A   1      43.975  26.143  33.992  1.00  0.00    -0.206 F 
ATOM     89  C   UNL A   1      46.029  27.925  31.587  1.00  0.00     0.022 A 
BRANCH  86  90
ATOM     90  S   UNL A   1      45.499  29.958  29.732  1.00  0.00     0.124 S 
ATOM     91  O   UNL A   1      44.687  31.109  30.106  1.00  0.00    -0.237 OA
ATOM     92  O   UNL A   1      46.935  30.107  29.952  1.00  0.00    -0.237 OA
ATOM     93  O   UNL A   1      45.118  29.311  28.479  1.00  0.00    -0.744 OA
ENDBRANCH  86  90
ENDBRANCH  59  83
BRANCH  71  94
ATOM     94  C   UNL A   1      41.060  34.273  35.027  1.00  0.00     0.023 A 
ATOM     95  C   UNL A   1      40.938  34.641  36.367  1.00  0.00     0.031 A 
ATOM     96  C   UNL A   1      41.627  35.262  34.184  1.00  0.00     0.131 A 
ATOM     97  C   UNL A   1      41.222  35.940  36.803  1.00  0.00     0.055 A 
ATOM     98  C   UNL A   1      42.030  36.519  34.643  1.00  0.00     0.041 A 
ATOM     99  F   UNL A   1      41.842  35.059  32.876  1.00  0.00    -0.206 F 
ATOM    100  C   UNL A   1      41.796  36.880  35.958  1.00  0.00     0.022 A 
BRANCH  97 101
ATOM    101  S   UNL A   1      40.709  36.369  38.480  1.00  0.00     0.124 S 
ATOM    102  O   UNL A   1      41.819  37.209  38.925  1.00  0.00    -0.237 OA
ATOM    103  O   UNL A   1      39.446  37.063  38.250  1.00  0.00    -0.237 OA
ATOM    104  O   UNL A   1      40.600  35.074  39.147  1.00  0.00    -0.744 OA
ENDBRANCH  97 101
ENDBRANCH  71  94
ENDBRANCH  45  46
ENDBRANCH  37  40
ENDBRANCH  35  36
ENDBRANCH  34  35
ENDBRANCH  33  34
ENDBRANCH  32  33
ENDBRANCH   1  32
TORSDOF 21
ENDMDL
MODEL 3
REMARK VINA RESULT:     -12.3      4.430      6.728
REMARK SMILES Cc1ccccc1NC(=S)NN1C(=O)CS[C@H]1c1ccccc1C(=O)NCCCCCCNC(=O)c1ccc(-c2c3nc(c(-c4cc(S(=O)(=O)[O-])ccc4F)c4ccc([nH]4)c(-c4cc(S(=O)(=O)[O-])ccc4F)c4nc(c(-c5cc(S(=O)(=O)[O-])ccc5F)c5ccc2[nH]5)C=C4)C=C3)cc1
REMARK SMILES IDX 28 1 27 2 26 3 24 4 25 5 23 7 18 8 19 9 20 10 22 11 21 12
REMARK SMILES IDX 17 13 12 14 13 15 14 16 15 17 16 18 11 19 9 21 10 22 8 23
REMARK SMILES IDX 7 25 1 26 2 27 3 28 4 29 6 30 5 31 29 32 30 33 31 34 32 35
REMARK SMILES IDX 33 36 34 37 35 39 36 40 37 41 98 42 38 43 97 44 39 45 40 46
REMARK SMILES IDX 41 47 91 48 42 49 96 50 90 51 92 52 43 53 95 54 89 55 88 56
REMARK SMILES IDX 44 58 76 59 56 60 75 61 57 62 60 63 74 64 93 65 58 66 59 67
REMARK SMILES IDX 73 69 94 70 61 71 45 72 46 73 54 74 47 75 53 76 55 77 52 78
REMARK SMILES IDX 48 79 49 80 50 81 51 82 77 83 78 84 86 85 79 86 85 87 87 88
REMARK SMILES IDX 84 89 80 90 81 91 82 92 83 93 62 94 63 95 71 96 64 97 70 98
REMARK SMILES IDX 72 99 69 100 65 101 66 102 67 103 68 104
REMARK H PARENT 26 6 11 20 8 24 33 38 92 57 60 68
REMARK Flexibility Score: inf
ROOT
ATOM      1  C   UNL A   1      39.640  22.923  26.894  1.00  0.00     0.021 C 
ENDROOT
BRANCH   1   2
ATOM      2  C   UNL A   1      38.516  23.074  25.795  1.00  0.00     0.116 C 
BRANCH   2   3
ATOM      3  N   UNL A   1      37.790  21.859  25.276  1.00  0.00    -0.352 N 
ATOM      4  C   UNL A   1      36.752  22.002  24.326  1.00  0.00     0.251 C 
ATOM      5  O   UNL A   1      37.005  22.530  23.242  1.00  0.00    -0.269 OA
ATOM      6  H   UNL A   1      38.039  20.964  25.600  1.00  0.00     0.163 HD
BRANCH   4   7
ATOM      7  C   UNL A   1      35.339  21.391  24.505  1.00  0.00     0.046 A 
ATOM      8  C   UNL A   1      34.077  21.999  24.329  1.00  0.00    -0.001 A 
ATOM      9  C   UNL A   1      32.880  21.292  24.660  1.00  0.00     0.007 A 
ATOM     10  C   UNL A   1      32.893  19.984  25.103  1.00  0.00     0.000 A 
ATOM     11  C   UNL A   1      35.307  20.030  24.898  1.00  0.00     0.014 A 
ATOM     12  C   UNL A   1      34.112  19.343  25.200  1.00  0.00     0.001 A 
BRANCH   8  13
ATOM     13  C   UNL A   1      33.916  23.451  24.098  1.00  0.00     0.197 C 
ATOM     14  N   UNL A   1      32.626  24.074  24.173  1.00  0.00    -0.236 N 
ATOM     15  C   UNL A   1      33.003  25.261  23.449  1.00  0.00     0.252 C 
ATOM     16  O   UNL A   1      32.938  25.396  22.228  1.00  0.00    -0.272 OA
ATOM     17  C   UNL A   1      34.040  26.037  24.232  1.00  0.00     0.174 C 
ATOM     18  S   UNL A   1      34.963  24.680  25.022  1.00  0.00    -0.120 SA
BRANCH  14  19
ATOM     19  N   UNL A   1      32.033  24.112  25.644  1.00  0.00    -0.270 N 
ATOM     20  H   UNL A   1      32.678  24.077  26.386  1.00  0.00     0.191 HD
BRANCH  19  21
ATOM     21  C   UNL A   1      30.682  24.190  25.980  1.00  0.00     0.189 C 
ATOM     22  S   UNL A   1      30.003  22.885  26.802  1.00  0.00    -0.039 S 
BRANCH  21  23
ATOM     23  N   UNL A   1      29.876  25.299  25.820  1.00  0.00    -0.331 N 
ATOM     24  H   UNL A   1      29.006  25.242  26.277  1.00  0.00     0.169 HD
BRANCH  23  25
ATOM     25  C   UNL A   1      30.088  26.498  25.113  1.00  0.00     0.043 A 
ATOM     26  C   UNL A   1      32.081  27.820  26.819  1.00  0.00     0.046 C 
ATOM     27  C   UNL A   1      31.228  27.815  25.588  1.00  0.00    -0.028 A 
ATOM     28  C   UNL A   1      31.097  29.437  24.780  1.00  0.00     0.005 A 
ATOM     29  C   UNL A   1      29.891  29.720  23.477  1.00  0.00     0.000 A 
ATOM     30  C   UNL A   1      28.974  26.793  23.766  1.00  0.00     0.026 A 
ATOM     31  C   UNL A   1      28.791  28.397  23.006  1.00  0.00     0.002 A 
ENDBRANCH  23  25
ENDBRANCH  21  23
ENDBRANCH  19  21
ENDBRANCH  14  19
ENDBRANCH   8  13
ENDBRANCH   4   7
ENDBRANCH   2   3
ENDBRANCH   1   2
BRANCH   1  32
ATOM     32  C   UNL A   1      41.342  22.632  26.440  1.00  0.00     0.002 C 
BRANCH  32  33
ATOM     33  C   UNL A   1      43.354  23.177  27.087  1.00  0.00     0.002 C 
BRANCH  33  34
ATOM     34  C   UNL A   1      44.174  24.539  27.840  1.00  0.00     0.021 C 
BRANCH  34  35
ATOM     35  C   UNL A   1      43.772  26.018  27.831  1.00  0.00     0.116 C 
BRANCH  35  36
ATOM     36  N   UNL A   1      43.452  26.678  26.567  1.00  0.00    -0.352 N 
ATOM     37  C   UNL A   1      42.126  26.916  26.175  1.00  0.00     0.251 C 
ATOM     38  H   UNL A   1      44.186  26.961  25.976  1.00  0.00     0.163 HD
ATOM     39  O   UNL A   1      41.597  26.424  25.189  1.00  0.00    -0.269 OA
BRANCH  37  40
ATOM     40  C   UNL A   1      41.442  27.984  26.941  1.00  0.00     0.039 A 
ATOM     41  C   UNL A   1      42.166  28.999  27.575  1.00  0.00     0.014 A 
ATOM     42  C   UNL A   1      40.112  27.750  27.259  1.00  0.00     0.014 A 
ATOM     43  C   UNL A   1      41.605  29.610  28.690  1.00  0.00     0.010 A 
ATOM     44  C   UNL A   1      39.665  28.149  28.480  1.00  0.00     0.010 A 
ATOM     45  C   UNL A   1      40.415  29.083  29.188  1.00  0.00    -0.014 A 
BRANCH  45  46
ATOM     46  C   UNL A   1      39.688  29.602  30.321  1.00  0.00     0.031 A 
ATOM     47  C   UNL A   1      38.914  30.819  30.024  1.00  0.00     0.074 A 
ATOM     48  C   UNL A   1      39.644  28.849  31.439  1.00  0.00     0.049 A 
ATOM     49  N   UNL A   1      38.755  31.809  30.822  1.00  0.00    -0.248 NA
ATOM     50  C   UNL A   1      38.351  31.082  28.690  1.00  0.00     0.031 C 
ATOM     51  C   UNL A   1      38.800  28.989  32.616  1.00  0.00     0.029 A 
ATOM     52  N   UNL A   1      40.580  27.868  31.802  1.00  0.00    -0.354 N 
ATOM     53  C   UNL A   1      37.760  32.590  30.265  1.00  0.00     0.074 A 
ATOM     54  C   UNL A   1      37.713  32.238  28.877  1.00  0.00     0.031 C 
ATOM     55  C   UNL A   1      39.430  28.411  33.658  1.00  0.00     0.029 A 
ATOM     56  C   UNL A   1      40.749  28.000  33.194  1.00  0.00     0.049 A 
ATOM     57  H   UNL A   1      41.027  27.221  31.208  1.00  0.00     0.167 HD
ATOM     58  C   UNL A   1      36.902  33.241  31.094  1.00  0.00     0.034 A 
ATOM     59  C   UNL A   1      41.929  28.485  33.682  1.00  0.00     0.034 A 
ATOM     60  C   UNL A   1      37.239  32.913  32.476  1.00  0.00     0.049 A 
ATOM     61  C   UNL A   1      41.775  29.834  34.320  1.00  0.00     0.074 A 
ATOM     62  C   UNL A   1      36.742  31.957  33.347  1.00  0.00     0.029 A 
ATOM     63  N   UNL A   1      38.469  33.303  32.972  1.00  0.00    -0.354 N 
ATOM     64  N   UNL A   1      40.823  30.678  34.027  1.00  0.00    -0.248 NA
ATOM     65  C   UNL A   1      42.641  30.294  35.395  1.00  0.00     0.031 C 
ATOM     66  C   UNL A   1      37.726  31.740  34.350  1.00  0.00     0.029 A 
ATOM     67  C   UNL A   1      38.800  32.576  34.093  1.00  0.00     0.049 A 
ATOM     68  H   UNL A   1      39.032  34.006  32.576  1.00  0.00     0.167 HD
ATOM     69  C   UNL A   1      40.916  31.766  34.855  1.00  0.00     0.074 A 
ATOM     70  C   UNL A   1      42.051  31.457  35.712  1.00  0.00     0.031 C 
ATOM     71  C   UNL A   1      40.063  32.833  34.762  1.00  0.00     0.034 A 
BRANCH  58  72
ATOM     72  C   UNL A   1      35.586  33.866  30.707  1.00  0.00     0.023 A 
ATOM     73  C   UNL A   1      35.062  34.856  31.561  1.00  0.00     0.031 A 
ATOM     74  C   UNL A   1      34.811  33.578  29.569  1.00  0.00     0.131 A 
ATOM     75  C   UNL A   1      33.822  35.465  31.318  1.00  0.00     0.055 A 
ATOM     76  C   UNL A   1      33.555  34.162  29.339  1.00  0.00     0.041 A 
ATOM     77  F   UNL A   1      35.245  32.763  28.599  1.00  0.00    -0.206 F 
ATOM     78  C   UNL A   1      33.053  35.111  30.217  1.00  0.00     0.022 A 
BRANCH  75  79
ATOM     79  S   UNL A   1      33.256  36.746  32.466  1.00  0.00     0.124 S 
ATOM     80  O   UNL A   1      33.169  37.916  31.597  1.00  0.00    -0.237 OA
ATOM     81  O   UNL A   1      31.991  36.198  32.942  1.00  0.00    -0.237 OA
ATOM     82  O   UNL A   1      34.321  36.797  33.465  1.00  0.00    -0.744 OA
ENDBRANCH  75  79
ENDBRANCH  58  72
BRANCH  59  83
ATOM     83  C   UNL A   1      43.114  27.994  32.928  1.00  0.00     0.023 A 
ATOM     84  C   UNL A   1      43.583  26.721  33.292  1.00  0.00     0.031 A 
ATOM     85  C   UNL A   1      43.405  28.458  31.637  1.00  0.00     0.131 A 
ATOM     86  C   UNL A   1      44.120  25.867  32.321  1.00  0.00     0.055 A 
ATOM     87  C   UNL A   1      43.952  27.602  30.671  1.00  0.00     0.041 A 
ATOM     88  F   UNL A   1      43.031  29.688  31.253  1.00  0.00    -0.206 F 
ATOM     89  C   UNL A   1      44.254  26.278  30.994  1.00  0.00     0.022 A 
BRANCH  86  90
ATOM     90  S   UNL A   1      44.489  24.171  32.827  1.00  0.00     0.124 S 
ATOM     91  O   UNL A   1      44.213  23.405  31.619  1.00  0.00    -0.237 OA
ATOM     92  O   UNL A   1      45.898  24.273  33.197  1.00  0.00    -0.237 OA
ATOM     93  O   UNL A   1      43.563  23.940  33.933  1.00  0.00    -0.744 OA
ENDBRANCH  86  90
ENDBRANCH  59  83
BRANCH  71  94
ATOM     94  C   UNL A   1      40.324  34.210  35.336  1.00  0.00     0.023 A 
ATOM     95  C   UNL A   1      41.339  35.036  34.853  1.00  0.00     0.031 A 
ATOM     96  C   UNL A   1      39.511  34.788  36.343  1.00  0.00     0.131 A 
ATOM     97  C   UNL A   1      41.613  36.282  35.430  1.00  0.00     0.055 A 
ATOM     98  C   UNL A   1      39.703  36.082  36.833  1.00  0.00     0.041 A 
ATOM     99  F   UNL A   1      38.472  34.141  36.891  1.00  0.00    -0.206 F 
ATOM    100  C   UNL A   1      40.785  36.830  36.400  1.00  0.00     0.022 A 
BRANCH  97 101
ATOM    101  S   UNL A   1      43.147  37.092  34.933  1.00  0.00     0.124 S 
ATOM    102  O   UNL A   1      43.903  35.976  34.367  1.00  0.00    -0.237 OA
ATOM    103  O   UNL A   1      42.678  38.086  33.973  1.00  0.00    -0.237 OA
ATOM    104  O   UNL A   1      43.672  37.629  36.186  1.00  0.00    -0.744 OA
ENDBRANCH  97 101
ENDBRANCH  71  94
ENDBRANCH  45  46
ENDBRANCH  37  40
ENDBRANCH  35  36
ENDBRANCH  34  35
ENDBRANCH  33  34
ENDBRANCH  32  33
ENDBRANCH   1  32
TORSDOF 21
ENDMDL
