MODEL 1
REMARK VINA RESULT:     -13.0      0.000      0.000
REMARK SMILES CC1(C)Oc2ccc(NC(=O)[C@H]3CC=CC[C@@H]3C(=O)NCCCCCCNC(=O)c3ccc(-c4c5nc(c(-c6cc(S(=O)(=O)[O-])ccc6F)c6ccc([nH]6)c(-c6cc(S(=O)(=O)[O-])ccc6F)c6nc(c(-c7cc(S(=O)(=O)[O-])ccc7F)c7ccc4[nH]7)C=C6)C=C5)cc3)cc2NC1=O
REMARK SMILES IDX 24 1 23 2 22 3 21 4 20 5 18 6 19 7 17 9 12 10 13 11 14 12
REMARK SMILES IDX 16 13 15 14 10 15 9 16 11 18 8 19 1 20 2 21 3 22 4 23 96 24
REMARK SMILES IDX 5 25 95 26 97 27 6 28 94 29 7 31 93 32 25 33 26 34 27 35
REMARK SMILES IDX 28 36 29 38 30 39 31 40 92 41 32 42 91 43 33 44 34 45 35 46
REMARK SMILES IDX 85 47 36 48 90 49 84 50 86 51 37 52 89 53 83 54 82 55 38 57
REMARK SMILES IDX 70 58 50 59 69 60 51 61 54 62 68 63 87 64 52 65 53 66 67 68
REMARK SMILES IDX 88 69 55 70 39 71 40 72 48 73 41 74 47 75 49 76 46 77 42 78
REMARK SMILES IDX 43 79 44 80 45 81 71 82 72 83 80 84 73 85 79 86 81 87 78 88
REMARK SMILES IDX 74 89 75 90 76 91 77 92 56 93 57 94 65 95 58 96 64 97 66 98
REMARK SMILES IDX 63 99 59 100 60 101 61 102 62 103
REMARK H PARENT 20 8 9 17 95 30 27 37 86 56 54 67
REMARK Flexibility Score: inf
ROOT
ATOM      1  C   UNL A   1      32.430  28.603  27.262  1.00  0.00     0.002 C 
ENDROOT
BRANCH   1   2
ATOM      2  C   UNL A   1      31.341  27.531  27.403  1.00  0.00     0.002 C 
BRANCH   2   3
ATOM      3  C   UNL A   1      30.982  26.775  26.124  1.00  0.00     0.021 C 
BRANCH   3   4
ATOM      4  C   UNL A   1      30.466  25.346  26.315  1.00  0.00     0.116 C 
BRANCH   4   5
ATOM      5  N   UNL A   1      31.521  24.486  26.798  1.00  0.00    -0.356 N 
ATOM      6  C   UNL A   1      32.743  24.171  26.298  1.00  0.00     0.224 C 
ATOM      7  O   UNL A   1      33.404  23.393  26.992  1.00  0.00    -0.275 OA
ATOM      8  H   UNL A   1      31.315  24.044  27.653  1.00  0.00     0.163 HD
BRANCH   6   9
ATOM      9  C   UNL A   1      33.270  24.738  24.959  1.00  0.00     0.095 C 
ATOM     10  C   UNL A   1      32.676  23.983  23.739  1.00  0.00     0.095 C 
ATOM     11  C   UNL A   1      33.130  22.497  23.759  1.00  0.00     0.041 C 
ATOM     12  C   UNL A   1      34.576  22.298  24.120  1.00  0.00    -0.030 C 
ATOM     13  C   UNL A   1      34.813  24.638  24.961  1.00  0.00     0.041 C 
ATOM     14  C   UNL A   1      35.342  23.271  24.635  1.00  0.00    -0.030 C 
BRANCH  10  15
ATOM     15  C   UNL A   1      33.059  24.616  22.378  1.00  0.00     0.228 C 
ATOM     16  N   UNL A   1      32.781  25.897  21.994  1.00  0.00    -0.326 N 
ATOM     17  H   UNL A   1      33.223  26.136  21.148  1.00  0.00     0.169 HD
ATOM     18  O   UNL A   1      33.694  23.965  21.535  1.00  0.00    -0.274 OA
BRANCH  16  19
ATOM     19  C   UNL A   1      32.019  26.954  22.511  1.00  0.00     0.043 A 
ATOM     20  C   UNL A   1      27.708  31.494  23.546  1.00  0.00     0.067 C 
ATOM     21  C   UNL A   1      28.378  30.293  22.876  1.00  0.00     0.182 C 
ATOM     22  C   UNL A   1      28.363  30.518  21.349  1.00  0.00     0.067 C 
ATOM     23  O   UNL A   1      29.726  30.301  23.369  1.00  0.00    -0.476 OA
ATOM     24  C   UNL A   1      27.645  28.961  23.162  1.00  0.00     0.268 C 
ATOM     25  C   UNL A   1      30.400  29.132  23.179  1.00  0.00     0.144 A 
ATOM     26  N   UNL A   1      28.414  27.836  22.921  1.00  0.00    -0.319 N 
ATOM     27  O   UNL A   1      26.464  28.864  23.471  1.00  0.00    -0.270 OA
ATOM     28  C   UNL A   1      31.761  29.177  23.396  1.00  0.00     0.051 A 
ATOM     29  C   UNL A   1      29.807  27.926  22.841  1.00  0.00     0.086 A 
ATOM     30  H   UNL A   1      27.975  26.962  22.806  1.00  0.00     0.170 HD
ATOM     31  C   UNL A   1      32.574  28.099  23.060  1.00  0.00     0.030 A 
ATOM     32  C   UNL A   1      30.612  26.830  22.504  1.00  0.00     0.056 A 
ENDBRANCH  16  19
ENDBRANCH  10  15
ENDBRANCH   6   9
ENDBRANCH   4   5
ENDBRANCH   3   4
ENDBRANCH   2   3
ENDBRANCH   1   2
BRANCH   1  33
ATOM     33  C   UNL A   1      31.954  30.056  27.161  1.00  0.00     0.021 C 
BRANCH  33  34
ATOM     34  C   UNL A   1      32.975  31.055  26.621  1.00  0.00     0.116 C 
BRANCH  34  35
ATOM     35  N   UNL A   1      32.659  32.430  26.978  1.00  0.00    -0.352 N 
ATOM     36  C   UNL A   1      33.229  33.271  27.907  1.00  0.00     0.251 C 
ATOM     37  H   UNL A   1      31.915  32.824  26.469  1.00  0.00     0.163 HD
ATOM     38  O   UNL A   1      32.684  34.336  28.167  1.00  0.00    -0.269 OA
BRANCH  36  39
ATOM     39  C   UNL A   1      34.472  32.878  28.612  1.00  0.00     0.039 A 
ATOM     40  C   UNL A   1      35.725  33.071  28.029  1.00  0.00     0.014 A 
ATOM     41  C   UNL A   1      34.378  32.311  29.886  1.00  0.00     0.014 A 
ATOM     42  C   UNL A   1      36.859  32.532  28.629  1.00  0.00     0.010 A 
ATOM     43  C   UNL A   1      35.531  31.846  30.529  1.00  0.00     0.010 A 
ATOM     44  C   UNL A   1      36.774  31.898  29.879  1.00  0.00    -0.014 A 
BRANCH  44  45
ATOM     45  C   UNL A   1      37.985  31.273  30.479  1.00  0.00     0.031 A 
ATOM     46  C   UNL A   1      38.431  31.654  31.867  1.00  0.00     0.074 A 
ATOM     47  C   UNL A   1      38.661  30.333  29.790  1.00  0.00     0.049 A 
ATOM     48  N   UNL A   1      39.454  31.213  32.554  1.00  0.00    -0.248 NA
ATOM     49  C   UNL A   1      37.630  32.664  32.577  1.00  0.00     0.031 C 
ATOM     50  C   UNL A   1      38.316  29.874  28.445  1.00  0.00     0.029 A 
ATOM     51  N   UNL A   1      39.763  29.583  30.124  1.00  0.00    -0.354 N 
ATOM     52  C   UNL A   1      39.431  31.901  33.762  1.00  0.00     0.074 A 
ATOM     53  C   UNL A   1      38.317  32.819  33.701  1.00  0.00     0.031 C 
ATOM     54  C   UNL A   1      39.157  28.896  28.085  1.00  0.00     0.029 A 
ATOM     55  C   UNL A   1      40.151  28.703  29.140  1.00  0.00     0.049 A 
ATOM     56  H   UNL A   1      40.232  29.668  30.986  1.00  0.00     0.167 HD
ATOM     57  C   UNL A   1      40.254  31.764  34.829  1.00  0.00     0.034 A 
ATOM     58  C   UNL A   1      41.193  27.848  29.080  1.00  0.00     0.034 A 
ATOM     59  C   UNL A   1      41.345  30.822  34.883  1.00  0.00     0.049 A 
ATOM     60  C   UNL A   1      42.119  27.744  30.265  1.00  0.00     0.074 A 
ATOM     61  C   UNL A   1      42.210  30.583  35.936  1.00  0.00     0.029 A 
ATOM     62  N   UNL A   1      41.721  29.967  33.857  1.00  0.00    -0.354 N 
ATOM     63  N   UNL A   1      42.050  28.363  31.421  1.00  0.00    -0.248 NA
ATOM     64  C   UNL A   1      43.260  26.825  30.149  1.00  0.00     0.031 C 
ATOM     65  C   UNL A   1      43.156  29.648  35.521  1.00  0.00     0.029 A 
ATOM     66  C   UNL A   1      42.828  29.228  34.241  1.00  0.00     0.049 A 
ATOM     67  H   UNL A   1      41.267  29.896  32.986  1.00  0.00     0.167 HD
ATOM     68  C   UNL A   1      43.119  27.887  32.177  1.00  0.00     0.074 A 
ATOM     69  C   UNL A   1      43.805  26.911  31.356  1.00  0.00     0.031 C 
ATOM     70  C   UNL A   1      43.495  28.234  33.433  1.00  0.00     0.034 A 
BRANCH  57  71
ATOM     71  C   UNL A   1      40.028  32.629  36.047  1.00  0.00     0.023 A 
ATOM     72  C   UNL A   1      39.112  32.220  37.035  1.00  0.00     0.031 A 
ATOM     73  C   UNL A   1      40.588  33.914  36.154  1.00  0.00     0.131 A 
ATOM     74  C   UNL A   1      38.745  33.104  38.057  1.00  0.00     0.055 A 
ATOM     75  C   UNL A   1      40.257  34.773  37.203  1.00  0.00     0.041 A 
ATOM     76  F   UNL A   1      41.469  34.354  35.240  1.00  0.00    -0.206 F 
ATOM     77  C   UNL A   1      39.319  34.376  38.150  1.00  0.00     0.022 A 
BRANCH  74  78
ATOM     78  S   UNL A   1      37.451  32.674  39.253  1.00  0.00     0.124 S 
ATOM     79  O   UNL A   1      37.790  31.290  39.576  1.00  0.00    -0.237 OA
ATOM     80  O   UNL A   1      37.690  33.640  40.322  1.00  0.00    -0.237 OA
ATOM     81  O   UNL A   1      36.210  32.851  38.506  1.00  0.00    -0.744 OA
ENDBRANCH  74  78
ENDBRANCH  57  71
BRANCH  58  82
ATOM     82  C   UNL A   1      41.374  27.004  27.860  1.00  0.00     0.023 A 
ATOM     83  C   UNL A   1      40.966  25.656  27.844  1.00  0.00     0.031 A 
ATOM     84  C   UNL A   1      42.053  27.497  26.733  1.00  0.00     0.131 A 
ATOM     85  C   UNL A   1      41.311  24.834  26.765  1.00  0.00     0.055 A 
ATOM     86  C   UNL A   1      42.322  26.694  25.623  1.00  0.00     0.041 A 
ATOM     87  F   UNL A   1      42.475  28.771  26.702  1.00  0.00    -0.206 F 
ATOM     88  C   UNL A   1      41.970  25.349  25.645  1.00  0.00     0.022 A 
BRANCH  85  89
ATOM     89  S   UNL A   1      41.049  23.040  26.844  1.00  0.00     0.124 S 
ATOM     90  O   UNL A   1      39.602  22.935  26.686  1.00  0.00    -0.237 OA
ATOM     91  O   UNL A   1      41.845  22.573  25.711  1.00  0.00    -0.237 OA
ATOM     92  O   UNL A   1      41.568  22.674  28.157  1.00  0.00    -0.744 OA
ENDBRANCH  85  89
ENDBRANCH  58  82
BRANCH  70  93
ATOM     93  C   UNL A   1      44.699  27.559  34.050  1.00  0.00     0.023 A 
ATOM     94  C   UNL A   1      44.517  26.465  34.922  1.00  0.00     0.031 A 
ATOM     95  C   UNL A   1      45.989  28.102  33.929  1.00  0.00     0.131 A 
ATOM     96  C   UNL A   1      45.593  25.991  35.681  1.00  0.00     0.055 A 
ATOM     97  C   UNL A   1      47.071  27.586  34.644  1.00  0.00     0.041 A 
ATOM     98  F   UNL A   1      46.214  29.151  33.123  1.00  0.00    -0.206 F 
ATOM     99  C   UNL A   1      46.872  26.538  35.539  1.00  0.00     0.022 A 
BRANCH  96 100
ATOM    100  S   UNL A   1      45.352  24.725  36.958  1.00  0.00     0.124 S 
ATOM    101  O   UNL A   1      46.315  25.135  37.978  1.00  0.00    -0.237 OA
ATOM    102  O   UNL A   1      43.948  24.914  37.316  1.00  0.00    -0.237 OA
ATOM    103  O   UNL A   1      45.663  23.472  36.278  1.00  0.00    -0.744 OA
ENDBRANCH  96 100
ENDBRANCH  70  93
ENDBRANCH  44  45
ENDBRANCH  36  39
ENDBRANCH  34  35
ENDBRANCH  33  34
ENDBRANCH   1  33
TORSDOF 18
ENDMDL
MODEL 2
REMARK VINA RESULT:     -12.9      0.762      7.218
REMARK SMILES CC1(C)Oc2ccc(NC(=O)[C@H]3CC=CC[C@@H]3C(=O)NCCCCCCNC(=O)c3ccc(-c4c5nc(c(-c6cc(S(=O)(=O)[O-])ccc6F)c6ccc([nH]6)c(-c6cc(S(=O)(=O)[O-])ccc6F)c6nc(c(-c7cc(S(=O)(=O)[O-])ccc7F)c7ccc4[nH]7)C=C6)C=C5)cc3)cc2NC1=O
REMARK SMILES IDX 24 1 23 2 22 3 21 4 20 5 18 6 19 7 17 9 12 10 13 11 14 12
REMARK SMILES IDX 16 13 15 14 10 15 9 16 11 18 8 19 1 20 2 21 3 22 4 23 96 24
REMARK SMILES IDX 5 25 95 26 97 27 6 28 94 29 7 31 93 32 25 33 26 34 27 35
REMARK SMILES IDX 28 36 29 38 30 39 31 40 92 41 32 42 91 43 33 44 34 45 35 46
REMARK SMILES IDX 85 47 36 48 90 49 84 50 86 51 37 52 89 53 83 54 82 55 38 57
REMARK SMILES IDX 70 58 50 59 69 60 51 61 54 62 68 63 87 64 52 65 53 66 67 68
REMARK SMILES IDX 88 69 55 70 39 71 40 72 48 73 41 74 47 75 49 76 46 77 42 78
REMARK SMILES IDX 43 79 44 80 45 81 71 82 72 83 80 84 73 85 79 86 81 87 78 88
REMARK SMILES IDX 74 89 75 90 76 91 77 92 56 93 57 94 65 95 58 96 64 97 66 98
REMARK SMILES IDX 63 99 59 100 60 101 61 102 62 103
REMARK H PARENT 20 8 9 17 95 30 27 37 86 56 54 67
REMARK Flexibility Score: inf
ROOT
ATOM      1  C   UNL A   1      32.249  28.317  27.185  1.00  0.00     0.002 C 
ENDROOT
BRANCH   1   2
ATOM      2  C   UNL A   1      31.164  27.242  27.332  1.00  0.00     0.002 C 
BRANCH   2   3
ATOM      3  C   UNL A   1      30.812  26.475  26.058  1.00  0.00     0.021 C 
BRANCH   3   4
ATOM      4  C   UNL A   1      30.503  24.986  26.238  1.00  0.00     0.116 C 
BRANCH   4   5
ATOM      5  N   UNL A   1      31.648  24.293  26.783  1.00  0.00    -0.356 N 
ATOM      6  C   UNL A   1      32.909  24.106  26.318  1.00  0.00     0.224 C 
ATOM      7  O   UNL A   1      33.647  23.458  27.065  1.00  0.00    -0.275 OA
ATOM      8  H   UNL A   1      31.481  23.876  27.660  1.00  0.00     0.163 HD
BRANCH   6   9
ATOM      9  C   UNL A   1      33.388  24.659  24.956  1.00  0.00     0.095 C 
ATOM     10  C   UNL A   1      32.738  23.904  23.766  1.00  0.00     0.095 C 
ATOM     11  C   UNL A   1      33.176  22.413  23.777  1.00  0.00     0.041 C 
ATOM     12  C   UNL A   1      34.634  22.200  24.082  1.00  0.00    -0.030 C 
ATOM     13  C   UNL A   1      34.929  24.543  24.898  1.00  0.00     0.041 C 
ATOM     14  C   UNL A   1      35.430  23.167  24.559  1.00  0.00    -0.030 C 
BRANCH  10  15
ATOM     15  C   UNL A   1      33.073  24.524  22.386  1.00  0.00     0.228 C 
ATOM     16  N   UNL A   1      32.766  25.796  21.994  1.00  0.00    -0.326 N 
ATOM     17  H   UNL A   1      33.180  26.030  21.133  1.00  0.00     0.169 HD
ATOM     18  O   UNL A   1      33.694  23.871  21.534  1.00  0.00    -0.274 OA
BRANCH  16  19
ATOM     19  C   UNL A   1      32.003  26.848  22.519  1.00  0.00     0.043 A 
ATOM     20  C   UNL A   1      27.694  31.383  23.584  1.00  0.00     0.067 C 
ATOM     21  C   UNL A   1      28.365  30.188  22.904  1.00  0.00     0.182 C 
ATOM     22  C   UNL A   1      28.356  30.428  21.380  1.00  0.00     0.067 C 
ATOM     23  O   UNL A   1      29.711  30.189  23.403  1.00  0.00    -0.476 OA
ATOM     24  C   UNL A   1      27.630  28.854  23.175  1.00  0.00     0.268 C 
ATOM     25  C   UNL A   1      30.385  29.022  23.203  1.00  0.00     0.144 A 
ATOM     26  N   UNL A   1      28.398  27.730  22.925  1.00  0.00    -0.319 N 
ATOM     27  O   UNL A   1      26.447  28.755  23.478  1.00  0.00    -0.270 OA
ATOM     28  C   UNL A   1      31.745  29.063  23.425  1.00  0.00     0.051 A 
ATOM     29  C   UNL A   1      29.792  27.820  22.851  1.00  0.00     0.086 A 
ATOM     30  H   UNL A   1      27.959  26.858  22.799  1.00  0.00     0.170 HD
ATOM     31  C   UNL A   1      32.558  27.988  23.081  1.00  0.00     0.030 A 
ATOM     32  C   UNL A   1      30.597  26.726  22.505  1.00  0.00     0.056 A 
ENDBRANCH  16  19
ENDBRANCH  10  15
ENDBRANCH   6   9
ENDBRANCH   4   5
ENDBRANCH   3   4
ENDBRANCH   2   3
ENDBRANCH   1   2
BRANCH   1  33
ATOM     33  C   UNL A   1      31.767  29.765  27.058  1.00  0.00     0.021 C 
BRANCH  33  34
ATOM     34  C   UNL A   1      32.697  30.713  26.304  1.00  0.00     0.116 C 
BRANCH  34  35
ATOM     35  N   UNL A   1      32.642  32.076  26.808  1.00  0.00    -0.352 N 
ATOM     36  C   UNL A   1      33.461  32.741  27.692  1.00  0.00     0.251 C 
ATOM     37  H   UNL A   1      31.894  32.612  26.459  1.00  0.00     0.163 HD
ATOM     38  O   UNL A   1      33.122  33.838  28.116  1.00  0.00    -0.269 OA
BRANCH  36  39
ATOM     39  C   UNL A   1      34.726  32.123  28.153  1.00  0.00     0.039 A 
ATOM     40  C   UNL A   1      34.772  30.788  28.559  1.00  0.00     0.014 A 
ATOM     41  C   UNL A   1      35.891  32.897  28.174  1.00  0.00     0.014 A 
ATOM     42  C   UNL A   1      35.925  30.286  29.157  1.00  0.00     0.010 A 
ATOM     43  C   UNL A   1      37.074  32.361  28.695  1.00  0.00     0.010 A 
ATOM     44  C   UNL A   1      37.085  31.071  29.247  1.00  0.00    -0.014 A 
BRANCH  44  45
ATOM     45  C   UNL A   1      38.290  30.539  29.944  1.00  0.00     0.031 A 
ATOM     46  C   UNL A   1      39.199  29.558  29.251  1.00  0.00     0.074 A 
ATOM     47  C   UNL A   1      38.586  30.970  31.185  1.00  0.00     0.049 A 
ATOM     48  N   UNL A   1      40.292  28.993  29.695  1.00  0.00    -0.248 NA
ATOM     49  C   UNL A   1      38.834  29.153  27.883  1.00  0.00     0.031 C 
ATOM     50  C   UNL A   1      37.787  31.927  31.949  1.00  0.00     0.029 A 
ATOM     51  N   UNL A   1      39.640  30.677  32.017  1.00  0.00    -0.354 N 
ATOM     52  C   UNL A   1      40.734  28.157  28.675  1.00  0.00     0.074 A 
ATOM     53  C   UNL A   1      39.770  28.255  27.604  1.00  0.00     0.031 C 
ATOM     54  C   UNL A   1      38.398  32.176  33.116  1.00  0.00     0.029 A 
ATOM     55  C   UNL A   1      39.595  31.343  33.220  1.00  0.00     0.049 A 
ATOM     56  H   UNL A   1      40.359  30.050  31.775  1.00  0.00     0.167 HD
ATOM     57  C   UNL A   1      41.852  27.392  28.633  1.00  0.00     0.034 A 
ATOM     58  C   UNL A   1      40.411  31.285  34.294  1.00  0.00     0.034 A 
ATOM     59  C   UNL A   1      42.818  27.327  29.702  1.00  0.00     0.049 A 
ATOM     60  C   UNL A   1      41.626  30.394  34.237  1.00  0.00     0.074 A 
ATOM     61  C   UNL A   1      44.001  26.610  29.735  1.00  0.00     0.029 A 
ATOM     62  N   UNL A   1      42.724  27.996  30.913  1.00  0.00    -0.354 N 
ATOM     63  N   UNL A   1      42.057  29.652  33.245  1.00  0.00    -0.248 NA
ATOM     64  C   UNL A   1      42.471  30.333  35.438  1.00  0.00     0.031 C 
ATOM     65  C   UNL A   1      44.578  26.779  30.992  1.00  0.00     0.029 A 
ATOM     66  C   UNL A   1      43.809  27.677  31.714  1.00  0.00     0.049 A 
ATOM     67  H   UNL A   1      41.994  28.606  31.166  1.00  0.00     0.167 HD
ATOM     68  C   UNL A   1      43.237  29.060  33.690  1.00  0.00     0.074 A 
ATOM     69  C   UNL A   1      43.463  29.549  35.034  1.00  0.00     0.031 C 
ATOM     70  C   UNL A   1      44.049  28.188  33.043  1.00  0.00     0.034 A 
BRANCH  57  71
ATOM     71  C   UNL A   1      42.126  26.560  27.402  1.00  0.00     0.023 A 
ATOM     72  C   UNL A   1      41.733  25.208  27.370  1.00  0.00     0.031 A 
ATOM     73  C   UNL A   1      42.904  27.050  26.339  1.00  0.00     0.131 A 
ATOM     74  C   UNL A   1      42.162  24.381  26.325  1.00  0.00     0.055 A 
ATOM     75  C   UNL A   1      43.287  26.233  25.273  1.00  0.00     0.041 A 
ATOM     76  F   UNL A   1      43.304  28.332  26.317  1.00  0.00    -0.206 F 
ATOM     77  C   UNL A   1      42.930  24.889  25.272  1.00  0.00     0.022 A 
BRANCH  74  78
ATOM     78  S   UNL A   1      41.813  22.601  26.332  1.00  0.00     0.124 S 
ATOM     79  O   UNL A   1      42.546  22.148  25.151  1.00  0.00    -0.237 OA
ATOM     80  O   UNL A   1      42.378  22.185  27.613  1.00  0.00    -0.237 OA
ATOM     81  O   UNL A   1      40.360  22.527  26.227  1.00  0.00    -0.744 OA
ENDBRANCH  74  78
ENDBRANCH  57  71
BRANCH  58  82
ATOM     82  C   UNL A   1      40.107  32.132  35.487  1.00  0.00     0.023 A 
ATOM     83  C   UNL A   1      39.183  31.707  36.461  1.00  0.00     0.031 A 
ATOM     84  C   UNL A   1      40.649  33.421  35.616  1.00  0.00     0.131 A 
ATOM     85  C   UNL A   1      38.772  32.588  37.468  1.00  0.00     0.055 A 
ATOM     86  C   UNL A   1      40.299  34.268  36.669  1.00  0.00     0.041 A 
ATOM     87  F   UNL A   1      41.525  33.880  34.708  1.00  0.00    -0.206 F 
ATOM     88  C   UNL A   1      39.339  33.860  37.590  1.00  0.00     0.022 A 
BRANCH  85  89
ATOM     89  S   UNL A   1      37.384  32.171  38.558  1.00  0.00     0.124 S 
ATOM     90  O   UNL A   1      37.202  30.747  38.290  1.00  0.00    -0.237 OA
ATOM     91  O   UNL A   1      37.928  32.501  39.874  1.00  0.00    -0.237 OA
ATOM     92  O   UNL A   1      36.309  33.042  38.097  1.00  0.00    -0.744 OA
ENDBRANCH  85  89
ENDBRANCH  58  82
BRANCH  70  93
ATOM     93  C   UNL A   1      45.295  27.691  33.742  1.00  0.00     0.023 A 
ATOM     94  C   UNL A   1      45.193  26.670  34.710  1.00  0.00     0.031 A 
ATOM     95  C   UNL A   1      46.532  28.339  33.590  1.00  0.00     0.131 A 
ATOM     96  C   UNL A   1      46.289  26.373  35.528  1.00  0.00     0.055 A 
ATOM     97  C   UNL A   1      47.639  27.997  34.368  1.00  0.00     0.041 A 
ATOM     98  F   UNL A   1      46.679  29.326  32.692  1.00  0.00    -0.206 F 
ATOM     99  C   UNL A   1      47.515  27.023  35.356  1.00  0.00     0.022 A 
BRANCH  96 100
ATOM    100  S   UNL A   1      46.134  25.214  36.916  1.00  0.00     0.124 S 
ATOM    101  O   UNL A   1      47.493  25.199  37.452  1.00  0.00    -0.237 OA
ATOM    102  O   UNL A   1      45.139  25.874  37.757  1.00  0.00    -0.237 OA
ATOM    103  O   UNL A   1      45.700  23.968  36.290  1.00  0.00    -0.744 OA
ENDBRANCH  96 100
ENDBRANCH  70  93
ENDBRANCH  44  45
ENDBRANCH  36  39
ENDBRANCH  34  35
ENDBRANCH  33  34
ENDBRANCH   1  33
TORSDOF 18
ENDMDL
MODEL 3
REMARK VINA RESULT:     -12.3      2.360      7.623
REMARK SMILES CC1(C)Oc2ccc(NC(=O)[C@H]3CC=CC[C@@H]3C(=O)NCCCCCCNC(=O)c3ccc(-c4c5nc(c(-c6cc(S(=O)(=O)[O-])ccc6F)c6ccc([nH]6)c(-c6cc(S(=O)(=O)[O-])ccc6F)c6nc(c(-c7cc(S(=O)(=O)[O-])ccc7F)c7ccc4[nH]7)C=C6)C=C5)cc3)cc2NC1=O
REMARK SMILES IDX 24 1 23 2 22 3 21 4 20 5 18 6 19 7 17 9 12 10 13 11 14 12
REMARK SMILES IDX 16 13 15 14 10 15 9 16 11 18 8 19 1 20 2 21 3 22 4 23 96 24
REMARK SMILES IDX 5 25 95 26 97 27 6 28 94 29 7 31 93 32 25 33 26 34 27 35
REMARK SMILES IDX 28 36 29 38 30 39 31 40 92 41 32 42 91 43 33 44 34 45 35 46
REMARK SMILES IDX 85 47 36 48 90 49 84 50 86 51 37 52 89 53 83 54 82 55 38 57
REMARK SMILES IDX 70 58 50 59 69 60 51 61 54 62 68 63 87 64 52 65 53 66 67 68
REMARK SMILES IDX 88 69 55 70 39 71 40 72 48 73 41 74 47 75 49 76 46 77 42 78
REMARK SMILES IDX 43 79 44 80 45 81 71 82 72 83 80 84 73 85 79 86 81 87 78 88
REMARK SMILES IDX 74 89 75 90 76 91 77 92 56 93 57 94 65 95 58 96 64 97 66 98
REMARK SMILES IDX 63 99 59 100 60 101 61 102 62 103
REMARK H PARENT 20 8 9 17 95 30 27 37 86 56 54 67
REMARK Flexibility Score: inf
ROOT
ATOM      1  C   UNL A   1      31.833  30.101  26.212  1.00  0.00     0.002 C 
ENDROOT
BRANCH   1   2
ATOM      2  C   UNL A   1      31.968  28.956  27.223  1.00  0.00     0.002 C 
BRANCH   2   3
ATOM      3  C   UNL A   1      32.378  27.602  26.643  1.00  0.00     0.021 C 
BRANCH   3   4
ATOM      4  C   UNL A   1      31.314  26.502  26.697  1.00  0.00     0.116 C 
BRANCH   4   5
ATOM      5  N   UNL A   1      31.929  25.212  26.910  1.00  0.00    -0.356 N 
ATOM      6  C   UNL A   1      32.768  24.463  26.150  1.00  0.00     0.224 C 
ATOM      7  O   UNL A   1      33.112  23.392  26.658  1.00  0.00    -0.275 OA
ATOM      8  H   UNL A   1      31.695  24.797  27.772  1.00  0.00     0.163 HD
BRANCH   6   9
ATOM      9  C   UNL A   1      33.255  24.912  24.753  1.00  0.00     0.095 C 
ATOM     10  C   UNL A   1      32.583  24.095  23.618  1.00  0.00     0.095 C 
ATOM     11  C   UNL A   1      32.986  22.598  23.727  1.00  0.00     0.041 C 
ATOM     12  C   UNL A   1      34.439  22.370  24.043  1.00  0.00    -0.030 C 
ATOM     13  C   UNL A   1      34.793  24.755  24.700  1.00  0.00     0.041 C 
ATOM     14  C   UNL A   1      35.259  23.348  24.454  1.00  0.00    -0.030 C 
BRANCH  10  15
ATOM     15  C   UNL A   1      32.929  24.614  22.199  1.00  0.00     0.228 C 
ATOM     16  N   UNL A   1      32.686  25.876  21.737  1.00  0.00    -0.326 N 
ATOM     17  H   UNL A   1      33.098  26.035  20.857  1.00  0.00     0.169 HD
ATOM     18  O   UNL A   1      33.497  23.877  21.378  1.00  0.00    -0.274 OA
BRANCH  16  19
ATOM     19  C   UNL A   1      31.993  26.998  22.209  1.00  0.00     0.043 A 
ATOM     20  C   UNL A   1      27.830  31.684  23.206  1.00  0.00     0.067 C 
ATOM     21  C   UNL A   1      28.413  30.399  22.614  1.00  0.00     0.182 C 
ATOM     22  C   UNL A   1      28.198  30.427  21.086  1.00  0.00     0.067 C 
ATOM     23  O   UNL A   1      29.814  30.454  22.923  1.00  0.00    -0.476 OA
ATOM     24  C   UNL A   1      27.731  29.123  23.162  1.00  0.00     0.268 C 
ATOM     25  C   UNL A   1      30.464  29.263  22.797  1.00  0.00     0.144 A 
ATOM     26  N   UNL A   1      28.467  27.967  22.969  1.00  0.00    -0.319 N 
ATOM     27  O   UNL A   1      26.601  29.080  23.632  1.00  0.00    -0.270 OA
ATOM     28  C   UNL A   1      31.841  29.320  22.828  1.00  0.00     0.051 A 
ATOM     29  C   UNL A   1      29.838  28.030  22.697  1.00  0.00     0.086 A 
ATOM     30  H   UNL A   1      28.022  27.091  23.024  1.00  0.00     0.170 HD
ATOM     31  C   UNL A   1      32.609  28.198  22.529  1.00  0.00     0.030 A 
ATOM     32  C   UNL A   1      30.598  26.891  22.400  1.00  0.00     0.056 A 
ENDBRANCH  16  19
ENDBRANCH  10  15
ENDBRANCH   6   9
ENDBRANCH   4   5
ENDBRANCH   3   4
ENDBRANCH   2   3
ENDBRANCH   1   2
BRANCH   1  33
ATOM     33  C   UNL A   1      31.618  31.505  26.789  1.00  0.00     0.021 C 
BRANCH  33  34
ATOM     34  C   UNL A   1      32.869  32.209  27.308  1.00  0.00     0.116 C 
BRANCH  34  35
ATOM     35  N   UNL A   1      32.651  33.624  27.568  1.00  0.00    -0.352 N 
ATOM     36  C   UNL A   1      33.210  34.462  28.506  1.00  0.00     0.251 C 
ATOM     37  H   UNL A   1      31.994  34.053  26.973  1.00  0.00     0.163 HD
ATOM     38  O   UNL A   1      32.744  35.583  28.663  1.00  0.00    -0.269 OA
BRANCH  36  39
ATOM     39  C   UNL A   1      34.343  34.002  29.343  1.00  0.00     0.039 A 
ATOM     40  C   UNL A   1      35.663  34.289  28.992  1.00  0.00     0.014 A 
ATOM     41  C   UNL A   1      34.075  33.274  30.505  1.00  0.00     0.014 A 
ATOM     42  C   UNL A   1      36.710  33.695  29.691  1.00  0.00     0.010 A 
ATOM     43  C   UNL A   1      35.132  32.749  31.258  1.00  0.00     0.010 A 
ATOM     44  C   UNL A   1      36.457  32.904  30.823  1.00  0.00    -0.014 A 
BRANCH  44  45
ATOM     45  C   UNL A   1      37.584  32.226  31.523  1.00  0.00     0.031 A 
ATOM     46  C   UNL A   1      38.315  31.086  30.863  1.00  0.00     0.074 A 
ATOM     47  C   UNL A   1      37.975  32.662  32.736  1.00  0.00     0.049 A 
ATOM     48  N   UNL A   1      39.320  30.381  31.314  1.00  0.00    -0.248 NA
ATOM     49  C   UNL A   1      37.858  30.680  29.523  1.00  0.00     0.031 C 
ATOM     50  C   UNL A   1      37.351  33.765  33.467  1.00  0.00     0.029 A 
ATOM     51  N   UNL A   1      38.992  32.250  33.562  1.00  0.00    -0.354 N 
ATOM     52  C   UNL A   1      39.603  29.441  30.329  1.00  0.00     0.074 A 
ATOM     53  C   UNL A   1      38.638  29.637  29.272  1.00  0.00     0.031 C 
ATOM     54  C   UNL A   1      38.022  33.971  34.608  1.00  0.00     0.029 A 
ATOM     55  C   UNL A   1      39.080  32.970  34.731  1.00  0.00     0.049 A 
ATOM     56  H   UNL A   1      39.601  31.510  33.338  1.00  0.00     0.167 HD
ATOM     57  C   UNL A   1      40.589  28.513  30.304  1.00  0.00     0.034 A 
ATOM     58  C   UNL A   1      39.905  32.836  35.792  1.00  0.00     0.034 A 
ATOM     59  C   UNL A   1      41.562  28.349  31.356  1.00  0.00     0.049 A 
ATOM     60  C   UNL A   1      40.968  31.768  35.757  1.00  0.00     0.074 A 
ATOM     61  C   UNL A   1      42.622  27.461  31.403  1.00  0.00     0.029 A 
ATOM     62  N   UNL A   1      41.601  29.079  32.535  1.00  0.00    -0.354 N 
ATOM     63  N   UNL A   1      41.255  30.923  34.794  1.00  0.00    -0.248 NA
ATOM     64  C   UNL A   1      41.825  31.633  36.943  1.00  0.00     0.031 C 
ATOM     65  C   UNL A   1      43.250  27.597  32.640  1.00  0.00     0.029 A 
ATOM     66  C   UNL A   1      42.646  28.635  33.331  1.00  0.00     0.049 A 
ATOM     67  H   UNL A   1      40.980  29.806  32.771  1.00  0.00     0.167 HD
ATOM     68  C   UNL A   1      42.342  30.178  35.246  1.00  0.00     0.074 A 
ATOM     69  C   UNL A   1      42.675  30.688  36.560  1.00  0.00     0.031 C 
ATOM     70  C   UNL A   1      42.995  29.163  34.629  1.00  0.00     0.034 A 
BRANCH  57  71
ATOM     71  C   UNL A   1      40.702  27.593  29.111  1.00  0.00     0.023 A 
ATOM     72  C   UNL A   1      41.629  27.881  28.091  1.00  0.00     0.031 A 
ATOM     73  C   UNL A   1      39.798  26.536  28.906  1.00  0.00     0.131 A 
ATOM     74  C   UNL A   1      41.598  27.156  26.893  1.00  0.00     0.055 A 
ATOM     75  C   UNL A   1      39.805  25.783  27.730  1.00  0.00     0.041 A 
ATOM     76  F   UNL A   1      38.894  26.216  29.847  1.00  0.00    -0.206 F 
ATOM     77  C   UNL A   1      40.696  26.103  26.711  1.00  0.00     0.022 A 
BRANCH  74  78
ATOM     78  S   UNL A   1      42.666  27.602  25.496  1.00  0.00     0.124 S 
ATOM     79  O   UNL A   1      42.032  28.828  25.016  1.00  0.00    -0.237 OA
ATOM     80  O   UNL A   1      43.961  27.783  26.147  1.00  0.00    -0.237 OA
ATOM     81  O   UNL A   1      42.564  26.458  24.597  1.00  0.00    -0.744 OA
ENDBRANCH  74  78
ENDBRANCH  57  71
BRANCH  58  82
ATOM     82  C   UNL A   1      39.764  33.773  36.946  1.00  0.00     0.023 A 
ATOM     83  C   UNL A   1      40.643  34.861  37.108  1.00  0.00     0.031 A 
ATOM     84  C   UNL A   1      38.822  33.535  37.961  1.00  0.00     0.131 A 
ATOM     85  C   UNL A   1      40.615  35.614  38.288  1.00  0.00     0.055 A 
ATOM     86  C   UNL A   1      38.743  34.340  39.100  1.00  0.00     0.041 A 
ATOM     87  F   UNL A   1      37.969  32.504  37.863  1.00  0.00    -0.206 F 
ATOM     88  C   UNL A   1      39.658  35.373  39.277  1.00  0.00     0.022 A 
BRANCH  85  89
ATOM     89  S   UNL A   1      41.913  36.831  38.643  1.00  0.00     0.124 S 
ATOM     90  O   UNL A   1      42.430  37.124  37.310  1.00  0.00    -0.237 OA
ATOM     91  O   UNL A   1      41.150  37.906  39.274  1.00  0.00    -0.237 OA
ATOM     92  O   UNL A   1      42.824  36.115  39.530  1.00  0.00    -0.744 OA
ENDBRANCH  85  89
ENDBRANCH  58  82
BRANCH  70  93
ATOM     93  C   UNL A   1      44.168  28.513  35.328  1.00  0.00     0.023 A 
ATOM     94  C   UNL A   1      45.479  28.946  35.043  1.00  0.00     0.031 A 
ATOM     95  C   UNL A   1      44.006  27.363  36.119  1.00  0.00     0.131 A 
ATOM     96  C   UNL A   1      46.574  28.200  35.495  1.00  0.00     0.055 A 
ATOM     97  C   UNL A   1      45.103  26.656  36.617  1.00  0.00     0.041 A 
ATOM     98  F   UNL A   1      42.780  26.901  36.408  1.00  0.00    -0.206 F 
ATOM     99  C   UNL A   1      46.394  27.063  36.289  1.00  0.00     0.022 A 
BRANCH  96 100
ATOM    100  S   UNL A   1      48.264  28.610  34.978  1.00  0.00     0.124 S 
ATOM    101  O   UNL A   1      48.854  27.287  34.790  1.00  0.00    -0.237 OA
ATOM    102  O   UNL A   1      48.034  29.370  33.752  1.00  0.00    -0.237 OA
ATOM    103  O   UNL A   1      48.802  29.376  36.099  1.00  0.00    -0.744 OA
ENDBRANCH  96 100
ENDBRANCH  70  93
ENDBRANCH  44  45
ENDBRANCH  36  39
ENDBRANCH  34  35
ENDBRANCH  33  34
ENDBRANCH   1  33
TORSDOF 18
ENDMDL
