MODEL 1
REMARK VINA RESULT:     -11.3      0.000      0.000
REMARK SMILES CC[C@H]1CC[C@@](C(=O)NCCCCCCNC(=O)c2ccc(-c3c4nc(c(-c5cc(S(=O)(=O)[O-])ccc5F)c5ccc([nH]5)c(-c5cc(S(=O)(=O)[O-])ccc5F)c5nc(c(-c6cc(S(=O)(=O)[O-])ccc6F)c6ccc3[nH]6)C=C5)C=C4)cc2)(C2CCCC2)C1
REMARK SMILES IDX 13 1 12 2 11 3 10 4 9 5 7 6 8 7 6 9 3 10 4 11 87 12 5 13
REMARK SMILES IDX 2 14 1 15 82 16 83 17 86 18 84 19 85 20 14 21 15 22 16 23
REMARK SMILES IDX 17 24 18 26 19 27 20 28 81 29 21 30 80 31 22 32 23 33 24 34
REMARK SMILES IDX 74 35 25 36 79 37 73 38 75 39 26 40 78 41 72 42 71 43 27 45
REMARK SMILES IDX 59 46 39 47 58 48 40 49 43 50 57 51 76 52 41 53 42 54 56 56
REMARK SMILES IDX 77 57 44 58 28 59 29 60 37 61 30 62 36 63 38 64 35 65 31 66
REMARK SMILES IDX 32 67 33 68 34 69 60 70 61 71 69 72 62 73 68 74 70 75 67 76
REMARK SMILES IDX 63 77 64 78 65 79 66 80 45 81 46 82 54 83 47 84 53 85 55 86
REMARK SMILES IDX 52 87 48 88 49 89 50 90 51 91
REMARK H PARENT 9 8 16 25 75 44 43 55
REMARK Flexibility Score: inf
ROOT
ATOM      1  C   UNL A   1      31.036  28.258  24.815  1.00  0.00     0.002 C 
ENDROOT
BRANCH   1   2
ATOM      2  C   UNL A   1      29.977  27.954  23.749  1.00  0.00     0.002 C 
BRANCH   2   3
ATOM      3  C   UNL A   1      29.114  26.714  24.024  1.00  0.00     0.021 C 
BRANCH   3   4
ATOM      4  C   UNL A   1      29.903  25.407  24.064  1.00  0.00     0.116 C 
BRANCH   4   5
ATOM      5  N   UNL A   1      30.132  24.974  25.424  1.00  0.00    -0.356 N 
ATOM      6  C   UNL A   1      31.142  24.294  26.020  1.00  0.00     0.226 C 
ATOM      7  O   UNL A   1      31.001  24.143  27.240  1.00  0.00    -0.274 OA
ATOM      8  H   UNL A   1      29.408  25.224  26.043  1.00  0.00     0.163 HD
BRANCH   6   9
ATOM      9  C   UNL A   1      32.420  23.796  25.275  1.00  0.00     0.052 C 
ATOM     10  C   UNL A   1      34.853  24.188  25.741  1.00  0.00    -0.010 C 
ATOM     11  C   UNL A   1      34.411  25.180  24.667  1.00  0.00     0.005 C 
ATOM     12  C   UNL A   1      33.554  23.597  26.312  1.00  0.00     0.020 C 
ATOM     13  C   UNL A   1      32.981  24.815  24.259  1.00  0.00     0.017 C 
BRANCH  10  14
ATOM     14  C   UNL A   1      35.832  23.127  25.212  1.00  0.00     0.000 C 
ATOM     15  C   UNL A   1      35.866  23.047  23.693  1.00  0.00     0.004 C 
ENDBRANCH  10  14
BRANCH   9  16
ATOM     16  C   UNL A   1      32.040  22.427  24.592  1.00  0.00     0.004 C 
ATOM     17  C   UNL A   1      32.274  22.349  23.073  1.00  0.00     0.005 C 
ATOM     18  C   UNL A   1      32.790  21.182  25.069  1.00  0.00     0.005 C 
ATOM     19  C   UNL A   1      32.171  20.862  22.741  1.00  0.00     0.000 C 
ATOM     20  C   UNL A   1      32.482  20.113  24.030  1.00  0.00     0.000 C 
ENDBRANCH   9  16
ENDBRANCH   6   9
ENDBRANCH   4   5
ENDBRANCH   3   4
ENDBRANCH   2   3
ENDBRANCH   1   2
BRANCH   1  21
ATOM     21  C   UNL A   1      32.440  28.527  24.270  1.00  0.00     0.021 C 
BRANCH  21  22
ATOM     22  C   UNL A   1      33.367  29.240  25.248  1.00  0.00     0.116 C 
BRANCH  22  23
ATOM     23  N   UNL A   1      32.767  30.452  25.779  1.00  0.00    -0.352 N 
ATOM     24  C   UNL A   1      33.153  31.197  26.868  1.00  0.00     0.251 C 
ATOM     25  H   UNL A   1      31.978  30.785  25.294  1.00  0.00     0.163 HD
ATOM     26  O   UNL A   1      32.418  32.069  27.311  1.00  0.00    -0.269 OA
BRANCH  24  27
ATOM     27  C   UNL A   1      34.456  30.909  27.509  1.00  0.00     0.039 A 
ATOM     28  C   UNL A   1      35.383  31.941  27.666  1.00  0.00     0.014 A 
ATOM     29  C   UNL A   1      34.744  29.623  27.973  1.00  0.00     0.014 A 
ATOM     30  C   UNL A   1      36.579  31.695  28.346  1.00  0.00     0.010 A 
ATOM     31  C   UNL A   1      35.899  29.401  28.716  1.00  0.00     0.010 A 
ATOM     32  C   UNL A   1      36.831  30.433  28.905  1.00  0.00    -0.014 A 
BRANCH  32  33
ATOM     33  C   UNL A   1      38.075  30.149  29.668  1.00  0.00     0.031 A 
ATOM     34  C   UNL A   1      39.071  29.162  29.119  1.00  0.00     0.074 A 
ATOM     35  C   UNL A   1      38.270  30.709  30.878  1.00  0.00     0.049 A 
ATOM     36  N   UNL A   1      40.142  28.665  29.682  1.00  0.00    -0.248 NA
ATOM     37  C   UNL A   1      38.803  28.642  27.770  1.00  0.00     0.031 C 
ATOM     38  C   UNL A   1      37.367  31.663  31.524  1.00  0.00     0.029 A 
ATOM     39  N   UNL A   1      39.285  30.547  31.788  1.00  0.00    -0.354 N 
ATOM     40  C   UNL A   1      40.664  27.759  28.764  1.00  0.00     0.074 A 
ATOM     41  C   UNL A   1      39.754  27.731  27.638  1.00  0.00     0.031 C 
ATOM     42  C   UNL A   1      37.876  32.014  32.716  1.00  0.00     0.029 A 
ATOM     43  C   UNL A   1      39.112  31.269  32.947  1.00  0.00     0.049 A 
ATOM     44  H   UNL A   1      40.064  29.968  31.627  1.00  0.00     0.167 HD
ATOM     45  C   UNL A   1      41.808  27.035  28.843  1.00  0.00     0.034 A 
ATOM     46  C   UNL A   1      39.849  31.309  34.074  1.00  0.00     0.034 A 
ATOM     47  C   UNL A   1      42.708  27.086  29.969  1.00  0.00     0.049 A 
ATOM     48  C   UNL A   1      41.097  30.463  34.159  1.00  0.00     0.074 A 
ATOM     49  C   UNL A   1      43.915  26.430  30.136  1.00  0.00     0.029 A 
ATOM     50  N   UNL A   1      42.500  27.832  31.122  1.00  0.00    -0.354 N 
ATOM     51  N   UNL A   1      41.594  29.633  33.270  1.00  0.00    -0.248 NA
ATOM     52  C   UNL A   1      41.885  30.564  35.393  1.00  0.00     0.031 C 
ATOM     53  C   UNL A   1      44.396  26.717  31.418  1.00  0.00     0.029 A 
ATOM     54  C   UNL A   1      43.539  27.626  32.017  1.00  0.00     0.049 A 
ATOM     55  H   UNL A   1      41.726  28.420  31.282  1.00  0.00     0.167 HD
ATOM     56  C   UNL A   1      42.777  29.148  33.824  1.00  0.00     0.074 A 
ATOM     57  C   UNL A   1      42.919  29.783  35.118  1.00  0.00     0.031 C 
ATOM     58  C   UNL A   1      43.669  28.266  33.306  1.00  0.00     0.034 A 
BRANCH  45  59
ATOM     59  C   UNL A   1      42.126  26.107  27.694  1.00  0.00     0.023 A 
ATOM     60  C   UNL A   1      41.652  24.782  27.660  1.00  0.00     0.031 A 
ATOM     61  C   UNL A   1      42.938  26.538  26.631  1.00  0.00     0.131 A 
ATOM     62  C   UNL A   1      42.061  23.917  26.635  1.00  0.00     0.055 A 
ATOM     63  C   UNL A   1      43.266  25.699  25.565  1.00  0.00     0.041 A 
ATOM     64  F   UNL A   1      43.441  27.784  26.617  1.00  0.00    -0.206 F 
ATOM     65  C   UNL A   1      42.841  24.374  25.571  1.00  0.00     0.022 A 
BRANCH  62  66
ATOM     66  S   UNL A   1      41.688  22.149  26.797  1.00  0.00     0.124 S 
ATOM     67  O   UNL A   1      42.043  21.652  25.470  1.00  0.00    -0.237 OA
ATOM     68  O   UNL A   1      42.564  21.740  27.888  1.00  0.00    -0.237 OA
ATOM     69  O   UNL A   1      40.258  22.128  27.101  1.00  0.00    -0.744 OA
ENDBRANCH  62  66
ENDBRANCH  45  59
BRANCH  46  70
ATOM     70  C   UNL A   1      39.432  32.164  35.224  1.00  0.00     0.023 A 
ATOM     71  C   UNL A   1      38.726  31.622  36.310  1.00  0.00     0.031 A 
ATOM     72  C   UNL A   1      39.686  33.548  35.231  1.00  0.00     0.131 A 
ATOM     73  C   UNL A   1      38.254  32.462  37.330  1.00  0.00     0.055 A 
ATOM     74  C   UNL A   1      39.267  34.371  36.278  1.00  0.00     0.041 A 
ATOM     75  F   UNL A   1      40.358  34.120  34.219  1.00  0.00    -0.206 F 
ATOM     76  C   UNL A   1      38.532  33.831  37.328  1.00  0.00     0.022 A 
BRANCH  73  77
ATOM     77  S   UNL A   1      37.179  31.755  38.609  1.00  0.00     0.124 S 
ATOM     78  O   UNL A   1      35.997  32.601  38.504  1.00  0.00    -0.237 OA
ATOM     79  O   UNL A   1      37.028  30.378  38.150  1.00  0.00    -0.237 OA
ATOM     80  O   UNL A   1      37.959  31.919  39.835  1.00  0.00    -0.744 OA
ENDBRANCH  73  77
ENDBRANCH  46  70
BRANCH  58  81
ATOM     81  C   UNL A   1      44.915  27.987  34.112  1.00  0.00     0.023 A 
ATOM     82  C   UNL A   1      44.947  27.017  35.129  1.00  0.00     0.031 A 
ATOM     83  C   UNL A   1      46.095  28.706  33.849  1.00  0.00     0.131 A 
ATOM     84  C   UNL A   1      46.118  26.830  35.879  1.00  0.00     0.055 A 
ATOM     85  C   UNL A   1      47.276  28.470  34.555  1.00  0.00     0.041 A 
ATOM     86  F   UNL A   1      46.123  29.648  32.891  1.00  0.00    -0.206 F 
ATOM     87  C   UNL A   1      47.288  27.536  35.586  1.00  0.00     0.022 A 
BRANCH  84  88
ATOM     88  S   UNL A   1      46.069  25.715  37.309  1.00  0.00     0.124 S 
ATOM     89  O   UNL A   1      46.245  26.642  38.423  1.00  0.00    -0.237 OA
ATOM     90  O   UNL A   1      44.748  25.108  37.188  1.00  0.00    -0.237 OA
ATOM     91  O   UNL A   1      47.191  24.807  37.075  1.00  0.00    -0.744 OA
ENDBRANCH  84  88
ENDBRANCH  58  81
ENDBRANCH  32  33
ENDBRANCH  24  27
ENDBRANCH  22  23
ENDBRANCH  21  22
ENDBRANCH   1  21
TORSDOF 18
ENDMDL
MODEL 2
REMARK VINA RESULT:     -11.1      1.873      2.369
REMARK SMILES CC[C@H]1CC[C@@](C(=O)NCCCCCCNC(=O)c2ccc(-c3c4nc(c(-c5cc(S(=O)(=O)[O-])ccc5F)c5ccc([nH]5)c(-c5cc(S(=O)(=O)[O-])ccc5F)c5nc(c(-c6cc(S(=O)(=O)[O-])ccc6F)c6ccc3[nH]6)C=C5)C=C4)cc2)(C2CCCC2)C1
REMARK SMILES IDX 13 1 12 2 11 3 10 4 9 5 7 6 8 7 6 9 3 10 4 11 87 12 5 13
REMARK SMILES IDX 2 14 1 15 82 16 83 17 86 18 84 19 85 20 14 21 15 22 16 23
REMARK SMILES IDX 17 24 18 26 19 27 20 28 81 29 21 30 80 31 22 32 23 33 24 34
REMARK SMILES IDX 74 35 25 36 79 37 73 38 75 39 26 40 78 41 72 42 71 43 27 45
REMARK SMILES IDX 59 46 39 47 58 48 40 49 43 50 57 51 76 52 41 53 42 54 56 56
REMARK SMILES IDX 77 57 44 58 28 59 29 60 37 61 30 62 36 63 38 64 35 65 31 66
REMARK SMILES IDX 32 67 33 68 34 69 60 70 61 71 69 72 62 73 68 74 70 75 67 76
REMARK SMILES IDX 63 77 64 78 65 79 66 80 45 81 46 82 54 83 47 84 53 85 55 86
REMARK SMILES IDX 52 87 48 88 49 89 50 90 51 91
REMARK H PARENT 9 8 16 25 75 44 43 55
REMARK Flexibility Score: inf
ROOT
ATOM      1  C   UNL A   1      31.760  28.479  24.625  1.00  0.00     0.002 C 
ENDROOT
BRANCH   1   2
ATOM      2  C   UNL A   1      30.666  27.904  23.719  1.00  0.00     0.002 C 
BRANCH   2   3
ATOM      3  C   UNL A   1      31.169  27.017  22.573  1.00  0.00     0.021 C 
BRANCH   3   4
ATOM      4  C   UNL A   1      32.681  26.797  22.576  1.00  0.00     0.116 C 
BRANCH   4   5
ATOM      5  N   UNL A   1      33.037  25.589  21.866  1.00  0.00    -0.356 N 
ATOM      6  C   UNL A   1      33.320  24.328  22.274  1.00  0.00     0.226 C 
ATOM      7  O   UNL A   1      33.544  23.535  21.351  1.00  0.00    -0.274 OA
ATOM      8  H   UNL A   1      33.082  25.706  20.890  1.00  0.00     0.163 HD
BRANCH   6   9
ATOM      9  C   UNL A   1      33.302  23.865  23.765  1.00  0.00     0.052 C 
ATOM     10  C   UNL A   1      32.096  24.792  25.760  1.00  0.00    -0.010 C 
ATOM     11  C   UNL A   1      33.522  25.337  25.773  1.00  0.00     0.005 C 
ATOM     12  C   UNL A   1      31.907  24.175  24.364  1.00  0.00     0.020 C 
ATOM     13  C   UNL A   1      34.302  24.627  24.663  1.00  0.00     0.017 C 
BRANCH  10  14
ATOM     14  C   UNL A   1      31.818  23.810  26.910  1.00  0.00     0.000 C 
ATOM     15  C   UNL A   1      30.501  23.063  26.755  1.00  0.00     0.004 C 
ENDBRANCH  10  14
BRANCH   9  16
ATOM     16  C   UNL A   1      33.575  22.313  23.759  1.00  0.00     0.004 C 
ATOM     17  C   UNL A   1      34.537  21.798  24.845  1.00  0.00     0.005 C 
ATOM     18  C   UNL A   1      32.371  21.394  23.975  1.00  0.00     0.005 C 
ATOM     19  C   UNL A   1      34.349  20.282  24.843  1.00  0.00     0.000 C 
ATOM     20  C   UNL A   1      32.965  20.023  24.262  1.00  0.00     0.000 C 
ENDBRANCH   9  16
ENDBRANCH   6   9
ENDBRANCH   4   5
ENDBRANCH   3   4
ENDBRANCH   2   3
ENDBRANCH   1   2
BRANCH   1  21
ATOM     21  C   UNL A   1      31.366  29.745  25.389  1.00  0.00     0.021 C 
BRANCH  21  22
ATOM     22  C   UNL A   1      32.507  30.392  26.164  1.00  0.00     0.116 C 
BRANCH  22  23
ATOM     23  N   UNL A   1      32.249  31.795  26.442  1.00  0.00    -0.352 N 
ATOM     24  C   UNL A   1      32.905  32.635  27.309  1.00  0.00     0.251 C 
ATOM     25  H   UNL A   1      31.503  32.197  25.940  1.00  0.00     0.163 HD
ATOM     26  O   UNL A   1      32.432  33.729  27.585  1.00  0.00    -0.269 OA
BRANCH  24  27
ATOM     27  C   UNL A   1      34.175  32.186  27.920  1.00  0.00     0.039 A 
ATOM     28  C   UNL A   1      35.259  33.065  27.972  1.00  0.00     0.014 A 
ATOM     29  C   UNL A   1      34.282  30.902  28.462  1.00  0.00     0.014 A 
ATOM     30  C   UNL A   1      36.432  32.676  28.623  1.00  0.00     0.010 A 
ATOM     31  C   UNL A   1      35.421  30.547  29.177  1.00  0.00     0.010 A 
ATOM     32  C   UNL A   1      36.510  31.428  29.259  1.00  0.00    -0.014 A 
BRANCH  32  33
ATOM     33  C   UNL A   1      37.730  30.999  29.994  1.00  0.00     0.031 A 
ATOM     34  C   UNL A   1      38.650  29.983  29.372  1.00  0.00     0.074 A 
ATOM     35  C   UNL A   1      37.965  31.455  31.240  1.00  0.00     0.049 A 
ATOM     36  N   UNL A   1      39.681  29.369  29.893  1.00  0.00    -0.248 NA
ATOM     37  C   UNL A   1      38.346  29.582  27.990  1.00  0.00     0.031 C 
ATOM     38  C   UNL A   1      37.134  32.424  31.957  1.00  0.00     0.029 A 
ATOM     39  N   UNL A   1      38.963  31.153  32.132  1.00  0.00    -0.354 N 
ATOM     40  C   UNL A   1      40.136  28.495  28.910  1.00  0.00     0.074 A 
ATOM     41  C   UNL A   1      39.227  28.615  27.789  1.00  0.00     0.031 C 
ATOM     42  C   UNL A   1      37.667  32.650  33.169  1.00  0.00     0.029 A 
ATOM     43  C   UNL A   1      38.844  31.802  33.340  1.00  0.00     0.049 A 
ATOM     44  H   UNL A   1      39.698  30.531  31.927  1.00  0.00     0.167 HD
ATOM     45  C   UNL A   1      41.223  27.684  28.932  1.00  0.00     0.034 A 
ATOM     46  C   UNL A   1      39.581  31.706  34.464  1.00  0.00     0.034 A 
ATOM     47  C   UNL A   1      42.123  27.589  30.054  1.00  0.00     0.049 A 
ATOM     48  C   UNL A   1      40.762  30.766  34.482  1.00  0.00     0.074 A 
ATOM     49  C   UNL A   1      43.278  26.835  30.169  1.00  0.00     0.029 A 
ATOM     50  N   UNL A   1      41.969  28.263  31.259  1.00  0.00    -0.354 N 
ATOM     51  N   UNL A   1      41.198  29.968  33.535  1.00  0.00    -0.248 NA
ATOM     52  C   UNL A   1      41.555  30.720  35.717  1.00  0.00     0.031 C 
ATOM     53  C   UNL A   1      43.778  26.993  31.466  1.00  0.00     0.029 A 
ATOM     54  C   UNL A   1      42.990  27.917  32.132  1.00  0.00     0.049 A 
ATOM     55  H   UNL A   1      41.241  28.894  31.464  1.00  0.00     0.167 HD
ATOM     56  C   UNL A   1      42.341  29.358  34.047  1.00  0.00     0.074 A 
ATOM     57  C   UNL A   1      42.528  29.886  35.382  1.00  0.00     0.031 C 
ATOM     58  C   UNL A   1      43.166  28.452  33.463  1.00  0.00     0.034 A 
BRANCH  45  59
ATOM     59  C   UNL A   1      41.471  26.820  27.719  1.00  0.00     0.023 A 
ATOM     60  C   UNL A   1      41.148  25.451  27.707  1.00  0.00     0.031 A 
ATOM     61  C   UNL A   1      42.067  27.362  26.566  1.00  0.00     0.131 A 
ATOM     62  C   UNL A   1      41.498  24.657  26.604  1.00  0.00     0.055 A 
ATOM     63  C   UNL A   1      42.328  26.585  25.436  1.00  0.00     0.041 A 
ATOM     64  F   UNL A   1      42.421  28.657  26.524  1.00  0.00    -0.206 F 
ATOM     65  C   UNL A   1      42.060  25.220  25.456  1.00  0.00     0.022 A 
BRANCH  62  66
ATOM     66  S   UNL A   1      41.353  22.855  26.756  1.00  0.00     0.124 S 
ATOM     67  O   UNL A   1      42.225  22.586  27.897  1.00  0.00    -0.237 OA
ATOM     68  O   UNL A   1      39.925  22.671  26.986  1.00  0.00    -0.237 OA
ATOM     69  O   UNL A   1      41.849  22.363  25.472  1.00  0.00    -0.744 OA
ENDBRANCH  62  66
ENDBRANCH  45  59
BRANCH  46  70
ATOM     70  C   UNL A   1      39.227  32.505  35.674  1.00  0.00     0.023 A 
ATOM     71  C   UNL A   1      39.641  33.839  35.807  1.00  0.00     0.031 A 
ATOM     72  C   UNL A   1      38.513  31.929  36.741  1.00  0.00     0.131 A 
ATOM     73  C   UNL A   1      39.386  34.538  36.997  1.00  0.00     0.055 A 
ATOM     74  C   UNL A   1      38.208  32.648  37.899  1.00  0.00     0.041 A 
ATOM     75  F   UNL A   1      38.091  30.657  36.668  1.00  0.00    -0.206 F 
ATOM     76  C   UNL A   1      38.660  33.956  38.038  1.00  0.00     0.022 A 
BRANCH  73  77
ATOM     77  S   UNL A   1      40.108  36.190  37.206  1.00  0.00     0.124 S 
ATOM     78  O   UNL A   1      41.488  35.868  37.548  1.00  0.00    -0.237 OA
ATOM     79  O   UNL A   1      39.893  36.782  35.890  1.00  0.00    -0.237 OA
ATOM     80  O   UNL A   1      39.315  36.772  38.286  1.00  0.00    -0.744 OA
ENDBRANCH  73  77
ENDBRANCH  46  70
BRANCH  58  81
ATOM     81  C   UNL A   1      44.388  28.025  34.242  1.00  0.00     0.023 A 
ATOM     82  C   UNL A   1      44.353  26.966  35.166  1.00  0.00     0.031 A 
ATOM     83  C   UNL A   1      45.611  28.691  34.047  1.00  0.00     0.131 A 
ATOM     84  C   UNL A   1      45.505  26.640  35.897  1.00  0.00     0.055 A 
ATOM     85  C   UNL A   1      46.770  28.320  34.729  1.00  0.00     0.041 A 
ATOM     86  F   UNL A   1      45.702  29.713  33.179  1.00  0.00    -0.206 F 
ATOM     87  C   UNL A   1      46.718  27.296  35.670  1.00  0.00     0.022 A 
BRANCH  84  88
ATOM     88  S   UNL A   1      45.379  25.404  37.219  1.00  0.00     0.124 S 
ATOM     89  O   UNL A   1      46.770  25.268  37.642  1.00  0.00    -0.237 OA
ATOM     90  O   UNL A   1      44.485  26.055  38.171  1.00  0.00    -0.237 OA
ATOM     91  O   UNL A   1      44.820  24.234  36.543  1.00  0.00    -0.744 OA
ENDBRANCH  84  88
ENDBRANCH  58  81
ENDBRANCH  32  33
ENDBRANCH  24  27
ENDBRANCH  22  23
ENDBRANCH  21  22
ENDBRANCH   1  21
TORSDOF 18
ENDMDL
MODEL 3
REMARK VINA RESULT:     -11.1      2.523      7.950
REMARK SMILES CC[C@H]1CC[C@@](C(=O)NCCCCCCNC(=O)c2ccc(-c3c4nc(c(-c5cc(S(=O)(=O)[O-])ccc5F)c5ccc([nH]5)c(-c5cc(S(=O)(=O)[O-])ccc5F)c5nc(c(-c6cc(S(=O)(=O)[O-])ccc6F)c6ccc3[nH]6)C=C5)C=C4)cc2)(C2CCCC2)C1
REMARK SMILES IDX 13 1 12 2 11 3 10 4 9 5 7 6 8 7 6 9 3 10 4 11 87 12 5 13
REMARK SMILES IDX 2 14 1 15 82 16 83 17 86 18 84 19 85 20 14 21 15 22 16 23
REMARK SMILES IDX 17 24 18 26 19 27 20 28 81 29 21 30 80 31 22 32 23 33 24 34
REMARK SMILES IDX 74 35 25 36 79 37 73 38 75 39 26 40 78 41 72 42 71 43 27 45
REMARK SMILES IDX 59 46 39 47 58 48 40 49 43 50 57 51 76 52 41 53 42 54 56 56
REMARK SMILES IDX 77 57 44 58 28 59 29 60 37 61 30 62 36 63 38 64 35 65 31 66
REMARK SMILES IDX 32 67 33 68 34 69 60 70 61 71 69 72 62 73 68 74 70 75 67 76
REMARK SMILES IDX 63 77 64 78 65 79 66 80 45 81 46 82 54 83 47 84 53 85 55 86
REMARK SMILES IDX 52 87 48 88 49 89 50 90 51 91
REMARK H PARENT 9 8 16 25 75 44 43 55
REMARK Flexibility Score: inf
ROOT
ATOM      1  C   UNL A   1      31.820  28.615  25.016  1.00  0.00     0.002 C 
ENDROOT
BRANCH   1   2
ATOM      2  C   UNL A   1      31.239  27.815  23.845  1.00  0.00     0.002 C 
BRANCH   2   3
ATOM      3  C   UNL A   1      29.926  27.081  24.145  1.00  0.00     0.021 C 
BRANCH   3   4
ATOM      4  C   UNL A   1      30.050  25.558  24.131  1.00  0.00     0.116 C 
BRANCH   4   5
ATOM      5  N   UNL A   1      30.218  25.033  25.468  1.00  0.00    -0.356 N 
ATOM      6  C   UNL A   1      31.186  24.285  26.051  1.00  0.00     0.226 C 
ATOM      7  O   UNL A   1      30.999  24.062  27.253  1.00  0.00    -0.274 OA
ATOM      8  H   UNL A   1      29.481  25.267  26.077  1.00  0.00     0.163 HD
BRANCH   6   9
ATOM      9  C   UNL A   1      32.474  23.794  25.318  1.00  0.00     0.052 C 
ATOM     10  C   UNL A   1      34.790  24.755  25.241  1.00  0.00    -0.010 C 
ATOM     11  C   UNL A   1      34.047  25.209  23.987  1.00  0.00     0.005 C 
ATOM     12  C   UNL A   1      33.709  24.180  26.171  1.00  0.00     0.020 C 
ATOM     13  C   UNL A   1      32.705  24.473  23.950  1.00  0.00     0.017 C 
BRANCH  10  14
ATOM     14  C   UNL A   1      35.931  23.770  24.941  1.00  0.00     0.000 C 
ATOM     15  C   UNL A   1      37.034  23.791  25.989  1.00  0.00     0.004 C 
ENDBRANCH  10  14
BRANCH   9  16
ATOM     16  C   UNL A   1      32.351  22.228  25.188  1.00  0.00     0.004 C 
ATOM     17  C   UNL A   1      32.612  21.650  23.786  1.00  0.00     0.005 C 
ATOM     18  C   UNL A   1      33.305  21.384  26.036  1.00  0.00     0.005 C 
ATOM     19  C   UNL A   1      32.778  20.148  24.011  1.00  0.00     0.000 C 
ATOM     20  C   UNL A   1      33.203  19.978  25.464  1.00  0.00     0.000 C 
ENDBRANCH   9  16
ENDBRANCH   6   9
ENDBRANCH   4   5
ENDBRANCH   3   4
ENDBRANCH   2   3
ENDBRANCH   1   2
BRANCH   1  21
ATOM     21  C   UNL A   1      32.618  27.791  26.028  1.00  0.00     0.021 C 
BRANCH  21  22
ATOM     22  C   UNL A   1      33.895  28.463  26.518  1.00  0.00     0.116 C 
BRANCH  22  23
ATOM     23  N   UNL A   1      33.723  29.897  26.687  1.00  0.00    -0.352 N 
ATOM     24  C   UNL A   1      34.452  30.764  27.466  1.00  0.00     0.251 C 
ATOM     25  H   UNL A   1      32.986  30.300  26.174  1.00  0.00     0.163 HD
ATOM     26  O   UNL A   1      34.049  31.902  27.664  1.00  0.00    -0.269 OA
BRANCH  24  27
ATOM     27  C   UNL A   1      35.713  30.292  28.079  1.00  0.00     0.039 A 
ATOM     28  C   UNL A   1      35.687  29.746  29.363  1.00  0.00     0.014 A 
ATOM     29  C   UNL A   1      36.914  30.370  27.368  1.00  0.00     0.014 A 
ATOM     30  C   UNL A   1      36.860  29.221  29.913  1.00  0.00     0.010 A 
ATOM     31  C   UNL A   1      38.061  29.777  27.885  1.00  0.00     0.010 A 
ATOM     32  C   UNL A   1      38.048  29.202  29.165  1.00  0.00    -0.014 A 
BRANCH  32  33
ATOM     33  C   UNL A   1      39.303  28.616  29.705  1.00  0.00     0.031 A 
ATOM     34  C   UNL A   1      39.940  29.225  30.925  1.00  0.00     0.074 A 
ATOM     35  C   UNL A   1      39.908  27.599  29.060  1.00  0.00     0.049 A 
ATOM     36  N   UNL A   1      41.098  28.966  31.474  1.00  0.00    -0.248 NA
ATOM     37  C   UNL A   1      39.183  30.294  31.595  1.00  0.00     0.031 C 
ATOM     38  C   UNL A   1      39.399  26.940  27.856  1.00  0.00     0.029 A 
ATOM     39  N   UNL A   1      41.091  26.952  29.316  1.00  0.00    -0.354 N 
ATOM     40  C   UNL A   1      41.218  29.851  32.540  1.00  0.00     0.074 A 
ATOM     41  C   UNL A   1      40.043  30.697  32.517  1.00  0.00     0.031 C 
ATOM     42  C   UNL A   1      40.254  25.971  27.490  1.00  0.00     0.029 A 
ATOM     43  C   UNL A   1      41.399  25.975  28.396  1.00  0.00     0.049 A 
ATOM     44  H   UNL A   1      41.664  27.165  30.087  1.00  0.00     0.167 HD
ATOM     45  C   UNL A   1      42.207  29.937  33.465  1.00  0.00     0.034 A 
ATOM     46  C   UNL A   1      42.490  25.191  28.281  1.00  0.00     0.034 A 
ATOM     47  C   UNL A   1      43.364  29.077  33.478  1.00  0.00     0.049 A 
ATOM     48  C   UNL A   1      43.598  25.332  29.297  1.00  0.00     0.074 A 
ATOM     49  C   UNL A   1      44.404  29.046  34.391  1.00  0.00     0.029 A 
ATOM     50  N   UNL A   1      43.640  28.099  32.530  1.00  0.00    -0.354 N 
ATOM     51  N   UNL A   1      43.684  26.155  30.318  1.00  0.00    -0.248 NA
ATOM     52  C   UNL A   1      44.751  24.435  29.151  1.00  0.00     0.031 C 
ATOM     53  C   UNL A   1      45.343  28.106  33.954  1.00  0.00     0.029 A 
ATOM     54  C   UNL A   1      44.848  27.483  32.820  1.00  0.00     0.049 A 
ATOM     55  H   UNL A   1      43.063  27.876  31.764  1.00  0.00     0.167 HD
ATOM     56  C   UNL A   1      44.881  25.842  30.958  1.00  0.00     0.074 A 
ATOM     57  C   UNL A   1      45.477  24.753  30.212  1.00  0.00     0.031 C 
ATOM     58  C   UNL A   1      45.432  26.396  32.067  1.00  0.00     0.034 A 
BRANCH  45  59
ATOM     59  C   UNL A   1      42.087  31.018  34.514  1.00  0.00     0.023 A 
ATOM     60  C   UNL A   1      42.600  32.312  34.305  1.00  0.00     0.031 A 
ATOM     61  C   UNL A   1      41.479  30.747  35.751  1.00  0.00     0.131 A 
ATOM     62  C   UNL A   1      42.571  33.253  35.345  1.00  0.00     0.055 A 
ATOM     63  C   UNL A   1      41.370  31.718  36.749  1.00  0.00     0.041 A 
ATOM     64  F   UNL A   1      40.991  29.525  36.021  1.00  0.00    -0.206 F 
ATOM     65  C   UNL A   1      41.933  32.975  36.555  1.00  0.00     0.022 A 
BRANCH  62  66
ATOM     66  S   UNL A   1      43.517  34.789  35.145  1.00  0.00     0.124 S 
ATOM     67  O   UNL A   1      44.844  34.375  35.593  1.00  0.00    -0.237 OA
ATOM     68  O   UNL A   1      43.379  35.062  33.720  1.00  0.00    -0.237 OA
ATOM     69  O   UNL A   1      42.832  35.729  36.031  1.00  0.00    -0.744 OA
ENDBRANCH  62  66
ENDBRANCH  45  59
BRANCH  46  70
ATOM     70  C   UNL A   1      42.606  24.213  27.161  1.00  0.00     0.023 A 
ATOM     71  C   UNL A   1      41.990  22.953  27.234  1.00  0.00     0.031 A 
ATOM     72  C   UNL A   1      43.379  24.500  26.021  1.00  0.00     0.131 A 
ATOM     73  C   UNL A   1      42.198  22.011  26.215  1.00  0.00     0.055 A 
ATOM     74  C   UNL A   1      43.534  23.581  24.982  1.00  0.00     0.041 A 
ATOM     75  F   UNL A   1      43.991  25.690  25.898  1.00  0.00    -0.206 F 
ATOM     76  C   UNL A   1      42.954  22.321  25.083  1.00  0.00     0.022 A 
BRANCH  73  77
ATOM     77  S   UNL A   1      41.548  20.331  26.441  1.00  0.00     0.124 S 
ATOM     78  O   UNL A   1      41.999  20.019  27.792  1.00  0.00    -0.237 OA
ATOM     79  O   UNL A   1      40.113  20.537  26.273  1.00  0.00    -0.237 OA
ATOM     80  O   UNL A   1      42.196  19.571  25.374  1.00  0.00    -0.744 OA
ENDBRANCH  73  77
ENDBRANCH  46  70
BRANCH  58  81
ATOM     81  C   UNL A   1      46.716  25.788  32.581  1.00  0.00     0.023 A 
ATOM     82  C   UNL A   1      46.725  24.752  33.530  1.00  0.00     0.031 A 
ATOM     83  C   UNL A   1      47.953  26.257  32.103  1.00  0.00     0.131 A 
ATOM     84  C   UNL A   1      47.946  24.255  34.009  1.00  0.00     0.055 A 
ATOM     85  C   UNL A   1      49.164  25.714  32.535  1.00  0.00     0.041 A 
ATOM     86  F   UNL A   1      48.006  27.248  31.198  1.00  0.00    -0.206 F 
ATOM     87  C   UNL A   1      49.165  24.715  33.504  1.00  0.00     0.022 A 
BRANCH  84  88
ATOM     88  S   UNL A   1      47.927  23.059  35.374  1.00  0.00     0.124 S 
ATOM     89  O   UNL A   1      49.349  22.791  35.563  1.00  0.00    -0.237 OA
ATOM     90  O   UNL A   1      47.273  23.811  36.439  1.00  0.00    -0.237 OA
ATOM     91  O   UNL A   1      47.151  21.941  34.839  1.00  0.00    -0.744 OA
ENDBRANCH  84  88
ENDBRANCH  58  81
ENDBRANCH  32  33
ENDBRANCH  24  27
ENDBRANCH  22  23
ENDBRANCH  21  22
ENDBRANCH   1  21
TORSDOF 18
ENDMDL
