MODEL 1
REMARK VINA RESULT:     -11.8      0.000      0.000
REMARK SMILES [H]/N=c1\ccc2c(C)c(CC(=O)NCCCCCCNC(=O)c3ccc(-c4c5nc(c(-c6cc(S(=O)(=O)[O-])ccc6F)c6ccc([nH]6)c(-c6cc(S(=O)(=O)[O-])ccc6F)c6nc(c(-c7cc(S(=O)(=O)[O-])ccc7F)c7ccc4[nH]7)C=C6)C=C5)cc3)c(O)oc-2c1
REMARK SMILES IDX 17 1 16 2 15 3 14 4 13 5 11 6 12 7 10 9 9 10 8 11 7 12 6 13
REMARK SMILES IDX 5 14 89 15 86 16 4 17 90 18 88 19 3 20 2 21 1 22 87 23 18 25
REMARK SMILES IDX 19 26 20 27 21 28 22 30 23 31 24 32 85 33 25 34 84 35 26 36
REMARK SMILES IDX 27 37 28 38 78 39 29 40 83 41 77 42 79 43 30 44 82 45 76 46
REMARK SMILES IDX 75 47 31 49 63 50 43 51 62 52 44 53 47 54 61 55 80 56 45 57
REMARK SMILES IDX 46 58 60 60 81 61 48 62 32 63 33 64 41 65 34 66 40 67 42 68
REMARK SMILES IDX 39 69 35 70 36 71 37 72 38 73 64 74 65 75 73 76 66 77 72 78
REMARK SMILES IDX 74 79 71 80 67 81 68 82 69 83 70 84 49 85 50 86 58 87 51 88
REMARK SMILES IDX 57 89 59 90 56 91 52 92 53 93 54 94 55 95
REMARK H PARENT 13 8 87 24 20 29 79 48 47 59
REMARK Flexibility Score: inf
ROOT
ATOM      1  C   UNL A   1      32.225  27.826  27.267  1.00  0.00     0.002 C 
ENDROOT
BRANCH   1   2
ATOM      2  C   UNL A   1      31.818  26.416  26.826  1.00  0.00     0.002 C 
BRANCH   2   3
ATOM      3  C   UNL A   1      31.398  26.272  25.356  1.00  0.00     0.021 C 
BRANCH   3   4
ATOM      4  C   UNL A   1      30.266  25.272  25.117  1.00  0.00     0.116 C 
BRANCH   4   5
ATOM      5  N   UNL A   1      29.877  24.614  26.351  1.00  0.00    -0.356 N 
ATOM      6  C   UNL A   1      30.032  23.316  26.727  1.00  0.00     0.224 C 
ATOM      7  O   UNL A   1      29.547  22.958  27.804  1.00  0.00    -0.275 OA
ATOM      8  H   UNL A   1      29.434  25.193  27.013  1.00  0.00     0.163 HD
BRANCH   6   9
ATOM      9  C   UNL A   1      30.851  22.346  25.878  1.00  0.00     0.143 C 
BRANCH   9  10
ATOM     10  C   UNL A   1      32.364  22.439  26.001  1.00  0.00     0.046 A 
ATOM     11  C   UNL A   1      32.521  22.430  23.441  1.00  0.00     0.046 C 
ATOM     12  C   UNL A   1      33.199  22.591  24.783  1.00  0.00    -0.029 A 
ATOM     13  C   UNL A   1      34.526  22.854  24.913  1.00  0.00     0.021 A 
ATOM     14  C   UNL A   1      35.396  23.133  23.769  1.00  0.00     0.014 A 
ATOM     15  C   UNL A   1      35.131  22.879  26.247  1.00  0.00     0.140 A 
ATOM     16  C   UNL A   1      32.981  22.414  27.208  1.00  0.00     0.286 A 
ATOM     17  C   UNL A   1      36.702  23.397  23.924  1.00  0.00     0.028 A 
ATOM     18  C   UNL A   1      36.435  23.127  26.427  1.00  0.00     0.075 A 
ATOM     19  O   UNL A   1      34.342  22.600  27.344  1.00  0.00    -0.425 OA
ATOM     20  C   UNL A   1      37.318  23.407  25.275  1.00  0.00     0.058 A 
ATOM     21  N   UNL A   1      38.572  23.646  25.467  1.00  0.00    -0.301 NA
ATOM     22  H   UNL A   1      39.161  23.832  24.701  1.00  0.00     0.188 HD
BRANCH  16  23
ATOM     23  O   UNL A   1      32.313  22.240  28.401  1.00  0.00    -0.480 OA
ATOM     24  H   UNL A   1      31.982  22.983  28.865  1.00  0.00     0.297 HD
ENDBRANCH  16  23
ENDBRANCH   9  10
ENDBRANCH   6   9
ENDBRANCH   4   5
ENDBRANCH   3   4
ENDBRANCH   2   3
ENDBRANCH   1   2
BRANCH   1  25
ATOM     25  C   UNL A   1      31.991  28.929  26.233  1.00  0.00     0.021 C 
BRANCH  25  26
ATOM     26  C   UNL A   1      33.162  29.887  26.040  1.00  0.00     0.116 C 
BRANCH  26  27
ATOM     27  N   UNL A   1      32.957  31.167  26.699  1.00  0.00    -0.352 N 
ATOM     28  C   UNL A   1      33.764  31.797  27.623  1.00  0.00     0.251 C 
ATOM     29  H   UNL A   1      32.133  31.646  26.454  1.00  0.00     0.163 HD
ATOM     30  O   UNL A   1      33.382  32.820  28.187  1.00  0.00    -0.269 OA
BRANCH  28  31
ATOM     31  C   UNL A   1      35.070  31.196  27.958  1.00  0.00     0.039 A 
ATOM     32  C   UNL A   1      35.149  29.858  28.353  1.00  0.00     0.014 A 
ATOM     33  C   UNL A   1      36.208  32.005  27.967  1.00  0.00     0.014 A 
ATOM     34  C   UNL A   1      36.322  29.382  28.929  1.00  0.00     0.010 A 
ATOM     35  C   UNL A   1      37.406  31.503  28.482  1.00  0.00     0.010 A 
ATOM     36  C   UNL A   1      37.453  30.209  29.027  1.00  0.00    -0.014 A 
BRANCH  36  37
ATOM     37  C   UNL A   1      38.656  29.736  29.759  1.00  0.00     0.031 A 
ATOM     38  C   UNL A   1      39.573  28.721  29.129  1.00  0.00     0.074 A 
ATOM     39  C   UNL A   1      38.956  30.259  30.962  1.00  0.00     0.049 A 
ATOM     40  N   UNL A   1      40.654  28.169  29.617  1.00  0.00    -0.248 NA
ATOM     41  C   UNL A   1      39.232  28.267  27.771  1.00  0.00     0.031 C 
ATOM     42  C   UNL A   1      38.164  31.280  31.645  1.00  0.00     0.029 A 
ATOM     43  N   UNL A   1      40.007  30.021  31.811  1.00  0.00    -0.354 N 
ATOM     44  C   UNL A   1      41.117  27.302  28.635  1.00  0.00     0.074 A 
ATOM     45  C   UNL A   1      40.177  27.367  27.538  1.00  0.00     0.031 C 
ATOM     46  C   UNL A   1      38.778  31.612  32.789  1.00  0.00     0.029 A 
ATOM     47  C   UNL A   1      39.967  30.779  32.958  1.00  0.00     0.049 A 
ATOM     48  H   UNL A   1      40.720  29.371  31.618  1.00  0.00     0.167 HD
ATOM     49  C   UNL A   1      42.233  26.534  28.639  1.00  0.00     0.034 A 
ATOM     50  C   UNL A   1      40.782  30.791  34.033  1.00  0.00     0.034 A 
ATOM     51  C   UNL A   1      43.163  26.482  29.737  1.00  0.00     0.049 A 
ATOM     52  C   UNL A   1      41.980  29.878  34.051  1.00  0.00     0.074 A 
ATOM     53  C   UNL A   1      44.312  25.719  29.849  1.00  0.00     0.029 A 
ATOM     54  N   UNL A   1      43.061  27.225  30.905  1.00  0.00    -0.354 N 
ATOM     55  N   UNL A   1      42.397  29.054  33.119  1.00  0.00    -0.248 NA
ATOM     56  C   UNL A   1      42.813  29.887  35.260  1.00  0.00     0.031 C 
ATOM     57  C   UNL A   1      44.880  25.967  31.101  1.00  0.00     0.029 A 
ATOM     58  C   UNL A   1      44.117  26.928  31.748  1.00  0.00     0.049 A 
ATOM     59  H   UNL A   1      42.343  27.869  31.103  1.00  0.00     0.167 HD
ATOM     60  C   UNL A   1      43.548  28.455  33.623  1.00  0.00     0.074 A 
ATOM     61  C   UNL A   1      43.773  29.027  34.935  1.00  0.00     0.031 C 
ATOM     62  C   UNL A   1      44.341  27.514  33.050  1.00  0.00     0.034 A 
BRANCH  49  63
ATOM     63  C   UNL A   1      42.525  25.694  27.422  1.00  0.00     0.023 A 
ATOM     64  C   UNL A   1      42.139  24.341  27.382  1.00  0.00     0.031 A 
ATOM     65  C   UNL A   1      43.262  26.209  26.340  1.00  0.00     0.131 A 
ATOM     66  C   UNL A   1      42.503  23.546  26.287  1.00  0.00     0.055 A 
ATOM     67  C   UNL A   1      43.596  25.420  25.238  1.00  0.00     0.041 A 
ATOM     68  F   UNL A   1      43.649  27.494  26.328  1.00  0.00    -0.206 F 
ATOM     69  C   UNL A   1      43.225  24.079  25.213  1.00  0.00     0.022 A 
BRANCH  66  70
ATOM     70  S   UNL A   1      42.103  21.778  26.235  1.00  0.00     0.124 S 
ATOM     71  O   UNL A   1      43.009  21.300  25.192  1.00  0.00    -0.237 OA
ATOM     72  O   UNL A   1      42.431  21.346  27.591  1.00  0.00    -0.237 OA
ATOM     73  O   UNL A   1      40.686  21.748  25.891  1.00  0.00    -0.744 OA
ENDBRANCH  66  70
ENDBRANCH  49  63
BRANCH  50  74
ATOM     74  C   UNL A   1      40.485  31.743  35.143  1.00  0.00     0.023 A 
ATOM     75  C   UNL A   1      39.537  31.422  36.132  1.00  0.00     0.031 A 
ATOM     76  C   UNL A   1      41.028  33.036  35.140  1.00  0.00     0.131 A 
ATOM     77  C   UNL A   1      39.093  32.411  37.017  1.00  0.00     0.055 A 
ATOM     78  C   UNL A   1      40.636  33.999  36.072  1.00  0.00     0.041 A 
ATOM     79  F   UNL A   1      41.929  33.390  34.211  1.00  0.00    -0.206 F 
ATOM     80  C   UNL A   1      39.647  33.695  37.003  1.00  0.00     0.022 A 
BRANCH  77  81
ATOM     81  S   UNL A   1      37.681  32.107  38.116  1.00  0.00     0.124 S 
ATOM     82  O   UNL A   1      38.237  32.431  39.426  1.00  0.00    -0.237 OA
ATOM     83  O   UNL A   1      36.695  33.053  37.597  1.00  0.00    -0.237 OA
ATOM     84  O   UNL A   1      37.368  30.699  37.894  1.00  0.00    -0.744 OA
ENDBRANCH  77  81
ENDBRANCH  50  74
BRANCH  62  85
ATOM     85  C   UNL A   1      45.541  27.014  33.814  1.00  0.00     0.023 A 
ATOM     86  C   UNL A   1      45.403  25.944  34.718  1.00  0.00     0.031 A 
ATOM     87  C   UNL A   1      46.762  27.711  33.782  1.00  0.00     0.131 A 
ATOM     88  C   UNL A   1      46.451  25.634  35.592  1.00  0.00     0.055 A 
ATOM     89  C   UNL A   1      47.818  27.368  34.627  1.00  0.00     0.041 A 
ATOM     90  F   UNL A   1      46.935  28.743  32.943  1.00  0.00    -0.206 F 
ATOM     91  C   UNL A   1      47.660  26.336  35.549  1.00  0.00     0.022 A 
BRANCH  88  92
ATOM     92  S   UNL A   1      46.256  24.364  36.873  1.00  0.00     0.124 S 
ATOM     93  O   UNL A   1      46.393  23.131  36.102  1.00  0.00    -0.237 OA
ATOM     94  O   UNL A   1      47.368  24.664  37.773  1.00  0.00    -0.237 OA
ATOM     95  O   UNL A   1      44.924  24.611  37.415  1.00  0.00    -0.744 OA
ENDBRANCH  88  92
ENDBRANCH  62  85
ENDBRANCH  36  37
ENDBRANCH  28  31
ENDBRANCH  26  27
ENDBRANCH  25  26
ENDBRANCH   1  25
TORSDOF 18
ENDMDL
MODEL 2
REMARK VINA RESULT:     -11.7      5.073     10.031
REMARK SMILES [H]/N=c1\ccc2c(C)c(CC(=O)NCCCCCCNC(=O)c3ccc(-c4c5nc(c(-c6cc(S(=O)(=O)[O-])ccc6F)c6ccc([nH]6)c(-c6cc(S(=O)(=O)[O-])ccc6F)c6nc(c(-c7cc(S(=O)(=O)[O-])ccc7F)c7ccc4[nH]7)C=C6)C=C5)cc3)c(O)oc-2c1
REMARK SMILES IDX 17 1 16 2 15 3 14 4 13 5 11 6 12 7 10 9 9 10 8 11 7 12 6 13
REMARK SMILES IDX 5 14 89 15 86 16 4 17 90 18 88 19 3 20 2 21 1 22 87 23 18 25
REMARK SMILES IDX 19 26 20 27 21 28 22 30 23 31 24 32 85 33 25 34 84 35 26 36
REMARK SMILES IDX 27 37 28 38 78 39 29 40 83 41 77 42 79 43 30 44 82 45 76 46
REMARK SMILES IDX 75 47 31 49 63 50 43 51 62 52 44 53 47 54 61 55 80 56 45 57
REMARK SMILES IDX 46 58 60 60 81 61 48 62 32 63 33 64 41 65 34 66 40 67 42 68
REMARK SMILES IDX 39 69 35 70 36 71 37 72 38 73 64 74 65 75 73 76 66 77 72 78
REMARK SMILES IDX 74 79 71 80 67 81 68 82 69 83 70 84 49 85 50 86 58 87 51 88
REMARK SMILES IDX 57 89 59 90 56 91 52 92 53 93 54 94 55 95
REMARK H PARENT 13 8 87 24 20 29 79 48 47 59
REMARK Flexibility Score: inf
ROOT
ATOM      1  C   UNL A   1      34.758  21.873  24.618  1.00  0.00     0.002 C 
ENDROOT
BRANCH   1   2
ATOM      2  C   UNL A   1      34.426  23.160  23.855  1.00  0.00     0.002 C 
BRANCH   2   3
ATOM      3  C   UNL A   1      32.986  23.672  24.006  1.00  0.00     0.021 C 
BRANCH   3   4
ATOM      4  C   UNL A   1      32.116  23.487  22.762  1.00  0.00     0.116 C 
BRANCH   4   5
ATOM      5  N   UNL A   1      32.741  24.074  21.592  1.00  0.00    -0.356 N 
ATOM      6  C   UNL A   1      32.527  25.284  21.010  1.00  0.00     0.224 C 
ATOM      7  O   UNL A   1      33.125  25.544  19.962  1.00  0.00    -0.275 OA
ATOM      8  H   UNL A   1      33.420  23.512  21.153  1.00  0.00     0.163 HD
BRANCH   6   9
ATOM      9  C   UNL A   1      31.631  26.328  21.677  1.00  0.00     0.143 C 
BRANCH   9  10
ATOM     10  C   UNL A   1      32.250  27.140  22.803  1.00  0.00     0.046 A 
ATOM     11  C   UNL A   1      30.271  26.481  24.295  1.00  0.00     0.046 C 
ATOM     12  C   UNL A   1      31.628  27.132  24.152  1.00  0.00    -0.029 A 
ATOM     13  C   UNL A   1      32.284  27.711  25.192  1.00  0.00     0.021 A 
ATOM     14  C   UNL A   1      31.799  27.645  26.572  1.00  0.00     0.014 A 
ATOM     15  C   UNL A   1      33.541  28.423  24.949  1.00  0.00     0.140 A 
ATOM     16  C   UNL A   1      33.383  27.861  22.621  1.00  0.00     0.286 A 
ATOM     17  C   UNL A   1      32.468  28.219  27.583  1.00  0.00     0.028 A 
ATOM     18  C   UNL A   1      34.220  29.015  25.939  1.00  0.00     0.075 A 
ATOM     19  O   UNL A   1      34.014  28.519  23.656  1.00  0.00    -0.425 OA
ATOM     20  C   UNL A   1      33.733  28.955  27.333  1.00  0.00     0.058 A 
ATOM     21  N   UNL A   1      34.403  29.529  28.276  1.00  0.00    -0.301 NA
ATOM     22  H   UNL A   1      34.079  29.489  29.205  1.00  0.00     0.188 HD
BRANCH  16  23
ATOM     23  O   UNL A   1      34.026  27.972  21.406  1.00  0.00    -0.480 OA
ATOM     24  H   UNL A   1      33.559  27.803  20.612  1.00  0.00     0.297 HD
ENDBRANCH  16  23
ENDBRANCH   9  10
ENDBRANCH   6   9
ENDBRANCH   4   5
ENDBRANCH   3   4
ENDBRANCH   2   3
ENDBRANCH   1   2
BRANCH   1  25
ATOM     25  C   UNL A   1      35.906  21.984  25.623  1.00  0.00     0.021 C 
BRANCH  25  26
ATOM     26  C   UNL A   1      37.278  22.234  25.005  1.00  0.00     0.116 C 
BRANCH  26  27
ATOM     27  N   UNL A   1      38.259  21.232  25.388  1.00  0.00    -0.352 N 
ATOM     28  C   UNL A   1      39.413  21.396  26.125  1.00  0.00     0.251 C 
ATOM     29  H   UNL A   1      38.075  20.315  25.081  1.00  0.00     0.163 HD
ATOM     30  O   UNL A   1      40.208  20.467  26.250  1.00  0.00    -0.269 OA
BRANCH  28  31
ATOM     31  C   UNL A   1      39.702  22.718  26.715  1.00  0.00     0.039 A 
ATOM     32  C   UNL A   1      39.161  23.876  26.149  1.00  0.00     0.014 A 
ATOM     33  C   UNL A   1      40.596  22.804  27.785  1.00  0.00     0.014 A 
ATOM     34  C   UNL A   1      39.653  25.119  26.531  1.00  0.00     0.010 A 
ATOM     35  C   UNL A   1      41.037  24.058  28.214  1.00  0.00     0.010 A 
ATOM     36  C   UNL A   1      40.619  25.220  27.546  1.00  0.00    -0.014 A 
BRANCH  36  37
ATOM     37  C   UNL A   1      41.232  26.538  27.856  1.00  0.00     0.031 A 
ATOM     38  C   UNL A   1      40.442  27.583  28.598  1.00  0.00     0.074 A 
ATOM     39  C   UNL A   1      42.514  26.774  27.522  1.00  0.00     0.049 A 
ATOM     40  N   UNL A   1      40.793  28.796  28.939  1.00  0.00    -0.248 NA
ATOM     41  C   UNL A   1      39.079  27.217  29.016  1.00  0.00     0.031 C 
ATOM     42  C   UNL A   1      43.386  25.817  26.843  1.00  0.00     0.029 A 
ATOM     43  N   UNL A   1      43.309  27.874  27.722  1.00  0.00    -0.354 N 
ATOM     44  C   UNL A   1      39.698  29.339  29.601  1.00  0.00     0.074 A 
ATOM     45  C   UNL A   1      38.654  28.339  29.578  1.00  0.00     0.031 C 
ATOM     46  C   UNL A   1      44.607  26.355  26.718  1.00  0.00     0.029 A 
ATOM     47  C   UNL A   1      44.589  27.719  27.242  1.00  0.00     0.049 A 
ATOM     48  H   UNL A   1      42.994  28.694  28.166  1.00  0.00     0.167 HD
ATOM     49  C   UNL A   1      39.580  30.554  30.189  1.00  0.00     0.034 A 
ATOM     50  C   UNL A   1      45.625  28.582  27.210  1.00  0.00     0.034 A 
ATOM     51  C   UNL A   1      40.630  31.539  30.209  1.00  0.00     0.049 A 
ATOM     52  C   UNL A   1      45.453  29.954  27.806  1.00  0.00     0.074 A 
ATOM     53  C   UNL A   1      40.602  32.808  30.758  1.00  0.00     0.029 A 
ATOM     54  N   UNL A   1      41.896  31.366  29.666  1.00  0.00    -0.354 N 
ATOM     55  N   UNL A   1      44.406  30.457  28.417  1.00  0.00    -0.248 NA
ATOM     56  C   UNL A   1      46.590  30.878  27.706  1.00  0.00     0.031 C 
ATOM     57  C   UNL A   1      41.834  33.418  30.510  1.00  0.00     0.029 A 
ATOM     58  C   UNL A   1      42.651  32.510  29.855  1.00  0.00     0.049 A 
ATOM     59  H   UNL A   1      42.209  30.549  29.213  1.00  0.00     0.167 HD
ATOM     60  C   UNL A   1      44.762  31.752  28.786  1.00  0.00     0.074 A 
ATOM     61  C   UNL A   1      46.128  31.947  28.347  1.00  0.00     0.031 C 
ATOM     62  C   UNL A   1      44.019  32.690  29.425  1.00  0.00     0.034 A 
BRANCH  49  63
ATOM     63  C   UNL A   1      38.279  30.891  30.872  1.00  0.00     0.023 A 
ATOM     64  C   UNL A   1      37.304  31.657  30.207  1.00  0.00     0.031 A 
ATOM     65  C   UNL A   1      38.043  30.529  32.211  1.00  0.00     0.131 A 
ATOM     66  C   UNL A   1      36.142  32.047  30.888  1.00  0.00     0.055 A 
ATOM     67  C   UNL A   1      36.871  30.894  32.874  1.00  0.00     0.041 A 
ATOM     68  F   UNL A   1      38.940  29.794  32.887  1.00  0.00    -0.206 F 
ATOM     69  C   UNL A   1      35.918  31.666  32.215  1.00  0.00     0.022 A 
BRANCH  66  70
ATOM     70  S   UNL A   1      34.901  33.107  30.097  1.00  0.00     0.124 S 
ATOM     71  O   UNL A   1      35.733  34.173  29.542  1.00  0.00    -0.237 OA
ATOM     72  O   UNL A   1      34.305  32.207  29.115  1.00  0.00    -0.237 OA
ATOM     73  O   UNL A   1      34.029  33.506  31.196  1.00  0.00    -0.744 OA
ENDBRANCH  66  70
ENDBRANCH  49  63
BRANCH  50  74
ATOM     74  C   UNL A   1      46.917  28.122  26.621  1.00  0.00     0.023 A 
ATOM     75  C   UNL A   1      47.150  28.214  25.237  1.00  0.00     0.031 A 
ATOM     76  C   UNL A   1      47.864  27.450  27.410  1.00  0.00     0.131 A 
ATOM     77  C   UNL A   1      48.252  27.561  24.672  1.00  0.00     0.055 A 
ATOM     78  C   UNL A   1      49.001  26.864  26.851  1.00  0.00     0.041 A 
ATOM     79  F   UNL A   1      47.679  27.331  28.733  1.00  0.00    -0.206 F 
ATOM     80  C   UNL A   1      49.188  26.899  25.472  1.00  0.00     0.022 A 
BRANCH  77  81
ATOM     81  S   UNL A   1      48.429  27.428  22.870  1.00  0.00     0.124 S 
ATOM     82  O   UNL A   1      48.344  25.986  22.660  1.00  0.00    -0.237 OA
ATOM     83  O   UNL A   1      47.281  28.203  22.404  1.00  0.00    -0.237 OA
ATOM     84  O   UNL A   1      49.732  28.028  22.606  1.00  0.00    -0.744 OA
ENDBRANCH  77  81
ENDBRANCH  50  74
BRANCH  62  85
ATOM     85  C   UNL A   1      44.638  34.036  29.706  1.00  0.00     0.023 A 
ATOM     86  C   UNL A   1      44.653  35.026  28.704  1.00  0.00     0.031 A 
ATOM     87  C   UNL A   1      45.366  34.268  30.886  1.00  0.00     0.131 A 
ATOM     88  C   UNL A   1      45.425  36.180  28.879  1.00  0.00     0.055 A 
ATOM     89  C   UNL A   1      46.099  35.440  31.072  1.00  0.00     0.041 A 
ATOM     90  F   UNL A   1      45.388  33.349  31.863  1.00  0.00    -0.206 F 
ATOM     91  C   UNL A   1      46.144  36.396  30.060  1.00  0.00     0.022 A 
BRANCH  88  92
ATOM     92  S   UNL A   1      45.591  37.405  27.551  1.00  0.00     0.124 S 
ATOM     93  O   UNL A   1      44.235  37.938  27.457  1.00  0.00    -0.237 OA
ATOM     94  O   UNL A   1      46.585  38.322  28.105  1.00  0.00    -0.237 OA
ATOM     95  O   UNL A   1      46.030  36.621  26.402  1.00  0.00    -0.744 OA
ENDBRANCH  88  92
ENDBRANCH  62  85
ENDBRANCH  36  37
ENDBRANCH  28  31
ENDBRANCH  26  27
ENDBRANCH  25  26
ENDBRANCH   1  25
TORSDOF 18
ENDMDL
MODEL 3
REMARK VINA RESULT:     -11.7      1.429      7.683
REMARK SMILES [H]/N=c1\ccc2c(C)c(CC(=O)NCCCCCCNC(=O)c3ccc(-c4c5nc(c(-c6cc(S(=O)(=O)[O-])ccc6F)c6ccc([nH]6)c(-c6cc(S(=O)(=O)[O-])ccc6F)c6nc(c(-c7cc(S(=O)(=O)[O-])ccc7F)c7ccc4[nH]7)C=C6)C=C5)cc3)c(O)oc-2c1
REMARK SMILES IDX 17 1 16 2 15 3 14 4 13 5 11 6 12 7 10 9 9 10 8 11 7 12 6 13
REMARK SMILES IDX 5 14 89 15 86 16 4 17 90 18 88 19 3 20 2 21 1 22 87 23 18 25
REMARK SMILES IDX 19 26 20 27 21 28 22 30 23 31 24 32 85 33 25 34 84 35 26 36
REMARK SMILES IDX 27 37 28 38 78 39 29 40 83 41 77 42 79 43 30 44 82 45 76 46
REMARK SMILES IDX 75 47 31 49 63 50 43 51 62 52 44 53 47 54 61 55 80 56 45 57
REMARK SMILES IDX 46 58 60 60 81 61 48 62 32 63 33 64 41 65 34 66 40 67 42 68
REMARK SMILES IDX 39 69 35 70 36 71 37 72 38 73 64 74 65 75 73 76 66 77 72 78
REMARK SMILES IDX 74 79 71 80 67 81 68 82 69 83 70 84 49 85 50 86 58 87 51 88
REMARK SMILES IDX 57 89 59 90 56 91 52 92 53 93 54 94 55 95
REMARK H PARENT 13 8 87 24 20 29 79 48 47 59
REMARK Flexibility Score: inf
ROOT
ATOM      1  C   UNL A   1      30.934  30.691  25.181  1.00  0.00     0.002 C 
ENDROOT
BRANCH   1   2
ATOM      2  C   UNL A   1      31.865  29.538  25.572  1.00  0.00     0.002 C 
BRANCH   2   3
ATOM      3  C   UNL A   1      31.417  28.139  25.124  1.00  0.00     0.021 C 
BRANCH   3   4
ATOM      4  C   UNL A   1      32.140  26.989  25.827  1.00  0.00     0.116 C 
BRANCH   4   5
ATOM      5  N   UNL A   1      31.204  26.131  26.530  1.00  0.00    -0.356 N 
ATOM      6  C   UNL A   1      30.573  25.004  26.103  1.00  0.00     0.224 C 
ATOM      7  O   UNL A   1      29.749  24.475  26.855  1.00  0.00    -0.275 OA
ATOM      8  H   UNL A   1      30.994  26.406  27.451  1.00  0.00     0.163 HD
BRANCH   6   9
ATOM      9  C   UNL A   1      30.932  24.364  24.763  1.00  0.00     0.143 C 
BRANCH   9  10
ATOM     10  C   UNL A   1      32.077  23.364  24.767  1.00  0.00     0.046 A 
ATOM     11  C   UNL A   1      33.386  24.937  23.220  1.00  0.00     0.046 C 
ATOM     12  C   UNL A   1      33.353  23.696  24.084  1.00  0.00    -0.029 A 
ATOM     13  C   UNL A   1      34.428  22.879  24.245  1.00  0.00     0.021 A 
ATOM     14  C   UNL A   1      35.751  23.193  23.705  1.00  0.00     0.014 A 
ATOM     15  C   UNL A   1      34.282  21.634  25.003  1.00  0.00     0.140 A 
ATOM     16  C   UNL A   1      31.979  22.174  25.407  1.00  0.00     0.286 A 
ATOM     17  C   UNL A   1      36.798  22.375  23.884  1.00  0.00     0.028 A 
ATOM     18  C   UNL A   1      35.309  20.793  25.184  1.00  0.00     0.075 A 
ATOM     19  O   UNL A   1      33.042  21.301  25.508  1.00  0.00    -0.425 OA
ATOM     20  C   UNL A   1      36.646  21.104  24.637  1.00  0.00     0.058 A 
ATOM     21  N   UNL A   1      37.626  20.283  24.824  1.00  0.00    -0.301 NA
ATOM     22  H   UNL A   1      38.517  20.489  24.461  1.00  0.00     0.188 HD
BRANCH  16  23
ATOM     23  O   UNL A   1      30.833  21.744  26.042  1.00  0.00    -0.480 OA
ATOM     24  H   UNL A   1      30.229  21.187  25.592  1.00  0.00     0.297 HD
ENDBRANCH  16  23
ENDBRANCH   9  10
ENDBRANCH   6   9
ENDBRANCH   4   5
ENDBRANCH   3   4
ENDBRANCH   2   3
ENDBRANCH   1   2
BRANCH   1  25
ATOM     25  C   UNL A   1      30.965  31.904  26.113  1.00  0.00     0.021 C 
BRANCH  25  26
ATOM     26  C   UNL A   1      32.262  32.079  26.895  1.00  0.00     0.116 C 
BRANCH  26  27
ATOM     27  N   UNL A   1      32.459  33.443  27.360  1.00  0.00    -0.352 N 
ATOM     28  C   UNL A   1      33.511  33.961  28.085  1.00  0.00     0.251 C 
ATOM     29  H   UNL A   1      31.747  34.081  27.125  1.00  0.00     0.163 HD
ATOM     30  O   UNL A   1      33.463  35.111  28.515  1.00  0.00    -0.269 OA
BRANCH  28  31
ATOM     31  C   UNL A   1      34.670  33.095  28.379  1.00  0.00     0.039 A 
ATOM     32  C   UNL A   1      34.489  31.871  29.029  1.00  0.00     0.014 A 
ATOM     33  C   UNL A   1      35.955  33.558  28.087  1.00  0.00     0.014 A 
ATOM     34  C   UNL A   1      35.592  31.201  29.547  1.00  0.00     0.010 A 
ATOM     35  C   UNL A   1      37.065  32.845  28.548  1.00  0.00     0.010 A 
ATOM     36  C   UNL A   1      36.889  31.698  29.337  1.00  0.00    -0.014 A 
BRANCH  36  37
ATOM     37  C   UNL A   1      38.047  31.047  30.002  1.00  0.00     0.031 A 
ATOM     38  C   UNL A   1      38.378  31.373  31.434  1.00  0.00     0.074 A 
ATOM     39  C   UNL A   1      38.766  30.122  29.339  1.00  0.00     0.049 A 
ATOM     40  N   UNL A   1      39.359  30.930  32.177  1.00  0.00    -0.248 NA
ATOM     41  C   UNL A   1      37.489  32.322  32.125  1.00  0.00     0.031 C 
ATOM     42  C   UNL A   1      38.506  29.695  27.965  1.00  0.00     0.029 A 
ATOM     43  N   UNL A   1      39.842  29.366  29.731  1.00  0.00    -0.354 N 
ATOM     44  C   UNL A   1      39.211  31.547  33.414  1.00  0.00     0.074 A 
ATOM     45  C   UNL A   1      38.070  32.429  33.310  1.00  0.00     0.031 C 
ATOM     46  C   UNL A   1      39.371  28.724  27.642  1.00  0.00     0.029 A 
ATOM     47  C   UNL A   1      40.292  28.508  28.755  1.00  0.00     0.049 A 
ATOM     48  H   UNL A   1      40.250  29.431  30.624  1.00  0.00     0.167 HD
ATOM     49  C   UNL A   1      39.948  31.379  34.538  1.00  0.00     0.034 A 
ATOM     50  C   UNL A   1      41.338  27.657  28.749  1.00  0.00     0.034 A 
ATOM     51  C   UNL A   1      41.080  30.493  34.629  1.00  0.00     0.049 A 
ATOM     52  C   UNL A   1      42.190  27.536  29.985  1.00  0.00     0.074 A 
ATOM     53  C   UNL A   1      41.906  30.269  35.715  1.00  0.00     0.029 A 
ATOM     54  N   UNL A   1      41.538  29.679  33.603  1.00  0.00    -0.354 N 
ATOM     55  N   UNL A   1      42.045  28.136  31.143  1.00  0.00    -0.248 NA
ATOM     56  C   UNL A   1      43.348  26.634  29.918  1.00  0.00     0.031 C 
ATOM     57  C   UNL A   1      42.890  29.354  35.334  1.00  0.00     0.029 A 
ATOM     58  C   UNL A   1      42.644  28.963  34.026  1.00  0.00     0.049 A 
ATOM     59  H   UNL A   1      41.135  29.620  32.706  1.00  0.00     0.167 HD
ATOM     60  C   UNL A   1      43.084  27.676  31.947  1.00  0.00     0.074 A 
ATOM     61  C   UNL A   1      43.839  26.732  31.150  1.00  0.00     0.031 C 
ATOM     62  C   UNL A   1      43.383  28.012  33.227  1.00  0.00     0.034 A 
BRANCH  49  63
ATOM     63  C   UNL A   1      39.556  32.157  35.769  1.00  0.00     0.023 A 
ATOM     64  C   UNL A   1      38.691  31.590  36.723  1.00  0.00     0.031 A 
ATOM     65  C   UNL A   1      39.969  33.489  35.952  1.00  0.00     0.131 A 
ATOM     66  C   UNL A   1      38.257  32.358  37.812  1.00  0.00     0.055 A 
ATOM     67  C   UNL A   1      39.557  34.240  37.054  1.00  0.00     0.041 A 
ATOM     68  F   UNL A   1      40.799  34.074  35.073  1.00  0.00    -0.206 F 
ATOM     69  C   UNL A   1      38.689  33.678  37.985  1.00  0.00     0.022 A 
BRANCH  66  70
ATOM     70  S   UNL A   1      37.074  31.697  39.017  1.00  0.00     0.124 S 
ATOM     71  O   UNL A   1      37.832  31.798  40.263  1.00  0.00    -0.237 OA
ATOM     72  O   UNL A   1      35.954  32.627  38.893  1.00  0.00    -0.237 OA
ATOM     73  O   UNL A   1      36.818  30.340  38.550  1.00  0.00    -0.744 OA
ENDBRANCH  66  70
ENDBRANCH  49  63
BRANCH  50  74
ATOM     74  C   UNL A   1      41.582  26.836  27.527  1.00  0.00     0.023 A 
ATOM     75  C   UNL A   1      41.213  25.478  27.487  1.00  0.00     0.031 A 
ATOM     76  C   UNL A   1      42.319  27.354  26.451  1.00  0.00     0.131 A 
ATOM     77  C   UNL A   1      41.664  24.665  26.440  1.00  0.00     0.055 A 
ATOM     78  C   UNL A   1      42.704  26.555  25.372  1.00  0.00     0.041 A 
ATOM     79  F   UNL A   1      42.700  28.640  26.450  1.00  0.00    -0.206 F 
ATOM     80  C   UNL A   1      42.395  25.198  25.374  1.00  0.00     0.022 A 
BRANCH  77  81
ATOM     81  S   UNL A   1      41.440  22.865  26.501  1.00  0.00     0.124 S 
ATOM     82  O   UNL A   1      42.167  22.425  25.313  1.00  0.00    -0.237 OA
ATOM     83  O   UNL A   1      42.064  22.534  27.781  1.00  0.00    -0.237 OA
ATOM     84  O   UNL A   1      39.992  22.695  26.453  1.00  0.00    -0.744 OA
ENDBRANCH  77  81
ENDBRANCH  50  74
BRANCH  62  85
ATOM     85  C   UNL A   1      44.581  27.373  33.883  1.00  0.00     0.023 A 
ATOM     86  C   UNL A   1      44.415  26.230  34.689  1.00  0.00     0.031 A 
ATOM     87  C   UNL A   1      45.841  27.997  33.858  1.00  0.00     0.131 A 
ATOM     88  C   UNL A   1      45.477  25.777  35.479  1.00  0.00     0.055 A 
ATOM     89  C   UNL A   1      46.908  27.514  34.615  1.00  0.00     0.041 A 
ATOM     90  F   UNL A   1      46.042  29.094  33.112  1.00  0.00    -0.206 F 
ATOM     91  C   UNL A   1      46.725  26.408  35.443  1.00  0.00     0.022 A 
BRANCH  88  92
ATOM     92  S   UNL A   1      45.258  24.403  36.643  1.00  0.00     0.124 S 
ATOM     93  O   UNL A   1      44.365  24.988  37.640  1.00  0.00    -0.237 OA
ATOM     94  O   UNL A   1      44.658  23.376  35.794  1.00  0.00    -0.237 OA
ATOM     95  O   UNL A   1      46.609  24.120  37.112  1.00  0.00    -0.744 OA
ENDBRANCH  88  92
ENDBRANCH  62  85
ENDBRANCH  36  37
ENDBRANCH  28  31
ENDBRANCH  26  27
ENDBRANCH  25  26
ENDBRANCH   1  25
TORSDOF 18
ENDMDL
