MODEL 1
REMARK VINA RESULT:     -12.1      0.000      0.000
REMARK SMILES Cc1ccc(S(=O)(=O)Nc2cc3c(cc2C(=O)NCCCCCCNC(=O)c2ccc(-c4c5nc(c(-c6cc(S(=O)(=O)[O-])ccc6F)c6ccc([nH]6)c(-c6cc(S(=O)(=O)[O-])ccc6F)c6nc(c(-c7cc(S(=O)(=O)[O-])ccc7F)c7ccc4[nH]7)C=C6)C=C5)cc2)OCCO3)s1
REMARK SMILES IDX 21 1 20 2 19 3 18 4 16 5 17 6 15 8 10 9 11 10 12 11 14 12
REMARK SMILES IDX 13 13 94 14 91 15 93 16 92 17 9 18 6 20 7 21 8 22 5 23 1 24
REMARK SMILES IDX 2 25 3 26 95 27 4 28 22 29 23 30 24 31 25 32 26 33 27 35
REMARK SMILES IDX 28 36 29 37 90 38 30 39 89 40 31 41 32 42 33 43 83 44 34 45
REMARK SMILES IDX 88 46 82 47 84 48 35 49 87 50 81 51 80 52 36 54 68 55 48 56
REMARK SMILES IDX 67 57 49 58 52 59 66 60 85 61 50 62 51 63 65 65 86 66 53 67
REMARK SMILES IDX 37 68 38 69 46 70 39 71 45 72 47 73 44 74 40 75 41 76 42 77
REMARK SMILES IDX 43 78 69 79 70 80 78 81 71 82 77 83 79 84 76 85 72 86 73 87
REMARK SMILES IDX 74 88 75 89 54 90 55 91 63 92 56 93 62 94 64 95 61 96 57 97
REMARK SMILES IDX 58 98 59 99 60 100
REMARK H PARENT 18 7 9 19 25 34 84 53 52 64
REMARK Flexibility Score: inf
ROOT
ATOM      1  C   UNL A   1      33.049  29.134  27.291  1.00  0.00     0.002 C 
ENDROOT
BRANCH   1   2
ATOM      2  C   UNL A   1      34.006  28.493  26.287  1.00  0.00     0.021 C 
BRANCH   2   3
ATOM      3  C   UNL A   1      33.645  28.583  24.808  1.00  0.00     0.116 C 
BRANCH   3   4
ATOM      4  N   UNL A   1      33.819  27.351  24.061  1.00  0.00    -0.352 N 
ATOM      5  C   UNL A   1      32.913  26.603  23.345  1.00  0.00     0.253 C 
ATOM      6  O   UNL A   1      33.328  25.665  22.669  1.00  0.00    -0.269 OA
ATOM      7  H   UNL A   1      34.736  26.992  24.067  1.00  0.00     0.163 HD
BRANCH   5   8
ATOM      8  C   UNL A   1      31.455  26.895  23.395  1.00  0.00     0.067 A 
ATOM      9  C   UNL A   1      30.558  25.990  24.002  1.00  0.00     0.066 A 
ATOM     10  C   UNL A   1      29.195  26.305  24.083  1.00  0.00     0.078 A 
ATOM     11  C   UNL A   1      28.728  27.517  23.575  1.00  0.00     0.163 A 
ATOM     12  C   UNL A   1      30.956  28.065  22.810  1.00  0.00     0.066 A 
ATOM     13  C   UNL A   1      29.613  28.400  22.953  1.00  0.00     0.162 A 
ATOM     14  O   UNL A   1      27.393  27.787  23.735  1.00  0.00    -0.486 OA
ATOM     15  O   UNL A   1      29.238  29.627  22.473  1.00  0.00    -0.486 OA
ATOM     16  C   UNL A   1      26.976  28.923  22.964  1.00  0.00     0.271 C 
ATOM     17  C   UNL A   1      27.995  30.045  23.052  1.00  0.00     0.271 C 
BRANCH   9  18
ATOM     18  N   UNL A   1      31.026  24.751  24.551  1.00  0.00    -0.278 N 
ATOM     19  H   UNL A   1      31.224  23.985  23.966  1.00  0.00     0.180 HD
BRANCH  18  20
ATOM     20  S   UNL A   1      31.228  24.635  26.222  1.00  0.00     0.271 S 
ATOM     21  O   UNL A   1      30.034  24.031  26.762  1.00  0.00    -0.200 OA
ATOM     22  O   UNL A   1      31.661  25.941  26.686  1.00  0.00    -0.200 OA
BRANCH  20  23
ATOM     23  C   UNL A   1      32.609  23.568  26.573  1.00  0.00     0.140 A 
ATOM     24  C   UNL A   1      36.161  21.999  25.998  1.00  0.00     0.056 C 
ATOM     25  C   UNL A   1      34.797  22.433  26.416  1.00  0.00     0.003 A 
ATOM     26  C   UNL A   1      34.013  21.911  27.426  1.00  0.00     0.016 A 
ATOM     27  S   UNL A   1      34.015  23.729  25.618  1.00  0.00    -0.127 S 
ATOM     28  C   UNL A   1      32.756  22.567  27.517  1.00  0.00     0.034 A 
ENDBRANCH  20  23
ENDBRANCH  18  20
ENDBRANCH   9  18
ENDBRANCH   5   8
ENDBRANCH   3   4
ENDBRANCH   2   3
ENDBRANCH   1   2
BRANCH   1  29
ATOM     29  C   UNL A   1      31.804  29.809  26.718  1.00  0.00     0.002 C 
BRANCH  29  30
ATOM     30  C   UNL A   1      31.882  31.322  26.506  1.00  0.00     0.021 C 
BRANCH  30  31
ATOM     31  C   UNL A   1      33.027  32.048  27.207  1.00  0.00     0.116 C 
BRANCH  31  32
ATOM     32  N   UNL A   1      32.705  33.416  27.565  1.00  0.00    -0.352 N 
ATOM     33  C   UNL A   1      33.279  34.228  28.514  1.00  0.00     0.251 C 
ATOM     34  H   UNL A   1      31.969  33.823  27.053  1.00  0.00     0.163 HD
ATOM     35  O   UNL A   1      32.786  35.329  28.746  1.00  0.00    -0.269 OA
BRANCH  33  36
ATOM     36  C   UNL A   1      34.460  33.767  29.281  1.00  0.00     0.039 A 
ATOM     37  C   UNL A   1      34.258  32.928  30.381  1.00  0.00     0.014 A 
ATOM     38  C   UNL A   1      35.757  34.158  28.931  1.00  0.00     0.014 A 
ATOM     39  C   UNL A   1      35.355  32.423  31.084  1.00  0.00     0.010 A 
ATOM     40  C   UNL A   1      36.852  33.607  29.598  1.00  0.00     0.010 A 
ATOM     41  C   UNL A   1      36.663  32.729  30.677  1.00  0.00    -0.014 A 
BRANCH  41  42
ATOM     42  C   UNL A   1      37.841  32.132  31.360  1.00  0.00     0.031 A 
ATOM     43  C   UNL A   1      38.612  31.017  30.707  1.00  0.00     0.074 A 
ATOM     44  C   UNL A   1      38.178  32.550  32.597  1.00  0.00     0.049 A 
ATOM     45  N   UNL A   1      39.611  30.315  31.178  1.00  0.00    -0.248 NA
ATOM     46  C   UNL A   1      38.182  30.625  29.357  1.00  0.00     0.031 C 
ATOM     47  C   UNL A   1      37.485  33.598  33.350  1.00  0.00     0.029 A 
ATOM     48  N   UNL A   1      39.176  32.139  33.443  1.00  0.00    -0.354 N 
ATOM     49  C   UNL A   1      39.923  29.388  30.188  1.00  0.00     0.074 A 
ATOM     50  C   UNL A   1      38.971  29.588  29.115  1.00  0.00     0.031 C 
ATOM     51  C   UNL A   1      38.087  33.753  34.541  1.00  0.00     0.029 A 
ATOM     52  C   UNL A   1      39.180  32.793  34.653  1.00  0.00     0.049 A 
ATOM     53  H   UNL A   1      39.827  31.439  33.207  1.00  0.00     0.167 HD
ATOM     54  C   UNL A   1      40.921  28.469  30.170  1.00  0.00     0.034 A 
ATOM     55  C   UNL A   1      39.966  32.629  35.736  1.00  0.00     0.034 A 
ATOM     56  C   UNL A   1      41.871  28.289  31.240  1.00  0.00     0.049 A 
ATOM     57  C   UNL A   1      41.060  31.594  35.697  1.00  0.00     0.074 A 
ATOM     58  C   UNL A   1      42.955  27.429  31.297  1.00  0.00     0.029 A 
ATOM     59  N   UNL A   1      41.851  28.977  32.446  1.00  0.00    -0.354 N 
ATOM     60  N   UNL A   1      41.368  30.755  34.736  1.00  0.00    -0.248 NA
ATOM     61  C   UNL A   1      41.917  31.491  36.886  1.00  0.00     0.031 C 
ATOM     62  C   UNL A   1      43.552  27.555  32.557  1.00  0.00     0.029 A 
ATOM     63  C   UNL A   1      42.883  28.541  33.264  1.00  0.00     0.049 A 
ATOM     64  H   UNL A   1      41.198  29.674  32.686  1.00  0.00     0.167 HD
ATOM     65  C   UNL A   1      42.472  30.042  35.196  1.00  0.00     0.074 A 
ATOM     66  C   UNL A   1      42.781  30.559  36.514  1.00  0.00     0.031 C 
ATOM     67  C   UNL A   1      43.170  29.054  34.582  1.00  0.00     0.034 A 
BRANCH  54  68
ATOM     68  C   UNL A   1      41.010  27.570  28.959  1.00  0.00     0.023 A 
ATOM     69  C   UNL A   1      41.998  27.751  27.976  1.00  0.00     0.031 A 
ATOM     70  C   UNL A   1      40.078  26.534  28.772  1.00  0.00     0.131 A 
ATOM     71  C   UNL A   1      41.985  26.962  26.815  1.00  0.00     0.055 A 
ATOM     72  C   UNL A   1      40.119  25.700  27.652  1.00  0.00     0.041 A 
ATOM     73  F   UNL A   1      39.100  26.324  29.668  1.00  0.00    -0.206 F 
ATOM     74  C   UNL A   1      41.067  25.922  26.657  1.00  0.00     0.022 A 
BRANCH  71  75
ATOM     75  S   UNL A   1      43.097  27.408  25.453  1.00  0.00     0.124 S 
ATOM     76  O   UNL A   1      43.355  26.104  24.848  1.00  0.00    -0.237 OA
ATOM     77  O   UNL A   1      42.282  28.327  24.669  1.00  0.00    -0.237 OA
ATOM     78  O   UNL A   1      44.243  28.010  26.130  1.00  0.00    -0.744 OA
ENDBRANCH  71  75
ENDBRANCH  54  68
BRANCH  55  79
ATOM     79  C   UNL A   1      39.743  33.452  36.958  1.00  0.00     0.023 A 
ATOM     80  C   UNL A   1      39.080  32.923  38.076  1.00  0.00     0.031 A 
ATOM     81  C   UNL A   1      40.158  34.795  37.010  1.00  0.00     0.131 A 
ATOM     82  C   UNL A   1      38.814  33.742  39.183  1.00  0.00     0.055 A 
ATOM     83  C   UNL A   1      39.932  35.593  38.132  1.00  0.00     0.041 A 
ATOM     84  F   UNL A   1      40.803  35.347  35.970  1.00  0.00    -0.206 F 
ATOM     85  C   UNL A   1      39.245  35.070  39.223  1.00  0.00     0.022 A 
BRANCH  82  86
ATOM     86  S   UNL A   1      37.828  33.065  40.547  1.00  0.00     0.124 S 
ATOM     87  O   UNL A   1      36.513  32.938  39.929  1.00  0.00    -0.237 OA
ATOM     88  O   UNL A   1      38.526  31.816  40.833  1.00  0.00    -0.237 OA
ATOM     89  O   UNL A   1      37.935  34.088  41.585  1.00  0.00    -0.744 OA
ENDBRANCH  82  86
ENDBRANCH  55  79
BRANCH  67  90
ATOM     90  C   UNL A   1      44.359  28.498  35.325  1.00  0.00     0.023 A 
ATOM     91  C   UNL A   1      44.233  27.416  36.213  1.00  0.00     0.031 A 
ATOM     92  C   UNL A   1      45.630  29.076  35.156  1.00  0.00     0.131 A 
ATOM     93  C   UNL A   1      45.351  26.977  36.940  1.00  0.00     0.055 A 
ATOM     94  C   UNL A   1      46.748  28.602  35.843  1.00  0.00     0.041 A 
ATOM     95  F   UNL A   1      45.803  30.113  34.321  1.00  0.00    -0.206 F 
ATOM     96  C   UNL A   1      46.610  27.554  36.750  1.00  0.00     0.022 A 
BRANCH  93  97
ATOM     97  S   UNL A   1      45.122  25.693  38.201  1.00  0.00     0.124 S 
ATOM     98  O   UNL A   1      43.907  25.029  37.739  1.00  0.00    -0.237 OA
ATOM     99  O   UNL A   1      46.354  24.919  38.086  1.00  0.00    -0.237 OA
ATOM    100  O   UNL A   1      44.981  26.452  39.441  1.00  0.00    -0.744 OA
ENDBRANCH  93  97
ENDBRANCH  67  90
ENDBRANCH  41  42
ENDBRANCH  33  36
ENDBRANCH  31  32
ENDBRANCH  30  31
ENDBRANCH  29  30
ENDBRANCH   1  29
TORSDOF 19
ENDMDL
MODEL 2
REMARK VINA RESULT:     -12.0      1.644      2.219
REMARK SMILES Cc1ccc(S(=O)(=O)Nc2cc3c(cc2C(=O)NCCCCCCNC(=O)c2ccc(-c4c5nc(c(-c6cc(S(=O)(=O)[O-])ccc6F)c6ccc([nH]6)c(-c6cc(S(=O)(=O)[O-])ccc6F)c6nc(c(-c7cc(S(=O)(=O)[O-])ccc7F)c7ccc4[nH]7)C=C6)C=C5)cc2)OCCO3)s1
REMARK SMILES IDX 21 1 20 2 19 3 18 4 16 5 17 6 15 8 10 9 11 10 12 11 14 12
REMARK SMILES IDX 13 13 94 14 91 15 93 16 92 17 9 18 6 20 7 21 8 22 5 23 1 24
REMARK SMILES IDX 2 25 3 26 95 27 4 28 22 29 23 30 24 31 25 32 26 33 27 35
REMARK SMILES IDX 28 36 29 37 90 38 30 39 89 40 31 41 32 42 33 43 83 44 34 45
REMARK SMILES IDX 88 46 82 47 84 48 35 49 87 50 81 51 80 52 36 54 68 55 48 56
REMARK SMILES IDX 67 57 49 58 52 59 66 60 85 61 50 62 51 63 65 65 86 66 53 67
REMARK SMILES IDX 37 68 38 69 46 70 39 71 45 72 47 73 44 74 40 75 41 76 42 77
REMARK SMILES IDX 43 78 69 79 70 80 78 81 71 82 77 83 79 84 76 85 72 86 73 87
REMARK SMILES IDX 74 88 75 89 54 90 55 91 63 92 56 93 62 94 64 95 61 96 57 97
REMARK SMILES IDX 58 98 59 99 60 100
REMARK H PARENT 18 7 9 19 25 34 84 53 52 64
REMARK Flexibility Score: inf
ROOT
ATOM      1  C   UNL A   1      33.681  30.213  26.917  1.00  0.00     0.002 C 
ENDROOT
BRANCH   1   2
ATOM      2  C   UNL A   1      34.176  28.797  27.212  1.00  0.00     0.021 C 
BRANCH   2   3
ATOM      3  C   UNL A   1      33.903  27.720  26.168  1.00  0.00     0.116 C 
BRANCH   3   4
ATOM      4  N   UNL A   1      32.877  26.761  26.534  1.00  0.00    -0.352 N 
ATOM      5  C   UNL A   1      31.703  26.420  25.902  1.00  0.00     0.253 C 
ATOM      6  O   UNL A   1      31.060  25.466  26.332  1.00  0.00    -0.269 OA
ATOM      7  H   UNL A   1      33.049  26.275  27.373  1.00  0.00     0.163 HD
BRANCH   5   8
ATOM      8  C   UNL A   1      31.198  27.193  24.735  1.00  0.00     0.067 A 
ATOM      9  C   UNL A   1      31.103  26.595  23.461  1.00  0.00     0.066 A 
ATOM     10  C   UNL A   1      30.580  27.324  22.384  1.00  0.00     0.078 A 
ATOM     11  C   UNL A   1      30.143  28.635  22.576  1.00  0.00     0.163 A 
ATOM     12  C   UNL A   1      30.840  28.537  24.890  1.00  0.00     0.066 A 
ATOM     13  C   UNL A   1      30.261  29.233  23.833  1.00  0.00     0.162 A 
ATOM     14  O   UNL A   1      29.592  29.273  21.494  1.00  0.00    -0.486 OA
ATOM     15  O   UNL A   1      29.812  30.497  24.109  1.00  0.00    -0.486 OA
ATOM     16  C   UNL A   1      29.414  30.678  21.730  1.00  0.00     0.271 C 
ATOM     17  C   UNL A   1      28.867  30.932  23.124  1.00  0.00     0.271 C 
BRANCH   9  18
ATOM     18  N   UNL A   1      31.524  25.241  23.252  1.00  0.00    -0.278 N 
ATOM     19  H   UNL A   1      30.893  24.495  23.371  1.00  0.00     0.180 HD
BRANCH  18  20
ATOM     20  S   UNL A   1      33.123  24.954  22.798  1.00  0.00     0.271 S 
ATOM     21  O   UNL A   1      33.867  26.166  23.044  1.00  0.00    -0.200 OA
ATOM     22  O   UNL A   1      33.086  24.376  21.466  1.00  0.00    -0.200 OA
BRANCH  20  23
ATOM     23  C   UNL A   1      33.800  23.660  23.817  1.00  0.00     0.140 A 
ATOM     24  C   UNL A   1      36.506  21.070  24.988  1.00  0.00     0.056 C 
ATOM     25  C   UNL A   1      35.334  21.955  24.732  1.00  0.00     0.003 A 
ATOM     26  C   UNL A   1      34.102  21.933  25.356  1.00  0.00     0.016 A 
ATOM     27  S   UNL A   1      35.417  23.187  23.546  1.00  0.00    -0.127 S 
ATOM     28  C   UNL A   1      33.221  22.917  24.830  1.00  0.00     0.034 A 
ENDBRANCH  20  23
ENDBRANCH  18  20
ENDBRANCH   9  18
ENDBRANCH   5   8
ENDBRANCH   3   4
ENDBRANCH   2   3
ENDBRANCH   1   2
BRANCH   1  29
ATOM     29  C   UNL A   1      32.186  30.469  27.098  1.00  0.00     0.002 C 
BRANCH  29  30
ATOM     30  C   UNL A   1      31.728  31.927  27.034  1.00  0.00     0.021 C 
BRANCH  30  31
ATOM     31  C   UNL A   1      32.828  32.979  26.931  1.00  0.00     0.116 C 
BRANCH  31  32
ATOM     32  N   UNL A   1      32.548  34.177  27.700  1.00  0.00    -0.352 N 
ATOM     33  C   UNL A   1      33.147  34.637  28.849  1.00  0.00     0.251 C 
ATOM     34  H   UNL A   1      31.825  34.744  27.347  1.00  0.00     0.163 HD
ATOM     35  O   UNL A   1      32.688  35.624  29.417  1.00  0.00    -0.269 OA
BRANCH  33  36
ATOM     36  C   UNL A   1      34.313  33.925  29.423  1.00  0.00     0.039 A 
ATOM     37  C   UNL A   1      35.597  34.389  29.118  1.00  0.00     0.014 A 
ATOM     38  C   UNL A   1      34.154  32.808  30.250  1.00  0.00     0.014 A 
ATOM     39  C   UNL A   1      36.714  33.781  29.696  1.00  0.00     0.010 A 
ATOM     40  C   UNL A   1      35.266  32.240  30.872  1.00  0.00     0.010 A 
ATOM     41  C   UNL A   1      36.558  32.724  30.606  1.00  0.00    -0.014 A 
BRANCH  41  42
ATOM     42  C   UNL A   1      37.730  32.122  31.297  1.00  0.00     0.031 A 
ATOM     43  C   UNL A   1      38.497  31.002  30.650  1.00  0.00     0.074 A 
ATOM     44  C   UNL A   1      38.063  32.543  32.533  1.00  0.00     0.049 A 
ATOM     45  N   UNL A   1      39.491  30.295  31.128  1.00  0.00    -0.248 NA
ATOM     46  C   UNL A   1      38.072  30.608  29.300  1.00  0.00     0.031 C 
ATOM     47  C   UNL A   1      37.373  33.597  33.281  1.00  0.00     0.029 A 
ATOM     48  N   UNL A   1      39.054  32.128  33.386  1.00  0.00    -0.354 N 
ATOM     49  C   UNL A   1      39.802  29.364  30.143  1.00  0.00     0.074 A 
ATOM     50  C   UNL A   1      38.856  29.566  29.064  1.00  0.00     0.031 C 
ATOM     51  C   UNL A   1      37.970  33.752  34.474  1.00  0.00     0.029 A 
ATOM     52  C   UNL A   1      39.057  32.786  34.594  1.00  0.00     0.049 A 
ATOM     53  H   UNL A   1      39.703  31.424  33.155  1.00  0.00     0.167 HD
ATOM     54  C   UNL A   1      40.795  28.439  30.132  1.00  0.00     0.034 A 
ATOM     55  C   UNL A   1      39.837  32.621  35.681  1.00  0.00     0.034 A 
ATOM     56  C   UNL A   1      41.739  28.257  31.206  1.00  0.00     0.049 A 
ATOM     57  C   UNL A   1      40.925  31.580  35.650  1.00  0.00     0.074 A 
ATOM     58  C   UNL A   1      42.818  27.391  31.272  1.00  0.00     0.029 A 
ATOM     59  N   UNL A   1      41.717  28.949  32.411  1.00  0.00    -0.354 N 
ATOM     60  N   UNL A   1      41.233  30.737  34.693  1.00  0.00    -0.248 NA
ATOM     61  C   UNL A   1      41.776  31.476  36.843  1.00  0.00     0.031 C 
ATOM     62  C   UNL A   1      43.410  27.518  32.534  1.00  0.00     0.029 A 
ATOM     63  C   UNL A   1      42.743  28.510  33.234  1.00  0.00     0.049 A 
ATOM     64  H   UNL A   1      41.067  29.650  32.645  1.00  0.00     0.167 HD
ATOM     65  C   UNL A   1      42.331  30.019  35.160  1.00  0.00     0.074 A 
ATOM     66  C   UNL A   1      42.637  30.538  36.478  1.00  0.00     0.031 C 
ATOM     67  C   UNL A   1      43.026  29.025  34.552  1.00  0.00     0.034 A 
BRANCH  54  68
ATOM     68  C   UNL A   1      40.884  27.536  28.924  1.00  0.00     0.023 A 
ATOM     69  C   UNL A   1      41.863  27.724  27.932  1.00  0.00     0.031 A 
ATOM     70  C   UNL A   1      39.963  26.489  28.749  1.00  0.00     0.131 A 
ATOM     71  C   UNL A   1      41.849  26.930  26.775  1.00  0.00     0.055 A 
ATOM     72  C   UNL A   1      40.004  25.650  27.632  1.00  0.00     0.041 A 
ATOM     73  F   UNL A   1      38.994  26.271  29.653  1.00  0.00    -0.206 F 
ATOM     74  C   UNL A   1      40.942  25.879  26.629  1.00  0.00     0.022 A 
BRANCH  71  75
ATOM     75  S   UNL A   1      42.946  27.382  25.403  1.00  0.00     0.124 S 
ATOM     76  O   UNL A   1      42.169  28.426  24.739  1.00  0.00    -0.237 OA
ATOM     77  O   UNL A   1      44.151  27.823  26.094  1.00  0.00    -0.237 OA
ATOM     78  O   UNL A   1      43.079  26.139  24.647  1.00  0.00    -0.744 OA
ENDBRANCH  71  75
ENDBRANCH  54  68
BRANCH  55  79
ATOM     79  C   UNL A   1      39.613  33.449  36.899  1.00  0.00     0.023 A 
ATOM     80  C   UNL A   1      40.383  34.594  37.148  1.00  0.00     0.031 A 
ATOM     81  C   UNL A   1      38.647  33.081  37.854  1.00  0.00     0.131 A 
ATOM     82  C   UNL A   1      40.206  35.311  38.342  1.00  0.00     0.055 A 
ATOM     83  C   UNL A   1      38.442  33.823  39.017  1.00  0.00     0.041 A 
ATOM     84  F   UNL A   1      37.878  31.998  37.659  1.00  0.00    -0.206 F 
ATOM     85  C   UNL A   1      39.232  34.939  39.272  1.00  0.00     0.022 A 
BRANCH  82  86
ATOM     86  S   UNL A   1      41.318  36.698  38.695  1.00  0.00     0.124 S 
ATOM     87  O   UNL A   1      41.960  36.902  37.402  1.00  0.00    -0.237 OA
ATOM     88  O   UNL A   1      40.382  37.735  39.118  1.00  0.00    -0.237 OA
ATOM     89  O   UNL A   1      42.187  36.179  39.749  1.00  0.00    -0.744 OA
ENDBRANCH  82  86
ENDBRANCH  55  79
BRANCH  67  90
ATOM     90  C   UNL A   1      44.209  28.465  35.302  1.00  0.00     0.023 A 
ATOM     91  C   UNL A   1      44.052  27.497  36.310  1.00  0.00     0.031 A 
ATOM     92  C   UNL A   1      45.507  28.925  35.018  1.00  0.00     0.131 A 
ATOM     93  C   UNL A   1      45.171  27.057  37.034  1.00  0.00     0.055 A 
ATOM     94  C   UNL A   1      46.622  28.445  35.706  1.00  0.00     0.041 A 
ATOM     95  F   UNL A   1      45.711  29.850  34.067  1.00  0.00    -0.206 F 
ATOM     96  C   UNL A   1      46.456  27.514  36.729  1.00  0.00     0.022 A 
BRANCH  93  97
ATOM     97  S   UNL A   1      44.915  25.937  38.437  1.00  0.00     0.124 S 
ATOM     98  O   UNL A   1      46.091  26.207  39.259  1.00  0.00    -0.237 OA
ATOM     99  O   UNL A   1      43.641  26.399  38.978  1.00  0.00    -0.237 OA
ATOM    100  O   UNL A   1      44.882  24.613  37.819  1.00  0.00    -0.744 OA
ENDBRANCH  93  97
ENDBRANCH  67  90
ENDBRANCH  41  42
ENDBRANCH  33  36
ENDBRANCH  31  32
ENDBRANCH  30  31
ENDBRANCH  29  30
ENDBRANCH   1  29
TORSDOF 19
ENDMDL
MODEL 3
REMARK VINA RESULT:     -11.9      1.661      2.248
REMARK SMILES Cc1ccc(S(=O)(=O)Nc2cc3c(cc2C(=O)NCCCCCCNC(=O)c2ccc(-c4c5nc(c(-c6cc(S(=O)(=O)[O-])ccc6F)c6ccc([nH]6)c(-c6cc(S(=O)(=O)[O-])ccc6F)c6nc(c(-c7cc(S(=O)(=O)[O-])ccc7F)c7ccc4[nH]7)C=C6)C=C5)cc2)OCCO3)s1
REMARK SMILES IDX 21 1 20 2 19 3 18 4 16 5 17 6 15 8 10 9 11 10 12 11 14 12
REMARK SMILES IDX 13 13 94 14 91 15 93 16 92 17 9 18 6 20 7 21 8 22 5 23 1 24
REMARK SMILES IDX 2 25 3 26 95 27 4 28 22 29 23 30 24 31 25 32 26 33 27 35
REMARK SMILES IDX 28 36 29 37 90 38 30 39 89 40 31 41 32 42 33 43 83 44 34 45
REMARK SMILES IDX 88 46 82 47 84 48 35 49 87 50 81 51 80 52 36 54 68 55 48 56
REMARK SMILES IDX 67 57 49 58 52 59 66 60 85 61 50 62 51 63 65 65 86 66 53 67
REMARK SMILES IDX 37 68 38 69 46 70 39 71 45 72 47 73 44 74 40 75 41 76 42 77
REMARK SMILES IDX 43 78 69 79 70 80 78 81 71 82 77 83 79 84 76 85 72 86 73 87
REMARK SMILES IDX 74 88 75 89 54 90 55 91 63 92 56 93 62 94 64 95 61 96 57 97
REMARK SMILES IDX 58 98 59 99 60 100
REMARK H PARENT 18 7 9 19 25 34 84 53 52 64
REMARK Flexibility Score: inf
ROOT
ATOM      1  C   UNL A   1      33.756  30.350  27.031  1.00  0.00     0.002 C 
ENDROOT
BRANCH   1   2
ATOM      2  C   UNL A   1      34.282  28.916  26.994  1.00  0.00     0.021 C 
BRANCH   2   3
ATOM      3  C   UNL A   1      33.791  28.011  25.868  1.00  0.00     0.116 C 
BRANCH   3   4
ATOM      4  N   UNL A   1      32.740  27.084  26.245  1.00  0.00    -0.352 N 
ATOM      5  C   UNL A   1      31.539  26.796  25.637  1.00  0.00     0.253 C 
ATOM      6  O   UNL A   1      30.873  25.859  26.067  1.00  0.00    -0.269 OA
ATOM      7  H   UNL A   1      32.915  26.577  27.071  1.00  0.00     0.163 HD
BRANCH   5   8
ATOM      8  C   UNL A   1      31.035  27.607  24.496  1.00  0.00     0.067 A 
ATOM      9  C   UNL A   1      31.018  27.079  23.187  1.00  0.00     0.066 A 
ATOM     10  C   UNL A   1      30.495  27.840  22.133  1.00  0.00     0.078 A 
ATOM     11  C   UNL A   1      29.980  29.113  22.381  1.00  0.00     0.163 A 
ATOM     12  C   UNL A   1      30.598  28.919  24.711  1.00  0.00     0.066 A 
ATOM     13  C   UNL A   1      30.020  29.643  23.672  1.00  0.00     0.162 A 
ATOM     14  O   UNL A   1      29.433  29.782  21.315  1.00  0.00    -0.486 OA
ATOM     15  O   UNL A   1      29.492  30.864  24.001  1.00  0.00    -0.486 OA
ATOM     16  C   UNL A   1      29.170  31.159  21.621  1.00  0.00     0.271 C 
ATOM     17  C   UNL A   1      28.560  31.304  23.005  1.00  0.00     0.271 C 
BRANCH   9  18
ATOM     18  N   UNL A   1      31.520  25.763  22.920  1.00  0.00    -0.278 N 
ATOM     19  H   UNL A   1      30.957  24.971  23.072  1.00  0.00     0.180 HD
BRANCH  18  20
ATOM     20  S   UNL A   1      33.096  25.603  22.342  1.00  0.00     0.271 S 
ATOM     21  O   UNL A   1      33.799  26.825  22.654  1.00  0.00    -0.200 OA
ATOM     22  O   UNL A   1      32.997  25.147  20.966  1.00  0.00    -0.200 OA
BRANCH  20  23
ATOM     23  C   UNL A   1      33.900  24.259  23.189  1.00  0.00     0.140 A 
ATOM     24  C   UNL A   1      36.020  22.574  26.030  1.00  0.00     0.056 C 
ATOM     25  C   UNL A   1      35.207  22.978  24.847  1.00  0.00     0.003 A 
ATOM     26  C   UNL A   1      34.832  22.201  23.770  1.00  0.00     0.016 A 
ATOM     27  S   UNL A   1      34.612  24.577  24.708  1.00  0.00    -0.127 S 
ATOM     28  C   UNL A   1      34.077  22.939  22.818  1.00  0.00     0.034 A 
ENDBRANCH  20  23
ENDBRANCH  18  20
ENDBRANCH   9  18
ENDBRANCH   5   8
ENDBRANCH   3   4
ENDBRANCH   2   3
ENDBRANCH   1   2
BRANCH   1  29
ATOM     29  C   UNL A   1      32.252  30.524  27.238  1.00  0.00     0.002 C 
BRANCH  29  30
ATOM     30  C   UNL A   1      31.678  31.912  26.948  1.00  0.00     0.021 C 
BRANCH  30  31
ATOM     31  C   UNL A   1      32.689  33.031  26.719  1.00  0.00     0.116 C 
BRANCH  31  32
ATOM     32  N   UNL A   1      32.436  34.207  27.530  1.00  0.00    -0.352 N 
ATOM     33  C   UNL A   1      33.073  34.636  28.670  1.00  0.00     0.251 C 
ATOM     34  H   UNL A   1      31.701  34.783  27.217  1.00  0.00     0.163 HD
ATOM     35  O   UNL A   1      32.633  35.608  29.279  1.00  0.00    -0.269 OA
BRANCH  33  36
ATOM     36  C   UNL A   1      34.258  33.911  29.185  1.00  0.00     0.039 A 
ATOM     37  C   UNL A   1      35.529  34.413  28.892  1.00  0.00     0.014 A 
ATOM     38  C   UNL A   1      34.127  32.743  29.944  1.00  0.00     0.014 A 
ATOM     39  C   UNL A   1      36.664  33.790  29.419  1.00  0.00     0.010 A 
ATOM     40  C   UNL A   1      35.257  32.156  30.516  1.00  0.00     0.010 A 
ATOM     41  C   UNL A   1      36.537  32.677  30.264  1.00  0.00    -0.014 A 
BRANCH  41  42
ATOM     42  C   UNL A   1      37.727  32.054  30.902  1.00  0.00     0.031 A 
ATOM     43  C   UNL A   1      38.524  31.012  30.166  1.00  0.00     0.074 A 
ATOM     44  C   UNL A   1      38.052  32.381  32.169  1.00  0.00     0.049 A 
ATOM     45  N   UNL A   1      39.538  30.297  30.583  1.00  0.00    -0.248 NA
ATOM     46  C   UNL A   1      38.105  30.718  28.788  1.00  0.00     0.031 C 
ATOM     47  C   UNL A   1      37.336  33.351  33.000  1.00  0.00     0.029 A 
ATOM     48  N   UNL A   1      39.058  31.926  32.983  1.00  0.00    -0.354 N 
ATOM     49  C   UNL A   1      39.871  29.458  29.524  1.00  0.00     0.074 A 
ATOM     50  C   UNL A   1      38.917  29.721  28.467  1.00  0.00     0.031 C 
ATOM     51  C   UNL A   1      37.932  33.425  34.202  1.00  0.00     0.029 A 
ATOM     52  C   UNL A   1      39.046  32.483  34.241  1.00  0.00     0.049 A 
ATOM     53  H   UNL A   1      39.726  31.262  32.695  1.00  0.00     0.167 HD
ATOM     54  C   UNL A   1      40.890  28.565  29.437  1.00  0.00     0.034 A 
ATOM     55  C   UNL A   1      39.834  32.252  35.310  1.00  0.00     0.034 A 
ATOM     56  C   UNL A   1      41.843  28.323  30.492  1.00  0.00     0.049 A 
ATOM     57  C   UNL A   1      40.951  31.248  35.194  1.00  0.00     0.074 A 
ATOM     58  C   UNL A   1      42.945  27.486  30.485  1.00  0.00     0.029 A 
ATOM     59  N   UNL A   1      41.805  28.914  31.749  1.00  0.00    -0.354 N 
ATOM     60  N   UNL A   1      41.279  30.494  34.170  1.00  0.00    -0.248 NA
ATOM     61  C   UNL A   1      41.808  31.070  36.373  1.00  0.00     0.031 C 
ATOM     62  C   UNL A   1      43.537  27.525  31.753  1.00  0.00     0.029 A 
ATOM     63  C   UNL A   1      42.846  28.437  32.533  1.00  0.00     0.049 A 
ATOM     64  H   UNL A   1      41.136  29.575  32.041  1.00  0.00     0.167 HD
ATOM     65  C   UNL A   1      42.398  29.772  34.576  1.00  0.00     0.074 A 
ATOM     66  C   UNL A   1      42.694  30.190  35.931  1.00  0.00     0.031 C 
ATOM     67  C   UNL A   1      43.119  28.851  33.889  1.00  0.00     0.034 A 
BRANCH  54  68
ATOM     68  C   UNL A   1      41.001  27.767  28.159  1.00  0.00     0.023 A 
ATOM     69  C   UNL A   1      40.642  26.409  28.104  1.00  0.00     0.031 A 
ATOM     70  C   UNL A   1      41.497  28.365  26.988  1.00  0.00     0.131 A 
ATOM     71  C   UNL A   1      40.857  25.675  26.927  1.00  0.00     0.055 A 
ATOM     72  C   UNL A   1      41.634  27.648  25.796  1.00  0.00     0.041 A 
ATOM     73  F   UNL A   1      41.873  29.654  26.984  1.00  0.00    -0.206 F 
ATOM     74  C   UNL A   1      41.328  26.291  25.766  1.00  0.00     0.022 A 
BRANCH  71  75
ATOM     75  S   UNL A   1      40.645  23.874  26.979  1.00  0.00     0.124 S 
ATOM     76  O   UNL A   1      39.216  23.740  26.705  1.00  0.00    -0.237 OA
ATOM     77  O   UNL A   1      41.544  23.420  25.925  1.00  0.00    -0.237 OA
ATOM     78  O   UNL A   1      41.047  23.521  28.338  1.00  0.00    -0.744 OA
ENDBRANCH  71  75
ENDBRANCH  54  68
BRANCH  55  79
ATOM     79  C   UNL A   1      39.591  32.970  36.593  1.00  0.00     0.023 A 
ATOM     80  C   UNL A   1      38.701  32.461  37.550  1.00  0.00     0.031 A 
ATOM     81  C   UNL A   1      40.219  34.200  36.861  1.00  0.00     0.131 A 
ATOM     82  C   UNL A   1      38.430  33.197  38.714  1.00  0.00     0.055 A 
ATOM     83  C   UNL A   1      39.982  34.906  38.042  1.00  0.00     0.041 A 
ATOM     84  F   UNL A   1      41.085  34.727  35.981  1.00  0.00    -0.206 F 
ATOM     85  C   UNL A   1      39.073  34.410  38.971  1.00  0.00     0.022 A 
BRANCH  82  86
ATOM     86  S   UNL A   1      37.167  32.578  39.858  1.00  0.00     0.124 S 
ATOM     87  O   UNL A   1      37.763  31.327  40.312  1.00  0.00    -0.237 OA
ATOM     88  O   UNL A   1      37.101  33.652  40.844  1.00  0.00    -0.237 OA
ATOM     89  O   UNL A   1      35.983  32.437  39.014  1.00  0.00    -0.744 OA
ENDBRANCH  82  86
ENDBRANCH  55  79
BRANCH  67  90
ATOM     90  C   UNL A   1      44.319  28.265  34.589  1.00  0.00     0.023 A 
ATOM     91  C   UNL A   1      44.210  27.135  35.419  1.00  0.00     0.031 A 
ATOM     92  C   UNL A   1      45.584  28.861  34.440  1.00  0.00     0.131 A 
ATOM     93  C   UNL A   1      45.338  26.666  36.110  1.00  0.00     0.055 A 
ATOM     94  C   UNL A   1      46.712  28.359  35.090  1.00  0.00     0.041 A 
ATOM     95  F   UNL A   1      45.742  29.943  33.661  1.00  0.00    -0.206 F 
ATOM     96  C   UNL A   1      46.590  27.263  35.940  1.00  0.00     0.022 A 
BRANCH  93  97
ATOM     97  S   UNL A   1      45.130  25.314  37.301  1.00  0.00     0.124 S 
ATOM     98  O   UNL A   1      43.721  24.972  37.129  1.00  0.00    -0.237 OA
ATOM     99  O   UNL A   1      46.089  24.324  36.821  1.00  0.00    -0.237 OA
ATOM    100  O   UNL A   1      45.466  25.931  38.583  1.00  0.00    -0.744 OA
ENDBRANCH  93  97
ENDBRANCH  67  90
ENDBRANCH  41  42
ENDBRANCH  33  36
ENDBRANCH  31  32
ENDBRANCH  30  31
ENDBRANCH  29  30
ENDBRANCH   1  29
TORSDOF 19
ENDMDL
