MODEL 1
REMARK VINA RESULT:     -11.3      0.000      0.000
REMARK SMILES C[NH+](C)[C@@H]1CC[N@@H+](Cc2ccc(C(=O)NCCCCCCNC(=O)c3ccc(-c4c5nc(c(-c6cc(S(=O)(=O)[O-])ccc6F)c6ccc([nH]6)c(-c6cc(S(=O)(=O)[O-])ccc6F)c6nc(c(-c7cc(S(=O)(=O)[O-])ccc7F)c7ccc4[nH]7)C=C6)C=C5)cc3)cn2)C1
REMARK SMILES IDX 18 1 17 2 16 3 15 4 13 5 14 6 12 8 9 9 10 10 89 11 11 12
REMARK SMILES IDX 88 13 8 14 7 15 4 16 5 17 90 18 6 19 2 21 1 22 3 23 19 25
REMARK SMILES IDX 20 26 21 27 22 28 23 29 24 31 25 32 26 33 87 34 27 35 86 36
REMARK SMILES IDX 28 37 29 38 30 39 80 40 31 41 85 42 79 43 81 44 32 45 84 46
REMARK SMILES IDX 78 47 77 48 33 50 65 51 45 52 64 53 46 54 49 55 63 56 82 57
REMARK SMILES IDX 47 58 48 59 62 61 83 62 50 63 34 64 35 65 43 66 36 67 42 68
REMARK SMILES IDX 44 69 41 70 37 71 38 72 39 73 40 74 66 75 67 76 75 77 68 78
REMARK SMILES IDX 74 79 76 80 73 81 69 82 70 83 71 84 72 85 51 86 52 87 60 88
REMARK SMILES IDX 53 89 59 90 61 91 58 92 54 93 55 94 56 95 57 96
REMARK H PARENT 15 7 7 20 2 24 22 30 81 49 49 60
REMARK Flexibility Score: inf
ROOT
ATOM      1  C   UNL A   1      32.363  30.279  26.743  1.00  0.00     0.002 C 
ENDROOT
BRANCH   1   2
ATOM      2  C   UNL A   1      31.977  28.795  26.778  1.00  0.00     0.021 C 
BRANCH   2   3
ATOM      3  C   UNL A   1      31.548  28.245  25.418  1.00  0.00     0.116 C 
BRANCH   3   4
ATOM      4  N   UNL A   1      32.545  28.569  24.409  1.00  0.00    -0.352 N 
ATOM      5  C   UNL A   1      33.535  27.813  23.838  1.00  0.00     0.252 C 
ATOM      6  O   UNL A   1      34.242  28.317  22.968  1.00  0.00    -0.269 OA
ATOM      7  H   UNL A   1      32.501  29.496  24.080  1.00  0.00     0.163 HD
BRANCH   5   8
ATOM      8  C   UNL A   1      33.711  26.385  24.167  1.00  0.00     0.058 A 
ATOM      9  C   UNL A   1      33.576  23.690  24.708  1.00  0.00     0.095 A 
ATOM     10  C   UNL A   1      34.243  24.528  25.601  1.00  0.00     0.030 A 
ATOM     11  N   UNL A   1      33.106  24.135  23.515  1.00  0.00    -0.255 NA
ATOM     12  C   UNL A   1      34.320  25.892  25.317  1.00  0.00     0.017 A 
ATOM     13  C   UNL A   1      33.188  25.465  23.271  1.00  0.00     0.125 A 
BRANCH   9  14
ATOM     14  C   UNL A   1      33.217  22.269  25.107  1.00  0.00     0.319 C 
BRANCH  14  15
ATOM     15  N   UNL A   1      33.690  21.176  24.231  1.00  0.00    -0.325 N 
ATOM     16  C   UNL A   1      33.300  18.982  25.180  1.00  0.00     0.245 C 
ATOM     17  C   UNL A   1      32.212  19.258  24.135  1.00  0.00     0.132 C 
ATOM     18  C   UNL A   1      34.369  20.065  24.914  1.00  0.00     0.328 C 
ATOM     19  C   UNL A   1      32.633  20.547  23.434  1.00  0.00     0.269 C 
ATOM     20  H   UNL A   1      34.351  21.685  23.646  1.00  0.00     0.348 HD
BRANCH  16  21
ATOM     21  N   UNL A   1      33.786  17.597  25.322  1.00  0.00    -0.333 N 
ATOM     22  C   UNL A   1      32.689  16.671  25.608  1.00  0.00     0.332 C 
ATOM     23  C   UNL A   1      34.566  17.111  24.184  1.00  0.00     0.332 C 
ATOM     24  H   UNL A   1      34.426  17.628  26.116  1.00  0.00     0.348 HD
ENDBRANCH  16  21
ENDBRANCH  14  15
ENDBRANCH   9  14
ENDBRANCH   5   8
ENDBRANCH   3   4
ENDBRANCH   2   3
ENDBRANCH   1   2
BRANCH   1  25
ATOM     25  C   UNL A   1      31.307  31.208  26.135  1.00  0.00     0.002 C 
BRANCH  25  26
ATOM     26  C   UNL A   1      31.374  32.663  26.605  1.00  0.00     0.021 C 
BRANCH  26  27
ATOM     27  C   UNL A   1      32.657  33.032  27.345  1.00  0.00     0.116 C 
BRANCH  27  28
ATOM     28  N   UNL A   1      32.656  34.423  27.766  1.00  0.00    -0.352 N 
ATOM     29  C   UNL A   1      33.353  35.027  28.783  1.00  0.00     0.251 C 
ATOM     30  H   UNL A   1      32.070  35.019  27.246  1.00  0.00     0.163 HD
ATOM     31  O   UNL A   1      33.040  36.158  29.142  1.00  0.00    -0.269 OA
BRANCH  29  32
ATOM     32  C   UNL A   1      34.462  34.309  29.451  1.00  0.00     0.039 A 
ATOM     33  C   UNL A   1      35.767  34.508  28.994  1.00  0.00     0.014 A 
ATOM     34  C   UNL A   1      34.215  33.424  30.505  1.00  0.00     0.014 A 
ATOM     35  C   UNL A   1      36.828  33.859  29.628  1.00  0.00     0.010 A 
ATOM     36  C   UNL A   1      35.281  32.836  31.182  1.00  0.00     0.010 A 
ATOM     37  C   UNL A   1      36.598  33.041  30.747  1.00  0.00    -0.014 A 
BRANCH  37  38
ATOM     38  C   UNL A   1      37.728  32.390  31.464  1.00  0.00     0.031 A 
ATOM     39  C   UNL A   1      38.464  31.240  30.831  1.00  0.00     0.074 A 
ATOM     40  C   UNL A   1      38.058  32.807  32.702  1.00  0.00     0.049 A 
ATOM     41  N   UNL A   1      39.441  30.515  31.315  1.00  0.00    -0.248 NA
ATOM     42  C   UNL A   1      38.022  30.831  29.490  1.00  0.00     0.031 C 
ATOM     43  C   UNL A   1      37.390  33.886  33.435  1.00  0.00     0.029 A 
ATOM     44  N   UNL A   1      39.033  32.377  33.566  1.00  0.00    -0.354 N 
ATOM     45  C   UNL A   1      39.727  29.563  30.342  1.00  0.00     0.074 A 
ATOM     46  C   UNL A   1      38.771  29.761  29.272  1.00  0.00     0.031 C 
ATOM     47  C   UNL A   1      37.994  34.051  34.622  1.00  0.00     0.029 A 
ATOM     48  C   UNL A   1      39.060  33.063  34.758  1.00  0.00     0.049 A 
ATOM     49  H   UNL A   1      39.656  31.643  33.353  1.00  0.00     0.167 HD
ATOM     50  C   UNL A   1      40.708  28.626  30.332  1.00  0.00     0.034 A 
ATOM     51  C   UNL A   1      39.848  32.910  35.840  1.00  0.00     0.034 A 
ATOM     52  C   UNL A   1      41.656  28.447  31.407  1.00  0.00     0.049 A 
ATOM     53  C   UNL A   1      40.917  31.848  35.816  1.00  0.00     0.074 A 
ATOM     54  C   UNL A   1      42.720  27.564  31.481  1.00  0.00     0.029 A 
ATOM     55  N   UNL A   1      41.651  29.160  32.600  1.00  0.00    -0.354 N 
ATOM     56  N   UNL A   1      41.208  30.988  34.865  1.00  0.00    -0.248 NA
ATOM     57  C   UNL A   1      41.774  31.745  37.003  1.00  0.00     0.031 C 
ATOM     58  C   UNL A   1      43.310  27.691  32.743  1.00  0.00     0.029 A 
ATOM     59  C   UNL A   1      42.671  28.713  33.428  1.00  0.00     0.049 A 
ATOM     60  H   UNL A   1      41.016  29.876  32.826  1.00  0.00     0.167 HD
ATOM     61  C   UNL A   1      42.302  30.265  35.330  1.00  0.00     0.074 A 
ATOM     62  C   UNL A   1      42.630  30.804  36.635  1.00  0.00     0.031 C 
ATOM     63  C   UNL A   1      42.978  29.248  34.733  1.00  0.00     0.034 A 
BRANCH  50  64
ATOM     64  C   UNL A   1      40.783  27.710  29.131  1.00  0.00     0.023 A 
ATOM     65  C   UNL A   1      41.721  27.912  28.104  1.00  0.00     0.031 A 
ATOM     66  C   UNL A   1      39.889  26.633  28.999  1.00  0.00     0.131 A 
ATOM     67  C   UNL A   1      41.691  27.104  26.956  1.00  0.00     0.055 A 
ATOM     68  C   UNL A   1      39.921  25.778  27.895  1.00  0.00     0.041 A 
ATOM     69  F   UNL A   1      38.955  26.398  29.935  1.00  0.00    -0.206 F 
ATOM     70  C   UNL A   1      40.816  26.021  26.856  1.00  0.00     0.022 A 
BRANCH  67  71
ATOM     71  S   UNL A   1      42.708  27.584  25.533  1.00  0.00     0.124 S 
ATOM     72  O   UNL A   1      43.994  27.859  26.168  1.00  0.00    -0.237 OA
ATOM     73  O   UNL A   1      42.651  26.396  24.689  1.00  0.00    -0.237 OA
ATOM     74  O   UNL A   1      42.020  28.760  25.002  1.00  0.00    -0.744 OA
ENDBRANCH  67  71
ENDBRANCH  50  64
BRANCH  51  75
ATOM     75  C   UNL A   1      39.660  33.774  37.042  1.00  0.00     0.023 A 
ATOM     76  C   UNL A   1      39.028  33.283  38.195  1.00  0.00     0.031 A 
ATOM     77  C   UNL A   1      40.070  35.120  37.039  1.00  0.00     0.131 A 
ATOM     78  C   UNL A   1      38.777  34.142  39.276  1.00  0.00     0.055 A 
ATOM     79  C   UNL A   1      39.871  35.955  38.139  1.00  0.00     0.041 A 
ATOM     80  F   UNL A   1      40.684  35.640  35.964  1.00  0.00    -0.206 F 
ATOM     81  C   UNL A   1      39.208  35.471  39.261  1.00  0.00     0.022 A 
BRANCH  78  82
ATOM     82  S   UNL A   1      37.797  33.521  40.670  1.00  0.00     0.124 S 
ATOM     83  O   UNL A   1      37.469  34.755  41.375  1.00  0.00    -0.237 OA
ATOM     84  O   UNL A   1      36.691  32.857  39.990  1.00  0.00    -0.237 OA
ATOM     85  O   UNL A   1      38.723  32.631  41.368  1.00  0.00    -0.744 OA
ENDBRANCH  78  82
ENDBRANCH  51  75
BRANCH  63  86
ATOM     86  C   UNL A   1      44.169  28.691  35.477  1.00  0.00     0.023 A 
ATOM     87  C   UNL A   1      44.057  27.578  36.331  1.00  0.00     0.031 A 
ATOM     88  C   UNL A   1      45.431  29.300  35.351  1.00  0.00     0.131 A 
ATOM     89  C   UNL A   1      45.166  27.155  37.078  1.00  0.00     0.055 A 
ATOM     90  C   UNL A   1      46.547  28.829  36.044  1.00  0.00     0.041 A 
ATOM     91  F   UNL A   1      45.599  30.367  34.554  1.00  0.00    -0.206 F 
ATOM     92  C   UNL A   1      46.415  27.762  36.926  1.00  0.00     0.022 A 
BRANCH  89  93
ATOM     93  S   UNL A   1      44.926  25.874  38.340  1.00  0.00     0.124 S 
ATOM     94  O   UNL A   1      46.293  25.633  38.791  1.00  0.00    -0.237 OA
ATOM     95  O   UNL A   1      44.048  26.540  39.297  1.00  0.00    -0.237 OA
ATOM     96  O   UNL A   1      44.314  24.773  37.600  1.00  0.00    -0.744 OA
ENDBRANCH  89  93
ENDBRANCH  63  86
ENDBRANCH  37  38
ENDBRANCH  29  32
ENDBRANCH  27  28
ENDBRANCH  26  27
ENDBRANCH  25  26
ENDBRANCH   1  25
TORSDOF 19
ENDMDL
MODEL 2
REMARK VINA RESULT:     -11.2      5.739      9.807
REMARK SMILES C[NH+](C)[C@@H]1CC[N@@H+](Cc2ccc(C(=O)NCCCCCCNC(=O)c3ccc(-c4c5nc(c(-c6cc(S(=O)(=O)[O-])ccc6F)c6ccc([nH]6)c(-c6cc(S(=O)(=O)[O-])ccc6F)c6nc(c(-c7cc(S(=O)(=O)[O-])ccc7F)c7ccc4[nH]7)C=C6)C=C5)cc3)cn2)C1
REMARK SMILES IDX 18 1 17 2 16 3 15 4 13 5 14 6 12 8 9 9 10 10 89 11 11 12
REMARK SMILES IDX 88 13 8 14 7 15 4 16 5 17 90 18 6 19 2 21 1 22 3 23 19 25
REMARK SMILES IDX 20 26 21 27 22 28 23 29 24 31 25 32 26 33 87 34 27 35 86 36
REMARK SMILES IDX 28 37 29 38 30 39 80 40 31 41 85 42 79 43 81 44 32 45 84 46
REMARK SMILES IDX 78 47 77 48 33 50 65 51 45 52 64 53 46 54 49 55 63 56 82 57
REMARK SMILES IDX 47 58 48 59 62 61 83 62 50 63 34 64 35 65 43 66 36 67 42 68
REMARK SMILES IDX 44 69 41 70 37 71 38 72 39 73 40 74 66 75 67 76 75 77 68 78
REMARK SMILES IDX 74 79 76 80 73 81 69 82 70 83 71 84 72 85 51 86 52 87 60 88
REMARK SMILES IDX 53 89 59 90 61 91 58 92 54 93 55 94 56 95 57 96
REMARK H PARENT 15 7 7 20 2 24 22 30 81 49 49 60
REMARK Flexibility Score: inf
ROOT
ATOM      1  C   UNL A   1      35.124  21.023  25.799  1.00  0.00     0.002 C 
ENDROOT
BRANCH   1   2
ATOM      2  C   UNL A   1      33.760  21.702  25.615  1.00  0.00     0.021 C 
BRANCH   2   3
ATOM      3  C   UNL A   1      33.556  22.914  26.523  1.00  0.00     0.116 C 
BRANCH   3   4
ATOM      4  N   UNL A   1      32.214  22.901  27.083  1.00  0.00    -0.352 N 
ATOM      5  C   UNL A   1      31.084  23.600  26.745  1.00  0.00     0.252 C 
ATOM      6  O   UNL A   1      30.043  23.384  27.363  1.00  0.00    -0.269 OA
ATOM      7  H   UNL A   1      32.096  22.281  27.839  1.00  0.00     0.163 HD
BRANCH   5   8
ATOM      8  C   UNL A   1      31.059  24.530  25.599  1.00  0.00     0.058 A 
ATOM      9  C   UNL A   1      30.688  26.497  23.710  1.00  0.00     0.095 A 
ATOM     10  C   UNL A   1      30.661  25.160  23.312  1.00  0.00     0.030 A 
ATOM     11  N   UNL A   1      31.022  26.866  24.973  1.00  0.00    -0.255 NA
ATOM     12  C   UNL A   1      30.862  24.166  24.271  1.00  0.00     0.017 A 
ATOM     13  C   UNL A   1      31.204  25.880  25.883  1.00  0.00     0.125 A 
BRANCH   9  14
ATOM     14  C   UNL A   1      30.194  27.588  22.776  1.00  0.00     0.319 C 
BRANCH  14  15
ATOM     15  N   UNL A   1      29.402  28.686  23.372  1.00  0.00    -0.325 N 
ATOM     16  C   UNL A   1      29.203  30.599  21.901  1.00  0.00     0.245 C 
ATOM     17  C   UNL A   1      27.901  29.794  21.825  1.00  0.00     0.132 C 
ATOM     18  C   UNL A   1      29.928  30.041  23.146  1.00  0.00     0.328 C 
ATOM     19  C   UNL A   1      28.009  28.734  22.920  1.00  0.00     0.269 C 
ATOM     20  H   UNL A   1      29.470  28.444  24.359  1.00  0.00     0.348 HD
BRANCH  16  21
ATOM     21  N   UNL A   1      29.114  32.068  21.795  1.00  0.00    -0.333 N 
ATOM     22  C   UNL A   1      28.072  32.473  20.850  1.00  0.00     0.332 C 
ATOM     23  C   UNL A   1      28.925  32.756  23.072  1.00  0.00     0.332 C 
ATOM     24  H   UNL A   1      30.027  32.357  21.445  1.00  0.00     0.348 HD
ENDBRANCH  16  21
ENDBRANCH  14  15
ENDBRANCH   9  14
ENDBRANCH   5   8
ENDBRANCH   3   4
ENDBRANCH   2   3
ENDBRANCH   1   2
BRANCH   1  25
ATOM     25  C   UNL A   1      36.102  21.211  24.634  1.00  0.00     0.002 C 
BRANCH  25  26
ATOM     26  C   UNL A   1      37.436  20.475  24.782  1.00  0.00     0.021 C 
BRANCH  26  27
ATOM     27  C   UNL A   1      38.511  21.255  25.533  1.00  0.00     0.116 C 
BRANCH  27  28
ATOM     28  N   UNL A   1      39.442  20.370  26.214  1.00  0.00    -0.352 N 
ATOM     29  C   UNL A   1      40.620  20.668  26.853  1.00  0.00     0.251 C 
ATOM     30  H   UNL A   1      39.190  19.418  26.218  1.00  0.00     0.163 HD
ATOM     31  O   UNL A   1      41.389  19.762  27.158  1.00  0.00    -0.269 OA
BRANCH  29  32
ATOM     32  C   UNL A   1      40.964  22.076  27.154  1.00  0.00     0.039 A 
ATOM     33  C   UNL A   1      41.646  22.366  28.339  1.00  0.00     0.014 A 
ATOM     34  C   UNL A   1      40.596  23.109  26.287  1.00  0.00     0.014 A 
ATOM     35  C   UNL A   1      42.002  23.685  28.628  1.00  0.00     0.010 A 
ATOM     36  C   UNL A   1      41.016  24.413  26.541  1.00  0.00     0.010 A 
ATOM     37  C   UNL A   1      41.717  24.716  27.717  1.00  0.00    -0.014 A 
BRANCH  37  38
ATOM     38  C   UNL A   1      42.141  26.116  27.989  1.00  0.00     0.031 A 
ATOM     39  C   UNL A   1      43.517  26.581  27.593  1.00  0.00     0.074 A 
ATOM     40  C   UNL A   1      41.303  26.951  28.633  1.00  0.00     0.049 A 
ATOM     41  N   UNL A   1      44.085  27.745  27.785  1.00  0.00    -0.248 NA
ATOM     42  C   UNL A   1      44.377  25.598  26.918  1.00  0.00     0.031 C 
ATOM     43  C   UNL A   1      39.960  26.602  29.103  1.00  0.00     0.029 A 
ATOM     44  N   UNL A   1      41.452  28.263  29.008  1.00  0.00    -0.354 N 
ATOM     45  C   UNL A   1      45.369  27.632  27.261  1.00  0.00     0.074 A 
ATOM     46  C   UNL A   1      45.516  26.265  26.808  1.00  0.00     0.031 C 
ATOM     47  C   UNL A   1      39.400  27.679  29.675  1.00  0.00     0.029 A 
ATOM     48  C   UNL A   1      40.356  28.782  29.656  1.00  0.00     0.049 A 
ATOM     49  H   UNL A   1      42.269  28.784  28.829  1.00  0.00     0.167 HD
ATOM     50  C   UNL A   1      46.328  28.586  27.149  1.00  0.00     0.034 A 
ATOM     51  C   UNL A   1      40.145  30.005  30.182  1.00  0.00     0.034 A 
ATOM     52  C   UNL A   1      46.161  29.947  27.603  1.00  0.00     0.049 A 
ATOM     53  C   UNL A   1      41.233  31.042  30.066  1.00  0.00     0.074 A 
ATOM     54  C   UNL A   1      47.045  31.006  27.495  1.00  0.00     0.029 A 
ATOM     55  N   UNL A   1      45.037  30.436  28.257  1.00  0.00    -0.354 N 
ATOM     56  N   UNL A   1      42.425  30.934  29.522  1.00  0.00    -0.248 NA
ATOM     57  C   UNL A   1      40.943  32.370  30.621  1.00  0.00     0.031 C 
ATOM     58  C   UNL A   1      46.488  32.112  28.148  1.00  0.00     0.029 A 
ATOM     59  C   UNL A   1      45.220  31.771  28.589  1.00  0.00     0.049 A 
ATOM     60  H   UNL A   1      44.229  29.912  28.458  1.00  0.00     0.167 HD
ATOM     61  C   UNL A   1      43.011  32.191  29.642  1.00  0.00     0.074 A 
ATOM     62  C   UNL A   1      42.035  33.043  30.291  1.00  0.00     0.031 C 
ATOM     63  C   UNL A   1      44.244  32.606  29.250  1.00  0.00     0.034 A 
BRANCH  50  64
ATOM     64  C   UNL A   1      47.648  28.176  26.536  1.00  0.00     0.023 A 
ATOM     65  C   UNL A   1      47.819  28.082  25.143  1.00  0.00     0.031 A 
ATOM     66  C   UNL A   1      48.745  27.853  27.354  1.00  0.00     0.131 A 
ATOM     67  C   UNL A   1      49.026  27.598  24.616  1.00  0.00     0.055 A 
ATOM     68  C   UNL A   1      49.973  27.456  26.819  1.00  0.00     0.041 A 
ATOM     69  F   UNL A   1      48.640  27.903  28.691  1.00  0.00    -0.206 F 
ATOM     70  C   UNL A   1      50.114  27.310  25.442  1.00  0.00     0.022 A 
BRANCH  67  71
ATOM     71  S   UNL A   1      49.101  27.205  22.846  1.00  0.00     0.124 S 
ATOM     72  O   UNL A   1      50.542  27.136  22.620  1.00  0.00    -0.237 OA
ATOM     73  O   UNL A   1      48.380  25.939  22.773  1.00  0.00    -0.237 OA
ATOM     74  O   UNL A   1      48.432  28.342  22.214  1.00  0.00    -0.744 OA
ENDBRANCH  67  71
ENDBRANCH  50  64
BRANCH  51  75
ATOM     75  C   UNL A   1      38.861  30.322  30.872  1.00  0.00     0.023 A 
ATOM     76  C   UNL A   1      37.822  30.985  30.200  1.00  0.00     0.031 A 
ATOM     77  C   UNL A   1      38.670  30.006  32.229  1.00  0.00     0.131 A 
ATOM     78  C   UNL A   1      36.662  31.357  30.897  1.00  0.00     0.055 A 
ATOM     79  C   UNL A   1      37.491  30.325  32.903  1.00  0.00     0.041 A 
ATOM     80  F   UNL A   1      39.629  29.366  32.918  1.00  0.00    -0.206 F 
ATOM     81  C   UNL A   1      36.483  31.019  32.240  1.00  0.00     0.022 A 
BRANCH  78  82
ATOM     82  S   UNL A   1      35.424  32.372  30.045  1.00  0.00     0.124 S 
ATOM     83  O   UNL A   1      36.157  33.614  29.827  1.00  0.00    -0.237 OA
ATOM     84  O   UNL A   1      35.145  31.574  28.856  1.00  0.00    -0.237 OA
ATOM     85  O   UNL A   1      34.329  32.454  31.009  1.00  0.00    -0.744 OA
ENDBRANCH  78  82
ENDBRANCH  51  75
BRANCH  63  86
ATOM     86  C   UNL A   1      44.578  34.061  29.476  1.00  0.00     0.023 A 
ATOM     87  C   UNL A   1      44.190  35.062  28.567  1.00  0.00     0.031 A 
ATOM     88  C   UNL A   1      45.322  34.450  30.606  1.00  0.00     0.131 A 
ATOM     89  C   UNL A   1      44.606  36.387  28.765  1.00  0.00     0.055 A 
ATOM     90  C   UNL A   1      45.673  35.781  30.833  1.00  0.00     0.041 A 
ATOM     91  F   UNL A   1      45.724  33.538  31.506  1.00  0.00    -0.206 F 
ATOM     92  C   UNL A   1      45.330  36.756  29.902  1.00  0.00     0.022 A 
BRANCH  89  93
ATOM     93  S   UNL A   1      44.290  37.602  27.456  1.00  0.00     0.124 S 
ATOM     94  O   UNL A   1      43.971  38.801  28.226  1.00  0.00    -0.237 OA
ATOM     95  O   UNL A   1      45.561  37.626  26.739  1.00  0.00    -0.237 OA
ATOM     96  O   UNL A   1      43.170  37.025  26.715  1.00  0.00    -0.744 OA
ENDBRANCH  89  93
ENDBRANCH  63  86
ENDBRANCH  37  38
ENDBRANCH  29  32
ENDBRANCH  27  28
ENDBRANCH  26  27
ENDBRANCH  25  26
ENDBRANCH   1  25
TORSDOF 19
ENDMDL
MODEL 3
REMARK VINA RESULT:     -11.1      5.638      8.803
REMARK SMILES C[NH+](C)[C@@H]1CC[N@@H+](Cc2ccc(C(=O)NCCCCCCNC(=O)c3ccc(-c4c5nc(c(-c6cc(S(=O)(=O)[O-])ccc6F)c6ccc([nH]6)c(-c6cc(S(=O)(=O)[O-])ccc6F)c6nc(c(-c7cc(S(=O)(=O)[O-])ccc7F)c7ccc4[nH]7)C=C6)C=C5)cc3)cn2)C1
REMARK SMILES IDX 18 1 17 2 16 3 15 4 13 5 14 6 12 8 9 9 10 10 89 11 11 12
REMARK SMILES IDX 88 13 8 14 7 15 4 16 5 17 90 18 6 19 2 21 1 22 3 23 19 25
REMARK SMILES IDX 20 26 21 27 22 28 23 29 24 31 25 32 26 33 87 34 27 35 86 36
REMARK SMILES IDX 28 37 29 38 30 39 80 40 31 41 85 42 79 43 81 44 32 45 84 46
REMARK SMILES IDX 78 47 77 48 33 50 65 51 45 52 64 53 46 54 49 55 63 56 82 57
REMARK SMILES IDX 47 58 48 59 62 61 83 62 50 63 34 64 35 65 43 66 36 67 42 68
REMARK SMILES IDX 44 69 41 70 37 71 38 72 39 73 40 74 66 75 67 76 75 77 68 78
REMARK SMILES IDX 74 79 76 80 73 81 69 82 70 83 71 84 72 85 51 86 52 87 60 88
REMARK SMILES IDX 53 89 59 90 61 91 58 92 54 93 55 94 56 95 57 96
REMARK H PARENT 15 7 7 20 2 24 22 30 81 49 49 60
REMARK Flexibility Score: inf
ROOT
ATOM      1  C   UNL A   1      33.794  21.691  24.183  1.00  0.00     0.002 C 
ENDROOT
BRANCH   1   2
ATOM      2  C   UNL A   1      33.979  22.943  23.315  1.00  0.00     0.021 C 
BRANCH   2   3
ATOM      3  C   UNL A   1      32.666  23.514  22.782  1.00  0.00     0.116 C 
BRANCH   3   4
ATOM      4  N   UNL A   1      32.851  24.023  21.432  1.00  0.00    -0.352 N 
ATOM      5  C   UNL A   1      32.778  25.295  20.925  1.00  0.00     0.252 C 
ATOM      6  O   UNL A   1      33.012  25.473  19.731  1.00  0.00    -0.269 OA
ATOM      7  H   UNL A   1      33.067  23.332  20.765  1.00  0.00     0.163 HD
BRANCH   5   8
ATOM      8  C   UNL A   1      32.524  26.463  21.790  1.00  0.00     0.058 A 
ATOM      9  C   UNL A   1      32.352  28.438  23.699  1.00  0.00     0.095 A 
ATOM     10  C   UNL A   1      31.178  27.902  23.170  1.00  0.00     0.030 A 
ATOM     11  N   UNL A   1      33.576  28.115  23.210  1.00  0.00    -0.255 NA
ATOM     12  C   UNL A   1      31.269  26.909  22.193  1.00  0.00     0.017 A 
ATOM     13  C   UNL A   1      33.634  27.143  22.268  1.00  0.00     0.125 A 
BRANCH   9  14
ATOM     14  C   UNL A   1      32.310  29.297  24.951  1.00  0.00     0.319 C 
BRANCH  14  15
ATOM     15  N   UNL A   1      32.449  28.610  26.252  1.00  0.00    -0.325 N 
ATOM     16  C   UNL A   1      32.092  26.220  26.091  1.00  0.00     0.245 C 
ATOM     17  C   UNL A   1      33.601  26.481  26.146  1.00  0.00     0.132 C 
ATOM     18  C   UNL A   1      31.456  27.560  26.525  1.00  0.00     0.328 C 
ATOM     19  C   UNL A   1      33.751  27.969  26.456  1.00  0.00     0.269 C 
ATOM     20  H   UNL A   1      32.312  29.395  26.888  1.00  0.00     0.348 HD
BRANCH  16  21
ATOM     21  N   UNL A   1      31.577  25.005  26.749  1.00  0.00    -0.333 N 
ATOM     22  C   UNL A   1      30.322  24.558  26.143  1.00  0.00     0.332 C 
ATOM     23  C   UNL A   1      32.529  23.895  26.801  1.00  0.00     0.332 C 
ATOM     24  H   UNL A   1      31.411  25.285  27.716  1.00  0.00     0.348 HD
ENDBRANCH  16  21
ENDBRANCH  14  15
ENDBRANCH   9  14
ENDBRANCH   5   8
ENDBRANCH   3   4
ENDBRANCH   2   3
ENDBRANCH   1   2
BRANCH   1  25
ATOM     25  C   UNL A   1      35.088  21.110  24.763  1.00  0.00     0.002 C 
BRANCH  25  26
ATOM     26  C   UNL A   1      35.784  21.988  25.806  1.00  0.00     0.021 C 
BRANCH  26  27
ATOM     27  C   UNL A   1      37.210  22.393  25.445  1.00  0.00     0.116 C 
BRANCH  27  28
ATOM     28  N   UNL A   1      38.181  21.414  25.903  1.00  0.00    -0.352 N 
ATOM     29  C   UNL A   1      39.437  21.608  26.425  1.00  0.00     0.251 C 
ATOM     30  H   UNL A   1      37.898  20.474  25.828  1.00  0.00     0.163 HD
ATOM     31  O   UNL A   1      40.202  20.655  26.528  1.00  0.00    -0.269 OA
BRANCH  29  32
ATOM     32  C   UNL A   1      39.864  22.963  26.842  1.00  0.00     0.039 A 
ATOM     33  C   UNL A   1      40.727  23.092  27.933  1.00  0.00     0.014 A 
ATOM     34  C   UNL A   1      39.399  24.102  26.178  1.00  0.00     0.014 A 
ATOM     35  C   UNL A   1      41.161  24.360  28.325  1.00  0.00     0.010 A 
ATOM     36  C   UNL A   1      39.892  25.358  26.523  1.00  0.00     0.010 A 
ATOM     37  C   UNL A   1      40.772  25.502  27.605  1.00  0.00    -0.014 A 
BRANCH  37  38
ATOM     38  C   UNL A   1      41.275  26.851  27.980  1.00  0.00     0.031 A 
ATOM     39  C   UNL A   1      42.703  27.232  27.699  1.00  0.00     0.074 A 
ATOM     40  C   UNL A   1      40.455  27.712  28.613  1.00  0.00     0.049 A 
ATOM     41  N   UNL A   1      43.337  28.340  27.990  1.00  0.00    -0.248 NA
ATOM     42  C   UNL A   1      43.536  26.223  27.028  1.00  0.00     0.031 C 
ATOM     43  C   UNL A   1      39.062  27.440  28.977  1.00  0.00     0.029 A 
ATOM     44  N   UNL A   1      40.670  28.989  29.068  1.00  0.00    -0.354 N 
ATOM     45  C   UNL A   1      44.643  28.159  27.545  1.00  0.00     0.074 A 
ATOM     46  C   UNL A   1      44.724  26.809  27.028  1.00  0.00     0.031 C 
ATOM     47  C   UNL A   1      38.542  28.526  29.570  1.00  0.00     0.029 A 
ATOM     48  C   UNL A   1      39.572  29.555  29.673  1.00  0.00     0.049 A 
ATOM     49  H   UNL A   1      41.532  29.457  28.972  1.00  0.00     0.167 HD
ATOM     50  C   UNL A   1      45.672  29.044  27.547  1.00  0.00     0.034 A 
ATOM     51  C   UNL A   1      39.413  30.762  30.250  1.00  0.00     0.034 A 
ATOM     52  C   UNL A   1      45.570  30.389  28.062  1.00  0.00     0.049 A 
ATOM     53  C   UNL A   1      40.577  31.720  30.261  1.00  0.00     0.074 A 
ATOM     54  C   UNL A   1      46.533  31.384  28.070  1.00  0.00     0.029 A 
ATOM     55  N   UNL A   1      44.442  30.926  28.669  1.00  0.00    -0.354 N 
ATOM     56  N   UNL A   1      41.792  31.552  29.789  1.00  0.00    -0.248 NA
ATOM     57  C   UNL A   1      40.343  33.036  30.869  1.00  0.00     0.031 C 
ATOM     58  C   UNL A   1      46.012  32.494  28.745  1.00  0.00     0.029 A 
ATOM     59  C   UNL A   1      44.695  32.226  29.085  1.00  0.00     0.049 A 
ATOM     60  H   UNL A   1      43.587  30.454  28.789  1.00  0.00     0.167 HD
ATOM     61  C   UNL A   1      42.455  32.755  30.015  1.00  0.00     0.074 A 
ATOM     62  C   UNL A   1      41.500  33.642  30.646  1.00  0.00     0.031 C 
ATOM     63  C   UNL A   1      43.738  33.097  29.727  1.00  0.00     0.034 A 
BRANCH  50  64
ATOM     64  C   UNL A   1      46.999  28.569  26.998  1.00  0.00     0.023 A 
ATOM     65  C   UNL A   1      47.208  28.396  25.618  1.00  0.00     0.031 A 
ATOM     66  C   UNL A   1      48.061  28.262  27.866  1.00  0.00     0.131 A 
ATOM     67  C   UNL A   1      48.418  27.855  25.155  1.00  0.00     0.055 A 
ATOM     68  C   UNL A   1      49.293  27.806  27.391  1.00  0.00     0.041 A 
ATOM     69  F   UNL A   1      47.917  28.385  29.195  1.00  0.00    -0.206 F 
ATOM     70  C   UNL A   1      49.472  27.584  26.029  1.00  0.00     0.022 A 
BRANCH  67  71
ATOM     71  S   UNL A   1      48.535  27.367  23.411  1.00  0.00     0.124 S 
ATOM     72  O   UNL A   1      49.856  27.878  23.051  1.00  0.00    -0.237 OA
ATOM     73  O   UNL A   1      48.407  25.916  23.480  1.00  0.00    -0.237 OA
ATOM     74  O   UNL A   1      47.414  28.064  22.784  1.00  0.00    -0.744 OA
ENDBRANCH  67  71
ENDBRANCH  50  64
BRANCH  51  75
ATOM     75  C   UNL A   1      38.110  31.138  30.873  1.00  0.00     0.023 A 
ATOM     76  C   UNL A   1      37.134  31.835  30.145  1.00  0.00     0.031 A 
ATOM     77  C   UNL A   1      37.840  30.845  32.222  1.00  0.00     0.131 A 
ATOM     78  C   UNL A   1      35.957  32.261  30.780  1.00  0.00     0.055 A 
ATOM     79  C   UNL A   1      36.643  31.219  32.834  1.00  0.00     0.041 A 
ATOM     80  F   UNL A   1      38.738  30.175  32.964  1.00  0.00    -0.206 F 
ATOM     81  C   UNL A   1      35.699  31.945  32.116  1.00  0.00     0.022 A 
BRANCH  78  82
ATOM     82  S   UNL A   1      34.804  33.315  29.858  1.00  0.00     0.124 S 
ATOM     83  O   UNL A   1      35.717  34.125  29.059  1.00  0.00    -0.237 OA
ATOM     84  O   UNL A   1      34.012  32.331  29.128  1.00  0.00    -0.237 OA
ATOM     85  O   UNL A   1      34.087  34.035  30.908  1.00  0.00    -0.744 OA
ENDBRANCH  78  82
ENDBRANCH  51  75
BRANCH  63  86
ATOM     86  C   UNL A   1      44.158  34.510  30.054  1.00  0.00     0.023 A 
ATOM     87  C   UNL A   1      43.930  35.577  29.164  1.00  0.00     0.031 A 
ATOM     88  C   UNL A   1      44.822  34.790  31.262  1.00  0.00     0.131 A 
ATOM     89  C   UNL A   1      44.424  36.855  29.464  1.00  0.00     0.055 A 
ATOM     90  C   UNL A   1      45.249  36.079  31.585  1.00  0.00     0.041 A 
ATOM     91  F   UNL A   1      45.071  33.813  32.148  1.00  0.00    -0.206 F 
ATOM     92  C   UNL A   1      45.066  37.117  30.677  1.00  0.00     0.022 A 
BRANCH  89  93
ATOM     93  S   UNL A   1      44.321  38.146  28.194  1.00  0.00     0.124 S 
ATOM     94  O   UNL A   1      43.452  39.130  28.832  1.00  0.00    -0.237 OA
ATOM     95  O   UNL A   1      45.717  38.538  28.033  1.00  0.00    -0.237 OA
ATOM     96  O   UNL A   1      43.736  37.454  27.047  1.00  0.00    -0.744 OA
ENDBRANCH  89  93
ENDBRANCH  63  86
ENDBRANCH  37  38
ENDBRANCH  29  32
ENDBRANCH  27  28
ENDBRANCH  26  27
ENDBRANCH  25  26
ENDBRANCH   1  25
TORSDOF 19
ENDMDL
