MODEL 1
REMARK VINA RESULT:     -11.2      0.000      0.000
REMARK SMILES CS(=O)(=O)c1ccc(-c2cc(Cl)cc3c2O[C@H](C(F)(F)F)C(C(=O)NCCCCCCNC(=O)c2ccc(-c4c5nc(c(-c6cc(S(=O)(=O)[O-])ccc6F)c6ccc([nH]6)c(-c6cc(S(=O)(=O)[O-])ccc6F)c6nc(c(-c7cc(S(=O)(=O)[O-])ccc7F)c7ccc4[nH]7)C=C6)C=C5)cc2)=C3)cc1
REMARK SMILES IDX 29 1 28 2 27 3 26 4 25 5 23 6 24 7 22 9 9 10 10 11 15 12
REMARK SMILES IDX 11 13 14 14 16 15 12 16 13 17 98 18 17 19 8 20 5 21 6 22
REMARK SMILES IDX 100 23 7 24 99 25 2 26 1 27 3 28 4 29 18 30 19 31 20 32
REMARK SMILES IDX 21 33 30 34 31 35 32 36 33 37 34 39 35 40 36 41 97 42 37 43
REMARK SMILES IDX 96 44 38 45 39 46 40 47 90 48 41 49 95 50 89 51 91 52 42 53
REMARK SMILES IDX 94 54 88 55 87 56 43 58 75 59 55 60 74 61 56 62 59 63 73 64
REMARK SMILES IDX 92 65 57 66 58 67 72 69 93 70 60 71 44 72 45 73 53 74 46 75
REMARK SMILES IDX 52 76 54 77 51 78 47 79 48 80 49 81 50 82 76 83 77 84 85 85
REMARK SMILES IDX 78 86 84 87 86 88 83 89 79 90 80 91 81 92 82 93 61 94 62 95
REMARK SMILES IDX 70 96 63 97 69 98 71 99 68 100 64 101 65 102 66 103 67 104
REMARK H PARENT 25 8 32 38 91 57 59 68
REMARK Flexibility Score: inf
ROOT
ATOM      1  C   UNL A   1      35.029  24.027  23.526  1.00  0.00     0.002 C 
ENDROOT
BRANCH   1   2
ATOM      2  C   UNL A   1      33.732  24.703  23.075  1.00  0.00     0.002 C 
BRANCH   2   3
ATOM      3  C   UNL A   1      33.740  26.240  23.152  1.00  0.00     0.021 C 
BRANCH   3   4
ATOM      4  C   UNL A   1      32.880  26.944  22.091  1.00  0.00     0.116 C 
BRANCH   4   5
ATOM      5  N   UNL A   1      31.740  26.113  21.758  1.00  0.00    -0.352 N 
ATOM      6  C   UNL A   1      30.718  25.805  22.595  1.00  0.00     0.251 C 
ATOM      7  O   UNL A   1      30.338  24.645  22.707  1.00  0.00    -0.270 OA
ATOM      8  H   UNL A   1      31.703  25.741  20.848  1.00  0.00     0.163 HD
BRANCH   6   9
ATOM      9  C   UNL A   1      30.001  26.954  23.227  1.00  0.00     0.067 C 
ATOM     10  C   UNL A   1      32.775  27.860  26.061  1.00  0.00     0.026 A 
ATOM     11  C   UNL A   1      33.141  26.658  26.721  1.00  0.00     0.033 A 
ATOM     12  C   UNL A   1      31.621  27.809  25.260  1.00  0.00     0.135 A 
ATOM     13  C   UNL A   1      32.342  25.516  26.697  1.00  0.00     0.042 A 
ATOM     14  C   UNL A   1      30.770  26.678  25.337  1.00  0.00     0.019 A 
ATOM     15  O   UNL A   1      31.297  28.806  24.353  1.00  0.00    -0.475 OA
ATOM     16  Cl  UNL A   1      32.875  24.089  27.493  1.00  0.00    -0.084 Cl
ATOM     17  C   UNL A   1      31.120  25.538  26.054  1.00  0.00     0.032 A 
ATOM     18  C   UNL A   1      29.571  26.655  24.470  1.00  0.00     0.025 C 
ATOM     19  C   UNL A   1      30.713  28.292  23.079  1.00  0.00     0.314 C 
BRANCH  10  20
ATOM     20  C   UNL A   1      33.562  29.056  26.453  1.00  0.00    -0.015 A 
ATOM     21  C   UNL A   1      34.711  31.018  28.135  1.00  0.00     0.067 A 
ATOM     22  C   UNL A   1      35.453  29.890  27.782  1.00  0.00     0.021 A 
ATOM     23  C   UNL A   1      33.455  31.236  27.563  1.00  0.00     0.021 A 
ATOM     24  C   UNL A   1      34.882  28.925  26.938  1.00  0.00     0.010 A 
ATOM     25  C   UNL A   1      32.892  30.265  26.719  1.00  0.00     0.010 A 
BRANCH  21  26
ATOM     26  S   UNL A   1      35.361  32.162  29.336  1.00  0.00     0.175 S 
ATOM     27  C   UNL A   1      35.633  33.675  28.445  1.00  0.00     0.163 C 
ATOM     28  O   UNL A   1      36.667  31.678  29.748  1.00  0.00    -0.224 OA
ATOM     29  O   UNL A   1      34.313  32.397  30.308  1.00  0.00    -0.224 OA
ENDBRANCH  21  26
ENDBRANCH  10  20
BRANCH  19  30
ATOM     30  C   UNL A   1      29.728  29.302  22.453  1.00  0.00     0.429 C 
ATOM     31  F   UNL A   1      28.565  28.725  22.076  1.00  0.00    -0.167 F 
ATOM     32  F   UNL A   1      29.431  30.299  23.319  1.00  0.00    -0.167 F 
ATOM     33  F   UNL A   1      30.240  29.901  21.345  1.00  0.00    -0.167 F 
ENDBRANCH  19  30
ENDBRANCH   6   9
ENDBRANCH   4   5
ENDBRANCH   3   4
ENDBRANCH   2   3
ENDBRANCH   1   2
BRANCH   1  34
ATOM     34  C   UNL A   1      34.978  23.428  24.931  1.00  0.00     0.021 C 
BRANCH  34  35
ATOM     35  C   UNL A   1      36.260  23.594  25.742  1.00  0.00     0.116 C 
BRANCH  35  36
ATOM     36  N   UNL A   1      37.084  22.397  25.732  1.00  0.00    -0.352 N 
ATOM     37  C   UNL A   1      38.409  22.258  26.066  1.00  0.00     0.251 C 
ATOM     38  H   UNL A   1      36.630  21.571  25.447  1.00  0.00     0.163 HD
ATOM     39  O   UNL A   1      38.989  21.201  25.839  1.00  0.00    -0.269 OA
BRANCH  37  40
ATOM     40  C   UNL A   1      39.134  23.398  26.667  1.00  0.00     0.039 A 
ATOM     41  C   UNL A   1      40.103  23.146  27.641  1.00  0.00     0.014 A 
ATOM     42  C   UNL A   1      38.870  24.710  26.261  1.00  0.00     0.014 A 
ATOM     43  C   UNL A   1      40.850  24.204  28.163  1.00  0.00     0.010 A 
ATOM     44  C   UNL A   1      39.664  25.754  26.729  1.00  0.00     0.010 A 
ATOM     45  C   UNL A   1      40.661  25.513  27.687  1.00  0.00    -0.014 A 
BRANCH  45  46
ATOM     46  C   UNL A   1      41.495  26.639  28.183  1.00  0.00     0.031 A 
ATOM     47  C   UNL A   1      42.920  26.781  27.723  1.00  0.00     0.074 A 
ATOM     48  C   UNL A   1      40.987  27.495  29.092  1.00  0.00     0.049 A 
ATOM     49  N   UNL A   1      43.827  27.649  28.093  1.00  0.00    -0.248 NA
ATOM     50  C   UNL A   1      43.395  25.799  26.736  1.00  0.00     0.031 C 
ATOM     51  C   UNL A   1      39.631  27.433  29.646  1.00  0.00     0.029 A 
ATOM     52  N   UNL A   1      41.549  28.579  29.720  1.00  0.00    -0.354 N 
ATOM     53  C   UNL A   1      44.984  27.309  27.398  1.00  0.00     0.074 A 
ATOM     54  C   UNL A   1      44.676  26.121  26.630  1.00  0.00     0.031 C 
ATOM     55  C   UNL A   1      39.463  28.445  30.513  1.00  0.00     0.029 A 
ATOM     56  C   UNL A   1      40.707  29.201  30.614  1.00  0.00     0.049 A 
ATOM     57  H   UNL A   1      42.469  28.883  29.546  1.00  0.00     0.167 HD
ATOM     58  C   UNL A   1      46.183  27.941  27.387  1.00  0.00     0.034 A 
ATOM     59  C   UNL A   1      40.919  30.250  31.434  1.00  0.00     0.034 A 
ATOM     60  C   UNL A   1      46.466  29.135  28.147  1.00  0.00     0.049 A 
ATOM     61  C   UNL A   1      42.265  30.928  31.413  1.00  0.00     0.074 A 
ATOM     62  C   UNL A   1      47.624  29.893  28.161  1.00  0.00     0.029 A 
ATOM     63  N   UNL A   1      45.586  29.742  29.034  1.00  0.00    -0.354 N 
ATOM     64  N   UNL A   1      43.331  30.628  30.706  1.00  0.00    -0.248 NA
ATOM     65  C   UNL A   1      42.434  32.095  32.289  1.00  0.00     0.031 C 
ATOM     66  C   UNL A   1      47.472  30.912  29.106  1.00  0.00     0.029 A 
ATOM     67  C   UNL A   1      46.189  30.843  29.625  1.00  0.00     0.049 A 
ATOM     68  H   UNL A   1      44.670  29.435  29.218  1.00  0.00     0.167 HD
ATOM     69  C   UNL A   1      44.284  31.591  31.031  1.00  0.00     0.074 A 
ATOM     70  C   UNL A   1      43.661  32.487  31.982  1.00  0.00     0.031 C 
ATOM     71  C   UNL A   1      45.558  31.724  30.580  1.00  0.00     0.034 A 
BRANCH  58  72
ATOM     72  C   UNL A   1      47.283  27.337  26.547  1.00  0.00     0.023 A 
ATOM     73  C   UNL A   1      47.513  27.745  25.221  1.00  0.00     0.031 A 
ATOM     74  C   UNL A   1      48.108  26.328  27.076  1.00  0.00     0.131 A 
ATOM     75  C   UNL A   1      48.488  27.099  24.447  1.00  0.00     0.055 A 
ATOM     76  C   UNL A   1      49.132  25.746  26.326  1.00  0.00     0.041 A 
ATOM     77  F   UNL A   1      47.925  25.881  28.328  1.00  0.00    -0.206 F 
ATOM     78  C   UNL A   1      49.319  26.120  24.999  1.00  0.00     0.022 A 
BRANCH  75  79
ATOM     79  S   UNL A   1      48.566  27.459  22.672  1.00  0.00     0.124 S 
ATOM     80  O   UNL A   1      47.299  28.156  22.458  1.00  0.00    -0.237 OA
ATOM     81  O   UNL A   1      49.770  28.276  22.567  1.00  0.00    -0.237 OA
ATOM     82  O   UNL A   1      48.653  26.137  22.056  1.00  0.00    -0.744 OA
ENDBRANCH  75  79
ENDBRANCH  58  72
BRANCH  59  83
ATOM     83  C   UNL A   1      39.844  30.720  32.356  1.00  0.00     0.023 A 
ATOM     84  C   UNL A   1      39.116  31.890  32.085  1.00  0.00     0.031 A 
ATOM     85  C   UNL A   1      39.563  30.033  33.550  1.00  0.00     0.131 A 
ATOM     86  C   UNL A   1      38.182  32.366  33.018  1.00  0.00     0.055 A 
ATOM     87  C   UNL A   1      38.592  30.479  34.448  1.00  0.00     0.041 A 
ATOM     88  F   UNL A   1      40.225  28.906  33.857  1.00  0.00    -0.206 F 
ATOM     89  C   UNL A   1      37.906  31.662  34.192  1.00  0.00     0.022 A 
BRANCH  86  90
ATOM     90  S   UNL A   1      37.401  33.976  32.720  1.00  0.00     0.124 S 
ATOM     91  O   UNL A   1      37.867  34.287  31.374  1.00  0.00    -0.237 OA
ATOM     92  O   UNL A   1      35.985  33.654  32.852  1.00  0.00    -0.237 OA
ATOM     93  O   UNL A   1      37.948  34.820  33.781  1.00  0.00    -0.744 OA
ENDBRANCH  86  90
ENDBRANCH  59  83
BRANCH  71  94
ATOM     94  C   UNL A   1      46.342  32.913  31.080  1.00  0.00     0.023 A 
ATOM     95  C   UNL A   1      46.334  34.145  30.404  1.00  0.00     0.031 A 
ATOM     96  C   UNL A   1      47.118  32.806  32.249  1.00  0.00     0.131 A 
ATOM     97  C   UNL A   1      47.133  35.202  30.866  1.00  0.00     0.055 A 
ATOM     98  C   UNL A   1      47.860  33.880  32.740  1.00  0.00     0.041 A 
ATOM     99  F   UNL A   1      47.165  31.652  32.934  1.00  0.00    -0.206 F 
ATOM    100  C   UNL A   1      47.881  35.083  32.040  1.00  0.00     0.022 A 
BRANCH  97 101
ATOM    101  S   UNL A   1      47.256  36.707  29.860  1.00  0.00     0.124 S 
ATOM    102  O   UNL A   1      47.336  36.161  28.508  1.00  0.00    -0.237 OA
ATOM    103  O   UNL A   1      46.020  37.407  30.192  1.00  0.00    -0.237 OA
ATOM    104  O   UNL A   1      48.478  37.345  30.345  1.00  0.00    -0.744 OA
ENDBRANCH  97 101
ENDBRANCH  71  94
ENDBRANCH  45  46
ENDBRANCH  37  40
ENDBRANCH  35  36
ENDBRANCH  34  35
ENDBRANCH   1  34
TORSDOF 19
ENDMDL
MODEL 2
REMARK VINA RESULT:     -11.1      9.016     15.010
REMARK SMILES CS(=O)(=O)c1ccc(-c2cc(Cl)cc3c2O[C@H](C(F)(F)F)C(C(=O)NCCCCCCNC(=O)c2ccc(-c4c5nc(c(-c6cc(S(=O)(=O)[O-])ccc6F)c6ccc([nH]6)c(-c6cc(S(=O)(=O)[O-])ccc6F)c6nc(c(-c7cc(S(=O)(=O)[O-])ccc7F)c7ccc4[nH]7)C=C6)C=C5)cc2)=C3)cc1
REMARK SMILES IDX 29 1 28 2 27 3 26 4 25 5 23 6 24 7 22 9 9 10 10 11 15 12
REMARK SMILES IDX 11 13 14 14 16 15 12 16 13 17 98 18 17 19 8 20 5 21 6 22
REMARK SMILES IDX 100 23 7 24 99 25 2 26 1 27 3 28 4 29 18 30 19 31 20 32
REMARK SMILES IDX 21 33 30 34 31 35 32 36 33 37 34 39 35 40 36 41 97 42 37 43
REMARK SMILES IDX 96 44 38 45 39 46 40 47 90 48 41 49 95 50 89 51 91 52 42 53
REMARK SMILES IDX 94 54 88 55 87 56 43 58 75 59 55 60 74 61 56 62 59 63 73 64
REMARK SMILES IDX 92 65 57 66 58 67 72 69 93 70 60 71 44 72 45 73 53 74 46 75
REMARK SMILES IDX 52 76 54 77 51 78 47 79 48 80 49 81 50 82 76 83 77 84 85 85
REMARK SMILES IDX 78 86 84 87 86 88 83 89 79 90 80 91 81 92 82 93 61 94 62 95
REMARK SMILES IDX 70 96 63 97 69 98 71 99 68 100 64 101 65 102 66 103 67 104
REMARK H PARENT 25 8 32 38 91 57 59 68
REMARK Flexibility Score: inf
ROOT
ATOM      1  C   UNL A   1      46.759  37.852  27.514  1.00  0.00     0.002 C 
ENDROOT
BRANCH   1   2
ATOM      2  C   UNL A   1      45.544  38.665  27.966  1.00  0.00     0.002 C 
BRANCH   2   3
ATOM      3  C   UNL A   1      44.503  38.942  26.867  1.00  0.00     0.021 C 
BRANCH   3   4
ATOM      4  C   UNL A   1      44.149  40.425  26.673  1.00  0.00     0.116 C 
BRANCH   4   5
ATOM      5  N   UNL A   1      45.195  41.081  25.914  1.00  0.00    -0.352 N 
ATOM      6  C   UNL A   1      45.052  41.619  24.677  1.00  0.00     0.251 C 
ATOM      7  O   UNL A   1      45.868  41.372  23.796  1.00  0.00    -0.270 OA
ATOM      8  H   UNL A   1      46.086  41.140  26.330  1.00  0.00     0.163 HD
BRANCH   6   9
ATOM      9  C   UNL A   1      43.965  42.631  24.509  1.00  0.00     0.067 C 
ATOM     10  C   UNL A   1      46.065  45.361  22.345  1.00  0.00     0.026 A 
ATOM     11  C   UNL A   1      47.303  45.588  23.002  1.00  0.00     0.033 A 
ATOM     12  C   UNL A   1      45.080  44.683  23.082  1.00  0.00     0.135 A 
ATOM     13  C   UNL A   1      47.504  45.283  24.347  1.00  0.00     0.042 A 
ATOM     14  C   UNL A   1      45.265  44.481  24.473  1.00  0.00     0.019 A 
ATOM     15  O   UNL A   1      43.939  44.155  22.496  1.00  0.00    -0.475 OA
ATOM     16  Cl  UNL A   1      49.045  45.556  25.059  1.00  0.00    -0.084 Cl
ATOM     17  C   UNL A   1      46.466  44.784  25.109  1.00  0.00     0.032 A 
ATOM     18  C   UNL A   1      44.211  43.754  25.214  1.00  0.00     0.025 C 
ATOM     19  C   UNL A   1      43.525  42.840  23.066  1.00  0.00     0.314 C 
BRANCH  10  20
ATOM     20  C   UNL A   1      45.922  46.032  21.028  1.00  0.00    -0.015 A 
ATOM     21  C   UNL A   1      44.678  47.416  18.900  1.00  0.00     0.067 A 
ATOM     22  C   UNL A   1      45.376  48.130  19.873  1.00  0.00     0.021 A 
ATOM     23  C   UNL A   1      44.696  46.019  18.909  1.00  0.00     0.021 A 
ATOM     24  C   UNL A   1      46.002  47.438  20.921  1.00  0.00     0.010 A 
ATOM     25  C   UNL A   1      45.324  45.335  19.962  1.00  0.00     0.010 A 
BRANCH  21  26
ATOM     26  S   UNL A   1      43.742  48.293  17.663  1.00  0.00     0.175 S 
ATOM     27  C   UNL A   1      43.799  50.000  18.151  1.00  0.00     0.163 C 
ATOM     28  O   UNL A   1      42.357  47.871  17.773  1.00  0.00    -0.224 OA
ATOM     29  O   UNL A   1      44.464  48.161  16.413  1.00  0.00    -0.224 OA
ENDBRANCH  21  26
ENDBRANCH  10  20
BRANCH  19  30
ATOM     30  C   UNL A   1      41.997  42.638  22.988  1.00  0.00     0.429 C 
ATOM     31  F   UNL A   1      41.607  42.091  21.813  1.00  0.00    -0.167 F 
ATOM     32  F   UNL A   1      41.556  41.832  23.983  1.00  0.00    -0.167 F 
ATOM     33  F   UNL A   1      41.315  43.807  23.115  1.00  0.00    -0.167 F 
ENDBRANCH  19  30
ENDBRANCH   6   9
ENDBRANCH   4   5
ENDBRANCH   3   4
ENDBRANCH   2   3
ENDBRANCH   1   2
BRANCH   1  34
ATOM     34  C   UNL A   1      46.625  37.228  26.125  1.00  0.00     0.021 C 
BRANCH  34  35
ATOM     35  C   UNL A   1      46.547  35.704  26.114  1.00  0.00     0.116 C 
BRANCH  35  36
ATOM     36  N   UNL A   1      45.518  35.206  25.217  1.00  0.00    -0.352 N 
ATOM     37  C   UNL A   1      44.315  34.618  25.524  1.00  0.00     0.251 C 
ATOM     38  H   UNL A   1      45.708  35.305  24.256  1.00  0.00     0.163 HD
ATOM     39  O   UNL A   1      43.640  34.106  24.637  1.00  0.00    -0.269 OA
BRANCH  37  40
ATOM     40  C   UNL A   1      43.860  34.579  26.931  1.00  0.00     0.039 A 
ATOM     41  C   UNL A   1      43.309  35.732  27.495  1.00  0.00     0.014 A 
ATOM     42  C   UNL A   1      43.961  33.406  27.685  1.00  0.00     0.014 A 
ATOM     43  C   UNL A   1      42.804  35.691  28.797  1.00  0.00     0.010 A 
ATOM     44  C   UNL A   1      43.394  33.347  28.955  1.00  0.00     0.010 A 
ATOM     45  C   UNL A   1      42.811  34.490  29.526  1.00  0.00    -0.014 A 
BRANCH  45  46
ATOM     46  C   UNL A   1      42.217  34.412  30.887  1.00  0.00     0.031 A 
ATOM     47  C   UNL A   1      43.106  34.234  32.088  1.00  0.00     0.074 A 
ATOM     48  C   UNL A   1      40.878  34.442  31.032  1.00  0.00     0.049 A 
ATOM     49  N   UNL A   1      42.777  34.074  33.344  1.00  0.00    -0.248 NA
ATOM     50  C   UNL A   1      44.555  34.204  31.837  1.00  0.00     0.031 C 
ATOM     51  C   UNL A   1      39.911  34.569  29.938  1.00  0.00     0.029 A 
ATOM     52  N   UNL A   1      40.093  34.358  32.156  1.00  0.00    -0.354 N 
ATOM     53  C   UNL A   1      43.976  33.907  34.032  1.00  0.00     0.074 A 
ATOM     54  C   UNL A   1      45.032  33.929  33.042  1.00  0.00     0.031 C 
ATOM     55  C   UNL A   1      38.668  34.575  30.446  1.00  0.00     0.029 A 
ATOM     56  C   UNL A   1      38.742  34.407  31.894  1.00  0.00     0.049 A 
ATOM     57  H   UNL A   1      40.462  34.272  33.064  1.00  0.00     0.167 HD
ATOM     58  C   UNL A   1      44.176  33.770  35.365  1.00  0.00     0.034 A 
ATOM     59  C   UNL A   1      37.684  34.311  32.724  1.00  0.00     0.034 A 
ATOM     60  C   UNL A   1      43.111  33.768  36.340  1.00  0.00     0.049 A 
ATOM     61  C   UNL A   1      37.932  34.145  34.202  1.00  0.00     0.074 A 
ATOM     62  C   UNL A   1      43.205  33.700  37.719  1.00  0.00     0.029 A 
ATOM     63  N   UNL A   1      41.756  33.829  36.038  1.00  0.00    -0.354 N 
ATOM     64  N   UNL A   1      39.075  34.048  34.842  1.00  0.00    -0.248 NA
ATOM     65  C   UNL A   1      36.749  34.091  35.071  1.00  0.00     0.031 C 
ATOM     66  C   UNL A   1      41.911  33.646  38.246  1.00  0.00     0.029 A 
ATOM     67  C   UNL A   1      41.005  33.765  37.203  1.00  0.00     0.049 A 
ATOM     68  H   UNL A   1      41.383  33.905  35.131  1.00  0.00     0.167 HD
ATOM     69  C   UNL A   1      38.746  33.953  36.192  1.00  0.00     0.074 A 
ATOM     70  C   UNL A   1      37.302  34.022  36.273  1.00  0.00     0.031 C 
ATOM     71  C   UNL A   1      39.565  33.826  37.269  1.00  0.00     0.034 A 
BRANCH  58  72
ATOM     72  C   UNL A   1      45.597  33.586  35.843  1.00  0.00     0.023 A 
ATOM     73  C   UNL A   1      46.165  32.310  36.005  1.00  0.00     0.031 A 
ATOM     74  C   UNL A   1      46.392  34.703  36.154  1.00  0.00     0.131 A 
ATOM     75  C   UNL A   1      47.459  32.180  36.532  1.00  0.00     0.055 A 
ATOM     76  C   UNL A   1      47.709  34.569  36.600  1.00  0.00     0.041 A 
ATOM     77  F   UNL A   1      45.900  35.946  36.040  1.00  0.00    -0.206 F 
ATOM     78  C   UNL A   1      48.246  33.302  36.806  1.00  0.00     0.022 A 
BRANCH  75  79
ATOM     79  S   UNL A   1      48.049  30.526  36.984  1.00  0.00     0.124 S 
ATOM     80  O   UNL A   1      49.129  30.325  36.020  1.00  0.00    -0.237 OA
ATOM     81  O   UNL A   1      48.457  30.704  38.373  1.00  0.00    -0.237 OA
ATOM     82  O   UNL A   1      46.877  29.676  36.782  1.00  0.00    -0.744 OA
ENDBRANCH  75  79
ENDBRANCH  58  72
BRANCH  59  83
ATOM     83  C   UNL A   1      36.293  34.351  32.186  1.00  0.00     0.023 A 
ATOM     84  C   UNL A   1      35.493  35.497  32.328  1.00  0.00     0.031 A 
ATOM     85  C   UNL A   1      35.724  33.225  31.565  1.00  0.00     0.131 A 
ATOM     86  C   UNL A   1      34.155  35.474  31.905  1.00  0.00     0.055 A 
ATOM     87  C   UNL A   1      34.409  33.226  31.094  1.00  0.00     0.041 A 
ATOM     88  F   UNL A   1      36.444  32.104  31.399  1.00  0.00    -0.206 F 
ATOM     89  C   UNL A   1      33.612  34.351  31.277  1.00  0.00     0.022 A 
BRANCH  86  90
ATOM     90  S   UNL A   1      33.103  36.904  32.276  1.00  0.00     0.124 S 
ATOM     91  O   UNL A   1      32.959  37.516  30.960  1.00  0.00    -0.237 OA
ATOM     92  O   UNL A   1      31.910  36.268  32.823  1.00  0.00    -0.237 OA
ATOM     93  O   UNL A   1      33.896  37.668  33.237  1.00  0.00    -0.744 OA
ENDBRANCH  86  90
ENDBRANCH  59  83
BRANCH  71  94
ATOM     94  C   UNL A   1      38.909  33.801  38.629  1.00  0.00     0.023 A 
ATOM     95  C   UNL A   1      38.258  32.656  39.119  1.00  0.00     0.031 A 
ATOM     96  C   UNL A   1      38.929  34.949  39.442  1.00  0.00     0.131 A 
ATOM     97  C   UNL A   1      37.602  32.700  40.358  1.00  0.00     0.055 A 
ATOM     98  C   UNL A   1      38.330  34.967  40.702  1.00  0.00     0.041 A 
ATOM     99  F   UNL A   1      39.533  36.072  39.024  1.00  0.00    -0.206 F 
ATOM    100  C   UNL A   1      37.650  33.843  41.161  1.00  0.00     0.022 A 
BRANCH  97 101
ATOM    101  S   UNL A   1      36.604  31.275  40.868  1.00  0.00     0.124 S 
ATOM    102  O   UNL A   1      35.245  31.765  40.654  1.00  0.00    -0.237 OA
ATOM    103  O   UNL A   1      37.056  30.232  39.953  1.00  0.00    -0.237 OA
ATOM    104  O   UNL A   1      36.979  31.076  42.267  1.00  0.00    -0.744 OA
ENDBRANCH  97 101
ENDBRANCH  71  94
ENDBRANCH  45  46
ENDBRANCH  37  40
ENDBRANCH  35  36
ENDBRANCH  34  35
ENDBRANCH   1  34
TORSDOF 19
ENDMDL
MODEL 3
REMARK VINA RESULT:     -11.1      4.484      8.003
REMARK SMILES CS(=O)(=O)c1ccc(-c2cc(Cl)cc3c2O[C@H](C(F)(F)F)C(C(=O)NCCCCCCNC(=O)c2ccc(-c4c5nc(c(-c6cc(S(=O)(=O)[O-])ccc6F)c6ccc([nH]6)c(-c6cc(S(=O)(=O)[O-])ccc6F)c6nc(c(-c7cc(S(=O)(=O)[O-])ccc7F)c7ccc4[nH]7)C=C6)C=C5)cc2)=C3)cc1
REMARK SMILES IDX 29 1 28 2 27 3 26 4 25 5 23 6 24 7 22 9 9 10 10 11 15 12
REMARK SMILES IDX 11 13 14 14 16 15 12 16 13 17 98 18 17 19 8 20 5 21 6 22
REMARK SMILES IDX 100 23 7 24 99 25 2 26 1 27 3 28 4 29 18 30 19 31 20 32
REMARK SMILES IDX 21 33 30 34 31 35 32 36 33 37 34 39 35 40 36 41 97 42 37 43
REMARK SMILES IDX 96 44 38 45 39 46 40 47 90 48 41 49 95 50 89 51 91 52 42 53
REMARK SMILES IDX 94 54 88 55 87 56 43 58 75 59 55 60 74 61 56 62 59 63 73 64
REMARK SMILES IDX 92 65 57 66 58 67 72 69 93 70 60 71 44 72 45 73 53 74 46 75
REMARK SMILES IDX 52 76 54 77 51 78 47 79 48 80 49 81 50 82 76 83 77 84 85 85
REMARK SMILES IDX 78 86 84 87 86 88 83 89 79 90 80 91 81 92 82 93 61 94 62 95
REMARK SMILES IDX 70 96 63 97 69 98 71 99 68 100 64 101 65 102 66 103 67 104
REMARK H PARENT 25 8 32 38 91 57 59 68
REMARK Flexibility Score: inf
ROOT
ATOM      1  C   UNL A   1      37.609  32.979  35.581  1.00  0.00     0.002 C 
ENDROOT
BRANCH   1   2
ATOM      2  C   UNL A   1      36.861  33.677  34.443  1.00  0.00     0.002 C 
BRANCH   2   3
ATOM      3  C   UNL A   1      37.728  34.594  33.563  1.00  0.00     0.021 C 
BRANCH   3   4
ATOM      4  C   UNL A   1      37.397  34.551  32.063  1.00  0.00     0.116 C 
BRANCH   4   5
ATOM      5  N   UNL A   1      36.987  33.211  31.693  1.00  0.00    -0.352 N 
ATOM      6  C   UNL A   1      35.850  32.891  31.026  1.00  0.00     0.251 C 
ATOM      7  O   UNL A   1      35.131  31.984  31.431  1.00  0.00    -0.270 OA
ATOM      8  H   UNL A   1      37.584  32.470  31.946  1.00  0.00     0.163 HD
BRANCH   6   9
ATOM      9  C   UNL A   1      35.623  33.579  29.720  1.00  0.00     0.067 C 
ATOM     10  C   UNL A   1      34.811  30.283  27.478  1.00  0.00     0.026 A 
ATOM     11  C   UNL A   1      35.820  29.317  27.732  1.00  0.00     0.033 A 
ATOM     12  C   UNL A   1      35.070  31.591  27.922  1.00  0.00     0.135 A 
ATOM     13  C   UNL A   1      37.061  29.654  28.270  1.00  0.00     0.042 A 
ATOM     14  C   UNL A   1      36.373  31.932  28.364  1.00  0.00     0.019 A 
ATOM     15  O   UNL A   1      34.085  32.566  27.992  1.00  0.00    -0.475 OA
ATOM     16  Cl  UNL A   1      38.216  28.419  28.579  1.00  0.00    -0.084 Cl
ATOM     17  C   UNL A   1      37.369  30.974  28.533  1.00  0.00     0.032 A 
ATOM     18  C   UNL A   1      36.605  33.315  28.835  1.00  0.00     0.025 C 
ATOM     19  C   UNL A   1      34.202  33.452  29.187  1.00  0.00     0.314 C 
BRANCH  10  20
ATOM     20  C   UNL A   1      33.697  29.815  26.617  1.00  0.00    -0.015 A 
ATOM     21  C   UNL A   1      31.936  28.009  25.339  1.00  0.00     0.067 A 
ATOM     22  C   UNL A   1      31.564  28.597  26.548  1.00  0.00     0.021 A 
ATOM     23  C   UNL A   1      33.116  28.403  24.703  1.00  0.00     0.021 A 
ATOM     24  C   UNL A   1      32.437  29.502  27.172  1.00  0.00     0.010 A 
ATOM     25  C   UNL A   1      33.983  29.308  25.336  1.00  0.00     0.010 A 
BRANCH  21  26
ATOM     26  S   UNL A   1      30.913  26.737  24.625  1.00  0.00     0.175 S 
ATOM     27  C   UNL A   1      30.254  25.833  26.005  1.00  0.00     0.163 C 
ATOM     28  O   UNL A   1      31.780  25.825  23.901  1.00  0.00    -0.224 OA
ATOM     29  O   UNL A   1      29.811  27.403  23.959  1.00  0.00    -0.224 OA
ENDBRANCH  21  26
ENDBRANCH  10  20
BRANCH  19  30
ATOM     30  C   UNL A   1      33.658  34.868  28.903  1.00  0.00     0.429 C 
ATOM     31  F   UNL A   1      33.669  35.657  30.002  1.00  0.00    -0.167 F 
ATOM     32  F   UNL A   1      34.384  35.490  27.944  1.00  0.00    -0.167 F 
ATOM     33  F   UNL A   1      32.375  34.848  28.455  1.00  0.00    -0.167 F 
ENDBRANCH  19  30
ENDBRANCH   6   9
ENDBRANCH   4   5
ENDBRANCH   3   4
ENDBRANCH   2   3
ENDBRANCH   1   2
BRANCH   1  34
ATOM     34  C   UNL A   1      37.847  31.485  35.364  1.00  0.00     0.021 C 
BRANCH  34  35
ATOM     35  C   UNL A   1      37.891  31.052  33.902  1.00  0.00     0.116 C 
BRANCH  35  36
ATOM     36  N   UNL A   1      38.145  29.628  33.752  1.00  0.00    -0.352 N 
ATOM     37  C   UNL A   1      39.088  28.997  32.977  1.00  0.00     0.251 C 
ATOM     38  H   UNL A   1      37.563  29.035  34.278  1.00  0.00     0.163 HD
ATOM     39  O   UNL A   1      39.053  27.778  32.843  1.00  0.00    -0.269 OA
BRANCH  37  40
ATOM     40  C   UNL A   1      40.120  29.799  32.284  1.00  0.00     0.039 A 
ATOM     41  C   UNL A   1      41.145  30.377  33.036  1.00  0.00     0.014 A 
ATOM     42  C   UNL A   1      40.084  29.968  30.896  1.00  0.00     0.014 A 
ATOM     43  C   UNL A   1      42.169  31.073  32.388  1.00  0.00     0.010 A 
ATOM     44  C   UNL A   1      41.142  30.599  30.247  1.00  0.00     0.010 A 
ATOM     45  C   UNL A   1      42.194  31.161  30.986  1.00  0.00    -0.014 A 
BRANCH  45  46
ATOM     46  C   UNL A   1      43.312  31.840  30.279  1.00  0.00     0.031 A 
ATOM     47  C   UNL A   1      44.586  31.092  29.991  1.00  0.00     0.074 A 
ATOM     48  C   UNL A   1      43.201  33.142  29.951  1.00  0.00     0.049 A 
ATOM     49  N   UNL A   1      45.696  31.526  29.451  1.00  0.00    -0.248 NA
ATOM     50  C   UNL A   1      44.624  29.677  30.390  1.00  0.00     0.031 C 
ATOM     51  C   UNL A   1      42.031  33.984  30.217  1.00  0.00     0.029 A 
ATOM     52  N   UNL A   1      44.085  33.993  29.334  1.00  0.00    -0.354 N 
ATOM     53  C   UNL A   1      46.571  30.443  29.460  1.00  0.00     0.074 A 
ATOM     54  C   UNL A   1      45.878  29.352  30.111  1.00  0.00     0.031 C 
ATOM     55  C   UNL A   1      42.262  35.221  29.747  1.00  0.00     0.029 A 
ATOM     56  C   UNL A   1      43.609  35.277  29.189  1.00  0.00     0.049 A 
ATOM     57  H   UNL A   1      44.975  33.710  29.023  1.00  0.00     0.167 HD
ATOM     58  C   UNL A   1      47.825  30.363  28.954  1.00  0.00     0.034 A 
ATOM     59  C   UNL A   1      44.198  36.378  28.680  1.00  0.00     0.034 A 
ATOM     60  C   UNL A   1      48.494  31.457  28.291  1.00  0.00     0.049 A 
ATOM     61  C   UNL A   1      45.599  36.266  28.135  1.00  0.00     0.074 A 
ATOM     62  C   UNL A   1      49.738  31.467  27.685  1.00  0.00     0.029 A 
ATOM     63  N   UNL A   1      47.978  32.740  28.156  1.00  0.00    -0.354 N 
ATOM     64  N   UNL A   1      46.391  35.219  28.098  1.00  0.00    -0.248 NA
ATOM     65  C   UNL A   1      46.181  37.481  27.548  1.00  0.00     0.031 C 
ATOM     66  C   UNL A   1      50.005  32.768  27.249  1.00  0.00     0.029 A 
ATOM     67  C   UNL A   1      48.894  33.556  27.507  1.00  0.00     0.049 A 
ATOM     68  H   UNL A   1      47.093  33.029  28.474  1.00  0.00     0.167 HD
ATOM     69  C   UNL A   1      47.552  35.643  27.456  1.00  0.00     0.074 A 
ATOM     70  C   UNL A   1      47.349  37.034  27.109  1.00  0.00     0.031 C 
ATOM     71  C   UNL A   1      48.682  34.944  27.175  1.00  0.00     0.034 A 
BRANCH  58  72
ATOM     72  C   UNL A   1      48.563  29.055  29.120  1.00  0.00     0.023 A 
ATOM     73  C   UNL A   1      48.416  27.999  28.203  1.00  0.00     0.031 A 
ATOM     74  C   UNL A   1      49.417  28.856  30.219  1.00  0.00     0.131 A 
ATOM     75  C   UNL A   1      49.051  26.771  28.439  1.00  0.00     0.055 A 
ATOM     76  C   UNL A   1      50.112  27.659  30.404  1.00  0.00     0.041 A 
ATOM     77  F   UNL A   1      49.583  29.818  31.139  1.00  0.00    -0.206 F 
ATOM     78  C   UNL A   1      49.921  26.602  29.520  1.00  0.00     0.022 A 
BRANCH  75  79
ATOM     79  S   UNL A   1      48.620  25.355  27.392  1.00  0.00     0.124 S 
ATOM     80  O   UNL A   1      49.751  24.460  27.627  1.00  0.00    -0.237 OA
ATOM     81  O   UNL A   1      47.341  24.928  27.948  1.00  0.00    -0.237 OA
ATOM     82  O   UNL A   1      48.557  25.928  26.049  1.00  0.00    -0.744 OA
ENDBRANCH  75  79
ENDBRANCH  58  72
BRANCH  59  83
ATOM     83  C   UNL A   1      43.480  37.686  28.672  1.00  0.00     0.023 A 
ATOM     84  C   UNL A   1      43.673  38.626  29.697  1.00  0.00     0.031 A 
ATOM     85  C   UNL A   1      42.551  37.995  27.662  1.00  0.00     0.131 A 
ATOM     86  C   UNL A   1      42.910  39.804  29.720  1.00  0.00     0.055 A 
ATOM     87  C   UNL A   1      41.836  39.194  27.659  1.00  0.00     0.041 A 
ATOM     88  F   UNL A   1      42.330  37.135  26.655  1.00  0.00    -0.206 F 
ATOM     89  C   UNL A   1      42.002  40.100  28.701  1.00  0.00     0.022 A 
BRANCH  86  90
ATOM     90  S   UNL A   1      43.051  40.901  31.158  1.00  0.00     0.124 S 
ATOM     91  O   UNL A   1      44.463  41.263  31.117  1.00  0.00    -0.237 OA
ATOM     92  O   UNL A   1      42.106  41.960  30.823  1.00  0.00    -0.237 OA
ATOM     93  O   UNL A   1      42.657  40.047  32.276  1.00  0.00    -0.744 OA
ENDBRANCH  86  90
ENDBRANCH  59  83
BRANCH  71  94
ATOM     94  C   UNL A   1      49.764  35.670  26.412  1.00  0.00     0.023 A 
ATOM     95  C   UNL A   1      50.797  36.363  27.067  1.00  0.00     0.031 A 
ATOM     96  C   UNL A   1      49.752  35.676  25.005  1.00  0.00     0.131 A 
ATOM     97  C   UNL A   1      51.741  37.082  26.319  1.00  0.00     0.055 A 
ATOM     98  C   UNL A   1      50.731  36.340  24.265  1.00  0.00     0.041 A 
ATOM     99  F   UNL A   1      48.788  35.034  24.327  1.00  0.00    -0.206 F 
ATOM    100  C   UNL A   1      51.725  37.060  24.922  1.00  0.00     0.022 A 
BRANCH  97 101
ATOM    101  S   UNL A   1      52.937  38.126  27.196  1.00  0.00     0.124 S 
ATOM    102  O   UNL A   1      53.943  38.365  26.165  1.00  0.00    -0.237 OA
ATOM    103  O   UNL A   1      52.126  39.279  27.574  1.00  0.00    -0.237 OA
ATOM    104  O   UNL A   1      53.376  37.286  28.309  1.00  0.00    -0.744 OA
ENDBRANCH  97 101
ENDBRANCH  71  94
ENDBRANCH  45  46
ENDBRANCH  37  40
ENDBRANCH  35  36
ENDBRANCH  34  35
ENDBRANCH   1  34
TORSDOF 19
ENDMDL
