MODEL 1
REMARK VINA RESULT:     -10.6      0.000      0.000
REMARK SMILES O=C(Cc1ccc(S(=O)(=O)CC(=O)NCC2CC2)cc1)NCCCCCCNC(=O)c1ccc(-c2c3nc(c(-c4cc(S(=O)(=O)[O-])ccc4F)c4ccc([nH]4)c(-c4cc(S(=O)(=O)[O-])ccc4F)c4nc(c(-c5cc(S(=O)(=O)[O-])ccc5F)c5ccc2[nH]5)C=C4)C=C3)cc1
REMARK SMILES IDX 23 1 22 2 21 3 1 4 2 5 3 7 4 8 5 9 20 10 6 11 19 12 7 13
REMARK SMILES IDX 8 14 9 15 10 16 11 17 12 18 13 19 14 20 15 22 16 23 17 24
REMARK SMILES IDX 18 25 24 26 25 27 26 28 27 29 28 30 29 31 30 33 31 34 32 35
REMARK SMILES IDX 93 36 33 37 92 38 34 39 35 40 36 41 86 42 37 43 91 44 85 45
REMARK SMILES IDX 87 46 38 47 90 48 84 49 83 50 39 52 71 53 51 54 70 55 52 56
REMARK SMILES IDX 55 57 69 58 88 59 53 60 54 61 68 63 89 64 56 65 40 66 41 67
REMARK SMILES IDX 49 68 42 69 48 70 50 71 47 72 43 73 44 74 45 75 46 76 72 77
REMARK SMILES IDX 73 78 81 79 74 80 80 81 82 82 79 83 75 84 76 85 77 86 78 87
REMARK SMILES IDX 57 88 58 89 66 90 59 91 65 92 67 93 64 94 60 95 61 96 62 97
REMARK SMILES IDX 63 98
REMARK H PARENT 21 6 14 21 28 32 87 51 55 62
REMARK Flexibility Score: inf
ROOT
ATOM      1  C   UNL A   1      35.836  24.114  25.482  1.00  0.00     0.021 C 
ENDROOT
BRANCH   1   2
ATOM      2  C   UNL A   1      35.345  22.669  25.497  1.00  0.00     0.116 C 
BRANCH   2   3
ATOM      3  N   UNL A   1      33.906  22.596  25.351  1.00  0.00    -0.356 N 
ATOM      4  O   UNL A   1      33.722  20.312  25.565  1.00  0.00    -0.275 OA
ATOM      5  C   UNL A   1      33.200  21.414  25.427  1.00  0.00     0.224 C 
ATOM      6  H   UNL A   1      33.408  23.430  25.192  1.00  0.00     0.163 HD
BRANCH   5   7
ATOM      7  C   UNL A   1      31.698  21.592  25.302  1.00  0.00     0.135 C 
BRANCH   7   8
ATOM      8  C   UNL A   1      31.211  22.989  24.971  1.00  0.00    -0.039 A 
ATOM      9  C   UNL A   1      30.844  23.932  25.939  1.00  0.00     0.005 A 
ATOM     10  C   UNL A   1      31.133  23.360  23.616  1.00  0.00     0.005 A 
ATOM     11  C   UNL A   1      30.432  25.213  25.567  1.00  0.00     0.020 A 
ATOM     12  C   UNL A   1      30.681  24.629  23.235  1.00  0.00     0.020 A 
ATOM     13  C   UNL A   1      30.350  25.559  24.214  1.00  0.00     0.067 A 
BRANCH  13  14
ATOM     14  S   UNL A   1      29.756  27.183  23.833  1.00  0.00     0.187 S 
ATOM     15  O   UNL A   1      28.321  27.040  23.656  1.00  0.00    -0.223 OA
ATOM     16  O   UNL A   1      30.258  28.060  24.877  1.00  0.00    -0.223 OA
BRANCH  14  17
ATOM     17  C   UNL A   1      30.393  27.768  22.308  1.00  0.00     0.241 C 
BRANCH  17  18
ATOM     18  C   UNL A   1      30.997  29.132  22.347  1.00  0.00     0.235 C 
ATOM     19  O   UNL A   1      32.175  29.284  22.683  1.00  0.00    -0.274 OA
ATOM     20  N   UNL A   1      30.329  30.230  21.911  1.00  0.00    -0.355 N 
ATOM     21  H   UNL A   1      30.875  31.044  21.830  1.00  0.00     0.163 HD
BRANCH  20  22
ATOM     22  C   UNL A   1      28.937  30.387  21.545  1.00  0.00     0.119 C 
BRANCH  22  23
ATOM     23  C   UNL A   1      28.388  31.583  22.263  1.00  0.00     0.008 C 
ATOM     24  C   UNL A   1      27.612  31.412  23.547  1.00  0.00     0.006 C 
ATOM     25  C   UNL A   1      28.986  32.013  23.579  1.00  0.00     0.006 C 
ENDBRANCH  22  23
ENDBRANCH  20  22
ENDBRANCH  17  18
ENDBRANCH  14  17
ENDBRANCH  13  14
ENDBRANCH   7   8
ENDBRANCH   5   7
ENDBRANCH   2   3
ENDBRANCH   1   2
BRANCH   1  26
ATOM     26  C   UNL A   1      34.843  25.140  26.046  1.00  0.00     0.002 C 
BRANCH  26  27
ATOM     27  C   UNL A   1      34.050  25.933  25.003  1.00  0.00     0.002 C 
BRANCH  27  28
ATOM     28  C   UNL A   1      34.045  27.451  25.200  1.00  0.00     0.021 C 
BRANCH  28  29
ATOM     29  C   UNL A   1      33.782  27.917  26.629  1.00  0.00     0.116 C 
BRANCH  29  30
ATOM     30  N   UNL A   1      33.540  29.349  26.716  1.00  0.00    -0.352 N 
ATOM     31  C   UNL A   1      34.288  30.311  27.354  1.00  0.00     0.251 C 
ATOM     32  H   UNL A   1      32.732  29.672  26.257  1.00  0.00     0.163 HD
ATOM     33  O   UNL A   1      33.856  31.455  27.459  1.00  0.00    -0.269 OA
BRANCH  31  34
ATOM     34  C   UNL A   1      35.598  29.947  27.940  1.00  0.00     0.039 A 
ATOM     35  C   UNL A   1      35.649  29.474  29.254  1.00  0.00     0.014 A 
ATOM     36  C   UNL A   1      36.770  30.050  27.185  1.00  0.00     0.014 A 
ATOM     37  C   UNL A   1      36.865  29.038  29.787  1.00  0.00     0.010 A 
ATOM     38  C   UNL A   1      37.967  29.554  27.694  1.00  0.00     0.010 A 
ATOM     39  C   UNL A   1      38.029  29.039  29.000  1.00  0.00    -0.014 A 
BRANCH  39  40
ATOM     40  C   UNL A   1      39.324  28.517  29.516  1.00  0.00     0.031 A 
ATOM     41  C   UNL A   1      40.042  29.260  30.612  1.00  0.00     0.074 A 
ATOM     42  C   UNL A   1      39.891  27.436  28.946  1.00  0.00     0.049 A 
ATOM     43  N   UNL A   1      41.238  29.058  31.102  1.00  0.00    -0.248 NA
ATOM     44  C   UNL A   1      39.331  30.399  31.213  1.00  0.00     0.031 C 
ATOM     45  C   UNL A   1      39.305  26.644  27.861  1.00  0.00     0.029 A 
ATOM     46  N   UNL A   1      41.097  26.821  29.183  1.00  0.00    -0.354 N 
ATOM     47  C   UNL A   1      41.434  30.059  32.048  1.00  0.00     0.074 A 
ATOM     48  C   UNL A   1      40.250  30.891  32.033  1.00  0.00     0.031 C 
ATOM     49  C   UNL A   1      40.145  25.648  27.536  1.00  0.00     0.029 A 
ATOM     50  C   UNL A   1      41.354  25.756  28.348  1.00  0.00     0.049 A 
ATOM     51  H   UNL A   1      41.720  27.116  29.886  1.00  0.00     0.167 HD
ATOM     52  C   UNL A   1      42.501  30.258  32.860  1.00  0.00     0.034 A 
ATOM     53  C   UNL A   1      42.446  24.973  28.234  1.00  0.00     0.034 A 
ATOM     54  C   UNL A   1      43.660  29.401  32.890  1.00  0.00     0.049 A 
ATOM     55  C   UNL A   1      43.626  25.229  29.142  1.00  0.00     0.074 A 
ATOM     56  C   UNL A   1      44.759  29.471  33.727  1.00  0.00     0.029 A 
ATOM     57  N   UNL A   1      43.873  28.322  32.043  1.00  0.00    -0.354 N 
ATOM     58  N   UNL A   1      43.771  26.150  30.068  1.00  0.00    -0.248 NA
ATOM     59  C   UNL A   1      44.785  24.338  28.997  1.00  0.00     0.031 C 
ATOM     60  C   UNL A   1      45.668  28.481  33.343  1.00  0.00     0.029 A 
ATOM     61  C   UNL A   1      45.100  27.740  32.319  1.00  0.00     0.049 A 
ATOM     62  H   UNL A   1      43.246  28.015  31.350  1.00  0.00     0.167 HD
ATOM     63  C   UNL A   1      45.017  25.913  30.644  1.00  0.00     0.074 A 
ATOM     64  C   UNL A   1      45.578  24.764  29.968  1.00  0.00     0.031 C 
ATOM     65  C   UNL A   1      45.640  26.583  31.647  1.00  0.00     0.034 A 
BRANCH  52  66
ATOM     66  C   UNL A   1      42.480  31.462  33.769  1.00  0.00     0.023 A 
ATOM     67  C   UNL A   1      41.920  31.413  35.056  1.00  0.00     0.031 A 
ATOM     68  C   UNL A   1      43.050  32.676  33.343  1.00  0.00     0.131 A 
ATOM     69  C   UNL A   1      41.895  32.568  35.852  1.00  0.00     0.055 A 
ATOM     70  C   UNL A   1      43.087  33.801  34.168  1.00  0.00     0.041 A 
ATOM     71  F   UNL A   1      43.581  32.788  32.115  1.00  0.00    -0.206 F 
ATOM     72  C   UNL A   1      42.498  33.755  35.428  1.00  0.00     0.022 A 
BRANCH  69  73
ATOM     73  S   UNL A   1      40.969  32.529  37.412  1.00  0.00     0.124 S 
ATOM     74  O   UNL A   1      41.840  31.709  38.250  1.00  0.00    -0.237 OA
ATOM     75  O   UNL A   1      40.887  33.941  37.766  1.00  0.00    -0.237 OA
ATOM     76  O   UNL A   1      39.702  31.903  37.042  1.00  0.00    -0.744 OA
ENDBRANCH  69  73
ENDBRANCH  52  66
BRANCH  53  77
ATOM     77  C   UNL A   1      42.508  23.885  27.212  1.00  0.00     0.023 A 
ATOM     78  C   UNL A   1      41.886  22.646  27.441  1.00  0.00     0.031 A 
ATOM     79  C   UNL A   1      43.262  24.032  26.034  1.00  0.00     0.131 A 
ATOM     80  C   UNL A   1      42.088  21.584  26.546  1.00  0.00     0.055 A 
ATOM     81  C   UNL A   1      43.404  22.992  25.113  1.00  0.00     0.041 A 
ATOM     82  F   UNL A   1      43.877  25.194  25.761  1.00  0.00    -0.206 F 
ATOM     83  C   UNL A   1      42.832  21.751  25.378  1.00  0.00     0.022 A 
BRANCH  80  84
ATOM     84  S   UNL A   1      41.474  19.939  27.004  1.00  0.00     0.124 S 
ATOM     85  O   UNL A   1      40.815  20.212  28.277  1.00  0.00    -0.237 OA
ATOM     86  O   UNL A   1      40.596  19.621  25.882  1.00  0.00    -0.237 OA
ATOM     87  O   UNL A   1      42.690  19.134  27.091  1.00  0.00    -0.744 OA
ENDBRANCH  80  84
ENDBRANCH  53  77
BRANCH  65  88
ATOM     88  C   UNL A   1      46.962  26.038  32.127  1.00  0.00     0.023 A 
ATOM     89  C   UNL A   1      47.054  25.161  33.221  1.00  0.00     0.031 A 
ATOM     90  C   UNL A   1      48.149  26.399  31.464  1.00  0.00     0.131 A 
ATOM     91  C   UNL A   1      48.313  24.711  33.649  1.00  0.00     0.055 A 
ATOM     92  C   UNL A   1      49.392  25.903  31.858  1.00  0.00     0.041 A 
ATOM     93  F   UNL A   1      48.117  27.235  30.414  1.00  0.00    -0.206 F 
ATOM     94  C   UNL A   1      49.480  25.062  32.963  1.00  0.00     0.022 A 
BRANCH  91  95
ATOM     95  S   UNL A   1      48.415  23.714  35.161  1.00  0.00     0.124 S 
ATOM     96  O   UNL A   1      49.736  24.069  35.671  1.00  0.00    -0.237 OA
ATOM     97  O   UNL A   1      47.280  24.203  35.936  1.00  0.00    -0.237 OA
ATOM     98  O   UNL A   1      48.286  22.341  34.676  1.00  0.00    -0.744 OA
ENDBRANCH  91  95
ENDBRANCH  65  88
ENDBRANCH  39  40
ENDBRANCH  31  34
ENDBRANCH  29  30
ENDBRANCH  28  29
ENDBRANCH  27  28
ENDBRANCH  26  27
ENDBRANCH   1  26
TORSDOF 22
ENDMDL
MODEL 2
REMARK VINA RESULT:     -10.1      5.330      9.526
REMARK SMILES O=C(Cc1ccc(S(=O)(=O)CC(=O)NCC2CC2)cc1)NCCCCCCNC(=O)c1ccc(-c2c3nc(c(-c4cc(S(=O)(=O)[O-])ccc4F)c4ccc([nH]4)c(-c4cc(S(=O)(=O)[O-])ccc4F)c4nc(c(-c5cc(S(=O)(=O)[O-])ccc5F)c5ccc2[nH]5)C=C4)C=C3)cc1
REMARK SMILES IDX 23 1 22 2 21 3 1 4 2 5 3 7 4 8 5 9 20 10 6 11 19 12 7 13
REMARK SMILES IDX 8 14 9 15 10 16 11 17 12 18 13 19 14 20 15 22 16 23 17 24
REMARK SMILES IDX 18 25 24 26 25 27 26 28 27 29 28 30 29 31 30 33 31 34 32 35
REMARK SMILES IDX 93 36 33 37 92 38 34 39 35 40 36 41 86 42 37 43 91 44 85 45
REMARK SMILES IDX 87 46 38 47 90 48 84 49 83 50 39 52 71 53 51 54 70 55 52 56
REMARK SMILES IDX 55 57 69 58 88 59 53 60 54 61 68 63 89 64 56 65 40 66 41 67
REMARK SMILES IDX 49 68 42 69 48 70 50 71 47 72 43 73 44 74 45 75 46 76 72 77
REMARK SMILES IDX 73 78 81 79 74 80 80 81 82 82 79 83 75 84 76 85 77 86 78 87
REMARK SMILES IDX 57 88 58 89 66 90 59 91 65 92 67 93 64 94 60 95 61 96 62 97
REMARK SMILES IDX 63 98
REMARK H PARENT 21 6 14 21 28 32 87 51 55 62
REMARK Flexibility Score: inf
ROOT
ATOM      1  C   UNL A   1      38.606  22.637  26.107  1.00  0.00     0.021 C 
ENDROOT
BRANCH   1   2
ATOM      2  C   UNL A   1      37.908  21.544  25.302  1.00  0.00     0.116 C 
BRANCH   2   3
ATOM      3  N   UNL A   1      36.783  22.070  24.556  1.00  0.00    -0.356 N 
ATOM      4  O   UNL A   1      35.130  21.200  25.899  1.00  0.00    -0.275 OA
ATOM      5  C   UNL A   1      35.472  21.878  24.935  1.00  0.00     0.224 C 
ATOM      6  H   UNL A   1      36.964  22.590  23.741  1.00  0.00     0.163 HD
BRANCH   5   7
ATOM      7  C   UNL A   1      34.468  22.571  24.032  1.00  0.00     0.135 C 
BRANCH   7   8
ATOM      8  C   UNL A   1      34.231  24.046  24.296  1.00  0.00    -0.039 A 
ATOM      9  C   UNL A   1      34.280  24.622  25.572  1.00  0.00     0.005 A 
ATOM     10  C   UNL A   1      33.955  24.880  23.198  1.00  0.00     0.005 A 
ATOM     11  C   UNL A   1      34.081  25.993  25.742  1.00  0.00     0.020 A 
ATOM     12  C   UNL A   1      33.713  26.248  23.367  1.00  0.00     0.020 A 
ATOM     13  C   UNL A   1      33.797  26.804  24.639  1.00  0.00     0.067 A 
BRANCH  13  14
ATOM     14  S   UNL A   1      33.495  28.520  24.956  1.00  0.00     0.187 S 
ATOM     15  O   UNL A   1      34.440  28.894  25.995  1.00  0.00    -0.223 OA
ATOM     16  O   UNL A   1      33.552  29.192  23.669  1.00  0.00    -0.223 OA
BRANCH  14  17
ATOM     17  C   UNL A   1      31.894  28.789  25.616  1.00  0.00     0.241 C 
BRANCH  17  18
ATOM     18  C   UNL A   1      31.098  29.861  24.949  1.00  0.00     0.235 C 
ATOM     19  O   UNL A   1      31.094  31.009  25.402  1.00  0.00    -0.274 OA
ATOM     20  N   UNL A   1      30.450  29.654  23.775  1.00  0.00    -0.355 N 
ATOM     21  H   UNL A   1      30.096  30.466  23.347  1.00  0.00     0.163 HD
BRANCH  20  22
ATOM     22  C   UNL A   1      30.201  28.424  23.053  1.00  0.00     0.119 C 
BRANCH  22  23
ATOM     23  C   UNL A   1      29.852  27.353  24.043  1.00  0.00     0.008 C 
ATOM     24  C   UNL A   1      28.666  26.451  23.803  1.00  0.00     0.006 C 
ATOM     25  C   UNL A   1      30.056  25.902  23.687  1.00  0.00     0.006 C 
ENDBRANCH  22  23
ENDBRANCH  20  22
ENDBRANCH  17  18
ENDBRANCH  14  17
ENDBRANCH  13  14
ENDBRANCH   7   8
ENDBRANCH   5   7
ENDBRANCH   2   3
ENDBRANCH   1   2
BRANCH   1  26
ATOM     26  C   UNL A   1      40.097  22.394  26.370  1.00  0.00     0.002 C 
BRANCH  26  27
ATOM     27  C   UNL A   1      40.440  21.064  27.049  1.00  0.00     0.002 C 
BRANCH  27  28
ATOM     28  C   UNL A   1      40.990  19.979  26.121  1.00  0.00     0.021 C 
BRANCH  28  29
ATOM     29  C   UNL A   1      42.281  19.316  26.592  1.00  0.00     0.116 C 
BRANCH  29  30
ATOM     30  N   UNL A   1      43.221  19.085  25.506  1.00  0.00    -0.352 N 
ATOM     31  C   UNL A   1      43.996  19.998  24.830  1.00  0.00     0.251 C 
ATOM     32  H   UNL A   1      43.315  18.149  25.216  1.00  0.00     0.163 HD
ATOM     33  O   UNL A   1      44.623  19.653  23.833  1.00  0.00    -0.269 OA
BRANCH  31  34
ATOM     34  C   UNL A   1      44.041  21.403  25.294  1.00  0.00     0.039 A 
ATOM     35  C   UNL A   1      44.742  21.712  26.463  1.00  0.00     0.014 A 
ATOM     36  C   UNL A   1      43.413  22.416  24.564  1.00  0.00     0.014 A 
ATOM     37  C   UNL A   1      44.873  23.046  26.861  1.00  0.00     0.010 A 
ATOM     38  C   UNL A   1      43.600  23.747  24.925  1.00  0.00     0.010 A 
ATOM     39  C   UNL A   1      44.335  24.079  26.076  1.00  0.00    -0.014 A 
BRANCH  39  40
ATOM     40  C   UNL A   1      44.516  25.512  26.436  1.00  0.00     0.031 A 
ATOM     41  C   UNL A   1      45.883  26.136  26.341  1.00  0.00     0.074 A 
ATOM     42  C   UNL A   1      43.480  26.221  26.926  1.00  0.00     0.049 A 
ATOM     43  N   UNL A   1      46.284  27.316  26.737  1.00  0.00    -0.248 NA
ATOM     44  C   UNL A   1      46.947  25.309  25.748  1.00  0.00     0.031 C 
ATOM     45  C   UNL A   1      42.112  25.721  27.088  1.00  0.00     0.029 A 
ATOM     46  N   UNL A   1      43.414  27.510  27.397  1.00  0.00    -0.354 N 
ATOM     47  C   UNL A   1      47.647  27.365  26.469  1.00  0.00     0.074 A 
ATOM     48  C   UNL A   1      48.013  26.079  25.913  1.00  0.00     0.031 C 
ATOM     49  C   UNL A   1      41.345  26.693  27.610  1.00  0.00     0.029 A 
ATOM     50  C   UNL A   1      42.171  27.868  27.871  1.00  0.00     0.049 A 
ATOM     51  H   UNL A   1      44.185  28.122  27.396  1.00  0.00     0.167 HD
ATOM     52  C   UNL A   1      48.512  28.391  26.660  1.00  0.00     0.034 A 
ATOM     53  C   UNL A   1      41.752  29.002  28.469  1.00  0.00     0.034 A 
ATOM     54  C   UNL A   1      48.127  29.679  27.182  1.00  0.00     0.049 A 
ATOM     55  C   UNL A   1      42.742  30.123  28.683  1.00  0.00     0.074 A 
ATOM     56  C   UNL A   1      48.909  30.809  27.342  1.00  0.00     0.029 A 
ATOM     57  N   UNL A   1      46.856  30.008  27.631  1.00  0.00    -0.354 N 
ATOM     58  N   UNL A   1      44.018  30.169  28.373  1.00  0.00    -0.248 NA
ATOM     59  C   UNL A   1      42.236  31.348  29.318  1.00  0.00     0.031 C 
ATOM     60  C   UNL A   1      48.132  31.798  27.953  1.00  0.00     0.029 A 
ATOM     61  C   UNL A   1      46.842  31.313  28.098  1.00  0.00     0.049 A 
ATOM     62  H   UNL A   1      46.078  29.405  27.620  1.00  0.00     0.167 HD
ATOM     63  C   UNL A   1      44.449  31.443  28.734  1.00  0.00     0.074 A 
ATOM     64  C   UNL A   1      43.301  32.135  29.276  1.00  0.00     0.031 C 
ATOM     65  C   UNL A   1      45.684  31.996  28.621  1.00  0.00     0.034 A 
BRANCH  52  66
ATOM     66  C   UNL A   1      49.965  28.161  26.327  1.00  0.00     0.023 A 
ATOM     67  C   UNL A   1      50.460  28.300  25.020  1.00  0.00     0.031 A 
ATOM     68  C   UNL A   1      50.874  27.814  27.344  1.00  0.00     0.131 A 
ATOM     69  C   UNL A   1      51.814  28.043  24.754  1.00  0.00     0.055 A 
ATOM     70  C   UNL A   1      52.234  27.632  27.085  1.00  0.00     0.041 A 
ATOM     71  F   UNL A   1      50.454  27.648  28.608  1.00  0.00    -0.206 F 
ATOM     72  C   UNL A   1      52.709  27.736  25.782  1.00  0.00     0.022 A 
BRANCH  69  73
ATOM     73  S   UNL A   1      52.370  28.013  23.028  1.00  0.00     0.124 S 
ATOM     74  O   UNL A   1      52.793  26.624  22.879  1.00  0.00    -0.237 OA
ATOM     75  O   UNL A   1      51.165  28.395  22.301  1.00  0.00    -0.237 OA
ATOM     76  O   UNL A   1      53.452  28.994  22.999  1.00  0.00    -0.744 OA
ENDBRANCH  69  73
ENDBRANCH  52  66
BRANCH  53  77
ATOM     77  C   UNL A   1      40.341  29.148  28.938  1.00  0.00     0.023 A 
ATOM     78  C   UNL A   1      40.025  29.058  30.304  1.00  0.00     0.031 A 
ATOM     79  C   UNL A   1      39.280  29.288  28.027  1.00  0.00     0.131 A 
ATOM     80  C   UNL A   1      38.682  29.036  30.713  1.00  0.00     0.055 A 
ATOM     81  C   UNL A   1      37.948  29.334  28.445  1.00  0.00     0.041 A 
ATOM     82  F   UNL A   1      39.522  29.380  26.709  1.00  0.00    -0.206 F 
ATOM     83  C   UNL A   1      37.642  29.186  29.795  1.00  0.00     0.022 A 
BRANCH  80  84
ATOM     84  S   UNL A   1      38.313  28.672  32.451  1.00  0.00     0.124 S 
ATOM     85  O   UNL A   1      38.405  27.216  32.475  1.00  0.00    -0.237 OA
ATOM     86  O   UNL A   1      39.376  29.394  33.143  1.00  0.00    -0.237 OA
ATOM     87  O   UNL A   1      36.970  29.216  32.635  1.00  0.00    -0.744 OA
ENDBRANCH  80  84
ENDBRANCH  53  77
BRANCH  65  88
ATOM     88  C   UNL A   1      45.834  33.443  29.018  1.00  0.00     0.023 A 
ATOM     89  C   UNL A   1      45.630  34.492  28.105  1.00  0.00     0.031 A 
ATOM     90  C   UNL A   1      46.178  33.773  30.341  1.00  0.00     0.131 A 
ATOM     91  C   UNL A   1      45.817  35.820  28.517  1.00  0.00     0.055 A 
ATOM     92  C   UNL A   1      46.305  35.097  30.760  1.00  0.00     0.041 A 
ATOM     93  F   UNL A   1      46.385  32.809  31.254  1.00  0.00    -0.206 F 
ATOM     94  C   UNL A   1      46.136  36.130  29.842  1.00  0.00     0.022 A 
BRANCH  91  95
ATOM     95  S   UNL A   1      45.708  37.141  27.279  1.00  0.00     0.124 S 
ATOM     96  O   UNL A   1      44.269  37.223  27.048  1.00  0.00    -0.237 OA
ATOM     97  O   UNL A   1      46.308  38.274  27.976  1.00  0.00    -0.237 OA
ATOM     98  O   UNL A   1      46.489  36.624  26.155  1.00  0.00    -0.744 OA
ENDBRANCH  91  95
ENDBRANCH  65  88
ENDBRANCH  39  40
ENDBRANCH  31  34
ENDBRANCH  29  30
ENDBRANCH  28  29
ENDBRANCH  27  28
ENDBRANCH  26  27
ENDBRANCH   1  26
TORSDOF 22
ENDMDL
MODEL 3
REMARK VINA RESULT:     -10.0      4.256      6.812
REMARK SMILES O=C(Cc1ccc(S(=O)(=O)CC(=O)NCC2CC2)cc1)NCCCCCCNC(=O)c1ccc(-c2c3nc(c(-c4cc(S(=O)(=O)[O-])ccc4F)c4ccc([nH]4)c(-c4cc(S(=O)(=O)[O-])ccc4F)c4nc(c(-c5cc(S(=O)(=O)[O-])ccc5F)c5ccc2[nH]5)C=C4)C=C3)cc1
REMARK SMILES IDX 23 1 22 2 21 3 1 4 2 5 3 7 4 8 5 9 20 10 6 11 19 12 7 13
REMARK SMILES IDX 8 14 9 15 10 16 11 17 12 18 13 19 14 20 15 22 16 23 17 24
REMARK SMILES IDX 18 25 24 26 25 27 26 28 27 29 28 30 29 31 30 33 31 34 32 35
REMARK SMILES IDX 93 36 33 37 92 38 34 39 35 40 36 41 86 42 37 43 91 44 85 45
REMARK SMILES IDX 87 46 38 47 90 48 84 49 83 50 39 52 71 53 51 54 70 55 52 56
REMARK SMILES IDX 55 57 69 58 88 59 53 60 54 61 68 63 89 64 56 65 40 66 41 67
REMARK SMILES IDX 49 68 42 69 48 70 50 71 47 72 43 73 44 74 45 75 46 76 72 77
REMARK SMILES IDX 73 78 81 79 74 80 80 81 82 82 79 83 75 84 76 85 77 86 78 87
REMARK SMILES IDX 57 88 58 89 66 90 59 91 65 92 67 93 64 94 60 95 61 96 62 97
REMARK SMILES IDX 63 98
REMARK H PARENT 21 6 14 21 28 32 87 51 55 62
REMARK Flexibility Score: inf
ROOT
ATOM      1  C   UNL A   1      35.244  33.129  28.872  1.00  0.00     0.021 C 
ENDROOT
BRANCH   1   2
ATOM      2  C   UNL A   1      36.145  32.245  28.013  1.00  0.00     0.116 C 
BRANCH   2   3
ATOM      3  N   UNL A   1      35.694  30.869  28.013  1.00  0.00    -0.356 N 
ATOM      4  O   UNL A   1      33.612  31.259  27.117  1.00  0.00    -0.275 OA
ATOM      5  C   UNL A   1      34.462  30.479  27.533  1.00  0.00     0.224 C 
ATOM      6  H   UNL A   1      36.297  30.178  28.372  1.00  0.00     0.163 HD
BRANCH   5   7
ATOM      7  C   UNL A   1      34.235  28.979  27.582  1.00  0.00     0.135 C 
BRANCH   7   8
ATOM      8  C   UNL A   1      33.414  28.385  26.454  1.00  0.00    -0.039 A 
ATOM      9  C   UNL A   1      33.674  28.623  25.098  1.00  0.00     0.005 A 
ATOM     10  C   UNL A   1      32.340  27.541  26.789  1.00  0.00     0.005 A 
ATOM     11  C   UNL A   1      32.897  28.020  24.108  1.00  0.00     0.020 A 
ATOM     12  C   UNL A   1      31.533  26.967  25.801  1.00  0.00     0.020 A 
ATOM     13  C   UNL A   1      31.826  27.193  24.461  1.00  0.00     0.067 A 
BRANCH  13  14
ATOM     14  S   UNL A   1      30.856  26.522  23.140  1.00  0.00     0.187 S 
ATOM     15  O   UNL A   1      29.593  26.135  23.745  1.00  0.00    -0.223 OA
ATOM     16  O   UNL A   1      30.860  27.518  22.082  1.00  0.00    -0.223 OA
BRANCH  14  17
ATOM     17  C   UNL A   1      31.567  25.061  22.486  1.00  0.00     0.241 C 
BRANCH  17  18
ATOM     18  C   UNL A   1      32.996  25.173  22.071  1.00  0.00     0.235 C 
ATOM     19  O   UNL A   1      33.294  25.691  20.991  1.00  0.00    -0.274 OA
ATOM     20  N   UNL A   1      34.016  24.825  22.895  1.00  0.00    -0.355 N 
ATOM     21  H   UNL A   1      34.911  25.091  22.584  1.00  0.00     0.163 HD
BRANCH  20  22
ATOM     22  C   UNL A   1      33.991  24.125  24.162  1.00  0.00     0.119 C 
BRANCH  22  23
ATOM     23  C   UNL A   1      35.360  23.577  24.431  1.00  0.00     0.008 C 
ATOM     24  C   UNL A   1      35.604  22.087  24.404  1.00  0.00     0.006 C 
ATOM     25  C   UNL A   1      36.156  22.955  23.312  1.00  0.00     0.006 C 
ENDBRANCH  22  23
ENDBRANCH  20  22
ENDBRANCH  17  18
ENDBRANCH  14  17
ENDBRANCH  13  14
ENDBRANCH   7   8
ENDBRANCH   5   7
ENDBRANCH   2   3
ENDBRANCH   1   2
BRANCH   1  26
ATOM     26  C   UNL A   1      34.657  34.349  28.151  1.00  0.00     0.002 C 
BRANCH  26  27
ATOM     27  C   UNL A   1      33.334  34.878  28.715  1.00  0.00     0.002 C 
BRANCH  27  28
ATOM     28  C   UNL A   1      33.240  36.399  28.842  1.00  0.00     0.021 C 
BRANCH  28  29
ATOM     29  C   UNL A   1      33.533  36.953  30.233  1.00  0.00     0.116 C 
BRANCH  29  30
ATOM     30  N   UNL A   1      32.482  36.645  31.192  1.00  0.00    -0.352 N 
ATOM     31  C   UNL A   1      32.463  35.673  32.163  1.00  0.00     0.251 C 
ATOM     32  H   UNL A   1      31.678  37.209  31.137  1.00  0.00     0.163 HD
ATOM     33  O   UNL A   1      31.430  35.449  32.788  1.00  0.00    -0.269 OA
BRANCH  31  34
ATOM     34  C   UNL A   1      33.684  34.877  32.425  1.00  0.00     0.039 A 
ATOM     35  C   UNL A   1      34.925  35.519  32.436  1.00  0.00     0.014 A 
ATOM     36  C   UNL A   1      33.601  33.507  32.684  1.00  0.00     0.014 A 
ATOM     37  C   UNL A   1      36.075  34.800  32.774  1.00  0.00     0.010 A 
ATOM     38  C   UNL A   1      34.736  32.808  33.086  1.00  0.00     0.010 A 
ATOM     39  C   UNL A   1      35.986  33.446  33.139  1.00  0.00    -0.014 A 
BRANCH  39  40
ATOM     40  C   UNL A   1      37.181  32.671  33.572  1.00  0.00     0.031 A 
ATOM     41  C   UNL A   1      37.918  33.075  34.822  1.00  0.00     0.074 A 
ATOM     42  C   UNL A   1      37.650  31.669  32.802  1.00  0.00     0.049 A 
ATOM     43  N   UNL A   1      39.052  32.629  35.295  1.00  0.00    -0.248 NA
ATOM     44  C   UNL A   1      37.310  34.145  35.630  1.00  0.00     0.031 C 
ATOM     45  C   UNL A   1      37.039  31.199  31.557  1.00  0.00     0.029 A 
ATOM     46  N   UNL A   1      38.762  30.874  32.941  1.00  0.00    -0.354 N 
ATOM     47  C   UNL A   1      39.309  33.379  36.437  1.00  0.00     0.074 A 
ATOM     48  C   UNL A   1      38.232  34.337  36.563  1.00  0.00     0.031 C 
ATOM     49  C   UNL A   1      37.776  30.195  31.054  1.00  0.00     0.029 A 
ATOM     50  C   UNL A   1      38.941  29.981  31.907  1.00  0.00     0.049 A 
ATOM     51  H   UNL A   1      39.375  30.936  33.709  1.00  0.00     0.167 HD
ATOM     52  C   UNL A   1      40.344  33.272  37.306  1.00  0.00     0.034 A 
ATOM     53  C   UNL A   1      39.940  29.108  31.662  1.00  0.00     0.034 A 
ATOM     54  C   UNL A   1      41.393  32.289  37.188  1.00  0.00     0.049 A 
ATOM     55  C   UNL A   1      41.089  29.022  32.640  1.00  0.00     0.074 A 
ATOM     56  C   UNL A   1      42.444  32.047  38.054  1.00  0.00     0.029 A 
ATOM     57  N   UNL A   1      41.528  31.391  36.138  1.00  0.00    -0.354 N 
ATOM     58  N   UNL A   1      41.287  29.705  33.745  1.00  0.00    -0.248 NA
ATOM     59  C   UNL A   1      42.144  28.042  32.345  1.00  0.00     0.031 C 
ATOM     60  C   UNL A   1      43.253  31.052  37.497  1.00  0.00     0.029 A 
ATOM     61  C   UNL A   1      42.662  30.616  36.322  1.00  0.00     0.049 A 
ATOM     62  H   UNL A   1      40.910  31.315  35.377  1.00  0.00     0.167 HD
ATOM     63  C   UNL A   1      42.463  29.201  34.295  1.00  0.00     0.074 A 
ATOM     64  C   UNL A   1      42.925  28.156  33.408  1.00  0.00     0.031 C 
ATOM     65  C   UNL A   1      43.101  29.565  35.436  1.00  0.00     0.034 A 
BRANCH  52  66
ATOM     66  C   UNL A   1      40.411  34.254  38.449  1.00  0.00     0.023 A 
ATOM     67  C   UNL A   1      39.809  33.993  39.690  1.00  0.00     0.031 A 
ATOM     68  C   UNL A   1      41.110  35.466  38.296  1.00  0.00     0.131 A 
ATOM     69  C   UNL A   1      39.870  34.953  40.712  1.00  0.00     0.055 A 
ATOM     70  C   UNL A   1      41.230  36.383  39.341  1.00  0.00     0.041 A 
ATOM     71  F   UNL A   1      41.689  35.777  37.125  1.00  0.00    -0.206 F 
ATOM     72  C   UNL A   1      40.599  36.134  40.555  1.00  0.00     0.022 A 
BRANCH  69  73
ATOM     73  S   UNL A   1      38.896  34.682  42.218  1.00  0.00     0.124 S 
ATOM     74  O   UNL A   1      38.730  33.231  42.203  1.00  0.00    -0.237 OA
ATOM     75  O   UNL A   1      39.767  35.215  43.259  1.00  0.00    -0.237 OA
ATOM     76  O   UNL A   1      37.673  35.445  41.977  1.00  0.00    -0.744 OA
ENDBRANCH  69  73
ENDBRANCH  52  66
BRANCH  53  77
ATOM     77  C   UNL A   1      39.934  28.256  30.436  1.00  0.00     0.023 A 
ATOM     78  C   UNL A   1      40.651  28.639  29.289  1.00  0.00     0.031 A 
ATOM     79  C   UNL A   1      39.143  27.096  30.357  1.00  0.00     0.131 A 
ATOM     80  C   UNL A   1      40.506  27.914  28.097  1.00  0.00     0.055 A 
ATOM     81  C   UNL A   1      39.056  26.340  29.186  1.00  0.00     0.041 A 
ATOM     82  F   UNL A   1      38.438  26.680  31.421  1.00  0.00    -0.206 F 
ATOM     83  C   UNL A   1      39.724  26.760  28.040  1.00  0.00     0.022 A 
BRANCH  80  84
ATOM     84  S   UNL A   1      41.250  28.582  26.583  1.00  0.00     0.124 S 
ATOM     85  O   UNL A   1      42.319  29.416  27.121  1.00  0.00    -0.237 OA
ATOM     86  O   UNL A   1      41.669  27.368  25.891  1.00  0.00    -0.237 OA
ATOM     87  O   UNL A   1      40.148  29.308  25.955  1.00  0.00    -0.744 OA
ENDBRANCH  80  84
ENDBRANCH  53  77
BRANCH  65  88
ATOM     88  C   UNL A   1      44.323  28.772  35.830  1.00  0.00     0.023 A 
ATOM     89  C   UNL A   1      45.616  29.143  35.421  1.00  0.00     0.031 A 
ATOM     90  C   UNL A   1      44.185  27.631  36.640  1.00  0.00     0.131 A 
ATOM     91  C   UNL A   1      46.715  28.350  35.786  1.00  0.00     0.055 A 
ATOM     92  C   UNL A   1      45.287  26.880  37.048  1.00  0.00     0.041 A 
ATOM     93  F   UNL A   1      42.971  27.232  37.057  1.00  0.00    -0.206 F 
ATOM     94  C   UNL A   1      46.561  27.232  36.611  1.00  0.00     0.022 A 
BRANCH  91  95
ATOM     95  S   UNL A   1      48.347  28.758  35.110  1.00  0.00     0.124 S 
ATOM     96  O   UNL A   1      48.123  30.089  34.555  1.00  0.00    -0.237 OA
ATOM     97  O   UNL A   1      49.201  28.696  36.292  1.00  0.00    -0.237 OA
ATOM     98  O   UNL A   1      48.583  27.706  34.123  1.00  0.00    -0.744 OA
ENDBRANCH  91  95
ENDBRANCH  65  88
ENDBRANCH  39  40
ENDBRANCH  31  34
ENDBRANCH  29  30
ENDBRANCH  28  29
ENDBRANCH  27  28
ENDBRANCH  26  27
ENDBRANCH   1  26
TORSDOF 22
ENDMDL
