MODEL 1
REMARK VINA RESULT:     -12.7      0.000      0.000
REMARK SMILES C[C@]12CCC[C@](C)(C(=O)NCCCCCCNC(=O)c3ccc(-c4c5nc(c(-c6cc(S(=O)(=O)[O-])ccc6F)c6ccc([nH]6)c(-c6cc(S(=O)(=O)[O-])ccc6F)c6nc(c(-c7cc(S(=O)(=O)[O-])ccc7F)c7ccc4[nH]7)C=C6)C=C5)cc3)[C@@H]1CC[C@]13C=C(CO)[C@H](CC[C@H]12)C3
REMARK SMILES IDX 14 1 13 2 12 3 11 4 10 5 8 6 9 7 6 9 1 10 2 11 3 12 83 13
REMARK SMILES IDX 94 14 4 15 84 16 86 17 93 18 5 19 7 20 85 21 87 22 95 23
REMARK SMILES IDX 92 24 88 25 91 26 89 27 90 28 15 30 16 31 17 32 18 33 19 35
REMARK SMILES IDX 20 36 21 37 82 38 22 39 81 40 23 41 24 42 25 43 75 44 26 45
REMARK SMILES IDX 80 46 74 47 76 48 27 49 79 50 73 51 72 52 28 54 60 55 40 56
REMARK SMILES IDX 59 57 41 58 44 59 58 60 77 61 42 62 43 63 57 65 78 66 45 67
REMARK SMILES IDX 29 68 30 69 38 70 31 71 37 72 39 73 36 74 32 75 33 76 34 77
REMARK SMILES IDX 35 78 61 79 62 80 70 81 63 82 69 83 71 84 68 85 64 86 65 87
REMARK SMILES IDX 66 88 67 89 46 90 47 91 55 92 48 93 54 94 56 95 53 96 49 97
REMARK SMILES IDX 50 98 51 99 52 100
REMARK H PARENT 10 8 90 29 17 34 76 53 44 64
REMARK Flexibility Score: inf
ROOT
ATOM      1  C   UNL A   1      30.907  31.055  25.318  1.00  0.00     0.002 C 
ENDROOT
BRANCH   1   2
ATOM      2  C   UNL A   1      29.874  30.798  24.162  1.00  0.00     0.002 C 
BRANCH   2   3
ATOM      3  C   UNL A   1      29.524  29.746  23.053  1.00  0.00     0.021 C 
BRANCH   3   4
ATOM      4  C   UNL A   1      29.065  28.235  23.028  1.00  0.00     0.116 C 
BRANCH   4   5
ATOM      5  N   UNL A   1      30.021  27.098  22.809  1.00  0.00    -0.356 N 
ATOM      6  C   UNL A   1      31.353  26.987  22.402  1.00  0.00     0.226 C 
ATOM      7  O   UNL A   1      31.434  26.362  21.325  1.00  0.00    -0.274 OA
ATOM      8  H   UNL A   1      29.611  26.222  22.997  1.00  0.00     0.163 HD
BRANCH   6   9
ATOM      9  C   UNL A   1      32.805  27.303  23.199  1.00  0.00     0.050 C 
ATOM     10  C   UNL A   1      31.857  25.821  25.317  1.00  0.00     0.012 C 
ATOM     11  C   UNL A   1      33.369  25.657  25.075  1.00  0.00    -0.025 C 
ATOM     12  C   UNL A   1      33.990  26.700  26.002  1.00  0.00     0.007 C 
ATOM     13  C   UNL A   1      33.660  26.032  23.602  1.00  0.00     0.010 C 
ATOM     14  C   UNL A   1      33.632  24.167  25.436  1.00  0.00     0.005 C 
ATOM     15  C   UNL A   1      33.244  28.034  25.837  1.00  0.00     0.002 C 
ATOM     16  C   UNL A   1      33.607  24.899  22.543  1.00  0.00     0.006 C 
ATOM     17  C   UNL A   1      33.230  23.091  24.330  1.00  0.00    -0.008 C 
ATOM     18  C   UNL A   1      34.603  23.542  26.425  1.00  0.00     0.006 C 
ATOM     19  C   UNL A   1      32.800  28.401  24.382  1.00  0.00     0.017 C 
ATOM     20  C   UNL A   1      33.633  28.084  22.106  1.00  0.00     0.022 C 
ATOM     21  C   UNL A   1      33.869  23.457  23.001  1.00  0.00     0.012 C 
ATOM     22  C   UNL A   1      31.732  22.960  24.425  1.00  0.00    -0.018 C 
ATOM     23  C   UNL A   1      33.486  21.645  24.804  1.00  0.00     0.019 C 
ATOM     24  C   UNL A   1      33.748  22.397  27.126  1.00  0.00     0.008 C 
ATOM     25  C   UNL A   1      31.462  22.467  25.656  1.00  0.00    -0.045 C 
ATOM     26  C   UNL A   1      32.727  21.702  26.150  1.00  0.00     0.018 C 
BRANCH  25  27
ATOM     27  C   UNL A   1      30.328  22.958  26.518  1.00  0.00     0.187 C 
BRANCH  27  28
ATOM     28  O   UNL A   1      29.293  22.026  26.711  1.00  0.00    -0.392 OA
ATOM     29  H   UNL A   1      29.608  21.139  26.475  1.00  0.00     0.211 HD
ENDBRANCH  27  28
ENDBRANCH  25  27
ENDBRANCH   6   9
ENDBRANCH   4   5
ENDBRANCH   3   4
ENDBRANCH   2   3
ENDBRANCH   1   2
BRANCH   1  30
ATOM     30  C   UNL A   1      31.184  32.035  26.505  1.00  0.00     0.021 C 
BRANCH  30  31
ATOM     31  C   UNL A   1      32.464  32.507  27.216  1.00  0.00     0.116 C 
BRANCH  31  32
ATOM     32  N   UNL A   1      32.545  33.884  27.625  1.00  0.00    -0.352 N 
ATOM     33  C   UNL A   1      33.498  34.415  28.466  1.00  0.00     0.251 C 
ATOM     34  H   UNL A   1      31.861  34.499  27.273  1.00  0.00     0.163 HD
ATOM     35  O   UNL A   1      33.344  35.573  28.896  1.00  0.00    -0.269 OA
BRANCH  33  36
ATOM     36  C   UNL A   1      34.690  33.634  28.905  1.00  0.00     0.039 A 
ATOM     37  C   UNL A   1      34.521  32.579  29.811  1.00  0.00     0.014 A 
ATOM     38  C   UNL A   1      35.988  33.994  28.521  1.00  0.00     0.014 A 
ATOM     39  C   UNL A   1      35.633  31.888  30.320  1.00  0.00     0.010 A 
ATOM     40  C   UNL A   1      37.099  33.284  29.012  1.00  0.00     0.010 A 
ATOM     41  C   UNL A   1      36.939  32.232  29.930  1.00  0.00    -0.014 A 
BRANCH  41  42
ATOM     42  C   UNL A   1      38.121  31.524  30.517  1.00  0.00     0.031 A 
ATOM     43  C   UNL A   1      38.608  31.871  31.905  1.00  0.00     0.074 A 
ATOM     44  C   UNL A   1      38.755  30.560  29.818  1.00  0.00     0.049 A 
ATOM     45  N   UNL A   1      39.604  31.364  32.590  1.00  0.00    -0.248 NA
ATOM     46  C   UNL A   1      37.886  32.940  32.609  1.00  0.00     0.031 C 
ATOM     47  C   UNL A   1      38.396  30.131  28.465  1.00  0.00     0.029 A 
ATOM     48  N   UNL A   1      39.827  29.759  30.141  1.00  0.00    -0.354 N 
ATOM     49  C   UNL A   1      39.625  32.046  33.804  1.00  0.00     0.074 A 
ATOM     50  C   UNL A   1      38.580  33.046  33.733  1.00  0.00     0.031 C 
ATOM     51  C   UNL A   1      39.211  29.133  28.086  1.00  0.00     0.029 A 
ATOM     52  C   UNL A   1      40.180  28.870  29.147  1.00  0.00     0.049 A 
ATOM     53  H   UNL A   1      40.299  29.816  31.003  1.00  0.00     0.167 HD
ATOM     54  C   UNL A   1      40.422  31.845  34.886  1.00  0.00     0.034 A 
ATOM     55  C   UNL A   1      41.172  27.955  29.092  1.00  0.00     0.034 A 
ATOM     56  C   UNL A   1      41.463  30.847  34.948  1.00  0.00     0.049 A 
ATOM     57  C   UNL A   1      42.082  27.791  30.287  1.00  0.00     0.074 A 
ATOM     58  C   UNL A   1      42.310  30.545  36.001  1.00  0.00     0.029 A 
ATOM     59  N   UNL A   1      41.809  29.991  33.909  1.00  0.00    -0.354 N 
ATOM     60  N   UNL A   1      42.058  28.423  31.439  1.00  0.00    -0.248 NA
ATOM     61  C   UNL A   1      43.146  26.782  30.181  1.00  0.00     0.031 C 
ATOM     62  C   UNL A   1      43.210  29.563  35.577  1.00  0.00     0.029 A 
ATOM     63  C   UNL A   1      42.874  29.186  34.288  1.00  0.00     0.049 A 
ATOM     64  H   UNL A   1      41.362  29.961  33.031  1.00  0.00     0.167 HD
ATOM     65  C   UNL A   1      43.076  27.856  32.204  1.00  0.00     0.074 A 
ATOM     66  C   UNL A   1      43.683  26.825  31.390  1.00  0.00     0.031 C 
ATOM     67  C   UNL A   1      43.473  28.161  33.466  1.00  0.00     0.034 A 
BRANCH  54  68
ATOM     68  C   UNL A   1      40.212  32.742  36.087  1.00  0.00     0.023 A 
ATOM     69  C   UNL A   1      39.343  32.383  37.133  1.00  0.00     0.031 A 
ATOM     70  C   UNL A   1      40.886  33.974  36.188  1.00  0.00     0.131 A 
ATOM     71  C   UNL A   1      39.117  33.273  38.194  1.00  0.00     0.055 A 
ATOM     72  C   UNL A   1      40.718  34.818  37.288  1.00  0.00     0.041 A 
ATOM     73  F   UNL A   1      41.716  34.381  35.215  1.00  0.00    -0.206 F 
ATOM     74  C   UNL A   1      39.817  34.477  38.293  1.00  0.00     0.022 A 
BRANCH  71  75
ATOM     75  S   UNL A   1      37.791  32.897  39.375  1.00  0.00     0.124 S 
ATOM     76  O   UNL A   1      38.292  31.675  40.000  1.00  0.00    -0.237 OA
ATOM     77  O   UNL A   1      37.774  34.087  40.219  1.00  0.00    -0.237 OA
ATOM     78  O   UNL A   1      36.616  32.717  38.525  1.00  0.00    -0.744 OA
ENDBRANCH  71  75
ENDBRANCH  54  68
BRANCH  55  79
ATOM     79  C   UNL A   1      41.382  27.125  27.867  1.00  0.00     0.023 A 
ATOM     80  C   UNL A   1      40.995  25.774  27.826  1.00  0.00     0.031 A 
ATOM     81  C   UNL A   1      42.043  27.649  26.740  1.00  0.00     0.131 A 
ATOM     82  C   UNL A   1      41.327  24.981  26.716  1.00  0.00     0.055 A 
ATOM     83  C   UNL A   1      42.312  26.872  25.611  1.00  0.00     0.041 A 
ATOM     84  F   UNL A   1      42.441  28.930  26.720  1.00  0.00    -0.206 F 
ATOM     85  C   UNL A   1      41.969  25.524  25.601  1.00  0.00     0.022 A 
BRANCH  82  86
ATOM     86  S   UNL A   1      41.016  23.194  26.797  1.00  0.00     0.124 S 
ATOM     87  O   UNL A   1      41.879  22.695  25.731  1.00  0.00    -0.237 OA
ATOM     88  O   UNL A   1      41.430  22.877  28.160  1.00  0.00    -0.237 OA
ATOM     89  O   UNL A   1      39.582  23.086  26.542  1.00  0.00    -0.744 OA
ENDBRANCH  82  86
ENDBRANCH  55  79
BRANCH  67  90
ATOM     90  C   UNL A   1      44.584  27.327  34.062  1.00  0.00     0.023 A 
ATOM     91  C   UNL A   1      44.321  26.165  34.808  1.00  0.00     0.031 A 
ATOM     92  C   UNL A   1      45.926  27.709  33.886  1.00  0.00     0.131 A 
ATOM     93  C   UNL A   1      45.380  25.459  35.399  1.00  0.00     0.055 A 
ATOM     94  C   UNL A   1      46.980  26.965  34.419  1.00  0.00     0.041 A 
ATOM     95  F   UNL A   1      46.238  28.812  33.185  1.00  0.00    -0.206 F 
ATOM     96  C   UNL A   1      46.709  25.841  35.193  1.00  0.00     0.022 A 
BRANCH  93  97
ATOM     97  S   UNL A   1      44.994  24.091  36.525  1.00  0.00     0.124 S 
ATOM     98  O   UNL A   1      46.322  23.598  36.872  1.00  0.00    -0.237 OA
ATOM     99  O   UNL A   1      44.264  24.762  37.595  1.00  0.00    -0.237 OA
ATOM    100  O   UNL A   1      44.191  23.185  35.703  1.00  0.00    -0.744 OA
ENDBRANCH  93  97
ENDBRANCH  67  90
ENDBRANCH  41  42
ENDBRANCH  33  36
ENDBRANCH  31  32
ENDBRANCH  30  31
ENDBRANCH   1  30
TORSDOF 18
ENDMDL
MODEL 2
REMARK VINA RESULT:     -12.5      1.570      2.115
REMARK SMILES C[C@]12CCC[C@](C)(C(=O)NCCCCCCNC(=O)c3ccc(-c4c5nc(c(-c6cc(S(=O)(=O)[O-])ccc6F)c6ccc([nH]6)c(-c6cc(S(=O)(=O)[O-])ccc6F)c6nc(c(-c7cc(S(=O)(=O)[O-])ccc7F)c7ccc4[nH]7)C=C6)C=C5)cc3)[C@@H]1CC[C@]13C=C(CO)[C@H](CC[C@H]12)C3
REMARK SMILES IDX 14 1 13 2 12 3 11 4 10 5 8 6 9 7 6 9 1 10 2 11 3 12 83 13
REMARK SMILES IDX 94 14 4 15 84 16 86 17 93 18 5 19 7 20 85 21 87 22 95 23
REMARK SMILES IDX 92 24 88 25 91 26 89 27 90 28 15 30 16 31 17 32 18 33 19 35
REMARK SMILES IDX 20 36 21 37 82 38 22 39 81 40 23 41 24 42 25 43 75 44 26 45
REMARK SMILES IDX 80 46 74 47 76 48 27 49 79 50 73 51 72 52 28 54 60 55 40 56
REMARK SMILES IDX 59 57 41 58 44 59 58 60 77 61 42 62 43 63 57 65 78 66 45 67
REMARK SMILES IDX 29 68 30 69 38 70 31 71 37 72 39 73 36 74 32 75 33 76 34 77
REMARK SMILES IDX 35 78 61 79 62 80 70 81 63 82 69 83 71 84 68 85 64 86 65 87
REMARK SMILES IDX 66 88 67 89 46 90 47 91 55 92 48 93 54 94 56 95 53 96 49 97
REMARK SMILES IDX 50 98 51 99 52 100
REMARK H PARENT 10 8 90 29 17 34 76 53 44 64
REMARK Flexibility Score: inf
ROOT
ATOM      1  C   UNL A   1      30.864  30.261  24.960  1.00  0.00     0.002 C 
ENDROOT
BRANCH   1   2
ATOM      2  C   UNL A   1      30.152  29.788  23.642  1.00  0.00     0.002 C 
BRANCH   2   3
ATOM      3  C   UNL A   1      30.407  28.909  22.367  1.00  0.00     0.021 C 
BRANCH   3   4
ATOM      4  C   UNL A   1      30.978  27.464  22.081  1.00  0.00     0.116 C 
BRANCH   4   5
ATOM      5  N   UNL A   1      32.238  26.947  22.712  1.00  0.00    -0.356 N 
ATOM      6  C   UNL A   1      32.917  27.186  23.909  1.00  0.00     0.226 C 
ATOM      7  O   UNL A   1      34.044  27.677  23.686  1.00  0.00    -0.274 OA
ATOM      8  H   UNL A   1      32.693  26.280  22.148  1.00  0.00     0.163 HD
BRANCH   6   9
ATOM      9  C   UNL A   1      32.606  26.713  25.497  1.00  0.00     0.050 C 
ATOM     10  C   UNL A   1      31.548  24.377  24.493  1.00  0.00     0.012 C 
ATOM     11  C   UNL A   1      32.314  24.191  25.817  1.00  0.00    -0.025 C 
ATOM     12  C   UNL A   1      31.220  24.304  26.876  1.00  0.00     0.007 C 
ATOM     13  C   UNL A   1      33.305  25.371  25.965  1.00  0.00     0.010 C 
ATOM     14  C   UNL A   1      32.978  22.794  25.656  1.00  0.00     0.005 C 
ATOM     15  C   UNL A   1      30.341  25.527  26.569  1.00  0.00     0.002 C 
ATOM     16  C   UNL A   1      34.734  25.192  25.386  1.00  0.00     0.006 C 
ATOM     17  C   UNL A   1      34.298  22.738  24.761  1.00  0.00    -0.008 C 
ATOM     18  C   UNL A   1      32.904  21.553  26.530  1.00  0.00     0.006 C 
ATOM     19  C   UNL A   1      31.085  26.793  26.030  1.00  0.00     0.017 C 
ATOM     20  C   UNL A   1      33.252  27.882  26.337  1.00  0.00     0.022 C 
ATOM     21  C   UNL A   1      35.297  23.769  25.256  1.00  0.00     0.012 C 
ATOM     22  C   UNL A   1      33.816  22.791  23.334  1.00  0.00    -0.018 C 
ATOM     23  C   UNL A   1      34.849  21.303  24.626  1.00  0.00     0.019 C 
ATOM     24  C   UNL A   1      32.753  20.360  25.488  1.00  0.00     0.008 C 
ATOM     25  C   UNL A   1      33.082  21.673  23.130  1.00  0.00    -0.045 C 
ATOM     26  C   UNL A   1      33.556  20.599  24.155  1.00  0.00     0.018 C 
BRANCH  25  27
ATOM     27  C   UNL A   1      31.784  21.659  22.364  1.00  0.00     0.187 C 
BRANCH  27  28
ATOM     28  O   UNL A   1      31.776  20.811  21.242  1.00  0.00    -0.392 OA
ATOM     29  H   UNL A   1      32.579  20.267  21.241  1.00  0.00     0.211 HD
ENDBRANCH  27  28
ENDBRANCH  25  27
ENDBRANCH   6   9
ENDBRANCH   4   5
ENDBRANCH   3   4
ENDBRANCH   2   3
ENDBRANCH   1   2
BRANCH   1  30
ATOM     30  C   UNL A   1      31.037  31.529  25.859  1.00  0.00     0.021 C 
BRANCH  30  31
ATOM     31  C   UNL A   1      32.142  32.008  26.817  1.00  0.00     0.116 C 
BRANCH  31  32
ATOM     32  N   UNL A   1      32.176  33.403  27.168  1.00  0.00    -0.352 N 
ATOM     33  C   UNL A   1      33.097  33.996  28.004  1.00  0.00     0.251 C 
ATOM     34  H   UNL A   1      31.483  33.983  26.778  1.00  0.00     0.163 HD
ATOM     35  O   UNL A   1      32.903  35.166  28.381  1.00  0.00    -0.269 OA
BRANCH  33  36
ATOM     36  C   UNL A   1      34.302  33.269  28.497  1.00  0.00     0.039 A 
ATOM     37  C   UNL A   1      34.139  32.205  29.394  1.00  0.00     0.014 A 
ATOM     38  C   UNL A   1      35.599  33.688  28.173  1.00  0.00     0.014 A 
ATOM     39  C   UNL A   1      35.257  31.564  29.953  1.00  0.00     0.010 A 
ATOM     40  C   UNL A   1      36.717  33.028  28.715  1.00  0.00     0.010 A 
ATOM     41  C   UNL A   1      36.563  31.968  29.624  1.00  0.00    -0.014 A 
BRANCH  41  42
ATOM     42  C   UNL A   1      37.748  31.313  30.265  1.00  0.00     0.031 A 
ATOM     43  C   UNL A   1      38.102  31.612  31.703  1.00  0.00     0.074 A 
ATOM     44  C   UNL A   1      38.503  30.438  29.568  1.00  0.00     0.049 A 
ATOM     45  N   UNL A   1      39.079  31.138  32.437  1.00  0.00    -0.248 NA
ATOM     46  C   UNL A   1      37.251  32.585  32.402  1.00  0.00     0.031 C 
ATOM     47  C   UNL A   1      38.279  30.064  28.171  1.00  0.00     0.029 A 
ATOM     48  N   UNL A   1      39.605  29.697  29.933  1.00  0.00    -0.354 N 
ATOM     49  C   UNL A   1      38.958  31.748  33.682  1.00  0.00     0.074 A 
ATOM     50  C   UNL A   1      37.849  32.674  33.582  1.00  0.00     0.031 C 
ATOM     51  C   UNL A   1      39.193  29.149  27.806  1.00  0.00     0.029 A 
ATOM     52  C   UNL A   1      40.097  28.895  28.925  1.00  0.00     0.049 A 
ATOM     53  H   UNL A   1      40.005  29.737  30.831  1.00  0.00     0.167 HD
ATOM     54  C   UNL A   1      39.684  31.543  34.813  1.00  0.00     0.034 A 
ATOM     55  C   UNL A   1      41.155  28.057  28.901  1.00  0.00     0.034 A 
ATOM     56  C   UNL A   1      40.790  30.619  34.904  1.00  0.00     0.049 A 
ATOM     57  C   UNL A   1      41.984  27.889  30.154  1.00  0.00     0.074 A 
ATOM     58  C   UNL A   1      41.576  30.318  36.004  1.00  0.00     0.029 A 
ATOM     59  N   UNL A   1      41.276  29.851  33.852  1.00  0.00    -0.354 N 
ATOM     60  N   UNL A   1      41.826  28.449  31.332  1.00  0.00    -0.248 NA
ATOM     61  C   UNL A   1      43.125  26.966  30.079  1.00  0.00     0.031 C 
ATOM     62  C   UNL A   1      42.576  29.428  35.602  1.00  0.00     0.029 A 
ATOM     63  C   UNL A   1      42.366  29.103  34.272  1.00  0.00     0.049 A 
ATOM     64  H   UNL A   1      40.900  29.840  32.942  1.00  0.00     0.167 HD
ATOM     65  C   UNL A   1      42.824  27.914  32.144  1.00  0.00     0.074 A 
ATOM     66  C   UNL A   1      43.566  26.976  31.328  1.00  0.00     0.031 C 
ATOM     67  C   UNL A   1      43.101  28.172  33.447  1.00  0.00     0.034 A 
BRANCH  54  68
ATOM     68  C   UNL A   1      39.318  32.351  36.038  1.00  0.00     0.023 A 
ATOM     69  C   UNL A   1      39.913  33.598  36.304  1.00  0.00     0.031 A 
ATOM     70  C   UNL A   1      38.365  31.872  36.956  1.00  0.00     0.131 A 
ATOM     71  C   UNL A   1      39.604  34.285  37.488  1.00  0.00     0.055 A 
ATOM     72  C   UNL A   1      38.003  32.600  38.091  1.00  0.00     0.041 A 
ATOM     73  F   UNL A   1      37.774  30.681  36.768  1.00  0.00    -0.206 F 
ATOM     74  C   UNL A   1      38.634  33.808  38.371  1.00  0.00     0.022 A 
BRANCH  71  75
ATOM     75  S   UNL A   1      40.588  35.745  37.926  1.00  0.00     0.124 S 
ATOM     76  O   UNL A   1      39.659  36.829  37.620  1.00  0.00    -0.237 OA
ATOM     77  O   UNL A   1      40.869  35.524  39.341  1.00  0.00    -0.237 OA
ATOM     78  O   UNL A   1      41.746  35.658  37.039  1.00  0.00    -0.744 OA
ENDBRANCH  71  75
ENDBRANCH  54  68
BRANCH  55  79
ATOM     79  C   UNL A   1      41.519  27.316  27.654  1.00  0.00     0.023 A 
ATOM     80  C   UNL A   1      41.405  25.917  27.578  1.00  0.00     0.031 A 
ATOM     81  C   UNL A   1      42.059  27.988  26.542  1.00  0.00     0.131 A 
ATOM     82  C   UNL A   1      41.881  25.233  26.448  1.00  0.00     0.055 A 
ATOM     83  C   UNL A   1      42.470  27.308  25.393  1.00  0.00     0.041 A 
ATOM     84  F   UNL A   1      42.198  29.323  26.556  1.00  0.00    -0.206 F 
ATOM     85  C   UNL A   1      42.397  25.920  25.347  1.00  0.00     0.022 A 
BRANCH  82  86
ATOM     86  S   UNL A   1      41.926  23.418  26.482  1.00  0.00     0.124 S 
ATOM     87  O   UNL A   1      42.659  23.118  25.257  1.00  0.00    -0.237 OA
ATOM     88  O   UNL A   1      42.631  23.158  27.733  1.00  0.00    -0.237 OA
ATOM     89  O   UNL A   1      40.515  23.042  26.474  1.00  0.00    -0.744 OA
ENDBRANCH  82  86
ENDBRANCH  55  79
BRANCH  67  90
ATOM     90  C   UNL A   1      44.223  27.386  34.085  1.00  0.00     0.023 A 
ATOM     91  C   UNL A   1      43.999  26.149  34.714  1.00  0.00     0.031 A 
ATOM     92  C   UNL A   1      45.536  27.889  34.068  1.00  0.00     0.131 A 
ATOM     93  C   UNL A   1      45.060  25.486  35.351  1.00  0.00     0.055 A 
ATOM     94  C   UNL A   1      46.600  27.193  34.644  1.00  0.00     0.041 A 
ATOM     95  F   UNL A   1      45.810  29.068  33.485  1.00  0.00    -0.206 F 
ATOM     96  C   UNL A   1      46.362  25.991  35.304  1.00  0.00     0.022 A 
BRANCH  93  97
ATOM     97  S   UNL A   1      44.697  24.003  36.330  1.00  0.00     0.124 S 
ATOM     98  O   UNL A   1      44.199  24.576  37.576  1.00  0.00    -0.237 OA
ATOM     99  O   UNL A   1      43.709  23.317  35.505  1.00  0.00    -0.237 OA
ATOM    100  O   UNL A   1      45.992  23.331  36.430  1.00  0.00    -0.744 OA
ENDBRANCH  93  97
ENDBRANCH  67  90
ENDBRANCH  41  42
ENDBRANCH  33  36
ENDBRANCH  31  32
ENDBRANCH  30  31
ENDBRANCH   1  30
TORSDOF 18
ENDMDL
MODEL 3
REMARK VINA RESULT:     -12.4      5.385     10.624
REMARK SMILES C[C@]12CCC[C@](C)(C(=O)NCCCCCCNC(=O)c3ccc(-c4c5nc(c(-c6cc(S(=O)(=O)[O-])ccc6F)c6ccc([nH]6)c(-c6cc(S(=O)(=O)[O-])ccc6F)c6nc(c(-c7cc(S(=O)(=O)[O-])ccc7F)c7ccc4[nH]7)C=C6)C=C5)cc3)[C@@H]1CC[C@]13C=C(CO)[C@H](CC[C@H]12)C3
REMARK SMILES IDX 14 1 13 2 12 3 11 4 10 5 8 6 9 7 6 9 1 10 2 11 3 12 83 13
REMARK SMILES IDX 94 14 4 15 84 16 86 17 93 18 5 19 7 20 85 21 87 22 95 23
REMARK SMILES IDX 92 24 88 25 91 26 89 27 90 28 15 30 16 31 17 32 18 33 19 35
REMARK SMILES IDX 20 36 21 37 82 38 22 39 81 40 23 41 24 42 25 43 75 44 26 45
REMARK SMILES IDX 80 46 74 47 76 48 27 49 79 50 73 51 72 52 28 54 60 55 40 56
REMARK SMILES IDX 59 57 41 58 44 59 58 60 77 61 42 62 43 63 57 65 78 66 45 67
REMARK SMILES IDX 29 68 30 69 38 70 31 71 37 72 39 73 36 74 32 75 33 76 34 77
REMARK SMILES IDX 35 78 61 79 62 80 70 81 63 82 69 83 71 84 68 85 64 86 65 87
REMARK SMILES IDX 66 88 67 89 46 90 47 91 55 92 48 93 54 94 56 95 53 96 49 97
REMARK SMILES IDX 50 98 51 99 52 100
REMARK H PARENT 10 8 90 29 17 34 76 53 44 64
REMARK Flexibility Score: inf
ROOT
ATOM      1  C   UNL A   1      36.936  19.399  24.853  1.00  0.00     0.002 C 
ENDROOT
BRANCH   1   2
ATOM      2  C   UNL A   1      35.387  19.655  24.915  1.00  0.00     0.002 C 
BRANCH   2   3
ATOM      3  C   UNL A   1      34.021  18.938  24.628  1.00  0.00     0.021 C 
BRANCH   3   4
ATOM      4  C   UNL A   1      32.515  19.389  24.471  1.00  0.00     0.116 C 
BRANCH   4   5
ATOM      5  N   UNL A   1      32.083  20.824  24.547  1.00  0.00    -0.356 N 
ATOM      6  C   UNL A   1      32.021  21.789  25.555  1.00  0.00     0.226 C 
ATOM      7  O   UNL A   1      30.840  22.136  25.761  1.00  0.00    -0.274 OA
ATOM      8  H   UNL A   1      31.769  21.167  23.679  1.00  0.00     0.163 HD
BRANCH   6   9
ATOM      9  C   UNL A   1      33.216  22.703  26.317  1.00  0.00     0.050 C 
ATOM     10  C   UNL A   1      33.621  23.996  23.919  1.00  0.00     0.012 C 
ATOM     11  C   UNL A   1      33.770  24.912  25.149  1.00  0.00    -0.025 C 
ATOM     12  C   UNL A   1      35.267  24.862  25.446  1.00  0.00     0.007 C 
ATOM     13  C   UNL A   1      32.986  24.271  26.320  1.00  0.00     0.010 C 
ATOM     14  C   UNL A   1      33.208  26.275  24.654  1.00  0.00     0.005 C 
ATOM     15  C   UNL A   1      35.742  23.401  25.413  1.00  0.00     0.002 C 
ATOM     16  C   UNL A   1      31.497  24.670  26.498  1.00  0.00     0.006 C 
ATOM     17  C   UNL A   1      31.619  26.411  24.612  1.00  0.00    -0.008 C 
ATOM     18  C   UNL A   1      33.838  27.658  24.630  1.00  0.00     0.006 C 
ATOM     19  C   UNL A   1      34.759  22.342  26.013  1.00  0.00     0.017 C 
ATOM     20  C   UNL A   1      33.113  22.223  27.816  1.00  0.00     0.022 C 
ATOM     21  C   UNL A   1      31.036  26.034  25.963  1.00  0.00     0.012 C 
ATOM     22  C   UNL A   1      31.186  25.664  23.378  1.00  0.00    -0.018 C 
ATOM     23  C   UNL A   1      31.166  27.781  24.063  1.00  0.00     0.019 C 
ATOM     24  C   UNL A   1      33.422  28.243  23.210  1.00  0.00     0.008 C 
ATOM     25  C   UNL A   1      31.725  26.314  22.320  1.00  0.00    -0.045 C 
ATOM     26  C   UNL A   1      31.986  27.789  22.751  1.00  0.00     0.018 C 
BRANCH  25  27
ATOM     27  C   UNL A   1      32.341  25.611  21.139  1.00  0.00     0.187 C 
BRANCH  27  28
ATOM     28  O   UNL A   1      31.778  25.952  19.896  1.00  0.00    -0.392 OA
ATOM     29  H   UNL A   1      31.007  26.524  20.036  1.00  0.00     0.211 HD
ENDBRANCH  27  28
ENDBRANCH  25  27
ENDBRANCH   6   9
ENDBRANCH   4   5
ENDBRANCH   3   4
ENDBRANCH   2   3
ENDBRANCH   1   2
BRANCH   1  30
ATOM     30  C   UNL A   1      38.298  20.154  24.995  1.00  0.00     0.021 C 
BRANCH  30  31
ATOM     31  C   UNL A   1      39.334  20.272  26.127  1.00  0.00     0.116 C 
BRANCH  31  32
ATOM     32  N   UNL A   1      40.461  19.378  26.111  1.00  0.00    -0.352 N 
ATOM     33  C   UNL A   1      41.783  19.754  26.213  1.00  0.00     0.251 C 
ATOM     34  H   UNL A   1      40.273  18.416  26.019  1.00  0.00     0.163 HD
ATOM     35  O   UNL A   1      42.669  18.910  25.989  1.00  0.00    -0.269 OA
BRANCH  33  36
ATOM     36  C   UNL A   1      42.185  21.151  26.549  1.00  0.00     0.039 A 
ATOM     37  C   UNL A   1      42.297  21.525  27.894  1.00  0.00     0.014 A 
ATOM     38  C   UNL A   1      42.347  22.128  25.559  1.00  0.00     0.014 A 
ATOM     39  C   UNL A   1      42.577  22.856  28.245  1.00  0.00     0.010 A 
ATOM     40  C   UNL A   1      42.652  23.455  25.912  1.00  0.00     0.010 A 
ATOM     41  C   UNL A   1      42.756  23.842  27.260  1.00  0.00    -0.014 A 
BRANCH  41  42
ATOM     42  C   UNL A   1      43.001  25.269  27.644  1.00  0.00     0.031 A 
ATOM     43  C   UNL A   1      44.373  25.880  27.478  1.00  0.00     0.074 A 
ATOM     44  C   UNL A   1      41.996  26.026  28.131  1.00  0.00     0.049 A 
ATOM     45  N   UNL A   1      44.781  27.097  27.743  1.00  0.00    -0.248 NA
ATOM     46  C   UNL A   1      45.428  24.999  26.959  1.00  0.00     0.031 C 
ATOM     47  C   UNL A   1      40.626  25.561  28.350  1.00  0.00     0.029 A 
ATOM     48  N   UNL A   1      41.961  27.345  28.523  1.00  0.00    -0.354 N 
ATOM     49  C   UNL A   1      46.134  27.131  27.417  1.00  0.00     0.074 A 
ATOM     50  C   UNL A   1      46.491  25.792  26.996  1.00  0.00     0.031 C 
ATOM     51  C   UNL A   1      39.881  26.580  28.811  1.00  0.00     0.029 A 
ATOM     52  C   UNL A   1      40.722  27.765  28.960  1.00  0.00     0.049 A 
ATOM     53  H   UNL A   1      42.749  27.935  28.496  1.00  0.00     0.167 HD
ATOM     54  C   UNL A   1      46.997  28.180  27.443  1.00  0.00     0.034 A 
ATOM     55  C   UNL A   1      40.311  28.962  29.432  1.00  0.00     0.034 A 
ATOM     56  C   UNL A   1      46.634  29.512  27.867  1.00  0.00     0.049 A 
ATOM     57  C   UNL A   1      41.304  30.099  29.506  1.00  0.00     0.074 A 
ATOM     58  C   UNL A   1      47.422  30.650  27.909  1.00  0.00     0.029 A 
ATOM     59  N   UNL A   1      45.379  29.887  28.332  1.00  0.00    -0.354 N 
ATOM     60  N   UNL A   1      42.571  30.116  29.156  1.00  0.00    -0.248 NA
ATOM     61  C   UNL A   1      40.810  31.382  30.025  1.00  0.00     0.031 C 
ATOM     62  C   UNL A   1      46.669  31.689  28.464  1.00  0.00     0.029 A 
ATOM     63  C   UNL A   1      45.383  31.227  28.690  1.00  0.00     0.049 A 
ATOM     64  H   UNL A   1      44.600  29.287  28.397  1.00  0.00     0.167 HD
ATOM     65  C   UNL A   1      43.008  31.421  29.377  1.00  0.00     0.074 A 
ATOM     66  C   UNL A   1      41.869  32.163  29.874  1.00  0.00     0.031 C 
ATOM     67  C   UNL A   1      44.240  31.957  29.186  1.00  0.00     0.034 A 
BRANCH  54  68
ATOM     68  C   UNL A   1      48.427  27.923  27.022  1.00  0.00     0.023 A 
ATOM     69  C   UNL A   1      48.859  28.146  25.701  1.00  0.00     0.031 A 
ATOM     70  C   UNL A   1      49.373  27.445  27.948  1.00  0.00     0.131 A 
ATOM     71  C   UNL A   1      50.173  27.826  25.329  1.00  0.00     0.055 A 
ATOM     72  C   UNL A   1      50.701  27.207  27.589  1.00  0.00     0.041 A 
ATOM     73  F   UNL A   1      49.020  27.196  29.218  1.00  0.00    -0.206 F 
ATOM     74  C   UNL A   1      51.105  27.382  26.269  1.00  0.00     0.022 A 
BRANCH  71  75
ATOM     75  S   UNL A   1      50.612  27.869  23.569  1.00  0.00     0.124 S 
ATOM     76  O   UNL A   1      49.300  27.757  22.936  1.00  0.00    -0.237 OA
ATOM     77  O   UNL A   1      51.276  29.162  23.440  1.00  0.00    -0.237 OA
ATOM     78  O   UNL A   1      51.477  26.703  23.403  1.00  0.00    -0.744 OA
ENDBRANCH  71  75
ENDBRANCH  54  68
BRANCH  55  79
ATOM     79  C   UNL A   1      38.902  29.163  29.891  1.00  0.00     0.023 A 
ATOM     80  C   UNL A   1      37.946  29.776  29.062  1.00  0.00     0.031 A 
ATOM     81  C   UNL A   1      38.507  28.813  31.195  1.00  0.00     0.131 A 
ATOM     82  C   UNL A   1      36.670  30.077  29.565  1.00  0.00     0.055 A 
ATOM     83  C   UNL A   1      37.215  29.054  31.668  1.00  0.00     0.041 A 
ATOM     84  F   UNL A   1      39.376  28.229  32.035  1.00  0.00    -0.206 F 
ATOM     85  C   UNL A   1      36.292  29.705  30.857  1.00  0.00     0.022 A 
BRANCH  82  86
ATOM     86  S   UNL A   1      35.543  31.071  28.545  1.00  0.00     0.124 S 
ATOM     87  O   UNL A   1      34.709  30.040  27.937  1.00  0.00    -0.237 OA
ATOM     88  O   UNL A   1      34.896  31.914  29.544  1.00  0.00    -0.237 OA
ATOM     89  O   UNL A   1      36.441  31.769  27.628  1.00  0.00    -0.744 OA
ENDBRANCH  82  86
ENDBRANCH  55  79
BRANCH  67  90
ATOM     90  C   UNL A   1      44.402  33.434  29.464  1.00  0.00     0.023 A 
ATOM     91  C   UNL A   1      44.058  34.410  28.512  1.00  0.00     0.031 A 
ATOM     92  C   UNL A   1      44.917  33.868  30.698  1.00  0.00     0.131 A 
ATOM     93  C   UNL A   1      44.288  35.767  28.788  1.00  0.00     0.055 A 
ATOM     94  C   UNL A   1      45.081  35.223  30.993  1.00  0.00     0.041 A 
ATOM     95  F   UNL A   1      45.267  32.981  31.644  1.00  0.00    -0.206 F 
ATOM     96  C   UNL A   1      44.779  36.181  30.029  1.00  0.00     0.022 A 
BRANCH  93  97
ATOM     97  S   UNL A   1      44.030  36.980  27.465  1.00  0.00     0.124 S 
ATOM     98  O   UNL A   1      43.187  36.239  26.533  1.00  0.00    -0.237 OA
ATOM     99  O   UNL A   1      43.385  38.082  28.170  1.00  0.00    -0.237 OA
ATOM    100  O   UNL A   1      45.384  37.261  26.987  1.00  0.00    -0.744 OA
ENDBRANCH  93  97
ENDBRANCH  67  90
ENDBRANCH  41  42
ENDBRANCH  33  36
ENDBRANCH  31  32
ENDBRANCH  30  31
ENDBRANCH   1  30
TORSDOF 18
ENDMDL
