MODEL 1
REMARK VINA RESULT:     -11.9      0.000      0.000
REMARK SMILES Cc1ccc(C(=O)N2CCC(CC(=O)NCCCCCCNC(=O)c3ccc(-c4c5nc(c(-c6cc(S(=O)(=O)[O-])ccc6F)c6ccc([nH]6)c(-c6cc(S(=O)(=O)[O-])ccc6F)c6nc(c(-c7cc(S(=O)(=O)[O-])ccc7F)c7ccc4[nH]7)C=C6)C=C5)cc3)CC2)cn1
REMARK SMILES IDX 19 1 18 2 17 3 16 4 15 5 13 6 14 7 12 9 11 10 6 11 7 12 8 13
REMARK SMILES IDX 9 14 89 15 10 16 88 17 5 18 1 19 2 20 3 21 91 22 4 23 90 24
REMARK SMILES IDX 20 25 21 26 22 27 23 28 24 30 25 31 26 32 87 33 27 34 86 35
REMARK SMILES IDX 28 36 29 37 30 38 80 39 31 40 85 41 79 42 81 43 32 44 84 45
REMARK SMILES IDX 78 46 77 47 33 49 65 50 45 51 64 52 46 53 49 54 63 55 82 56
REMARK SMILES IDX 47 57 48 58 62 60 83 61 50 62 34 63 35 64 43 65 36 66 42 67
REMARK SMILES IDX 44 68 41 69 37 70 38 71 39 72 40 73 66 74 67 75 75 76 68 77
REMARK SMILES IDX 74 78 76 79 73 80 69 81 70 82 71 83 72 84 51 85 52 86 60 87
REMARK SMILES IDX 53 88 59 89 61 90 58 91 54 92 55 93 56 94 57 95
REMARK H PARENT 15 8 22 29 81 48 49 59
REMARK Flexibility Score: inf
ROOT
ATOM      1  C   UNL A   1      34.369  22.568  24.225  1.00  0.00     0.002 C 
ENDROOT
BRANCH   1   2
ATOM      2  C   UNL A   1      33.436  21.872  23.234  1.00  0.00     0.002 C 
BRANCH   2   3
ATOM      3  C   UNL A   1      32.112  21.392  23.823  1.00  0.00     0.021 C 
BRANCH   3   4
ATOM      4  C   UNL A   1      32.129  21.145  25.337  1.00  0.00     0.116 C 
BRANCH   4   5
ATOM      5  N   UNL A   1      31.058  21.880  25.995  1.00  0.00    -0.356 N 
ATOM      6  C   UNL A   1      31.078  23.071  26.660  1.00  0.00     0.220 C 
ATOM      7  O   UNL A   1      30.047  23.438  27.229  1.00  0.00    -0.275 OA
ATOM      8  H   UNL A   1      30.176  21.447  25.952  1.00  0.00     0.163 HD
BRANCH   6   9
ATOM      9  C   UNL A   1      32.332  23.929  26.699  1.00  0.00     0.103 C 
BRANCH   9  10
ATOM     10  C   UNL A   1      32.250  25.207  25.841  1.00  0.00     0.002 C 
ATOM     11  C   UNL A   1      29.302  27.172  23.930  1.00  0.00     0.255 C 
ATOM     12  O   UNL A   1      28.455  26.340  24.231  1.00  0.00    -0.269 OA
ATOM     13  N   UNL A   1      30.631  27.063  24.297  1.00  0.00    -0.339 N 
ATOM     14  C   UNL A   1      31.471  26.129  23.587  1.00  0.00     0.120 C 
ATOM     15  C   UNL A   1      31.066  27.457  25.624  1.00  0.00     0.120 C 
ATOM     16  C   UNL A   1      31.742  24.898  24.431  1.00  0.00     0.026 C 
ATOM     17  C   UNL A   1      31.336  26.247  26.519  1.00  0.00     0.026 C 
BRANCH  11  18
ATOM     18  C   UNL A   1      28.993  28.346  23.077  1.00  0.00     0.058 A 
ATOM     19  C   UNL A   1      28.335  31.780  20.657  1.00  0.00     0.066 C 
ATOM     20  C   UNL A   1      28.535  30.559  21.503  1.00  0.00     0.037 A 
ATOM     21  C   UNL A   1      27.487  30.042  22.252  1.00  0.00     0.024 A 
ATOM     22  N   UNL A   1      29.775  30.013  21.513  1.00  0.00    -0.261 NA
ATOM     23  C   UNL A   1      27.719  28.921  23.043  1.00  0.00     0.017 A 
ATOM     24  C   UNL A   1      29.983  28.925  22.300  1.00  0.00     0.125 A 
ENDBRANCH  11  18
ENDBRANCH   9  10
ENDBRANCH   6   9
ENDBRANCH   4   5
ENDBRANCH   3   4
ENDBRANCH   2   3
ENDBRANCH   1   2
BRANCH   1  25
ATOM     25  C   UNL A   1      35.801  22.026  24.276  1.00  0.00     0.021 C 
BRANCH  25  26
ATOM     26  C   UNL A   1      36.406  21.908  25.674  1.00  0.00     0.116 C 
BRANCH  26  27
ATOM     27  N   UNL A   1      37.348  20.805  25.767  1.00  0.00    -0.352 N 
ATOM     28  C   UNL A   1      38.711  20.832  25.933  1.00  0.00     0.251 C 
ATOM     29  H   UNL A   1      36.950  19.907  25.699  1.00  0.00     0.163 HD
ATOM     30  O   UNL A   1      39.366  19.817  25.738  1.00  0.00    -0.269 OA
BRANCH  28  31
ATOM     31  C   UNL A   1      39.380  22.090  26.336  1.00  0.00     0.039 A 
ATOM     32  C   UNL A   1      40.394  22.041  27.295  1.00  0.00     0.014 A 
ATOM     33  C   UNL A   1      38.988  23.316  25.790  1.00  0.00     0.014 A 
ATOM     34  C   UNL A   1      41.047  23.218  27.673  1.00  0.00     0.010 A 
ATOM     35  C   UNL A   1      39.686  24.476  26.117  1.00  0.00     0.010 A 
ATOM     36  C   UNL A   1      40.715  24.442  27.069  1.00  0.00    -0.014 A 
BRANCH  36  37
ATOM     37  C   UNL A   1      41.409  25.702  27.446  1.00  0.00     0.031 A 
ATOM     38  C   UNL A   1      40.680  26.744  28.254  1.00  0.00     0.074 A 
ATOM     39  C   UNL A   1      42.668  25.930  27.026  1.00  0.00     0.049 A 
ATOM     40  N   UNL A   1      41.073  27.938  28.616  1.00  0.00    -0.248 NA
ATOM     41  C   UNL A   1      39.316  26.404  28.689  1.00  0.00     0.031 C 
ATOM     42  C   UNL A   1      43.468  25.007  26.217  1.00  0.00     0.029 A 
ATOM     43  N   UNL A   1      43.497  27.008  27.212  1.00  0.00    -0.354 N 
ATOM     44  C   UNL A   1      40.004  28.496  29.311  1.00  0.00     0.074 A 
ATOM     45  C   UNL A   1      38.925  27.532  29.261  1.00  0.00     0.031 C 
ATOM     46  C   UNL A   1      44.678  25.549  25.998  1.00  0.00     0.029 A 
ATOM     47  C   UNL A   1      44.726  26.874  26.607  1.00  0.00     0.049 A 
ATOM     48  H   UNL A   1      43.236  27.804  27.730  1.00  0.00     0.167 HD
ATOM     49  C   UNL A   1      39.938  29.689  29.953  1.00  0.00     0.034 A 
ATOM     50  C   UNL A   1      45.767  27.728  26.541  1.00  0.00     0.034 A 
ATOM     51  C   UNL A   1      41.026  30.634  30.000  1.00  0.00     0.049 A 
ATOM     52  C   UNL A   1      45.654  29.067  27.231  1.00  0.00     0.074 A 
ATOM     53  C   UNL A   1      41.078  31.858  30.645  1.00  0.00     0.029 A 
ATOM     54  N   UNL A   1      42.254  30.464  29.374  1.00  0.00    -0.354 N 
ATOM     55  N   UNL A   1      44.648  29.564  27.913  1.00  0.00    -0.248 NA
ATOM     56  C   UNL A   1      46.823  29.953  27.152  1.00  0.00     0.031 C 
ATOM     57  C   UNL A   1      42.312  32.454  30.359  1.00  0.00     0.029 A 
ATOM     58  C   UNL A   1      43.061  31.570  29.600  1.00  0.00     0.049 A 
ATOM     59  H   UNL A   1      42.515  29.675  28.847  1.00  0.00     0.167 HD
ATOM     60  C   UNL A   1      45.081  30.804  28.377  1.00  0.00     0.074 A 
ATOM     61  C   UNL A   1      46.441  30.971  27.909  1.00  0.00     0.031 C 
ATOM     62  C   UNL A   1      44.418  31.719  29.128  1.00  0.00     0.034 A 
BRANCH  49  63
ATOM     63  C   UNL A   1      38.635  30.039  30.635  1.00  0.00     0.023 A 
ATOM     64  C   UNL A   1      37.625  30.754  29.970  1.00  0.00     0.031 A 
ATOM     65  C   UNL A   1      38.408  29.672  31.974  1.00  0.00     0.131 A 
ATOM     66  C   UNL A   1      36.468  31.145  30.662  1.00  0.00     0.055 A 
ATOM     67  C   UNL A   1      37.219  29.990  32.632  1.00  0.00     0.041 A 
ATOM     68  F   UNL A   1      39.343  29.006  32.669  1.00  0.00    -0.206 F 
ATOM     69  C   UNL A   1      36.246  30.745  31.981  1.00  0.00     0.022 A 
BRANCH  66  70
ATOM     70  S   UNL A   1      35.326  32.300  29.857  1.00  0.00     0.124 S 
ATOM     71  O   UNL A   1      34.423  32.635  30.957  1.00  0.00    -0.237 OA
ATOM     72  O   UNL A   1      36.215  33.367  29.412  1.00  0.00    -0.237 OA
ATOM     73  O   UNL A   1      34.726  31.501  28.790  1.00  0.00    -0.744 OA
ENDBRANCH  66  70
ENDBRANCH  49  63
BRANCH  50  74
ATOM     74  C   UNL A   1      47.008  27.364  25.797  1.00  0.00     0.023 A 
ATOM     75  C   UNL A   1      47.219  27.812  24.483  1.00  0.00     0.031 A 
ATOM     76  C   UNL A   1      47.971  26.509  26.361  1.00  0.00     0.131 A 
ATOM     77  C   UNL A   1      48.329  27.358  23.756  1.00  0.00     0.055 A 
ATOM     78  C   UNL A   1      49.107  26.107  25.655  1.00  0.00     0.041 A 
ATOM     79  F   UNL A   1      47.823  26.051  27.615  1.00  0.00    -0.206 F 
ATOM     80  C   UNL A   1      49.282  26.518  24.338  1.00  0.00     0.022 A 
BRANCH  77  81
ATOM     81  S   UNL A   1      48.454  27.794  21.999  1.00  0.00     0.124 S 
ATOM     82  O   UNL A   1      48.380  26.483  21.363  1.00  0.00    -0.237 OA
ATOM     83  O   UNL A   1      47.295  28.661  21.820  1.00  0.00    -0.237 OA
ATOM     84  O   UNL A   1      49.751  28.461  21.906  1.00  0.00    -0.744 OA
ENDBRANCH  77  81
ENDBRANCH  50  74
BRANCH  62  85
ATOM     85  C   UNL A   1      45.183  32.953  29.543  1.00  0.00     0.023 A 
ATOM     86  C   UNL A   1      45.998  32.974  30.689  1.00  0.00     0.031 A 
ATOM     87  C   UNL A   1      45.084  34.131  28.781  1.00  0.00     0.131 A 
ATOM     88  C   UNL A   1      46.633  34.165  31.072  1.00  0.00     0.055 A 
ATOM     89  C   UNL A   1      45.769  35.295  29.132  1.00  0.00     0.041 A 
ATOM     90  F   UNL A   1      44.320  34.168  27.678  1.00  0.00    -0.206 F 
ATOM     91  C   UNL A   1      46.538  35.320  30.291  1.00  0.00     0.022 A 
BRANCH  88  92
ATOM     92  S   UNL A   1      47.512  34.213  32.658  1.00  0.00     0.124 S 
ATOM     93  O   UNL A   1      46.750  35.213  33.398  1.00  0.00    -0.237 OA
ATOM     94  O   UNL A   1      47.385  32.837  33.127  1.00  0.00    -0.237 OA
ATOM     95  O   UNL A   1      48.868  34.617  32.287  1.00  0.00    -0.744 OA
ENDBRANCH  88  92
ENDBRANCH  62  85
ENDBRANCH  36  37
ENDBRANCH  28  31
ENDBRANCH  26  27
ENDBRANCH  25  26
ENDBRANCH   1  25
TORSDOF 18
ENDMDL
MODEL 2
REMARK VINA RESULT:     -11.9      2.644      3.444
REMARK SMILES Cc1ccc(C(=O)N2CCC(CC(=O)NCCCCCCNC(=O)c3ccc(-c4c5nc(c(-c6cc(S(=O)(=O)[O-])ccc6F)c6ccc([nH]6)c(-c6cc(S(=O)(=O)[O-])ccc6F)c6nc(c(-c7cc(S(=O)(=O)[O-])ccc7F)c7ccc4[nH]7)C=C6)C=C5)cc3)CC2)cn1
REMARK SMILES IDX 19 1 18 2 17 3 16 4 15 5 13 6 14 7 12 9 11 10 6 11 7 12 8 13
REMARK SMILES IDX 9 14 89 15 10 16 88 17 5 18 1 19 2 20 3 21 91 22 4 23 90 24
REMARK SMILES IDX 20 25 21 26 22 27 23 28 24 30 25 31 26 32 87 33 27 34 86 35
REMARK SMILES IDX 28 36 29 37 30 38 80 39 31 40 85 41 79 42 81 43 32 44 84 45
REMARK SMILES IDX 78 46 77 47 33 49 65 50 45 51 64 52 46 53 49 54 63 55 82 56
REMARK SMILES IDX 47 57 48 58 62 60 83 61 50 62 34 63 35 64 43 65 36 66 42 67
REMARK SMILES IDX 44 68 41 69 37 70 38 71 39 72 40 73 66 74 67 75 75 76 68 77
REMARK SMILES IDX 74 78 76 79 73 80 69 81 70 82 71 83 72 84 51 85 52 86 60 87
REMARK SMILES IDX 53 88 59 89 61 90 58 91 54 92 55 93 56 94 57 95
REMARK H PARENT 15 8 22 29 81 48 49 59
REMARK Flexibility Score: inf
ROOT
ATOM      1  C   UNL A   1      37.090  20.471  24.933  1.00  0.00     0.002 C 
ENDROOT
BRANCH   1   2
ATOM      2  C   UNL A   1      37.358  21.909  24.487  1.00  0.00     0.002 C 
BRANCH   2   3
ATOM      3  C   UNL A   1      37.539  22.912  25.623  1.00  0.00     0.021 C 
BRANCH   3   4
ATOM      4  C   UNL A   1      36.276  23.693  26.004  1.00  0.00     0.116 C 
BRANCH   4   5
ATOM      5  N   UNL A   1      35.487  22.958  26.983  1.00  0.00    -0.356 N 
ATOM      6  C   UNL A   1      34.165  22.625  26.988  1.00  0.00     0.220 C 
ATOM      7  O   UNL A   1      33.703  22.083  27.995  1.00  0.00    -0.275 OA
ATOM      8  H   UNL A   1      35.992  22.650  27.770  1.00  0.00     0.163 HD
BRANCH   6   9
ATOM      9  C   UNL A   1      33.279  22.908  25.785  1.00  0.00     0.103 C 
BRANCH   9  10
ATOM     10  C   UNL A   1      32.385  24.154  25.938  1.00  0.00     0.002 C 
ATOM     11  C   UNL A   1      30.738  26.807  23.398  1.00  0.00     0.255 C 
ATOM     12  O   UNL A   1      31.257  26.296  22.415  1.00  0.00    -0.269 OA
ATOM     13  N   UNL A   1      30.935  26.340  24.685  1.00  0.00    -0.339 N 
ATOM     14  C   UNL A   1      32.186  26.633  25.343  1.00  0.00     0.120 C 
ATOM     15  C   UNL A   1      30.185  25.202  25.182  1.00  0.00     0.120 C 
ATOM     16  C   UNL A   1      33.073  25.404  25.385  1.00  0.00     0.026 C 
ATOM     17  C   UNL A   1      31.035  23.933  25.227  1.00  0.00     0.026 C 
BRANCH  11  18
ATOM     18  C   UNL A   1      29.899  28.029  23.309  1.00  0.00     0.058 A 
ATOM     19  C   UNL A   1      27.654  31.637  23.194  1.00  0.00     0.066 C 
ATOM     20  C   UNL A   1      28.423  30.352  23.212  1.00  0.00     0.037 A 
ATOM     21  C   UNL A   1      27.766  29.136  23.082  1.00  0.00     0.024 A 
ATOM     22  N   UNL A   1      29.765  30.440  23.379  1.00  0.00    -0.261 NA
ATOM     23  C   UNL A   1      28.514  27.963  23.128  1.00  0.00     0.017 A 
ATOM     24  C   UNL A   1      30.475  29.283  23.430  1.00  0.00     0.125 A 
ENDBRANCH  11  18
ENDBRANCH   9  10
ENDBRANCH   6   9
ENDBRANCH   4   5
ENDBRANCH   3   4
ENDBRANCH   2   3
ENDBRANCH   1   2
BRANCH   1  25
ATOM     25  C   UNL A   1      38.323  19.564  25.012  1.00  0.00     0.021 C 
BRANCH  25  26
ATOM     26  C   UNL A   1      39.474  20.099  25.863  1.00  0.00     0.116 C 
BRANCH  26  27
ATOM     27  N   UNL A   1      40.539  19.121  26.011  1.00  0.00    -0.352 N 
ATOM     28  C   UNL A   1      41.895  19.315  26.112  1.00  0.00     0.251 C 
ATOM     29  H   UNL A   1      40.245  18.182  26.042  1.00  0.00     0.163 HD
ATOM     30  O   UNL A   1      42.655  18.365  25.980  1.00  0.00    -0.269 OA
BRANCH  28  31
ATOM     31  C   UNL A   1      42.429  20.671  26.370  1.00  0.00     0.039 A 
ATOM     32  C   UNL A   1      42.790  21.475  25.287  1.00  0.00     0.014 A 
ATOM     33  C   UNL A   1      42.599  21.136  27.677  1.00  0.00     0.014 A 
ATOM     34  C   UNL A   1      43.279  22.765  25.514  1.00  0.00     0.010 A 
ATOM     35  C   UNL A   1      43.021  22.445  27.899  1.00  0.00     0.010 A 
ATOM     36  C   UNL A   1      43.376  23.269  26.821  1.00  0.00    -0.014 A 
BRANCH  36  37
ATOM     37  C   UNL A   1      43.880  24.644  27.083  1.00  0.00     0.031 A 
ATOM     38  C   UNL A   1      42.938  25.700  27.599  1.00  0.00     0.074 A 
ATOM     39  C   UNL A   1      45.164  24.953  26.815  1.00  0.00     0.049 A 
ATOM     40  N   UNL A   1      43.156  26.972  27.814  1.00  0.00    -0.248 NA
ATOM     41  C   UNL A   1      41.561  25.271  27.884  1.00  0.00     0.031 C 
ATOM     42  C   UNL A   1      46.165  24.023  26.288  1.00  0.00     0.029 A 
ATOM     43  N   UNL A   1      45.848  26.137  26.939  1.00  0.00    -0.354 N 
ATOM     44  C   UNL A   1      41.942  27.497  28.250  1.00  0.00     0.074 A 
ATOM     45  C   UNL A   1      40.980  26.417  28.205  1.00  0.00     0.031 C 
ATOM     46  C   UNL A   1      47.337  24.664  26.159  1.00  0.00     0.029 A 
ATOM     47  C   UNL A   1      47.165  26.060  26.545  1.00  0.00     0.049 A 
ATOM     48  H   UNL A   1      45.435  26.964  27.278  1.00  0.00     0.167 HD
ATOM     49  C   UNL A   1      41.664  28.755  28.674  1.00  0.00     0.034 A 
ATOM     50  C   UNL A   1      48.118  27.012  26.490  1.00  0.00     0.034 A 
ATOM     51  C   UNL A   1      42.638  29.818  28.721  1.00  0.00     0.049 A 
ATOM     52  C   UNL A   1      47.773  28.414  26.929  1.00  0.00     0.074 A 
ATOM     53  C   UNL A   1      42.472  31.120  29.160  1.00  0.00     0.029 A 
ATOM     54  N   UNL A   1      43.960  29.703  28.312  1.00  0.00    -0.354 N 
ATOM     55  N   UNL A   1      46.629  28.885  27.372  1.00  0.00    -0.248 NA
ATOM     56  C   UNL A   1      48.851  29.410  26.874  1.00  0.00     0.031 C 
ATOM     57  C   UNL A   1      43.675  31.808  28.959  1.00  0.00     0.029 A 
ATOM     58  C   UNL A   1      44.614  30.916  28.468  1.00  0.00     0.049 A 
ATOM     59  H   UNL A   1      44.374  28.881  27.962  1.00  0.00     0.167 HD
ATOM     60  C   UNL A   1      46.865  30.221  27.685  1.00  0.00     0.074 A 
ATOM     61  C   UNL A   1      48.261  30.476  27.394  1.00  0.00     0.031 C 
ATOM     62  C   UNL A   1      46.009  31.153  28.176  1.00  0.00     0.034 A 
BRANCH  49  63
ATOM     63  C   UNL A   1      40.243  29.046  29.098  1.00  0.00     0.023 A 
ATOM     64  C   UNL A   1      39.860  29.029  30.450  1.00  0.00     0.031 A 
ATOM     65  C   UNL A   1      39.253  29.323  28.138  1.00  0.00     0.131 A 
ATOM     66  C   UNL A   1      38.514  29.209  30.802  1.00  0.00     0.055 A 
ATOM     67  C   UNL A   1      37.930  29.585  28.501  1.00  0.00     0.041 A 
ATOM     68  F   UNL A   1      39.552  29.333  26.830  1.00  0.00    -0.206 F 
ATOM     69  C   UNL A   1      37.550  29.514  29.838  1.00  0.00     0.022 A 
BRANCH  66  70
ATOM     70  S   UNL A   1      38.017  28.901  32.518  1.00  0.00     0.124 S 
ATOM     71  O   UNL A   1      36.653  29.424  32.529  1.00  0.00    -0.237 OA
ATOM     72  O   UNL A   1      38.148  27.453  32.631  1.00  0.00    -0.237 OA
ATOM     73  O   UNL A   1      38.981  29.677  33.298  1.00  0.00    -0.744 OA
ENDBRANCH  66  70
ENDBRANCH  49  63
BRANCH  50  74
ATOM     74  C   UNL A   1      49.490  26.690  25.998  1.00  0.00     0.023 A 
ATOM     75  C   UNL A   1      49.924  27.124  24.736  1.00  0.00     0.031 A 
ATOM     76  C   UNL A   1      50.365  25.889  26.754  1.00  0.00     0.131 A 
ATOM     77  C   UNL A   1      51.169  26.707  24.240  1.00  0.00     0.055 A 
ATOM     78  C   UNL A   1      51.628  25.526  26.282  1.00  0.00     0.041 A 
ATOM     79  F   UNL A   1      50.004  25.447  27.970  1.00  0.00    -0.206 F 
ATOM     80  C   UNL A   1      52.029  25.921  25.010  1.00  0.00     0.022 A 
BRANCH  77  81
ATOM     81  S   UNL A   1      51.602  27.117  22.527  1.00  0.00     0.124 S 
ATOM     82  O   UNL A   1      52.063  28.495  22.658  1.00  0.00    -0.237 OA
ATOM     83  O   UNL A   1      52.626  26.123  22.228  1.00  0.00    -0.237 OA
ATOM     84  O   UNL A   1      50.341  26.946  21.807  1.00  0.00    -0.744 OA
ENDBRANCH  77  81
ENDBRANCH  50  74
BRANCH  62  85
ATOM     85  C   UNL A   1      46.580  32.515  28.489  1.00  0.00     0.023 A 
ATOM     86  C   UNL A   1      46.677  33.524  27.514  1.00  0.00     0.031 A 
ATOM     87  C   UNL A   1      47.045  32.800  29.785  1.00  0.00     0.131 A 
ATOM     88  C   UNL A   1      47.280  34.750  27.836  1.00  0.00     0.055 A 
ATOM     89  C   UNL A   1      47.586  34.043  30.116  1.00  0.00     0.041 A 
ATOM     90  F   UNL A   1      46.979  31.874  30.755  1.00  0.00    -0.206 F 
ATOM     91  C   UNL A   1      47.718  35.022  29.135  1.00  0.00     0.022 A 
BRANCH  88  92
ATOM     92  S   UNL A   1      47.570  35.953  26.511  1.00  0.00     0.124 S 
ATOM     93  O   UNL A   1      46.291  36.652  26.448  1.00  0.00    -0.237 OA
ATOM     94  O   UNL A   1      48.694  36.725  27.031  1.00  0.00    -0.237 OA
ATOM     95  O   UNL A   1      47.877  35.118  25.350  1.00  0.00    -0.744 OA
ENDBRANCH  88  92
ENDBRANCH  62  85
ENDBRANCH  36  37
ENDBRANCH  28  31
ENDBRANCH  26  27
ENDBRANCH  25  26
ENDBRANCH   1  25
TORSDOF 18
ENDMDL
MODEL 3
REMARK VINA RESULT:     -11.8      4.538     10.075
REMARK SMILES Cc1ccc(C(=O)N2CCC(CC(=O)NCCCCCCNC(=O)c3ccc(-c4c5nc(c(-c6cc(S(=O)(=O)[O-])ccc6F)c6ccc([nH]6)c(-c6cc(S(=O)(=O)[O-])ccc6F)c6nc(c(-c7cc(S(=O)(=O)[O-])ccc7F)c7ccc4[nH]7)C=C6)C=C5)cc3)CC2)cn1
REMARK SMILES IDX 19 1 18 2 17 3 16 4 15 5 13 6 14 7 12 9 11 10 6 11 7 12 8 13
REMARK SMILES IDX 9 14 89 15 10 16 88 17 5 18 1 19 2 20 3 21 91 22 4 23 90 24
REMARK SMILES IDX 20 25 21 26 22 27 23 28 24 30 25 31 26 32 87 33 27 34 86 35
REMARK SMILES IDX 28 36 29 37 30 38 80 39 31 40 85 41 79 42 81 43 32 44 84 45
REMARK SMILES IDX 78 46 77 47 33 49 65 50 45 51 64 52 46 53 49 54 63 55 82 56
REMARK SMILES IDX 47 57 48 58 62 60 83 61 50 62 34 63 35 64 43 65 36 66 42 67
REMARK SMILES IDX 44 68 41 69 37 70 38 71 39 72 40 73 66 74 67 75 75 76 68 77
REMARK SMILES IDX 74 78 76 79 73 80 69 81 70 82 71 83 72 84 51 85 52 86 60 87
REMARK SMILES IDX 53 88 59 89 61 90 58 91 54 92 55 93 56 94 57 95
REMARK H PARENT 15 8 22 29 81 48 49 59
REMARK Flexibility Score: inf
ROOT
ATOM      1  C   UNL A   1      31.481  28.029  26.461  1.00  0.00     0.002 C 
ENDROOT
BRANCH   1   2
ATOM      2  C   UNL A   1      30.712  27.182  25.447  1.00  0.00     0.002 C 
BRANCH   2   3
ATOM      3  C   UNL A   1      30.621  27.781  24.045  1.00  0.00     0.021 C 
BRANCH   3   4
ATOM      4  C   UNL A   1      30.543  26.755  22.908  1.00  0.00     0.116 C 
BRANCH   4   5
ATOM      5  N   UNL A   1      31.713  26.847  22.046  1.00  0.00    -0.356 N 
ATOM      6  C   UNL A   1      33.016  26.518  22.280  1.00  0.00     0.220 C 
ATOM      7  O   UNL A   1      33.851  26.791  21.414  1.00  0.00    -0.275 OA
ATOM      8  H   UNL A   1      31.534  27.203  21.146  1.00  0.00     0.163 HD
BRANCH   6   9
ATOM      9  C   UNL A   1      33.433  25.830  23.570  1.00  0.00     0.103 C 
BRANCH   9  10
ATOM     10  C   UNL A   1      32.806  24.438  23.775  1.00  0.00     0.002 C 
ATOM     11  C   UNL A   1      34.238  20.751  24.523  1.00  0.00     0.255 C 
ATOM     12  O   UNL A   1      35.405  21.117  24.477  1.00  0.00    -0.269 OA
ATOM     13  N   UNL A   1      33.170  21.605  24.315  1.00  0.00    -0.339 N 
ATOM     14  C   UNL A   1      32.863  22.013  22.965  1.00  0.00     0.120 C 
ATOM     15  C   UNL A   1      32.689  22.460  25.384  1.00  0.00     0.120 C 
ATOM     16  C   UNL A   1      33.302  23.444  22.722  1.00  0.00     0.026 C 
ATOM     17  C   UNL A   1      33.122  23.913  25.190  1.00  0.00     0.026 C 
BRANCH  11  18
ATOM     18  C   UNL A   1      33.859  19.331  24.736  1.00  0.00     0.058 A 
ATOM     19  C   UNL A   1      32.628  15.339  25.523  1.00  0.00     0.066 C 
ATOM     20  C   UNL A   1      33.080  16.735  25.219  1.00  0.00     0.037 A 
ATOM     21  C   UNL A   1      34.351  16.969  24.711  1.00  0.00     0.024 A 
ATOM     22  N   UNL A   1      32.205  17.736  25.481  1.00  0.00    -0.261 NA
ATOM     23  C   UNL A   1      34.741  18.282  24.464  1.00  0.00     0.017 A 
ATOM     24  C   UNL A   1      32.610  19.010  25.242  1.00  0.00     0.125 A 
ENDBRANCH  11  18
ENDBRANCH   9  10
ENDBRANCH   6   9
ENDBRANCH   4   5
ENDBRANCH   3   4
ENDBRANCH   2   3
ENDBRANCH   1   2
BRANCH   1  25
ATOM     25  C   UNL A   1      33.008  27.922  26.389  1.00  0.00     0.021 C 
BRANCH  25  26
ATOM     26  C   UNL A   1      33.708  29.063  25.654  1.00  0.00     0.116 C 
BRANCH  26  27
ATOM     27  N   UNL A   1      33.192  30.363  26.052  1.00  0.00    -0.352 N 
ATOM     28  C   UNL A   1      33.568  31.169  27.099  1.00  0.00     0.251 C 
ATOM     29  H   UNL A   1      32.465  30.716  25.489  1.00  0.00     0.163 HD
ATOM     30  O   UNL A   1      32.857  32.108  27.428  1.00  0.00    -0.269 OA
BRANCH  28  31
ATOM     31  C   UNL A   1      34.826  30.890  27.829  1.00  0.00     0.039 A 
ATOM     32  C   UNL A   1      34.933  29.712  28.571  1.00  0.00     0.014 A 
ATOM     33  C   UNL A   1      35.884  31.803  27.805  1.00  0.00     0.014 A 
ATOM     34  C   UNL A   1      36.120  29.427  29.251  1.00  0.00     0.010 A 
ATOM     35  C   UNL A   1      37.089  31.485  28.426  1.00  0.00     0.010 A 
ATOM     36  C   UNL A   1      37.217  30.299  29.164  1.00  0.00    -0.014 A 
BRANCH  36  37
ATOM     37  C   UNL A   1      38.494  30.007  29.868  1.00  0.00     0.031 A 
ATOM     38  C   UNL A   1      39.482  29.047  29.258  1.00  0.00     0.074 A 
ATOM     39  C   UNL A   1      38.744  30.564  31.070  1.00  0.00     0.049 A 
ATOM     40  N   UNL A   1      40.610  28.597  29.745  1.00  0.00    -0.248 NA
ATOM     41  C   UNL A   1      39.140  28.503  27.936  1.00  0.00     0.031 C 
ATOM     42  C   UNL A   1      37.852  31.488  31.774  1.00  0.00     0.029 A 
ATOM     43  N   UNL A   1      39.815  30.429  31.918  1.00  0.00    -0.354 N 
ATOM     44  C   UNL A   1      41.106  27.710  28.794  1.00  0.00     0.074 A 
ATOM     45  C   UNL A   1      40.123  27.640  27.735  1.00  0.00     0.031 C 
ATOM     46  C   UNL A   1      38.424  31.855  32.932  1.00  0.00     0.029 A 
ATOM     47  C   UNL A   1      39.698  31.159  33.079  1.00  0.00     0.049 A 
ATOM     48  H   UNL A   1      40.595  29.864  31.714  1.00  0.00     0.167 HD
ATOM     49  C   UNL A   1      42.285  27.038  28.792  1.00  0.00     0.034 A 
ATOM     50  C   UNL A   1      40.519  31.245  34.145  1.00  0.00     0.034 A 
ATOM     51  C   UNL A   1      43.259  27.126  29.853  1.00  0.00     0.049 A 
ATOM     52  C   UNL A   1      41.806  30.456  34.137  1.00  0.00     0.074 A 
ATOM     53  C   UNL A   1      44.496  26.513  29.941  1.00  0.00     0.029 A 
ATOM     54  N   UNL A   1      43.104  27.873  31.014  1.00  0.00    -0.354 N 
ATOM     55  N   UNL A   1      42.277  29.648  33.214  1.00  0.00    -0.248 NA
ATOM     56  C   UNL A   1      42.679  30.601  35.310  1.00  0.00     0.031 C 
ATOM     57  C   UNL A   1      45.062  26.839  31.179  1.00  0.00     0.029 A 
ATOM     58  C   UNL A   1      44.213  27.719  31.832  1.00  0.00     0.049 A 
ATOM     59  H   UNL A   1      42.321  28.432  31.226  1.00  0.00     0.167 HD
ATOM     60  C   UNL A   1      43.518  29.223  33.679  1.00  0.00     0.074 A 
ATOM     61  C   UNL A   1      43.728  29.874  34.956  1.00  0.00     0.031 C 
ATOM     62  C   UNL A   1      44.409  28.378  33.102  1.00  0.00     0.034 A 
BRANCH  49  63
ATOM     63  C   UNL A   1      42.567  26.135  27.614  1.00  0.00     0.023 A 
ATOM     64  C   UNL A   1      42.162  24.789  27.605  1.00  0.00     0.031 A 
ATOM     65  C   UNL A   1      43.268  26.618  26.495  1.00  0.00     0.131 A 
ATOM     66  C   UNL A   1      42.524  23.954  26.536  1.00  0.00     0.055 A 
ATOM     67  C   UNL A   1      43.552  25.803  25.397  1.00  0.00     0.041 A 
ATOM     68  F   UNL A   1      43.699  27.888  26.453  1.00  0.00    -0.206 F 
ATOM     69  C   UNL A   1      43.193  24.458  25.419  1.00  0.00     0.022 A 
BRANCH  66  70
ATOM     70  S   UNL A   1      42.230  22.171  26.692  1.00  0.00     0.124 S 
ATOM     71  O   UNL A   1      41.054  21.992  25.844  1.00  0.00    -0.237 OA
ATOM     72  O   UNL A   1      43.474  21.600  26.189  1.00  0.00    -0.237 OA
ATOM     73  O   UNL A   1      41.992  21.987  28.123  1.00  0.00    -0.744 OA
ENDBRANCH  66  70
ENDBRANCH  49  63
BRANCH  50  74
ATOM     74  C   UNL A   1      40.163  32.099  35.316  1.00  0.00     0.023 A 
ATOM     75  C   UNL A   1      39.265  31.643  36.294  1.00  0.00     0.031 A 
ATOM     76  C   UNL A   1      40.663  33.407  35.442  1.00  0.00     0.131 A 
ATOM     77  C   UNL A   1      38.846  32.505  37.319  1.00  0.00     0.055 A 
ATOM     78  C   UNL A   1      40.291  34.242  36.498  1.00  0.00     0.041 A 
ATOM     79  F   UNL A   1      41.527  33.895  34.538  1.00  0.00    -0.206 F 
ATOM     80  C   UNL A   1      39.363  33.797  37.435  1.00  0.00     0.022 A 
BRANCH  77  81
ATOM     81  S   UNL A   1      37.531  31.949  38.438  1.00  0.00     0.124 S 
ATOM     82  O   UNL A   1      36.474  32.914  38.155  1.00  0.00    -0.237 OA
ATOM     83  O   UNL A   1      37.296  30.586  37.975  1.00  0.00    -0.237 OA
ATOM     84  O   UNL A   1      38.141  32.060  39.761  1.00  0.00    -0.744 OA
ENDBRANCH  77  81
ENDBRANCH  50  74
BRANCH  62  85
ATOM     85  C   UNL A   1      45.719  28.163  33.820  1.00  0.00     0.023 A 
ATOM     86  C   UNL A   1      45.902  27.113  34.738  1.00  0.00     0.031 A 
ATOM     87  C   UNL A   1      46.799  29.034  33.588  1.00  0.00     0.131 A 
ATOM     88  C   UNL A   1      47.116  26.997  35.433  1.00  0.00     0.055 A 
ATOM     89  C   UNL A   1      48.025  28.875  34.235  1.00  0.00     0.041 A 
ATOM     90  F   UNL A   1      46.680  30.054  32.723  1.00  0.00    -0.206 F 
ATOM     91  C   UNL A   1      48.184  27.860  35.173  1.00  0.00     0.022 A 
BRANCH  88  92
ATOM     92  S   UNL A   1      47.250  25.758  36.751  1.00  0.00     0.124 S 
ATOM     93  O   UNL A   1      46.801  26.507  37.919  1.00  0.00    -0.237 OA
ATOM     94  O   UNL A   1      46.354  24.706  36.283  1.00  0.00    -0.237 OA
ATOM     95  O   UNL A   1      48.670  25.407  36.748  1.00  0.00    -0.744 OA
ENDBRANCH  88  92
ENDBRANCH  62  85
ENDBRANCH  36  37
ENDBRANCH  28  31
ENDBRANCH  26  27
ENDBRANCH  25  26
ENDBRANCH   1  25
TORSDOF 18
ENDMDL
