MODEL 1
REMARK VINA RESULT:     -10.5      0.000      0.000
REMARK SMILES COC(=O)c1ccc([C@H]([NH3+])CC(=O)NCCCCCCNC(=O)c2ccc(-c3c4nc(c(-c5cc(S(=O)(=O)[O-])ccc5F)c5ccc([nH]5)c(-c5cc(S(=O)(=O)[O-])ccc5F)c5nc(c(-c6cc(S(=O)(=O)[O-])ccc6F)c6ccc3[nH]6)C=C5)C=C4)cc2)cc1
REMARK SMILES IDX 17 1 16 2 15 3 14 4 12 5 13 6 11 8 9 9 8 10 5 11 6 12 88 13
REMARK SMILES IDX 7 14 87 15 3 16 4 17 2 18 1 19 10 20 18 24 19 25 20 26 21 27
REMARK SMILES IDX 22 28 23 30 24 31 25 32 86 33 26 34 85 35 27 36 28 37 29 38
REMARK SMILES IDX 79 39 30 40 84 41 78 42 80 43 31 44 83 45 77 46 76 47 32 49
REMARK SMILES IDX 64 50 44 51 63 52 45 53 48 54 62 55 81 56 46 57 47 58 61 60
REMARK SMILES IDX 82 61 49 62 33 63 34 64 42 65 35 66 41 67 43 68 40 69 36 70
REMARK SMILES IDX 37 71 38 72 39 73 65 74 66 75 74 76 67 77 73 78 75 79 72 80
REMARK SMILES IDX 68 81 69 82 70 83 71 84 50 85 51 86 59 87 52 88 58 89 60 90
REMARK SMILES IDX 57 91 53 92 54 93 55 94 56 95
REMARK H PARENT 14 7 10 21 10 22 10 23 21 29 80 48 48 59
REMARK Flexibility Score: inf
ROOT
ATOM      1  C   UNL A   1      34.620  25.053  25.012  1.00  0.00     0.002 C 
ENDROOT
BRANCH   1   2
ATOM      2  C   UNL A   1      33.921  26.106  25.872  1.00  0.00     0.021 C 
BRANCH   2   3
ATOM      3  C   UNL A   1      33.067  27.086  25.070  1.00  0.00     0.116 C 
BRANCH   3   4
ATOM      4  N   UNL A   1      33.770  27.512  23.872  1.00  0.00    -0.356 N 
ATOM      5  C   UNL A   1      33.345  27.490  22.576  1.00  0.00     0.226 C 
ATOM      6  O   UNL A   1      34.140  27.761  21.676  1.00  0.00    -0.275 OA
ATOM      7  H   UNL A   1      34.677  27.867  24.016  1.00  0.00     0.163 HD
BRANCH   5   8
ATOM      8  C   UNL A   1      31.905  27.159  22.288  1.00  0.00     0.170 C 
BRANCH   8   9
ATOM      9  C   UNL A   1      31.670  25.878  21.465  1.00  0.00     0.221 C 
BRANCH   9  10
ATOM     10  C   UNL A   1      31.966  24.700  22.389  1.00  0.00     0.010 A 
ATOM     11  C   UNL A   1      32.268  22.332  23.874  1.00  0.00     0.060 A 
ATOM     12  C   UNL A   1      31.341  23.295  24.278  1.00  0.00     0.016 A 
ATOM     13  C   UNL A   1      33.071  22.563  22.751  1.00  0.00     0.016 A 
ATOM     14  C   UNL A   1      31.198  24.473  23.547  1.00  0.00     0.011 A 
ATOM     15  C   UNL A   1      32.917  23.740  22.013  1.00  0.00     0.011 A 
BRANCH  11  16
ATOM     16  C   UNL A   1      32.316  21.061  24.625  1.00  0.00     0.337 C 
ATOM     17  O   UNL A   1      31.493  20.755  25.481  1.00  0.00    -0.246 OA
BRANCH  16  18
ATOM     18  O   UNL A   1      33.395  20.332  24.256  1.00  0.00    -0.465 OA
ATOM     19  C   UNL A   1      33.090  18.964  23.988  1.00  0.00     0.282 C 
ENDBRANCH  16  18
ENDBRANCH  11  16
ENDBRANCH   9  10
BRANCH   9  20
ATOM     20  N   UNL A   1      32.391  25.738  20.200  1.00  0.00    -0.351 N 
ATOM     21  H   UNL A   1      33.389  25.865  20.363  1.00  0.00     0.345 HD
ATOM     22  H   UNL A   1      32.062  26.444  19.542  1.00  0.00     0.345 HD
ATOM     23  H   UNL A   1      32.224  24.809  19.815  1.00  0.00     0.345 HD
ENDBRANCH   9  20
ENDBRANCH   8   9
ENDBRANCH   5   8
ENDBRANCH   3   4
ENDBRANCH   2   3
ENDBRANCH   1   2
BRANCH   1  24
ATOM     24  C   UNL A   1      35.478  24.055  25.795  1.00  0.00     0.002 C 
BRANCH  24  25
ATOM     25  C   UNL A   1      35.843  22.776  25.034  1.00  0.00     0.021 C 
BRANCH  25  26
ATOM     26  C   UNL A   1      37.318  22.654  24.658  1.00  0.00     0.116 C 
BRANCH  26  27
ATOM     27  N   UNL A   1      37.966  21.567  25.368  1.00  0.00    -0.352 N 
ATOM     28  C   UNL A   1      39.063  21.596  26.191  1.00  0.00     0.251 C 
ATOM     29  H   UNL A   1      37.562  20.679  25.238  1.00  0.00     0.163 HD
ATOM     30  O   UNL A   1      39.603  20.540  26.510  1.00  0.00    -0.269 OA
BRANCH  28  31
ATOM     31  C   UNL A   1      39.595  22.886  26.682  1.00  0.00     0.039 A 
ATOM     32  C   UNL A   1      39.113  24.068  26.116  1.00  0.00     0.014 A 
ATOM     33  C   UNL A   1      40.596  22.936  27.659  1.00  0.00     0.014 A 
ATOM     34  C   UNL A   1      39.619  25.298  26.541  1.00  0.00     0.010 A 
ATOM     35  C   UNL A   1      41.044  24.166  28.137  1.00  0.00     0.010 A 
ATOM     36  C   UNL A   1      40.581  25.359  27.564  1.00  0.00    -0.014 A 
BRANCH  36  37
ATOM     37  C   UNL A   1      41.144  26.665  27.995  1.00  0.00     0.031 A 
ATOM     38  C   UNL A   1      42.579  27.005  27.686  1.00  0.00     0.074 A 
ATOM     39  C   UNL A   1      40.372  27.533  28.675  1.00  0.00     0.049 A 
ATOM     40  N   UNL A   1      43.254  28.090  27.971  1.00  0.00    -0.248 NA
ATOM     41  C   UNL A   1      43.366  25.976  26.989  1.00  0.00     0.031 C 
ATOM     42  C   UNL A   1      38.982  27.296  29.074  1.00  0.00     0.029 A 
ATOM     43  N   UNL A   1      40.639  28.794  29.147  1.00  0.00    -0.354 N 
ATOM     44  C   UNL A   1      44.544  27.870  27.498  1.00  0.00     0.074 A 
ATOM     45  C   UNL A   1      44.573  26.520  26.976  1.00  0.00     0.031 C 
ATOM     46  C   UNL A   1      38.511  28.387  29.696  1.00  0.00     0.029 A 
ATOM     47  C   UNL A   1      39.570  29.389  29.774  1.00  0.00     0.049 A 
ATOM     48  H   UNL A   1      41.516  29.231  29.046  1.00  0.00     0.167 HD
ATOM     49  C   UNL A   1      45.599  28.723  27.473  1.00  0.00     0.034 A 
ATOM     50  C   UNL A   1      39.455  30.605  30.342  1.00  0.00     0.034 A 
ATOM     51  C   UNL A   1      45.547  30.070  27.988  1.00  0.00     0.049 A 
ATOM     52  C   UNL A   1      40.639  31.538  30.300  1.00  0.00     0.074 A 
ATOM     53  C   UNL A   1      46.539  31.037  27.981  1.00  0.00     0.029 A 
ATOM     54  N   UNL A   1      44.444  30.643  28.608  1.00  0.00    -0.354 N 
ATOM     55  N   UNL A   1      41.836  31.335  29.799  1.00  0.00    -0.248 NA
ATOM     56  C   UNL A   1      40.444  32.874  30.877  1.00  0.00     0.031 C 
ATOM     57  C   UNL A   1      46.057  32.168  28.651  1.00  0.00     0.029 A 
ATOM     58  C   UNL A   1      44.737  31.939  29.007  1.00  0.00     0.049 A 
ATOM     59  H   UNL A   1      43.579  30.195  28.745  1.00  0.00     0.167 HD
ATOM     60  C   UNL A   1      42.527  32.532  29.974  1.00  0.00     0.074 A 
ATOM     61  C   UNL A   1      41.602  33.454  30.601  1.00  0.00     0.031 C 
ATOM     62  C   UNL A   1      43.808  32.844  29.645  1.00  0.00     0.034 A 
BRANCH  49  63
ATOM     63  C   UNL A   1      46.895  28.207  26.891  1.00  0.00     0.023 A 
ATOM     64  C   UNL A   1      47.144  28.230  25.505  1.00  0.00     0.031 A 
ATOM     65  C   UNL A   1      47.881  27.649  27.723  1.00  0.00     0.131 A 
ATOM     66  C   UNL A   1      48.304  27.630  24.990  1.00  0.00     0.055 A 
ATOM     67  C   UNL A   1      49.074  27.133  27.211  1.00  0.00     0.041 A 
ATOM     68  F   UNL A   1      47.695  27.578  29.050  1.00  0.00    -0.206 F 
ATOM     69  C   UNL A   1      49.284  27.105  25.836  1.00  0.00     0.022 A 
BRANCH  66  70
ATOM     70  S   UNL A   1      48.438  27.404  23.194  1.00  0.00     0.124 S 
ATOM     71  O   UNL A   1      48.359  25.950  23.074  1.00  0.00    -0.237 OA
ATOM     72  O   UNL A   1      47.287  28.149  22.696  1.00  0.00    -0.237 OA
ATOM     73  O   UNL A   1      49.742  27.979  22.873  1.00  0.00    -0.744 OA
ENDBRANCH  66  70
ENDBRANCH  49  63
BRANCH  50  74
ATOM     74  C   UNL A   1      38.177  31.022  30.989  1.00  0.00     0.023 A 
ATOM     75  C   UNL A   1      37.196  31.724  30.271  1.00  0.00     0.031 A 
ATOM     76  C   UNL A   1      37.939  30.764  32.351  1.00  0.00     0.131 A 
ATOM     77  C   UNL A   1      36.047  32.192  30.928  1.00  0.00     0.055 A 
ATOM     78  C   UNL A   1      36.770  31.184  32.988  1.00  0.00     0.041 A 
ATOM     79  F   UNL A   1      38.840  30.090  33.082  1.00  0.00    -0.206 F 
ATOM     80  C   UNL A   1      35.821  31.915  32.279  1.00  0.00     0.022 A 
BRANCH  77  81
ATOM     81  S   UNL A   1      34.890  33.245  30.011  1.00  0.00     0.124 S 
ATOM     82  O   UNL A   1      35.796  34.184  29.358  1.00  0.00    -0.237 OA
ATOM     83  O   UNL A   1      34.228  32.281  29.140  1.00  0.00    -0.237 OA
ATOM     84  O   UNL A   1      34.047  33.817  31.060  1.00  0.00    -0.744 OA
ENDBRANCH  77  81
ENDBRANCH  50  74
BRANCH  62  85
ATOM     85  C   UNL A   1      44.257  34.259  29.924  1.00  0.00     0.023 A 
ATOM     86  C   UNL A   1      44.780  34.637  31.173  1.00  0.00     0.031 A 
ATOM     87  C   UNL A   1      44.114  35.253  28.940  1.00  0.00     0.131 A 
ATOM     88  C   UNL A   1      45.063  35.987  31.434  1.00  0.00     0.055 A 
ATOM     89  C   UNL A   1      44.468  36.582  29.180  1.00  0.00     0.041 A 
ATOM     90  F   UNL A   1      43.620  34.952  27.728  1.00  0.00    -0.206 F 
ATOM     91  C   UNL A   1      44.926  36.959  30.439  1.00  0.00     0.022 A 
BRANCH  88  92
ATOM     92  S   UNL A   1      45.481  36.474  33.130  1.00  0.00     0.124 S 
ATOM     93  O   UNL A   1      46.621  35.613  33.421  1.00  0.00    -0.237 OA
ATOM     94  O   UNL A   1      45.777  37.895  32.981  1.00  0.00    -0.237 OA
ATOM     95  O   UNL A   1      44.265  36.170  33.883  1.00  0.00    -0.744 OA
ENDBRANCH  88  92
ENDBRANCH  62  85
ENDBRANCH  36  37
ENDBRANCH  28  31
ENDBRANCH  26  27
ENDBRANCH  25  26
ENDBRANCH  24  25
ENDBRANCH   1  24
TORSDOF 21
ENDMDL
MODEL 2
REMARK VINA RESULT:     -10.2      2.255      2.988
REMARK SMILES COC(=O)c1ccc([C@H]([NH3+])CC(=O)NCCCCCCNC(=O)c2ccc(-c3c4nc(c(-c5cc(S(=O)(=O)[O-])ccc5F)c5ccc([nH]5)c(-c5cc(S(=O)(=O)[O-])ccc5F)c5nc(c(-c6cc(S(=O)(=O)[O-])ccc6F)c6ccc3[nH]6)C=C5)C=C4)cc2)cc1
REMARK SMILES IDX 17 1 16 2 15 3 14 4 12 5 13 6 11 8 9 9 8 10 5 11 6 12 88 13
REMARK SMILES IDX 7 14 87 15 3 16 4 17 2 18 1 19 10 20 18 24 19 25 20 26 21 27
REMARK SMILES IDX 22 28 23 30 24 31 25 32 86 33 26 34 85 35 27 36 28 37 29 38
REMARK SMILES IDX 79 39 30 40 84 41 78 42 80 43 31 44 83 45 77 46 76 47 32 49
REMARK SMILES IDX 64 50 44 51 63 52 45 53 48 54 62 55 81 56 46 57 47 58 61 60
REMARK SMILES IDX 82 61 49 62 33 63 34 64 42 65 35 66 41 67 43 68 40 69 36 70
REMARK SMILES IDX 37 71 38 72 39 73 65 74 66 75 74 76 67 77 73 78 75 79 72 80
REMARK SMILES IDX 68 81 69 82 70 83 71 84 50 85 51 86 59 87 52 88 58 89 60 90
REMARK SMILES IDX 57 91 53 92 54 93 55 94 56 95
REMARK H PARENT 14 7 10 21 10 22 10 23 21 29 80 48 48 59
REMARK Flexibility Score: inf
ROOT
ATOM      1  C   UNL A   1      35.637  22.843  25.512  1.00  0.00     0.002 C 
ENDROOT
BRANCH   1   2
ATOM      2  C   UNL A   1      34.558  23.335  26.477  1.00  0.00     0.021 C 
BRANCH   2   3
ATOM      3  C   UNL A   1      33.234  22.583  26.354  1.00  0.00     0.116 C 
BRANCH   3   4
ATOM      4  N   UNL A   1      32.313  23.310  25.498  1.00  0.00    -0.356 N 
ATOM      5  C   UNL A   1      32.139  23.212  24.148  1.00  0.00     0.226 C 
ATOM      6  O   UNL A   1      31.405  24.017  23.575  1.00  0.00    -0.275 OA
ATOM      7  H   UNL A   1      31.735  23.962  25.955  1.00  0.00     0.163 HD
BRANCH   5   8
ATOM      8  C   UNL A   1      32.830  22.101  23.404  1.00  0.00     0.170 C 
BRANCH   8   9
ATOM      9  C   UNL A   1      31.910  20.991  22.864  1.00  0.00     0.221 C 
BRANCH   9  10
ATOM     10  C   UNL A   1      32.427  19.673  23.437  1.00  0.00     0.010 A 
ATOM     11  C   UNL A   1      33.011  17.158  24.548  1.00  0.00     0.060 A 
ATOM     12  C   UNL A   1      33.002  18.294  25.360  1.00  0.00     0.016 A 
ATOM     13  C   UNL A   1      32.765  17.278  23.175  1.00  0.00     0.016 A 
ATOM     14  C   UNL A   1      32.721  19.542  24.807  1.00  0.00     0.011 A 
ATOM     15  C   UNL A   1      32.472  18.530  22.625  1.00  0.00     0.011 A 
BRANCH  11  16
ATOM     16  C   UNL A   1      33.220  15.846  25.195  1.00  0.00     0.337 C 
ATOM     17  O   UNL A   1      32.458  15.385  26.038  1.00  0.00    -0.246 OA
BRANCH  16  18
ATOM     18  O   UNL A   1      34.363  15.275  24.750  1.00  0.00    -0.465 OA
ATOM     19  C   UNL A   1      35.532  15.756  25.415  1.00  0.00     0.282 C 
ENDBRANCH  16  18
ENDBRANCH  11  16
ENDBRANCH   9  10
BRANCH   9  20
ATOM     20  N   UNL A   1      31.737  20.893  21.414  1.00  0.00    -0.351 N 
ATOM     21  H   UNL A   1      32.075  19.986  21.093  1.00  0.00     0.345 HD
ATOM     22  H   UNL A   1      32.268  21.635  20.959  1.00  0.00     0.345 HD
ATOM     23  H   UNL A   1      30.749  20.989  21.183  1.00  0.00     0.345 HD
ENDBRANCH   9  20
ENDBRANCH   8   9
ENDBRANCH   5   8
ENDBRANCH   3   4
ENDBRANCH   2   3
ENDBRANCH   1   2
BRANCH   1  24
ATOM     24  C   UNL A   1      35.882  21.331  25.544  1.00  0.00     0.002 C 
BRANCH  24  25
ATOM     25  C   UNL A   1      37.274  20.890  25.079  1.00  0.00     0.021 C 
BRANCH  25  26
ATOM     26  C   UNL A   1      38.433  21.645  25.723  1.00  0.00     0.116 C 
BRANCH  26  27
ATOM     27  N   UNL A   1      39.562  20.773  25.991  1.00  0.00    -0.352 N 
ATOM     28  C   UNL A   1      40.834  21.093  26.390  1.00  0.00     0.251 C 
ATOM     29  H   UNL A   1      39.390  19.812  25.867  1.00  0.00     0.163 HD
ATOM     30  O   UNL A   1      41.714  20.238  26.337  1.00  0.00    -0.269 OA
BRANCH  28  31
ATOM     31  C   UNL A   1      41.146  22.458  26.870  1.00  0.00     0.039 A 
ATOM     32  C   UNL A   1      41.158  23.506  25.947  1.00  0.00     0.014 A 
ATOM     33  C   UNL A   1      41.471  22.702  28.209  1.00  0.00     0.014 A 
ATOM     34  C   UNL A   1      41.477  24.798  26.368  1.00  0.00     0.010 A 
ATOM     35  C   UNL A   1      41.713  24.004  28.643  1.00  0.00     0.010 A 
ATOM     36  C   UNL A   1      41.745  25.062  27.722  1.00  0.00    -0.014 A 
BRANCH  36  37
ATOM     37  C   UNL A   1      42.116  26.430  28.167  1.00  0.00     0.031 A 
ATOM     38  C   UNL A   1      43.548  26.890  28.076  1.00  0.00     0.074 A 
ATOM     39  C   UNL A   1      41.170  27.250  28.664  1.00  0.00     0.049 A 
ATOM     40  N   UNL A   1      44.071  28.043  28.407  1.00  0.00    -0.248 NA
ATOM     41  C   UNL A   1      44.525  25.911  27.574  1.00  0.00     0.031 C 
ATOM     42  C   UNL A   1      39.759  26.901  28.844  1.00  0.00     0.029 A 
ATOM     43  N   UNL A   1      41.247  28.548  29.103  1.00  0.00    -0.354 N 
ATOM     44  C   UNL A   1      45.436  27.925  28.163  1.00  0.00     0.074 A 
ATOM     45  C   UNL A   1      45.666  26.564  27.727  1.00  0.00     0.031 C 
ATOM     46  C   UNL A   1      39.099  27.968  29.321  1.00  0.00     0.029 A 
ATOM     47  C   UNL A   1      40.042  29.065  29.515  1.00  0.00     0.049 A 
ATOM     48  H   UNL A   1      42.088  29.060  29.122  1.00  0.00     0.167 HD
ATOM     49  C   UNL A   1      46.404  28.870  28.263  1.00  0.00     0.034 A 
ATOM     50  C   UNL A   1      39.731  30.287  29.990  1.00  0.00     0.034 A 
ATOM     51  C   UNL A   1      46.154  30.227  28.689  1.00  0.00     0.049 A 
ATOM     52  C   UNL A   1      40.822  31.324  30.089  1.00  0.00     0.074 A 
ATOM     53  C   UNL A   1      47.047  31.281  28.790  1.00  0.00     0.029 A 
ATOM     54  N   UNL A   1      44.917  30.719  29.089  1.00  0.00    -0.354 N 
ATOM     55  N   UNL A   1      42.099  31.213  29.801  1.00  0.00    -0.248 NA
ATOM     56  C   UNL A   1      40.421  32.657  30.553  1.00  0.00     0.031 C 
ATOM     57  C   UNL A   1      46.365  32.387  29.309  1.00  0.00     0.029 A 
ATOM     58  C   UNL A   1      45.029  32.052  29.459  1.00  0.00     0.049 A 
ATOM     59  H   UNL A   1      44.083  30.198  29.108  1.00  0.00     0.167 HD
ATOM     60  C   UNL A   1      42.646  32.475  30.020  1.00  0.00     0.074 A 
ATOM     61  C   UNL A   1      41.555  33.331  30.438  1.00  0.00     0.031 C 
ATOM     62  C   UNL A   1      43.933  32.891  29.887  1.00  0.00     0.034 A 
BRANCH  49  63
ATOM     63  C   UNL A   1      47.819  28.454  27.928  1.00  0.00     0.023 A 
ATOM     64  C   UNL A   1      48.300  28.470  26.605  1.00  0.00     0.031 A 
ATOM     65  C   UNL A   1      48.688  27.998  28.934  1.00  0.00     0.131 A 
ATOM     66  C   UNL A   1      49.576  27.960  26.316  1.00  0.00     0.055 A 
ATOM     67  C   UNL A   1      49.988  27.575  28.651  1.00  0.00     0.041 A 
ATOM     68  F   UNL A   1      48.282  27.938  30.213  1.00  0.00    -0.206 F 
ATOM     69  C   UNL A   1      50.433  27.537  27.333  1.00  0.00     0.022 A 
BRANCH  66  70
ATOM     70  S   UNL A   1      50.034  27.710  24.578  1.00  0.00     0.124 S 
ATOM     71  O   UNL A   1      50.625  26.374  24.619  1.00  0.00    -0.237 OA
ATOM     72  O   UNL A   1      48.751  27.821  23.894  1.00  0.00    -0.237 OA
ATOM     73  O   UNL A   1      50.979  28.793  24.313  1.00  0.00    -0.744 OA
ENDBRANCH  66  70
ENDBRANCH  49  63
BRANCH  50  74
ATOM     74  C   UNL A   1      38.333  30.609  30.397  1.00  0.00     0.023 A 
ATOM     75  C   UNL A   1      37.418  31.152  29.482  1.00  0.00     0.031 A 
ATOM     76  C   UNL A   1      37.905  30.421  31.724  1.00  0.00     0.131 A 
ATOM     77  C   UNL A   1      36.139  31.539  29.914  1.00  0.00     0.055 A 
ATOM     78  C   UNL A   1      36.614  30.757  32.137  1.00  0.00     0.041 A 
ATOM     79  F   UNL A   1      38.737  29.898  32.637  1.00  0.00    -0.206 F 
ATOM     80  C   UNL A   1      35.727  31.333  31.233  1.00  0.00     0.022 A 
BRANCH  77  81
ATOM     81  S   UNL A   1      35.050  32.400  28.746  1.00  0.00     0.124 S 
ATOM     82  O   UNL A   1      34.067  32.998  29.642  1.00  0.00    -0.237 OA
ATOM     83  O   UNL A   1      35.974  33.324  28.097  1.00  0.00    -0.237 OA
ATOM     84  O   UNL A   1      34.547  31.323  27.894  1.00  0.00    -0.744 OA
ENDBRANCH  77  81
ENDBRANCH  50  74
BRANCH  62  85
ATOM     85  C   UNL A   1      44.208  34.351  30.158  1.00  0.00     0.023 A 
ATOM     86  C   UNL A   1      43.924  35.347  29.206  1.00  0.00     0.031 A 
ATOM     87  C   UNL A   1      44.806  34.747  31.367  1.00  0.00     0.131 A 
ATOM     88  C   UNL A   1      44.314  36.674  29.444  1.00  0.00     0.055 A 
ATOM     89  C   UNL A   1      45.124  36.080  31.630  1.00  0.00     0.041 A 
ATOM     90  F   UNL A   1      45.101  33.841  32.314  1.00  0.00    -0.206 F 
ATOM     91  C   UNL A   1      44.896  37.050  30.658  1.00  0.00     0.022 A 
BRANCH  88  92
ATOM     92  S   UNL A   1      44.173  37.875  28.092  1.00  0.00     0.124 S 
ATOM     93  O   UNL A   1      43.742  37.034  26.982  1.00  0.00    -0.237 OA
ATOM     94  O   UNL A   1      43.178  38.809  28.609  1.00  0.00    -0.237 OA
ATOM     95  O   UNL A   1      45.526  38.415  27.972  1.00  0.00    -0.744 OA
ENDBRANCH  88  92
ENDBRANCH  62  85
ENDBRANCH  36  37
ENDBRANCH  28  31
ENDBRANCH  26  27
ENDBRANCH  25  26
ENDBRANCH  24  25
ENDBRANCH   1  24
TORSDOF 21
ENDMDL
MODEL 3
REMARK VINA RESULT:     -10.1      2.112      2.524
REMARK SMILES COC(=O)c1ccc([C@H]([NH3+])CC(=O)NCCCCCCNC(=O)c2ccc(-c3c4nc(c(-c5cc(S(=O)(=O)[O-])ccc5F)c5ccc([nH]5)c(-c5cc(S(=O)(=O)[O-])ccc5F)c5nc(c(-c6cc(S(=O)(=O)[O-])ccc6F)c6ccc3[nH]6)C=C5)C=C4)cc2)cc1
REMARK SMILES IDX 17 1 16 2 15 3 14 4 12 5 13 6 11 8 9 9 8 10 5 11 6 12 88 13
REMARK SMILES IDX 7 14 87 15 3 16 4 17 2 18 1 19 10 20 18 24 19 25 20 26 21 27
REMARK SMILES IDX 22 28 23 30 24 31 25 32 86 33 26 34 85 35 27 36 28 37 29 38
REMARK SMILES IDX 79 39 30 40 84 41 78 42 80 43 31 44 83 45 77 46 76 47 32 49
REMARK SMILES IDX 64 50 44 51 63 52 45 53 48 54 62 55 81 56 46 57 47 58 61 60
REMARK SMILES IDX 82 61 49 62 33 63 34 64 42 65 35 66 41 67 43 68 40 69 36 70
REMARK SMILES IDX 37 71 38 72 39 73 65 74 66 75 74 76 67 77 73 78 75 79 72 80
REMARK SMILES IDX 68 81 69 82 70 83 71 84 50 85 51 86 59 87 52 88 58 89 60 90
REMARK SMILES IDX 57 91 53 92 54 93 55 94 56 95
REMARK H PARENT 14 7 10 21 10 22 10 23 21 29 80 48 48 59
REMARK Flexibility Score: inf
ROOT
ATOM      1  C   UNL A   1      34.858  23.828  23.575  1.00  0.00     0.002 C 
ENDROOT
BRANCH   1   2
ATOM      2  C   UNL A   1      34.660  24.715  24.805  1.00  0.00     0.021 C 
BRANCH   2   3
ATOM      3  C   UNL A   1      33.938  26.028  24.505  1.00  0.00     0.116 C 
BRANCH   3   4
ATOM      4  N   UNL A   1      33.625  26.730  25.738  1.00  0.00    -0.356 N 
ATOM      5  C   UNL A   1      32.404  26.998  26.285  1.00  0.00     0.226 C 
ATOM      6  O   UNL A   1      32.333  27.734  27.268  1.00  0.00    -0.275 OA
ATOM      7  H   UNL A   1      34.401  27.056  26.249  1.00  0.00     0.163 HD
BRANCH   5   8
ATOM      8  C   UNL A   1      31.181  26.360  25.681  1.00  0.00     0.170 C 
BRANCH   8   9
ATOM      9  C   UNL A   1      30.632  25.134  26.434  1.00  0.00     0.221 C 
BRANCH   9  10
ATOM     10  C   UNL A   1      31.281  23.904  25.805  1.00  0.00     0.010 A 
ATOM     11  C   UNL A   1      32.146  21.462  24.714  1.00  0.00     0.060 A 
ATOM     12  C   UNL A   1      32.415  21.762  26.050  1.00  0.00     0.016 A 
ATOM     13  C   UNL A   1      31.478  22.392  23.909  1.00  0.00     0.016 A 
ATOM     14  C   UNL A   1      31.994  22.977  26.589  1.00  0.00     0.011 A 
ATOM     15  C   UNL A   1      31.047  23.605  24.454  1.00  0.00     0.011 A 
BRANCH  11  16
ATOM     16  C   UNL A   1      32.528  20.124  24.215  1.00  0.00     0.337 C 
ATOM     17  O   UNL A   1      32.171  19.687  23.126  1.00  0.00    -0.246 OA
BRANCH  16  18
ATOM     18  O   UNL A   1      33.276  19.471  25.134  1.00  0.00    -0.465 OA
ATOM     19  C   UNL A   1      32.821  18.143  25.395  1.00  0.00     0.282 C 
ENDBRANCH  16  18
ENDBRANCH  11  16
ENDBRANCH   9  10
BRANCH   9  20
ATOM     20  N   UNL A   1      29.179  24.973  26.507  1.00  0.00    -0.351 N 
ATOM     21  H   UNL A   1      28.919  24.065  26.124  1.00  0.00     0.345 HD
ATOM     22  H   UNL A   1      28.729  25.711  25.968  1.00  0.00     0.345 HD
ATOM     23  H   UNL A   1      28.880  25.030  27.480  1.00  0.00     0.345 HD
ENDBRANCH   9  20
ENDBRANCH   8   9
ENDBRANCH   5   8
ENDBRANCH   3   4
ENDBRANCH   2   3
ENDBRANCH   1   2
BRANCH   1  24
ATOM     24  C   UNL A   1      35.417  22.434  23.876  1.00  0.00     0.002 C 
BRANCH  24  25
ATOM     25  C   UNL A   1      36.113  22.293  25.233  1.00  0.00     0.021 C 
BRANCH  25  26
ATOM     26  C   UNL A   1      37.544  22.823  25.276  1.00  0.00     0.116 C 
BRANCH  26  27
ATOM     27  N   UNL A   1      38.464  21.847  25.830  1.00  0.00    -0.352 N 
ATOM     28  C   UNL A   1      39.643  22.044  26.502  1.00  0.00     0.251 C 
ATOM     29  H   UNL A   1      38.205  20.906  25.703  1.00  0.00     0.163 HD
ATOM     30  O   UNL A   1      40.397  21.092  26.685  1.00  0.00    -0.269 OA
BRANCH  28  31
ATOM     31  C   UNL A   1      40.007  23.392  26.992  1.00  0.00     0.039 A 
ATOM     32  C   UNL A   1      39.638  24.503  26.231  1.00  0.00     0.014 A 
ATOM     33  C   UNL A   1      40.748  23.563  28.167  1.00  0.00     0.014 A 
ATOM     34  C   UNL A   1      39.994  25.785  26.657  1.00  0.00     0.010 A 
ATOM     35  C   UNL A   1      41.036  24.846  28.630  1.00  0.00     0.010 A 
ATOM     36  C   UNL A   1      40.685  25.969  27.866  1.00  0.00    -0.014 A 
BRANCH  36  37
ATOM     37  C   UNL A   1      41.093  27.329  28.304  1.00  0.00     0.031 A 
ATOM     38  C   UNL A   1      42.544  27.733  28.253  1.00  0.00     0.074 A 
ATOM     39  C   UNL A   1      40.164  28.191  28.760  1.00  0.00     0.049 A 
ATOM     40  N   UNL A   1      43.099  28.871  28.585  1.00  0.00    -0.248 NA
ATOM     41  C   UNL A   1      43.498  26.712  27.796  1.00  0.00     0.031 C 
ATOM     42  C   UNL A   1      38.735  27.897  28.898  1.00  0.00     0.029 A 
ATOM     43  N   UNL A   1      40.276  29.491  29.183  1.00  0.00    -0.354 N 
ATOM     44  C   UNL A   1      44.466  28.699  28.387  1.00  0.00     0.074 A 
ATOM     45  C   UNL A   1      44.658  27.324  27.977  1.00  0.00     0.031 C 
ATOM     46  C   UNL A   1      38.102  28.995  29.340  1.00  0.00     0.029 A 
ATOM     47  C   UNL A   1      39.078  30.059  29.549  1.00  0.00     0.049 A 
ATOM     48  H   UNL A   1      41.135  29.972  29.222  1.00  0.00     0.167 HD
ATOM     49  C   UNL A   1      45.465  29.609  28.506  1.00  0.00     0.034 A 
ATOM     50  C   UNL A   1      38.799  31.299  29.997  1.00  0.00     0.034 A 
ATOM     51  C   UNL A   1      45.253  30.980  28.904  1.00  0.00     0.049 A 
ATOM     52  C   UNL A   1      39.924  32.295  30.117  1.00  0.00     0.074 A 
ATOM     53  C   UNL A   1      46.181  32.001  29.020  1.00  0.00     0.029 A 
ATOM     54  N   UNL A   1      44.024  31.524  29.258  1.00  0.00    -0.354 N 
ATOM     55  N   UNL A   1      41.204  32.133  29.872  1.00  0.00    -0.248 NA
ATOM     56  C   UNL A   1      39.560  33.649  30.550  1.00  0.00     0.031 C 
ATOM     57  C   UNL A   1      45.526  33.140  29.502  1.00  0.00     0.029 A 
ATOM     58  C   UNL A   1      44.174  32.856  29.613  1.00  0.00     0.049 A 
ATOM     59  H   UNL A   1      43.170  31.034  29.257  1.00  0.00     0.167 HD
ATOM     60  C   UNL A   1      41.792  33.377  30.092  1.00  0.00     0.074 A 
ATOM     61  C   UNL A   1      40.722  34.279  30.463  1.00  0.00     0.031 C 
ATOM     62  C   UNL A   1      43.097  33.742  29.994  1.00  0.00     0.034 A 
BRANCH  49  63
ATOM     63  C   UNL A   1      46.873  29.135  28.222  1.00  0.00     0.023 A 
ATOM     64  C   UNL A   1      47.329  28.920  26.908  1.00  0.00     0.031 A 
ATOM     65  C   UNL A   1      47.760  28.857  29.276  1.00  0.00     0.131 A 
ATOM     66  C   UNL A   1      48.599  28.362  26.687  1.00  0.00     0.055 A 
ATOM     67  C   UNL A   1      49.055  28.386  29.046  1.00  0.00     0.041 A 
ATOM     68  F   UNL A   1      47.378  29.021  30.552  1.00  0.00    -0.206 F 
ATOM     69  C   UNL A   1      49.475  28.119  27.747  1.00  0.00     0.022 A 
BRANCH  66  70
ATOM     70  S   UNL A   1      49.025  27.813  25.011  1.00  0.00     0.124 S 
ATOM     71  O   UNL A   1      49.235  26.382  25.215  1.00  0.00    -0.237 OA
ATOM     72  O   UNL A   1      47.839  28.183  24.247  1.00  0.00    -0.237 OA
ATOM     73  O   UNL A   1      50.232  28.574  24.698  1.00  0.00    -0.744 OA
ENDBRANCH  66  70
ENDBRANCH  49  63
BRANCH  50  74
ATOM     74  C   UNL A   1      37.402  31.679  30.354  1.00  0.00     0.023 A 
ATOM     75  C   UNL A   1      36.503  32.139  29.379  1.00  0.00     0.031 A 
ATOM     76  C   UNL A   1      36.958  31.631  31.688  1.00  0.00     0.131 A 
ATOM     77  C   UNL A   1      35.226  32.584  29.756  1.00  0.00     0.055 A 
ATOM     78  C   UNL A   1      35.669  32.023  32.052  1.00  0.00     0.041 A 
ATOM     79  F   UNL A   1      37.774  31.191  32.659  1.00  0.00    -0.206 F 
ATOM     80  C   UNL A   1      34.799  32.517  31.085  1.00  0.00     0.022 A 
BRANCH  77  81
ATOM     81  S   UNL A   1      34.161  33.337  28.496  1.00  0.00     0.124 S 
ATOM     82  O   UNL A   1      33.526  32.164  27.905  1.00  0.00    -0.237 OA
ATOM     83  O   UNL A   1      33.300  34.196  29.302  1.00  0.00    -0.237 OA
ATOM     84  O   UNL A   1      35.104  34.040  27.630  1.00  0.00    -0.744 OA
ENDBRANCH  77  81
ENDBRANCH  50  74
BRANCH  62  85
ATOM     85  C   UNL A   1      43.418  35.195  30.254  1.00  0.00     0.023 A 
ATOM     86  C   UNL A   1      43.399  36.153  29.225  1.00  0.00     0.031 A 
ATOM     87  C   UNL A   1      43.795  35.618  31.541  1.00  0.00     0.131 A 
ATOM     88  C   UNL A   1      43.829  37.464  29.481  1.00  0.00     0.055 A 
ATOM     89  C   UNL A   1      44.150  36.941  31.807  1.00  0.00     0.041 A 
ATOM     90  F   UNL A   1      43.832  34.748  32.564  1.00  0.00    -0.206 F 
ATOM     91  C   UNL A   1      44.188  37.868  30.770  1.00  0.00     0.022 A 
BRANCH  88  92
ATOM     92  S   UNL A   1      44.043  38.596  28.080  1.00  0.00     0.124 S 
ATOM     93  O   UNL A   1      43.284  39.763  28.514  1.00  0.00    -0.237 OA
ATOM     94  O   UNL A   1      45.492  38.760  28.032  1.00  0.00    -0.237 OA
ATOM     95  O   UNL A   1      43.465  37.863  26.955  1.00  0.00    -0.744 OA
ENDBRANCH  88  92
ENDBRANCH  62  85
ENDBRANCH  36  37
ENDBRANCH  28  31
ENDBRANCH  26  27
ENDBRANCH  25  26
ENDBRANCH  24  25
ENDBRANCH   1  24
TORSDOF 21
ENDMDL
