MODEL 1
REMARK VINA RESULT:     -12.4      0.000      0.000
REMARK SMILES O=C(NCCCCCCNC(=O)c1cc(F)ccc1N1CCCc2ccccc21)c1ccc(-c2c3nc(c(-c4cc(S(=O)(=O)[O-])ccc4F)c4ccc([nH]4)c(-c4cc(S(=O)(=O)[O-])ccc4F)c4nc(c(-c5cc(S(=O)(=O)[O-])ccc5F)c5ccc2[nH]5)C=C4)C=C3)cc1
REMARK SMILES IDX 5 1 4 2 3 3 1 4 2 5 30 7 31 8 92 9 32 10 91 11 33 12 34 13
REMARK SMILES IDX 35 14 85 15 36 16 90 17 84 18 86 19 37 20 89 21 83 22 82 23
REMARK SMILES IDX 38 25 70 26 50 27 69 28 51 29 54 30 68 31 87 32 52 33 53 34
REMARK SMILES IDX 67 36 88 37 55 38 39 39 40 40 48 41 41 42 47 43 49 44 46 45
REMARK SMILES IDX 42 46 43 47 44 48 45 49 71 50 72 51 80 52 73 53 79 54 81 55
REMARK SMILES IDX 78 56 74 57 75 58 76 59 77 60 56 61 57 62 65 63 58 64 64 65
REMARK SMILES IDX 66 66 63 67 59 68 60 69 61 70 62 71 6 72 7 73 8 74 9 75
REMARK SMILES IDX 10 76 11 77 12 79 13 80 14 81 19 82 15 83 18 84 16 85 17 86
REMARK SMILES IDX 20 87 21 88 29 89 22 90 24 91 28 92 23 93 25 94 27 95 26 96
REMARK H PARENT 3 6 86 24 54 35 10 78
REMARK Flexibility Score: inf
ROOT
ATOM      1  C   UNL A   1      31.438  32.024  26.481  1.00  0.00     0.021 C 
ENDROOT
BRANCH   1   2
ATOM      2  C   UNL A   1      32.656  32.572  27.215  1.00  0.00     0.116 C 
BRANCH   2   3
ATOM      3  N   UNL A   1      32.491  33.964  27.597  1.00  0.00    -0.352 N 
ATOM      4  O   UNL A   1      32.753  35.807  28.865  1.00  0.00    -0.269 OA
ATOM      5  C   UNL A   1      33.152  34.683  28.561  1.00  0.00     0.251 C 
ATOM      6  H   UNL A   1      31.807  34.462  27.093  1.00  0.00     0.163 HD
BRANCH   5   7
ATOM      7  C   UNL A   1      34.331  34.106  29.242  1.00  0.00     0.039 A 
ATOM      8  C   UNL A   1      34.182  33.270  30.352  1.00  0.00     0.014 A 
ATOM      9  C   UNL A   1      35.606  34.378  28.736  1.00  0.00     0.014 A 
ATOM     10  C   UNL A   1      35.309  32.785  31.013  1.00  0.00     0.010 A 
ATOM     11  C   UNL A   1      36.734  33.840  29.364  1.00  0.00     0.010 A 
ATOM     12  C   UNL A   1      36.594  33.048  30.515  1.00  0.00    -0.014 A 
BRANCH  12  13
ATOM     13  C   UNL A   1      37.784  32.432  31.155  1.00  0.00     0.031 A 
ATOM     14  C   UNL A   1      38.471  31.250  30.531  1.00  0.00     0.074 A 
ATOM     15  C   UNL A   1      38.249  32.956  32.308  1.00  0.00     0.049 A 
ATOM     16  N   UNL A   1      39.457  30.529  31.002  1.00  0.00    -0.248 NA
ATOM     17  C   UNL A   1      37.995  30.822  29.205  1.00  0.00     0.031 C 
ATOM     18  C   UNL A   1      37.687  34.126  32.988  1.00  0.00     0.029 A 
ATOM     19  N   UNL A   1      39.300  32.584  33.105  1.00  0.00    -0.354 N 
ATOM     20  C   UNL A   1      39.720  29.563  30.038  1.00  0.00     0.074 A 
ATOM     21  C   UNL A   1      38.773  29.775  28.962  1.00  0.00     0.031 C 
ATOM     22  C   UNL A   1      38.420  34.395  34.079  1.00  0.00     0.029 A 
ATOM     23  C   UNL A   1      39.455  33.378  34.217  1.00  0.00     0.049 A 
ATOM     24  H   UNL A   1      39.888  31.821  32.901  1.00  0.00     0.167 HD
ATOM     25  C   UNL A   1      40.669  28.595  30.049  1.00  0.00     0.034 A 
ATOM     26  C   UNL A   1      40.314  33.281  35.251  1.00  0.00     0.034 A 
ATOM     27  C   UNL A   1      41.605  28.391  31.127  1.00  0.00     0.049 A 
ATOM     28  C   UNL A   1      41.294  32.141  35.277  1.00  0.00     0.074 A 
ATOM     29  C   UNL A   1      42.584  27.419  31.244  1.00  0.00     0.029 A 
ATOM     30  N   UNL A   1      41.687  29.175  32.270  1.00  0.00    -0.354 N 
ATOM     31  N   UNL A   1      41.480  31.194  34.389  1.00  0.00    -0.248 NA
ATOM     32  C   UNL A   1      42.172  32.052  36.451  1.00  0.00     0.031 C 
ATOM     33  C   UNL A   1      43.226  27.585  32.476  1.00  0.00     0.029 A 
ATOM     34  C   UNL A   1      42.690  28.700  33.100  1.00  0.00     0.049 A 
ATOM     35  H   UNL A   1      41.117  29.953  32.462  1.00  0.00     0.167 HD
ATOM     36  C   UNL A   1      42.512  30.406  34.889  1.00  0.00     0.074 A 
ATOM     37  C   UNL A   1      42.917  30.999  36.147  1.00  0.00     0.031 C 
ATOM     38  C   UNL A   1      43.074  29.292  34.358  1.00  0.00     0.034 A 
BRANCH  25  39
ATOM     39  C   UNL A   1      40.735  27.658  28.873  1.00  0.00     0.023 A 
ATOM     40  C   UNL A   1      41.657  27.855  27.833  1.00  0.00     0.031 A 
ATOM     41  C   UNL A   1      39.913  26.518  28.828  1.00  0.00     0.131 A 
ATOM     42  C   UNL A   1      41.722  26.933  26.776  1.00  0.00     0.055 A 
ATOM     43  C   UNL A   1      40.017  25.578  27.801  1.00  0.00     0.041 A 
ATOM     44  F   UNL A   1      39.007  26.292  29.792  1.00  0.00    -0.206 F 
ATOM     45  C   UNL A   1      40.926  25.784  26.767  1.00  0.00     0.022 A 
BRANCH  42  46
ATOM     46  S   UNL A   1      42.840  27.271  25.389  1.00  0.00     0.124 S 
ATOM     47  O   UNL A   1      42.801  26.003  24.666  1.00  0.00    -0.237 OA
ATOM     48  O   UNL A   1      42.200  28.402  24.729  1.00  0.00    -0.237 OA
ATOM     49  O   UNL A   1      44.113  27.572  26.043  1.00  0.00    -0.744 OA
ENDBRANCH  42  46
ENDBRANCH  25  39
BRANCH  26  50
ATOM     50  C   UNL A   1      40.261  34.261  36.370  1.00  0.00     0.023 A 
ATOM     51  C   UNL A   1      39.707  33.907  37.609  1.00  0.00     0.031 A 
ATOM     52  C   UNL A   1      40.728  35.578  36.206  1.00  0.00     0.131 A 
ATOM     53  C   UNL A   1      39.594  34.868  38.624  1.00  0.00     0.055 A 
ATOM     54  C   UNL A   1      40.660  36.517  37.235  1.00  0.00     0.041 A 
ATOM     55  F   UNL A   1      41.270  35.966  35.040  1.00  0.00    -0.206 F 
ATOM     56  C   UNL A   1      40.079  36.167  38.450  1.00  0.00     0.022 A 
BRANCH  53  57
ATOM     57  S   UNL A   1      38.742  34.413  40.158  1.00  0.00     0.124 S 
ATOM     58  O   UNL A   1      39.763  33.627  40.842  1.00  0.00    -0.237 OA
ATOM     59  O   UNL A   1      38.440  35.718  40.738  1.00  0.00    -0.237 OA
ATOM     60  O   UNL A   1      37.581  33.659  39.690  1.00  0.00    -0.744 OA
ENDBRANCH  53  57
ENDBRANCH  26  50
BRANCH  38  61
ATOM     61  C   UNL A   1      44.211  28.671  35.124  1.00  0.00     0.023 A 
ATOM     62  C   UNL A   1      43.992  27.640  36.053  1.00  0.00     0.031 A 
ATOM     63  C   UNL A   1      45.526  29.124  34.927  1.00  0.00     0.131 A 
ATOM     64  C   UNL A   1      45.069  27.130  36.791  1.00  0.00     0.055 A 
ATOM     65  C   UNL A   1      46.602  28.575  35.627  1.00  0.00     0.041 A 
ATOM     66  F   UNL A   1      45.787  30.107  34.051  1.00  0.00    -0.206 F 
ATOM     67  C   UNL A   1      46.374  27.580  36.574  1.00  0.00     0.022 A 
BRANCH  64  68
ATOM     68  S   UNL A   1      44.730  25.916  38.095  1.00  0.00     0.124 S 
ATOM     69  O   UNL A   1      46.076  25.546  38.521  1.00  0.00    -0.237 OA
ATOM     70  O   UNL A   1      43.950  26.693  39.052  1.00  0.00    -0.237 OA
ATOM     71  O   UNL A   1      43.987  24.865  37.401  1.00  0.00    -0.744 OA
ENDBRANCH  64  68
ENDBRANCH  38  61
ENDBRANCH  12  13
ENDBRANCH   5   7
ENDBRANCH   2   3
ENDBRANCH   1   2
BRANCH   1  72
ATOM     72  C   UNL A   1      31.485  30.528  26.163  1.00  0.00     0.002 C 
BRANCH  72  73
ATOM     73  C   UNL A   1      32.315  29.671  27.122  1.00  0.00     0.002 C 
BRANCH  73  74
ATOM     74  C   UNL A   1      31.748  28.283  27.438  1.00  0.00     0.021 C 
BRANCH  74  75
ATOM     75  C   UNL A   1      32.442  27.118  26.738  1.00  0.00     0.116 C 
BRANCH  75  76
ATOM     76  N   UNL A   1      31.647  25.900  26.776  1.00  0.00    -0.352 N 
ATOM     77  C   UNL A   1      31.108  25.185  25.738  1.00  0.00     0.253 C 
ATOM     78  H   UNL A   1      31.472  25.539  27.675  1.00  0.00     0.163 HD
ATOM     79  O   UNL A   1      30.424  24.186  25.975  1.00  0.00    -0.269 OA
BRANCH  77  80
ATOM     80  C   UNL A   1      31.381  25.603  24.349  1.00  0.00     0.066 A 
ATOM     81  C   UNL A   1      30.587  26.635  23.822  1.00  0.00     0.055 A 
ATOM     82  C   UNL A   1      32.440  25.056  23.597  1.00  0.00     0.054 A 
ATOM     83  C   UNL A   1      30.797  27.070  22.522  1.00  0.00     0.124 A 
ATOM     84  C   UNL A   1      32.621  25.529  22.280  1.00  0.00     0.030 A 
ATOM     85  F   UNL A   1      30.022  28.037  22.017  1.00  0.00    -0.207 F 
ATOM     86  C   UNL A   1      31.798  26.518  21.739  1.00  0.00     0.041 A 
BRANCH  82  87
ATOM     87  N   UNL A   1      33.344  24.088  24.075  1.00  0.00    -0.341 N 
ATOM     88  C   UNL A   1      34.586  24.563  24.691  1.00  0.00     0.123 C 
ATOM     89  C   UNL A   1      33.174  22.686  24.007  1.00  0.00     0.044 A 
ATOM     90  C   UNL A   1      34.779  23.869  26.035  1.00  0.00     0.027 C 
ATOM     91  C   UNL A   1      33.893  21.823  24.857  1.00  0.00    -0.024 A 
ATOM     92  C   UNL A   1      32.279  22.113  23.087  1.00  0.00     0.026 A 
ATOM     93  C   UNL A   1      34.906  22.364  25.835  1.00  0.00     0.039 C 
ATOM     94  C   UNL A   1      33.705  20.432  24.774  1.00  0.00     0.006 A 
ATOM     95  C   UNL A   1      32.097  20.731  23.008  1.00  0.00     0.002 A 
ATOM     96  C   UNL A   1      32.808  19.891  23.856  1.00  0.00     0.000 A 
ENDBRANCH  82  87
ENDBRANCH  77  80
ENDBRANCH  75  76
ENDBRANCH  74  75
ENDBRANCH  73  74
ENDBRANCH  72  73
ENDBRANCH   1  72
TORSDOF 17
ENDMDL
MODEL 2
REMARK VINA RESULT:     -12.3      2.389      3.514
REMARK SMILES O=C(NCCCCCCNC(=O)c1cc(F)ccc1N1CCCc2ccccc21)c1ccc(-c2c3nc(c(-c4cc(S(=O)(=O)[O-])ccc4F)c4ccc([nH]4)c(-c4cc(S(=O)(=O)[O-])ccc4F)c4nc(c(-c5cc(S(=O)(=O)[O-])ccc5F)c5ccc2[nH]5)C=C4)C=C3)cc1
REMARK SMILES IDX 5 1 4 2 3 3 1 4 2 5 30 7 31 8 92 9 32 10 91 11 33 12 34 13
REMARK SMILES IDX 35 14 85 15 36 16 90 17 84 18 86 19 37 20 89 21 83 22 82 23
REMARK SMILES IDX 38 25 70 26 50 27 69 28 51 29 54 30 68 31 87 32 52 33 53 34
REMARK SMILES IDX 67 36 88 37 55 38 39 39 40 40 48 41 41 42 47 43 49 44 46 45
REMARK SMILES IDX 42 46 43 47 44 48 45 49 71 50 72 51 80 52 73 53 79 54 81 55
REMARK SMILES IDX 78 56 74 57 75 58 76 59 77 60 56 61 57 62 65 63 58 64 64 65
REMARK SMILES IDX 66 66 63 67 59 68 60 69 61 70 62 71 6 72 7 73 8 74 9 75
REMARK SMILES IDX 10 76 11 77 12 79 13 80 14 81 19 82 15 83 18 84 16 85 17 86
REMARK SMILES IDX 20 87 21 88 29 89 22 90 24 91 28 92 23 93 25 94 27 95 26 96
REMARK H PARENT 3 6 86 24 54 35 10 78
REMARK Flexibility Score: inf
ROOT
ATOM      1  C   UNL A   1      33.248  27.675  25.683  1.00  0.00     0.021 C 
ENDROOT
BRANCH   1   2
ATOM      2  C   UNL A   1      33.777  29.002  25.148  1.00  0.00     0.116 C 
BRANCH   2   3
ATOM      3  N   UNL A   1      33.060  30.142  25.695  1.00  0.00    -0.352 N 
ATOM      4  O   UNL A   1      32.483  31.675  27.239  1.00  0.00    -0.269 OA
ATOM      5  C   UNL A   1      33.305  30.849  26.845  1.00  0.00     0.251 C 
ATOM      6  H   UNL A   1      32.290  30.450  25.164  1.00  0.00     0.163 HD
BRANCH   5   7
ATOM      7  C   UNL A   1      34.545  30.610  27.615  1.00  0.00     0.039 A 
ATOM      8  C   UNL A   1      34.747  29.406  28.295  1.00  0.00     0.014 A 
ATOM      9  C   UNL A   1      35.536  31.596  27.626  1.00  0.00     0.014 A 
ATOM     10  C   UNL A   1      35.896  29.226  29.064  1.00  0.00     0.010 A 
ATOM     11  C   UNL A   1      36.716  31.389  28.347  1.00  0.00     0.010 A 
ATOM     12  C   UNL A   1      36.900  30.206  29.081  1.00  0.00    -0.014 A 
BRANCH  12  13
ATOM     13  C   UNL A   1      38.173  29.958  29.805  1.00  0.00     0.031 A 
ATOM     14  C   UNL A   1      39.239  29.079  29.214  1.00  0.00     0.074 A 
ATOM     15  C   UNL A   1      38.365  30.545  31.004  1.00  0.00     0.049 A 
ATOM     16  N   UNL A   1      40.364  28.677  29.751  1.00  0.00    -0.248 NA
ATOM     17  C   UNL A   1      39.020  28.589  27.844  1.00  0.00     0.031 C 
ATOM     18  C   UNL A   1      37.417  31.449  31.662  1.00  0.00     0.029 A 
ATOM     19  N   UNL A   1      39.418  30.479  31.879  1.00  0.00    -0.354 N 
ATOM     20  C   UNL A   1      40.985  27.888  28.790  1.00  0.00     0.074 A 
ATOM     21  C   UNL A   1      40.101  27.848  27.643  1.00  0.00     0.031 C 
ATOM     22  C   UNL A   1      37.948  31.879  32.816  1.00  0.00     0.029 A 
ATOM     23  C   UNL A   1      39.235  31.227  33.019  1.00  0.00     0.049 A 
ATOM     24  H   UNL A   1      40.229  29.947  31.708  1.00  0.00     0.167 HD
ATOM     25  C   UNL A   1      42.185  27.262  28.860  1.00  0.00     0.034 A 
ATOM     26  C   UNL A   1      40.003  31.352  34.118  1.00  0.00     0.034 A 
ATOM     27  C   UNL A   1      43.057  27.306  30.009  1.00  0.00     0.049 A 
ATOM     28  C   UNL A   1      41.286  30.571  34.202  1.00  0.00     0.074 A 
ATOM     29  C   UNL A   1      44.280  26.680  30.186  1.00  0.00     0.029 A 
ATOM     30  N   UNL A   1      42.806  28.021  31.172  1.00  0.00    -0.354 N 
ATOM     31  N   UNL A   1      41.823  29.772  33.311  1.00  0.00    -0.248 NA
ATOM     32  C   UNL A   1      42.060  30.702  35.444  1.00  0.00     0.031 C 
ATOM     33  C   UNL A   1      44.745  26.978  31.471  1.00  0.00     0.029 A 
ATOM     34  C   UNL A   1      43.844  27.841  32.073  1.00  0.00     0.049 A 
ATOM     35  H   UNL A   1      42.009  28.574  31.333  1.00  0.00     0.167 HD
ATOM     36  C   UNL A   1      43.010  29.320  33.879  1.00  0.00     0.074 A 
ATOM     37  C   UNL A   1      43.117  29.948  35.180  1.00  0.00     0.031 C 
ATOM     38  C   UNL A   1      43.929  28.461  33.371  1.00  0.00     0.034 A 
BRANCH  25  39
ATOM     39  C   UNL A   1      42.628  26.449  27.673  1.00  0.00     0.023 A 
ATOM     40  C   UNL A   1      42.262  25.101  27.534  1.00  0.00     0.031 A 
ATOM     41  C   UNL A   1      43.367  27.049  26.638  1.00  0.00     0.131 A 
ATOM     42  C   UNL A   1      42.654  24.387  26.390  1.00  0.00     0.055 A 
ATOM     43  C   UNL A   1      43.709  26.349  25.480  1.00  0.00     0.041 A 
ATOM     44  F   UNL A   1      43.751  28.332  26.730  1.00  0.00    -0.206 F 
ATOM     45  C   UNL A   1      43.352  25.010  25.352  1.00  0.00     0.022 A 
BRANCH  42  46
ATOM     46  S   UNL A   1      42.266  22.619  26.287  1.00  0.00     0.124 S 
ATOM     47  O   UNL A   1      42.961  22.098  27.461  1.00  0.00    -0.237 OA
ATOM     48  O   UNL A   1      40.810  22.605  26.349  1.00  0.00    -0.237 OA
ATOM     49  O   UNL A   1      42.837  22.219  25.002  1.00  0.00    -0.744 OA
ENDBRANCH  42  46
ENDBRANCH  25  39
BRANCH  26  50
ATOM     50  C   UNL A   1      39.565  32.212  35.252  1.00  0.00     0.023 A 
ATOM     51  C   UNL A   1      38.812  31.679  36.308  1.00  0.00     0.031 A 
ATOM     52  C   UNL A   1      39.858  33.587  35.275  1.00  0.00     0.131 A 
ATOM     53  C   UNL A   1      38.341  32.523  37.325  1.00  0.00     0.055 A 
ATOM     54  C   UNL A   1      39.431  34.414  36.315  1.00  0.00     0.041 A 
ATOM     55  F   UNL A   1      40.578  34.146  34.288  1.00  0.00    -0.206 F 
ATOM     56  C   UNL A   1      38.656  33.884  37.342  1.00  0.00     0.022 A 
BRANCH  53  57
ATOM     57  S   UNL A   1      37.252  31.825  38.595  1.00  0.00     0.124 S 
ATOM     58  O   UNL A   1      38.072  31.958  39.794  1.00  0.00    -0.237 OA
ATOM     59  O   UNL A   1      36.088  32.702  38.512  1.00  0.00    -0.237 OA
ATOM     60  O   UNL A   1      37.030  30.455  38.136  1.00  0.00    -0.744 OA
ENDBRANCH  53  57
ENDBRANCH  26  50
BRANCH  38  61
ATOM     61  C   UNL A   1      45.144  28.187  34.217  1.00  0.00     0.023 A 
ATOM     62  C   UNL A   1      45.178  27.117  35.126  1.00  0.00     0.031 A 
ATOM     63  C   UNL A   1      46.277  29.012  34.116  1.00  0.00     0.131 A 
ATOM     64  C   UNL A   1      46.304  26.931  35.940  1.00  0.00     0.055 A 
ATOM     65  C   UNL A   1      47.416  28.790  34.891  1.00  0.00     0.041 A 
ATOM     66  F   UNL A   1      46.294  30.048  33.262  1.00  0.00    -0.206 F 
ATOM     67  C   UNL A   1      47.429  27.751  35.817  1.00  0.00     0.022 A 
BRANCH  64  68
ATOM     68  S   UNL A   1      46.252  25.642  37.214  1.00  0.00     0.124 S 
ATOM     69  O   UNL A   1      47.655  25.250  37.306  1.00  0.00    -0.237 OA
ATOM     70  O   UNL A   1      45.714  26.360  38.365  1.00  0.00    -0.237 OA
ATOM     71  O   UNL A   1      45.362  24.631  36.644  1.00  0.00    -0.744 OA
ENDBRANCH  64  68
ENDBRANCH  38  61
ENDBRANCH  12  13
ENDBRANCH   5   7
ENDBRANCH   2   3
ENDBRANCH   1   2
BRANCH   1  72
ATOM     72  C   UNL A   1      33.544  26.454  24.809  1.00  0.00     0.002 C 
BRANCH  72  73
ATOM     73  C   UNL A   1      32.936  26.479  23.405  1.00  0.00     0.002 C 
BRANCH  73  74
ATOM     74  C   UNL A   1      33.654  25.631  22.350  1.00  0.00     0.021 C 
BRANCH  74  75
ATOM     75  C   UNL A   1      34.181  24.285  22.841  1.00  0.00     0.116 C 
BRANCH  75  76
ATOM     76  N   UNL A   1      33.385  23.170  22.351  1.00  0.00    -0.352 N 
ATOM     77  C   UNL A   1      32.410  22.452  22.995  1.00  0.00     0.253 C 
ATOM     78  H   UNL A   1      33.574  22.891  21.426  1.00  0.00     0.163 HD
ATOM     79  O   UNL A   1      31.868  21.505  22.420  1.00  0.00    -0.269 OA
BRANCH  77  80
ATOM     80  C   UNL A   1      32.001  22.844  24.359  1.00  0.00     0.066 A 
ATOM     81  C   UNL A   1      31.011  23.834  24.470  1.00  0.00     0.055 A 
ATOM     82  C   UNL A   1      32.514  22.208  25.507  1.00  0.00     0.054 A 
ATOM     83  C   UNL A   1      30.587  24.244  25.726  1.00  0.00     0.124 A 
ATOM     84  C   UNL A   1      32.054  22.653  26.763  1.00  0.00     0.030 A 
ATOM     85  F   UNL A   1      29.661  25.205  25.828  1.00  0.00    -0.207 F 
ATOM     86  C   UNL A   1      31.109  23.673  26.876  1.00  0.00     0.041 A 
BRANCH  82  87
ATOM     87  N   UNL A   1      33.437  21.144  25.486  1.00  0.00    -0.341 N 
ATOM     88  C   UNL A   1      32.904  19.780  25.542  1.00  0.00     0.123 C 
ATOM     89  C   UNL A   1      34.844  21.264  25.427  1.00  0.00     0.044 A 
ATOM     90  C   UNL A   1      33.532  18.947  24.430  1.00  0.00     0.027 C 
ATOM     91  C   UNL A   1      35.650  20.193  24.996  1.00  0.00    -0.024 A 
ATOM     92  C   UNL A   1      35.481  22.462  25.800  1.00  0.00     0.026 A 
ATOM     93  C   UNL A   1      35.041  18.864  24.626  1.00  0.00     0.039 C 
ATOM     94  C   UNL A   1      37.048  20.338  24.943  1.00  0.00     0.006 A 
ATOM     95  C   UNL A   1      36.869  22.599  25.747  1.00  0.00     0.002 A 
ATOM     96  C   UNL A   1      37.652  21.537  25.314  1.00  0.00     0.000 A 
ENDBRANCH  82  87
ENDBRANCH  77  80
ENDBRANCH  75  76
ENDBRANCH  74  75
ENDBRANCH  73  74
ENDBRANCH  72  73
ENDBRANCH   1  72
TORSDOF 17
ENDMDL
MODEL 3
REMARK VINA RESULT:     -12.2      0.767      7.641
REMARK SMILES O=C(NCCCCCCNC(=O)c1cc(F)ccc1N1CCCc2ccccc21)c1ccc(-c2c3nc(c(-c4cc(S(=O)(=O)[O-])ccc4F)c4ccc([nH]4)c(-c4cc(S(=O)(=O)[O-])ccc4F)c4nc(c(-c5cc(S(=O)(=O)[O-])ccc5F)c5ccc2[nH]5)C=C4)C=C3)cc1
REMARK SMILES IDX 5 1 4 2 3 3 1 4 2 5 30 7 31 8 92 9 32 10 91 11 33 12 34 13
REMARK SMILES IDX 35 14 85 15 36 16 90 17 84 18 86 19 37 20 89 21 83 22 82 23
REMARK SMILES IDX 38 25 70 26 50 27 69 28 51 29 54 30 68 31 87 32 52 33 53 34
REMARK SMILES IDX 67 36 88 37 55 38 39 39 40 40 48 41 41 42 47 43 49 44 46 45
REMARK SMILES IDX 42 46 43 47 44 48 45 49 71 50 72 51 80 52 73 53 79 54 81 55
REMARK SMILES IDX 78 56 74 57 75 58 76 59 77 60 56 61 57 62 65 63 58 64 64 65
REMARK SMILES IDX 66 66 63 67 59 68 60 69 61 70 62 71 6 72 7 73 8 74 9 75
REMARK SMILES IDX 10 76 11 77 12 79 13 80 14 81 19 82 15 83 18 84 16 85 17 86
REMARK SMILES IDX 20 87 21 88 29 89 22 90 24 91 28 92 23 93 25 94 27 95 26 96
REMARK H PARENT 3 6 86 24 54 35 10 78
REMARK Flexibility Score: inf
ROOT
ATOM      1  C   UNL A   1      31.405  32.340  26.506  1.00  0.00     0.021 C 
ENDROOT
BRANCH   1   2
ATOM      2  C   UNL A   1      32.721  32.875  27.061  1.00  0.00     0.116 C 
BRANCH   2   3
ATOM      3  N   UNL A   1      32.574  34.192  27.656  1.00  0.00    -0.352 N 
ATOM      4  O   UNL A   1      32.816  35.795  29.220  1.00  0.00    -0.269 OA
ATOM      5  C   UNL A   1      33.199  34.720  28.758  1.00  0.00     0.251 C 
ATOM      6  H   UNL A   1      31.935  34.790  27.204  1.00  0.00     0.163 HD
BRANCH   5   7
ATOM      7  C   UNL A   1      34.319  33.996  29.396  1.00  0.00     0.039 A 
ATOM      8  C   UNL A   1      35.645  34.287  29.061  1.00  0.00     0.014 A 
ATOM      9  C   UNL A   1      34.037  33.036  30.371  1.00  0.00     0.014 A 
ATOM     10  C   UNL A   1      36.683  33.551  29.632  1.00  0.00     0.010 A 
ATOM     11  C   UNL A   1      35.083  32.342  30.988  1.00  0.00     0.010 A 
ATOM     12  C   UNL A   1      36.414  32.587  30.614  1.00  0.00    -0.014 A 
BRANCH  12  13
ATOM     13  C   UNL A   1      37.531  31.891  31.302  1.00  0.00     0.031 A 
ATOM     14  C   UNL A   1      37.942  32.280  32.695  1.00  0.00     0.074 A 
ATOM     15  C   UNL A   1      38.171  30.892  30.660  1.00  0.00     0.049 A 
ATOM     16  N   UNL A   1      38.954  31.847  33.404  1.00  0.00    -0.248 NA
ATOM     17  C   UNL A   1      37.110  33.279  33.384  1.00  0.00     0.031 C 
ATOM     18  C   UNL A   1      37.836  30.401  29.320  1.00  0.00     0.029 A 
ATOM     19  N   UNL A   1      39.225  30.105  31.046  1.00  0.00    -0.354 N 
ATOM     20  C   UNL A   1      38.884  32.519  34.619  1.00  0.00     0.074 A 
ATOM     21  C   UNL A   1      37.742  33.407  34.544  1.00  0.00     0.031 C 
ATOM     22  C   UNL A   1      38.645  29.376  29.013  1.00  0.00     0.029 A 
ATOM     23  C   UNL A   1      39.601  29.184  30.096  1.00  0.00     0.049 A 
ATOM     24  H   UNL A   1      39.670  30.190  31.920  1.00  0.00     0.167 HD
ATOM     25  C   UNL A   1      39.696  32.398  35.698  1.00  0.00     0.034 A 
ATOM     26  C   UNL A   1      40.620  28.304  30.083  1.00  0.00     0.034 A 
ATOM     27  C   UNL A   1      40.833  31.513  35.762  1.00  0.00     0.049 A 
ATOM     28  C   UNL A   1      41.558  28.260  31.259  1.00  0.00     0.074 A 
ATOM     29  C   UNL A   1      41.733  31.341  36.800  1.00  0.00     0.029 A 
ATOM     30  N   UNL A   1      41.223  30.643  34.752  1.00  0.00    -0.354 N 
ATOM     31  N   UNL A   1      41.518  28.955  32.371  1.00  0.00    -0.248 NA
ATOM     32  C   UNL A   1      42.682  27.320  31.172  1.00  0.00     0.031 C 
ATOM     33  C   UNL A   1      42.692  30.404  36.402  1.00  0.00     0.029 A 
ATOM     34  C   UNL A   1      42.356  29.944  35.139  1.00  0.00     0.049 A 
ATOM     35  H   UNL A   1      40.763  30.538  33.889  1.00  0.00     0.167 HD
ATOM     36  C   UNL A   1      42.602  28.520  33.125  1.00  0.00     0.074 A 
ATOM     37  C   UNL A   1      43.266  27.493  32.349  1.00  0.00     0.031 C 
ATOM     38  C   UNL A   1      43.014  28.934  34.349  1.00  0.00     0.034 A 
BRANCH  25  39
ATOM     39  C   UNL A   1      39.408  33.260  36.898  1.00  0.00     0.023 A 
ATOM     40  C   UNL A   1      38.734  32.750  38.019  1.00  0.00     0.031 A 
ATOM     41  C   UNL A   1      39.873  34.587  36.946  1.00  0.00     0.131 A 
ATOM     42  C   UNL A   1      38.526  33.571  39.139  1.00  0.00     0.055 A 
ATOM     43  C   UNL A   1      39.707  35.382  38.081  1.00  0.00     0.041 A 
ATOM     44  F   UNL A   1      40.511  35.124  35.894  1.00  0.00    -0.206 F 
ATOM     45  C   UNL A   1      39.030  34.874  39.186  1.00  0.00     0.022 A 
BRANCH  42  46
ATOM     46  S   UNL A   1      37.555  32.925  40.528  1.00  0.00     0.124 S 
ATOM     47  O   UNL A   1      36.216  32.870  39.949  1.00  0.00    -0.237 OA
ATOM     48  O   UNL A   1      38.189  31.639  40.791  1.00  0.00    -0.237 OA
ATOM     49  O   UNL A   1      37.738  33.933  41.570  1.00  0.00    -0.744 OA
ENDBRANCH  42  46
ENDBRANCH  25  39
BRANCH  26  50
ATOM     50  C   UNL A   1      40.842  27.422  28.904  1.00  0.00     0.023 A 
ATOM     51  C   UNL A   1      41.819  27.736  27.947  1.00  0.00     0.031 A 
ATOM     52  C   UNL A   1      40.055  26.276  28.696  1.00  0.00     0.131 A 
ATOM     53  C   UNL A   1      41.957  26.936  26.804  1.00  0.00     0.055 A 
ATOM     54  C   UNL A   1      40.230  25.455  27.582  1.00  0.00     0.041 A 
ATOM     55  F   UNL A   1      39.108  25.932  29.584  1.00  0.00    -0.206 F 
ATOM     56  C   UNL A   1      41.179  25.791  26.621  1.00  0.00     0.022 A 
BRANCH  53  57
ATOM     57  S   UNL A   1      43.129  27.453  25.521  1.00  0.00     0.124 S 
ATOM     58  O   UNL A   1      43.593  26.169  25.008  1.00  0.00    -0.237 OA
ATOM     59  O   UNL A   1      42.279  28.233  24.628  1.00  0.00    -0.237 OA
ATOM     60  O   UNL A   1      44.124  28.227  26.263  1.00  0.00    -0.744 OA
ENDBRANCH  53  57
ENDBRANCH  26  50
BRANCH  38  61
ATOM     61  C   UNL A   1      44.218  28.243  34.932  1.00  0.00     0.023 A 
ATOM     62  C   UNL A   1      44.095  27.055  35.672  1.00  0.00     0.031 A 
ATOM     63  C   UNL A   1      45.501  28.786  34.752  1.00  0.00     0.131 A 
ATOM     64  C   UNL A   1      45.232  26.475  36.250  1.00  0.00     0.055 A 
ATOM     65  C   UNL A   1      46.637  28.175  35.286  1.00  0.00     0.041 A 
ATOM     66  F   UNL A   1      45.672  29.920  34.053  1.00  0.00    -0.206 F 
ATOM     67  C   UNL A   1      46.503  27.018  36.050  1.00  0.00     0.022 A 
BRANCH  64  68
ATOM     68  S   UNL A   1      45.018  25.035  37.332  1.00  0.00     0.124 S 
ATOM     69  O   UNL A   1      43.847  24.389  36.748  1.00  0.00    -0.237 OA
ATOM     70  O   UNL A   1      46.284  24.328  37.167  1.00  0.00    -0.237 OA
ATOM     71  O   UNL A   1      44.808  25.626  38.653  1.00  0.00    -0.744 OA
ENDBRANCH  64  68
ENDBRANCH  38  61
ENDBRANCH  12  13
ENDBRANCH   5   7
ENDBRANCH   2   3
ENDBRANCH   1   2
BRANCH   1  72
ATOM     72  C   UNL A   1      31.405  30.852  26.148  1.00  0.00     0.002 C 
BRANCH  72  73
ATOM     73  C   UNL A   1      32.342  29.969  26.974  1.00  0.00     0.002 C 
BRANCH  73  74
ATOM     74  C   UNL A   1      31.772  28.617  27.413  1.00  0.00     0.021 C 
BRANCH  74  75
ATOM     75  C   UNL A   1      32.483  27.391  26.846  1.00  0.00     0.116 C 
BRANCH  75  76
ATOM     76  N   UNL A   1      31.685  26.182  26.973  1.00  0.00    -0.352 N 
ATOM     77  C   UNL A   1      31.053  25.454  25.999  1.00  0.00     0.253 C 
ATOM     78  H   UNL A   1      31.585  25.838  27.890  1.00  0.00     0.163 HD
ATOM     79  O   UNL A   1      30.384  24.466  26.312  1.00  0.00    -0.269 OA
BRANCH  77  80
ATOM     80  C   UNL A   1      31.208  25.846  24.584  1.00  0.00     0.066 A 
ATOM     81  C   UNL A   1      30.343  26.839  24.095  1.00  0.00     0.055 A 
ATOM     82  C   UNL A   1      32.227  25.315  23.767  1.00  0.00     0.054 A 
ATOM     83  C   UNL A   1      30.441  27.247  22.774  1.00  0.00     0.124 A 
ATOM     84  C   UNL A   1      32.293  25.760  22.431  1.00  0.00     0.030 A 
ATOM     85  F   UNL A   1      29.599  28.176  22.306  1.00  0.00    -0.207 F 
ATOM     86  C   UNL A   1      31.400  26.708  21.931  1.00  0.00     0.041 A 
BRANCH  82  87
ATOM     87  N   UNL A   1      33.196  24.388  24.199  1.00  0.00    -0.341 N 
ATOM     88  C   UNL A   1      34.418  24.917  24.809  1.00  0.00     0.123 C 
ATOM     89  C   UNL A   1      33.109  22.982  24.088  1.00  0.00     0.044 A 
ATOM     90  C   UNL A   1      34.677  24.195  26.127  1.00  0.00     0.027 C 
ATOM     91  C   UNL A   1      33.894  22.137  24.897  1.00  0.00    -0.024 A 
ATOM     92  C   UNL A   1      32.232  22.385  23.164  1.00  0.00     0.026 A 
ATOM     93  C   UNL A   1      34.890  22.707  25.875  1.00  0.00     0.039 C 
ATOM     94  C   UNL A   1      33.788  20.741  24.771  1.00  0.00     0.006 A 
ATOM     95  C   UNL A   1      32.133  20.997  23.043  1.00  0.00     0.002 A 
ATOM     96  C   UNL A   1      32.908  20.175  23.851  1.00  0.00     0.000 A 
ENDBRANCH  82  87
ENDBRANCH  77  80
ENDBRANCH  75  76
ENDBRANCH  74  75
ENDBRANCH  73  74
ENDBRANCH  72  73
ENDBRANCH   1  72
TORSDOF 17
ENDMDL
