MODEL 1
REMARK VINA RESULT:     -12.8      0.000      0.000
REMARK SMILES Cc1nn(-c2ccccc2)c(C)c1CNC(=O)[C@@H]1[C@@H](C(=O)NCCCCCCNC(=O)c2ccc(-c3c4nc(c(-c5cc(S(=O)(=O)[O-])ccc5F)c5ccc([nH]5)c(-c5cc(S(=O)(=O)[O-])ccc5F)c5nc(c(-c6cc(S(=O)(=O)[O-])ccc6F)c6ccc3[nH]6)C=C5)C=C4)cc2)[C@@H]2C=C[C@H]1C2
REMARK SMILES IDX 25 1 24 2 23 3 22 4 20 5 21 6 19 8 18 9 98 10 95 11 97 12
REMARK SMILES IDX 99 13 96 14 16 15 15 16 17 18 14 19 13 20 1 21 2 22 3 23
REMARK SMILES IDX 4 24 11 25 12 26 5 27 6 28 10 29 7 30 9 31 8 32 26 33 27 34
REMARK SMILES IDX 28 35 29 36 30 37 31 39 32 40 33 41 94 42 34 43 93 44 35 45
REMARK SMILES IDX 36 46 37 47 87 48 38 49 92 50 86 51 88 52 39 53 91 54 85 55
REMARK SMILES IDX 84 56 40 58 72 59 52 60 71 61 53 62 56 63 70 64 89 65 54 66
REMARK SMILES IDX 55 67 69 69 90 70 57 71 41 72 42 73 50 74 43 75 49 76 51 77
REMARK SMILES IDX 48 78 44 79 45 80 46 81 47 82 73 83 74 84 82 85 75 86 81 87
REMARK SMILES IDX 83 88 80 89 76 90 77 91 78 92 79 93 58 94 59 95 67 96 60 97
REMARK SMILES IDX 66 98 68 99 65 100 61 101 62 102 63 103 64 104
REMARK H PARENT 22 7 15 17 29 38 88 57 56 68
REMARK Flexibility Score: inf
ROOT
ATOM      1  C   UNL A   1      37.162  22.856  25.238  1.00  0.00     0.002 C 
ENDROOT
BRANCH   1   2
ATOM      2  C   UNL A   1      36.865  22.779  23.729  1.00  0.00     0.021 C 
BRANCH   2   3
ATOM      3  C   UNL A   1      35.532  23.399  23.334  1.00  0.00     0.116 C 
BRANCH   3   4
ATOM      4  N   UNL A   1      35.131  24.446  24.262  1.00  0.00    -0.356 N 
ATOM      5  C   UNL A   1      33.987  24.616  24.981  1.00  0.00     0.224 C 
ATOM      6  O   UNL A   1      33.891  25.635  25.668  1.00  0.00    -0.275 OA
ATOM      7  H   UNL A   1      35.802  25.154  24.391  1.00  0.00     0.163 HD
BRANCH   5   8
ATOM      8  C   UNL A   1      32.881  23.579  24.924  1.00  0.00     0.098 C 
ATOM      9  C   UNL A   1      31.460  24.218  25.123  1.00  0.00     0.098 C 
ATOM     10  C   UNL A   1      30.870  23.356  26.268  1.00  0.00     0.025 C 
ATOM     11  C   UNL A   1      32.977  22.612  26.138  1.00  0.00     0.025 C 
ATOM     12  C   UNL A   1      30.814  21.894  25.875  1.00  0.00    -0.027 C 
ATOM     13  C   UNL A   1      32.090  23.283  27.195  1.00  0.00     0.017 C 
ATOM     14  C   UNL A   1      32.076  21.442  25.815  1.00  0.00    -0.027 C 
BRANCH   9  15
ATOM     15  C   UNL A   1      30.613  24.224  23.859  1.00  0.00     0.224 C 
ATOM     16  N   UNL A   1      29.719  25.231  23.639  1.00  0.00    -0.352 N 
ATOM     17  H   UNL A   1      29.194  25.136  22.811  1.00  0.00     0.163 HD
ATOM     18  O   UNL A   1      30.727  23.350  22.997  1.00  0.00    -0.275 OA
BRANCH  16  19
ATOM     19  C   UNL A   1      29.406  26.421  24.418  1.00  0.00     0.155 C 
BRANCH  19  20
ATOM     20  C   UNL A   1      29.738  27.650  23.631  1.00  0.00     0.016 A 
ATOM     21  C   UNL A   1      32.303  27.347  23.132  1.00  0.00     0.069 C 
ATOM     22  C   UNL A   1      30.993  28.042  23.068  1.00  0.00     0.065 A 
ATOM     23  N   UNL A   1      30.891  29.150  22.320  1.00  0.00    -0.173 NA
ATOM     24  N   UNL A   1      29.649  29.597  22.553  1.00  0.00    -0.237 N 
ATOM     25  C   UNL A   1      28.875  28.616  23.146  1.00  0.00     0.046 A 
ATOM     26  C   UNL A   1      27.406  28.698  23.121  1.00  0.00     0.067 C 
BRANCH  24  27
ATOM     27  C   UNL A   1      29.157  30.820  22.046  1.00  0.00     0.065 A 
ATOM     28  C   UNL A   1      28.560  30.858  20.786  1.00  0.00     0.028 A 
ATOM     29  C   UNL A   1      29.108  31.937  22.889  1.00  0.00     0.028 A 
ATOM     30  C   UNL A   1      27.852  32.001  20.401  1.00  0.00     0.002 A 
ATOM     31  C   UNL A   1      28.418  33.076  22.483  1.00  0.00     0.002 A 
ATOM     32  C   UNL A   1      27.781  33.107  21.248  1.00  0.00     0.000 A 
ENDBRANCH  24  27
ENDBRANCH  19  20
ENDBRANCH  16  19
ENDBRANCH   9  15
ENDBRANCH   5   8
ENDBRANCH   3   4
ENDBRANCH   2   3
ENDBRANCH   1   2
BRANCH   1  33
ATOM     33  C   UNL A   1      38.329  21.988  25.739  1.00  0.00     0.002 C 
BRANCH  33  34
ATOM     34  C   UNL A   1      38.533  20.653  25.005  1.00  0.00     0.021 C 
BRANCH  34  35
ATOM     35  C   UNL A   1      38.785  19.490  25.953  1.00  0.00     0.116 C 
BRANCH  35  36
ATOM     36  N   UNL A   1      40.039  18.793  25.762  1.00  0.00    -0.352 N 
ATOM     37  C   UNL A   1      41.343  19.251  25.864  1.00  0.00     0.251 C 
ATOM     38  H   UNL A   1      39.951  17.842  25.521  1.00  0.00     0.163 HD
ATOM     39  O   UNL A   1      42.226  18.535  25.417  1.00  0.00    -0.269 OA
BRANCH  37  40
ATOM     40  C   UNL A   1      41.709  20.523  26.571  1.00  0.00     0.039 A 
ATOM     41  C   UNL A   1      41.147  20.792  27.831  1.00  0.00     0.014 A 
ATOM     42  C   UNL A   1      42.459  21.527  25.968  1.00  0.00     0.014 A 
ATOM     43  C   UNL A   1      41.289  22.058  28.418  1.00  0.00     0.010 A 
ATOM     44  C   UNL A   1      42.515  22.797  26.484  1.00  0.00     0.010 A 
ATOM     45  C   UNL A   1      41.930  23.072  27.707  1.00  0.00    -0.014 A 
BRANCH  45  46
ATOM     46  C   UNL A   1      42.322  24.356  28.281  1.00  0.00     0.031 A 
ATOM     47  C   UNL A   1      41.275  25.400  28.045  1.00  0.00     0.074 A 
ATOM     48  C   UNL A   1      43.235  24.460  29.273  1.00  0.00     0.049 A 
ATOM     49  N   UNL A   1      41.316  26.420  27.252  1.00  0.00    -0.248 NA
ATOM     50  C   UNL A   1      39.914  25.134  28.571  1.00  0.00     0.031 C 
ATOM     51  C   UNL A   1      43.987  23.380  29.924  1.00  0.00     0.029 A 
ATOM     52  N   UNL A   1      43.592  25.547  30.011  1.00  0.00    -0.354 N 
ATOM     53  C   UNL A   1      40.085  27.057  27.414  1.00  0.00     0.074 A 
ATOM     54  C   UNL A   1      39.202  26.060  27.932  1.00  0.00     0.031 C 
ATOM     55  C   UNL A   1      44.532  23.834  31.080  1.00  0.00     0.029 A 
ATOM     56  C   UNL A   1      44.301  25.267  31.181  1.00  0.00     0.049 A 
ATOM     57  H   UNL A   1      43.364  26.466  29.739  1.00  0.00     0.167 HD
ATOM     58  C   UNL A   1      39.983  28.415  27.457  1.00  0.00     0.034 A 
ATOM     59  C   UNL A   1      44.625  26.144  32.177  1.00  0.00     0.034 A 
ATOM     60  C   UNL A   1      41.201  29.020  26.956  1.00  0.00     0.049 A 
ATOM     61  C   UNL A   1      44.413  27.509  31.630  1.00  0.00     0.074 A 
ATOM     62  C   UNL A   1      41.912  28.929  25.775  1.00  0.00     0.029 A 
ATOM     63  N   UNL A   1      42.088  29.529  27.881  1.00  0.00    -0.354 N 
ATOM     64  N   UNL A   1      45.115  28.015  30.655  1.00  0.00    -0.248 NA
ATOM     65  C   UNL A   1      43.107  28.119  31.834  1.00  0.00     0.031 C 
ATOM     66  C   UNL A   1      43.283  28.904  26.171  1.00  0.00     0.029 A 
ATOM     67  C   UNL A   1      43.344  29.084  27.555  1.00  0.00     0.049 A 
ATOM     68  H   UNL A   1      41.860  30.110  28.643  1.00  0.00     0.167 HD
ATOM     69  C   UNL A   1      44.197  28.690  29.865  1.00  0.00     0.074 A 
ATOM     70  C   UNL A   1      42.994  28.795  30.688  1.00  0.00     0.031 C 
ATOM     71  C   UNL A   1      44.397  28.833  28.522  1.00  0.00     0.034 A 
BRANCH  58  72
ATOM     72  C   UNL A   1      39.002  29.189  28.334  1.00  0.00     0.023 A 
ATOM     73  C   UNL A   1      39.255  29.163  29.719  1.00  0.00     0.031 A 
ATOM     74  C   UNL A   1      37.732  29.698  27.970  1.00  0.00     0.131 A 
ATOM     75  C   UNL A   1      38.248  29.460  30.652  1.00  0.00     0.055 A 
ATOM     76  C   UNL A   1      36.751  30.052  28.904  1.00  0.00     0.041 A 
ATOM     77  F   UNL A   1      37.320  29.830  26.706  1.00  0.00    -0.206 F 
ATOM     78  C   UNL A   1      36.990  29.894  30.254  1.00  0.00     0.022 A 
BRANCH  75  79
ATOM     79  S   UNL A   1      38.562  29.073  32.391  1.00  0.00     0.124 S 
ATOM     80  O   UNL A   1      39.826  28.352  32.299  1.00  0.00    -0.237 OA
ATOM     81  O   UNL A   1      38.616  30.405  32.984  1.00  0.00    -0.237 OA
ATOM     82  O   UNL A   1      37.405  28.266  32.770  1.00  0.00    -0.744 OA
ENDBRANCH  75  79
ENDBRANCH  58  72
BRANCH  59  83
ATOM     83  C   UNL A   1      44.617  25.891  33.650  1.00  0.00     0.023 A 
ATOM     84  C   UNL A   1      43.519  26.163  34.502  1.00  0.00     0.031 A 
ATOM     85  C   UNL A   1      45.644  25.081  34.180  1.00  0.00     0.131 A 
ATOM     86  C   UNL A   1      43.492  25.638  35.820  1.00  0.00     0.055 A 
ATOM     87  C   UNL A   1      45.602  24.553  35.472  1.00  0.00     0.041 A 
ATOM     88  F   UNL A   1      46.690  24.712  33.422  1.00  0.00    -0.206 F 
ATOM     89  C   UNL A   1      44.530  24.838  36.303  1.00  0.00     0.022 A 
BRANCH  86  90
ATOM     90  S   UNL A   1      42.090  25.947  36.951  1.00  0.00     0.124 S 
ATOM     91  O   UNL A   1      41.377  24.676  36.946  1.00  0.00    -0.237 OA
ATOM     92  O   UNL A   1      42.770  26.307  38.190  1.00  0.00    -0.237 OA
ATOM     93  O   UNL A   1      41.375  27.049  36.303  1.00  0.00    -0.744 OA
ENDBRANCH  86  90
ENDBRANCH  59  83
BRANCH  71  94
ATOM     94  C   UNL A   1      45.776  28.544  27.962  1.00  0.00     0.023 A 
ATOM     95  C   UNL A   1      46.217  27.299  27.455  1.00  0.00     0.031 A 
ATOM     96  C   UNL A   1      46.633  29.649  27.823  1.00  0.00     0.131 A 
ATOM     97  C   UNL A   1      47.480  27.206  26.831  1.00  0.00     0.055 A 
ATOM     98  C   UNL A   1      47.867  29.556  27.187  1.00  0.00     0.041 A 
ATOM     99  F   UNL A   1      46.259  30.860  28.269  1.00  0.00    -0.206 F 
ATOM    100  C   UNL A   1      48.296  28.333  26.689  1.00  0.00     0.022 A 
BRANCH  97 101
ATOM    101  S   UNL A   1      48.095  25.613  26.186  1.00  0.00     0.124 S 
ATOM    102  O   UNL A   1      48.188  24.780  27.378  1.00  0.00    -0.237 OA
ATOM    103  O   UNL A   1      47.066  25.242  25.220  1.00  0.00    -0.237 OA
ATOM    104  O   UNL A   1      49.386  25.964  25.588  1.00  0.00    -0.744 OA
ENDBRANCH  97 101
ENDBRANCH  71  94
ENDBRANCH  45  46
ENDBRANCH  37  40
ENDBRANCH  35  36
ENDBRANCH  34  35
ENDBRANCH  33  34
ENDBRANCH   1  33
TORSDOF 20
ENDMDL
MODEL 2
REMARK VINA RESULT:     -12.6      3.009      7.272
REMARK SMILES Cc1nn(-c2ccccc2)c(C)c1CNC(=O)[C@@H]1[C@@H](C(=O)NCCCCCCNC(=O)c2ccc(-c3c4nc(c(-c5cc(S(=O)(=O)[O-])ccc5F)c5ccc([nH]5)c(-c5cc(S(=O)(=O)[O-])ccc5F)c5nc(c(-c6cc(S(=O)(=O)[O-])ccc6F)c6ccc3[nH]6)C=C5)C=C4)cc2)[C@@H]2C=C[C@H]1C2
REMARK SMILES IDX 25 1 24 2 23 3 22 4 20 5 21 6 19 8 18 9 98 10 95 11 97 12
REMARK SMILES IDX 99 13 96 14 16 15 15 16 17 18 14 19 13 20 1 21 2 22 3 23
REMARK SMILES IDX 4 24 11 25 12 26 5 27 6 28 10 29 7 30 9 31 8 32 26 33 27 34
REMARK SMILES IDX 28 35 29 36 30 37 31 39 32 40 33 41 94 42 34 43 93 44 35 45
REMARK SMILES IDX 36 46 37 47 87 48 38 49 92 50 86 51 88 52 39 53 91 54 85 55
REMARK SMILES IDX 84 56 40 58 72 59 52 60 71 61 53 62 56 63 70 64 89 65 54 66
REMARK SMILES IDX 55 67 69 69 90 70 57 71 41 72 42 73 50 74 43 75 49 76 51 77
REMARK SMILES IDX 48 78 44 79 45 80 46 81 47 82 73 83 74 84 82 85 75 86 81 87
REMARK SMILES IDX 83 88 80 89 76 90 77 91 78 92 79 93 58 94 59 95 67 96 60 97
REMARK SMILES IDX 66 98 68 99 65 100 61 101 62 102 63 103 64 104
REMARK H PARENT 22 7 15 17 29 38 88 57 56 68
REMARK Flexibility Score: inf
ROOT
ATOM      1  C   UNL A   1      32.381  29.634  25.806  1.00  0.00     0.002 C 
ENDROOT
BRANCH   1   2
ATOM      2  C   UNL A   1      31.608  28.304  25.863  1.00  0.00     0.021 C 
BRANCH   2   3
ATOM      3  C   UNL A   1      32.499  27.086  26.061  1.00  0.00     0.116 C 
BRANCH   3   4
ATOM      4  N   UNL A   1      31.788  26.002  26.722  1.00  0.00    -0.356 N 
ATOM      5  C   UNL A   1      31.882  24.650  26.582  1.00  0.00     0.224 C 
ATOM      6  O   UNL A   1      31.115  23.953  27.247  1.00  0.00    -0.275 OA
ATOM      7  H   UNL A   1      31.122  26.296  27.385  1.00  0.00     0.163 HD
BRANCH   5   8
ATOM      8  C   UNL A   1      32.901  24.045  25.633  1.00  0.00     0.098 C 
ATOM      9  C   UNL A   1      32.313  22.828  24.833  1.00  0.00     0.098 C 
ATOM     10  C   UNL A   1      33.363  21.719  25.105  1.00  0.00     0.025 C 
ATOM     11  C   UNL A   1      34.061  23.383  26.430  1.00  0.00     0.025 C 
ATOM     12  C   UNL A   1      34.736  22.140  24.624  1.00  0.00    -0.027 C 
ATOM     13  C   UNL A   1      33.586  21.935  26.607  1.00  0.00     0.017 C 
ATOM     14  C   UNL A   1      35.164  23.125  25.429  1.00  0.00    -0.027 C 
BRANCH   9  15
ATOM     15  C   UNL A   1      32.096  23.119  23.356  1.00  0.00     0.224 C 
ATOM     16  N   UNL A   1      31.154  24.027  22.968  1.00  0.00    -0.352 N 
ATOM     17  H   UNL A   1      31.063  24.129  21.993  1.00  0.00     0.163 HD
ATOM     18  O   UNL A   1      32.772  22.574  22.481  1.00  0.00    -0.275 OA
BRANCH  16  19
ATOM     19  C   UNL A   1      30.260  24.872  23.749  1.00  0.00     0.155 C 
BRANCH  19  20
ATOM     20  C   UNL A   1      30.289  26.272  23.221  1.00  0.00     0.016 A 
ATOM     21  C   UNL A   1      32.512  26.320  21.816  1.00  0.00     0.069 C 
ATOM     22  C   UNL A   1      31.263  26.892  22.377  1.00  0.00     0.065 A 
ATOM     23  N   UNL A   1      30.900  28.128  22.004  1.00  0.00    -0.173 NA
ATOM     24  N   UNL A   1      29.820  28.398  22.751  1.00  0.00    -0.237 N 
ATOM     25  C   UNL A   1      29.309  27.244  23.314  1.00  0.00     0.046 A 
ATOM     26  C   UNL A   1      27.925  27.198  23.814  1.00  0.00     0.067 C 
BRANCH  24  27
ATOM     27  C   UNL A   1      29.177  29.656  22.759  1.00  0.00     0.065 A 
ATOM     28  C   UNL A   1      29.413  30.549  23.804  1.00  0.00     0.028 A 
ATOM     29  C   UNL A   1      28.459  30.061  21.627  1.00  0.00     0.028 A 
ATOM     30  C   UNL A   1      28.984  31.874  23.679  1.00  0.00     0.002 A 
ATOM     31  C   UNL A   1      28.019  31.378  21.527  1.00  0.00     0.002 A 
ATOM     32  C   UNL A   1      28.290  32.288  22.543  1.00  0.00     0.000 A 
ENDBRANCH  24  27
ENDBRANCH  19  20
ENDBRANCH  16  19
ENDBRANCH   9  15
ENDBRANCH   5   8
ENDBRANCH   3   4
ENDBRANCH   2   3
ENDBRANCH   1   2
BRANCH   1  33
ATOM     33  C   UNL A   1      32.871  30.184  27.157  1.00  0.00     0.002 C 
BRANCH  33  34
ATOM     34  C   UNL A   1      34.392  30.159  27.378  1.00  0.00     0.021 C 
BRANCH  34  35
ATOM     35  C   UNL A   1      34.976  31.541  27.630  1.00  0.00     0.116 C 
BRANCH  35  36
ATOM     36  N   UNL A   1      34.719  32.094  28.941  1.00  0.00    -0.352 N 
ATOM     37  C   UNL A   1      35.343  31.851  30.155  1.00  0.00     0.251 C 
ATOM     38  H   UNL A   1      33.984  32.749  28.977  1.00  0.00     0.163 HD
ATOM     39  O   UNL A   1      34.786  32.256  31.164  1.00  0.00    -0.269 OA
BRANCH  37  40
ATOM     40  C   UNL A   1      36.691  31.202  30.265  1.00  0.00     0.039 A 
ATOM     41  C   UNL A   1      37.844  32.003  30.190  1.00  0.00     0.014 A 
ATOM     42  C   UNL A   1      36.861  29.821  30.280  1.00  0.00     0.014 A 
ATOM     43  C   UNL A   1      39.112  31.415  30.067  1.00  0.00     0.010 A 
ATOM     44  C   UNL A   1      38.083  29.240  30.056  1.00  0.00     0.010 A 
ATOM     45  C   UNL A   1      39.213  30.030  29.945  1.00  0.00    -0.014 A 
BRANCH  45  46
ATOM     46  C   UNL A   1      40.469  29.289  30.019  1.00  0.00     0.031 A 
ATOM     47  C   UNL A   1      40.834  28.977  31.437  1.00  0.00     0.074 A 
ATOM     48  C   UNL A   1      40.959  28.583  28.975  1.00  0.00     0.049 A 
ATOM     49  N   UNL A   1      41.783  29.480  32.157  1.00  0.00    -0.248 NA
ATOM     50  C   UNL A   1      39.866  28.186  32.234  1.00  0.00     0.031 C 
ATOM     51  C   UNL A   1      40.380  28.438  27.633  1.00  0.00     0.029 A 
ATOM     52  N   UNL A   1      42.017  27.728  28.928  1.00  0.00    -0.354 N 
ATOM     53  C   UNL A   1      41.676  28.846  33.395  1.00  0.00     0.074 A 
ATOM     54  C   UNL A   1      40.332  28.367  33.467  1.00  0.00     0.031 C 
ATOM     55  C   UNL A   1      40.966  27.396  26.992  1.00  0.00     0.029 A 
ATOM     56  C   UNL A   1      42.061  26.895  27.808  1.00  0.00     0.049 A 
ATOM     57  H   UNL A   1      42.703  27.698  29.635  1.00  0.00     0.167 HD
ATOM     58  C   UNL A   1      42.778  28.450  34.092  1.00  0.00     0.034 A 
ATOM     59  C   UNL A   1      42.905  25.841  27.600  1.00  0.00     0.034 A 
ATOM     60  C   UNL A   1      43.961  29.097  33.560  1.00  0.00     0.049 A 
ATOM     61  C   UNL A   1      43.998  25.963  28.598  1.00  0.00     0.074 A 
ATOM     62  C   UNL A   1      44.337  30.412  33.358  1.00  0.00     0.029 A 
ATOM     63  N   UNL A   1      44.787  28.349  32.748  1.00  0.00    -0.354 N 
ATOM     64  N   UNL A   1      44.863  26.939  28.607  1.00  0.00    -0.248 NA
ATOM     65  C   UNL A   1      43.827  25.276  29.870  1.00  0.00     0.031 C 
ATOM     66  C   UNL A   1      44.996  30.415  32.093  1.00  0.00     0.029 A 
ATOM     67  C   UNL A   1      45.081  29.097  31.637  1.00  0.00     0.049 A 
ATOM     68  H   UNL A   1      45.109  27.437  32.934  1.00  0.00     0.167 HD
ATOM     69  C   UNL A   1      45.021  27.267  29.944  1.00  0.00     0.074 A 
ATOM     70  C   UNL A   1      44.428  26.152  30.680  1.00  0.00     0.031 C 
ATOM     71  C   UNL A   1      45.343  28.538  30.323  1.00  0.00     0.034 A 
BRANCH  58  72
ATOM     72  C   UNL A   1      42.867  27.182  34.938  1.00  0.00     0.023 A 
ATOM     73  C   UNL A   1      43.718  26.171  34.452  1.00  0.00     0.031 A 
ATOM     74  C   UNL A   1      42.009  26.783  35.991  1.00  0.00     0.131 A 
ATOM     75  C   UNL A   1      43.586  24.838  34.875  1.00  0.00     0.055 A 
ATOM     76  C   UNL A   1      41.923  25.464  36.452  1.00  0.00     0.041 A 
ATOM     77  F   UNL A   1      41.151  27.605  36.601  1.00  0.00    -0.206 F 
ATOM     78  C   UNL A   1      42.684  24.473  35.866  1.00  0.00     0.022 A 
BRANCH  75  79
ATOM     79  S   UNL A   1      44.483  23.565  33.956  1.00  0.00     0.124 S 
ATOM     80  O   UNL A   1      45.024  22.755  35.043  1.00  0.00    -0.237 OA
ATOM     81  O   UNL A   1      43.415  22.961  33.167  1.00  0.00    -0.237 OA
ATOM     82  O   UNL A   1      45.467  24.330  33.195  1.00  0.00    -0.744 OA
ENDBRANCH  75  79
ENDBRANCH  58  72
BRANCH  59  83
ATOM     83  C   UNL A   1      42.579  24.526  26.968  1.00  0.00     0.023 A 
ATOM     84  C   UNL A   1      43.462  23.801  26.131  1.00  0.00     0.031 A 
ATOM     85  C   UNL A   1      41.449  23.830  27.449  1.00  0.00     0.131 A 
ATOM     86  C   UNL A   1      43.186  22.447  25.805  1.00  0.00     0.055 A 
ATOM     87  C   UNL A   1      41.194  22.492  27.139  1.00  0.00     0.041 A 
ATOM     88  F   UNL A   1      40.595  24.413  28.305  1.00  0.00    -0.206 F 
ATOM     89  C   UNL A   1      42.056  21.797  26.307  1.00  0.00     0.022 A 
BRANCH  86  90
ATOM     90  S   UNL A   1      44.305  21.466  24.743  1.00  0.00     0.124 S 
ATOM     91  O   UNL A   1      43.707  20.138  24.775  1.00  0.00    -0.237 OA
ATOM     92  O   UNL A   1      44.228  22.184  23.475  1.00  0.00    -0.237 OA
ATOM     93  O   UNL A   1      45.594  21.571  25.429  1.00  0.00    -0.744 OA
ENDBRANCH  86  90
ENDBRANCH  59  83
BRANCH  71  94
ATOM     94  C   UNL A   1      45.851  29.499  29.266  1.00  0.00     0.023 A 
ATOM     95  C   UNL A   1      45.051  30.370  28.489  1.00  0.00     0.031 A 
ATOM     96  C   UNL A   1      47.247  29.616  29.154  1.00  0.00     0.131 A 
ATOM     97  C   UNL A   1      45.668  31.317  27.643  1.00  0.00     0.055 A 
ATOM     98  C   UNL A   1      47.849  30.567  28.335  1.00  0.00     0.041 A 
ATOM     99  F   UNL A   1      48.056  28.828  29.882  1.00  0.00    -0.206 F 
ATOM    100  C   UNL A   1      47.061  31.421  27.574  1.00  0.00     0.022 A 
BRANCH  97 101
ATOM    101  S   UNL A   1      44.671  32.441  26.606  1.00  0.00     0.124 S 
ATOM    102  O   UNL A   1      43.784  31.537  25.885  1.00  0.00    -0.237 OA
ATOM    103  O   UNL A   1      44.041  33.310  27.595  1.00  0.00    -0.237 OA
ATOM    104  O   UNL A   1      45.671  33.107  25.767  1.00  0.00    -0.744 OA
ENDBRANCH  97 101
ENDBRANCH  71  94
ENDBRANCH  45  46
ENDBRANCH  37  40
ENDBRANCH  35  36
ENDBRANCH  34  35
ENDBRANCH  33  34
ENDBRANCH   1  33
TORSDOF 20
ENDMDL
MODEL 3
REMARK VINA RESULT:     -12.5      1.887      2.357
REMARK SMILES Cc1nn(-c2ccccc2)c(C)c1CNC(=O)[C@@H]1[C@@H](C(=O)NCCCCCCNC(=O)c2ccc(-c3c4nc(c(-c5cc(S(=O)(=O)[O-])ccc5F)c5ccc([nH]5)c(-c5cc(S(=O)(=O)[O-])ccc5F)c5nc(c(-c6cc(S(=O)(=O)[O-])ccc6F)c6ccc3[nH]6)C=C5)C=C4)cc2)[C@@H]2C=C[C@H]1C2
REMARK SMILES IDX 25 1 24 2 23 3 22 4 20 5 21 6 19 8 18 9 98 10 95 11 97 12
REMARK SMILES IDX 99 13 96 14 16 15 15 16 17 18 14 19 13 20 1 21 2 22 3 23
REMARK SMILES IDX 4 24 11 25 12 26 5 27 6 28 10 29 7 30 9 31 8 32 26 33 27 34
REMARK SMILES IDX 28 35 29 36 30 37 31 39 32 40 33 41 94 42 34 43 93 44 35 45
REMARK SMILES IDX 36 46 37 47 87 48 38 49 92 50 86 51 88 52 39 53 91 54 85 55
REMARK SMILES IDX 84 56 40 58 72 59 52 60 71 61 53 62 56 63 70 64 89 65 54 66
REMARK SMILES IDX 55 67 69 69 90 70 57 71 41 72 42 73 50 74 43 75 49 76 51 77
REMARK SMILES IDX 48 78 44 79 45 80 46 81 47 82 73 83 74 84 82 85 75 86 81 87
REMARK SMILES IDX 83 88 80 89 76 90 77 91 78 92 79 93 58 94 59 95 67 96 60 97
REMARK SMILES IDX 66 98 68 99 65 100 61 101 62 102 63 103 64 104
REMARK H PARENT 22 7 15 17 29 38 88 57 56 68
REMARK Flexibility Score: inf
ROOT
ATOM      1  C   UNL A   1      38.030  23.064  26.235  1.00  0.00     0.002 C 
ENDROOT
BRANCH   1   2
ATOM      2  C   UNL A   1      38.018  23.664  24.817  1.00  0.00     0.021 C 
BRANCH   2   3
ATOM      3  C   UNL A   1      36.638  23.687  24.173  1.00  0.00     0.116 C 
BRANCH   3   4
ATOM      4  N   UNL A   1      35.603  24.039  25.134  1.00  0.00    -0.356 N 
ATOM      5  C   UNL A   1      34.406  23.454  25.417  1.00  0.00     0.224 C 
ATOM      6  O   UNL A   1      33.692  23.996  26.263  1.00  0.00    -0.275 OA
ATOM      7  H   UNL A   1      35.803  24.838  25.673  1.00  0.00     0.163 HD
BRANCH   5   8
ATOM      8  C   UNL A   1      33.984  22.183  24.703  1.00  0.00     0.098 C 
ATOM      9  C   UNL A   1      32.429  22.113  24.491  1.00  0.00     0.098 C 
ATOM     10  C   UNL A   1      32.078  20.727  25.091  1.00  0.00     0.025 C 
ATOM     11  C   UNL A   1      34.247  20.941  25.601  1.00  0.00     0.025 C 
ATOM     12  C   UNL A   1      32.826  19.620  24.376  1.00  0.00    -0.027 C 
ATOM     13  C   UNL A   1      32.929  20.772  26.367  1.00  0.00     0.017 C 
ATOM     14  C   UNL A   1      34.125  19.736  24.697  1.00  0.00    -0.027 C 
BRANCH   9  15
ATOM     15  C   UNL A   1      32.005  22.279  23.040  1.00  0.00     0.224 C 
ATOM     16  N   UNL A   1      31.065  23.209  22.703  1.00  0.00    -0.352 N 
ATOM     17  H   UNL A   1      30.832  23.226  21.747  1.00  0.00     0.163 HD
ATOM     18  O   UNL A   1      32.509  21.610  22.135  1.00  0.00    -0.275 OA
BRANCH  16  19
ATOM     19  C   UNL A   1      30.347  24.182  23.516  1.00  0.00     0.155 C 
BRANCH  19  20
ATOM     20  C   UNL A   1      31.141  25.447  23.620  1.00  0.00     0.016 A 
ATOM     21  C   UNL A   1      32.009  25.793  21.162  1.00  0.00     0.069 C 
ATOM     22  C   UNL A   1      31.852  26.146  22.594  1.00  0.00     0.065 A 
ATOM     23  N   UNL A   1      32.348  27.314  23.026  1.00  0.00    -0.173 NA
ATOM     24  N   UNL A   1      32.154  27.290  24.352  1.00  0.00    -0.237 N 
ATOM     25  C   UNL A   1      31.249  26.304  24.700  1.00  0.00     0.046 A 
ATOM     26  C   UNL A   1      30.557  26.341  25.998  1.00  0.00     0.067 C 
BRANCH  24  27
ATOM     27  C   UNL A   1      32.637  28.290  25.225  1.00  0.00     0.065 A 
ATOM     28  C   UNL A   1      31.965  29.509  25.323  1.00  0.00     0.028 A 
ATOM     29  C   UNL A   1      33.672  27.976  26.113  1.00  0.00     0.028 A 
ATOM     30  C   UNL A   1      32.291  30.385  26.363  1.00  0.00     0.002 A 
ATOM     31  C   UNL A   1      34.001  28.869  27.130  1.00  0.00     0.002 A 
ATOM     32  C   UNL A   1      33.306  30.065  27.265  1.00  0.00     0.000 A 
ENDBRANCH  24  27
ENDBRANCH  19  20
ENDBRANCH  16  19
ENDBRANCH   9  15
ENDBRANCH   5   8
ENDBRANCH   3   4
ENDBRANCH   2   3
ENDBRANCH   1   2
BRANCH   1  33
ATOM     33  C   UNL A   1      39.079  21.968  26.492  1.00  0.00     0.002 C 
BRANCH  33  34
ATOM     34  C   UNL A   1      39.146  20.845  25.445  1.00  0.00     0.021 C 
BRANCH  34  35
ATOM     35  C   UNL A   1      39.501  19.495  26.048  1.00  0.00     0.116 C 
BRANCH  35  36
ATOM     36  N   UNL A   1      40.802  18.976  25.686  1.00  0.00    -0.352 N 
ATOM     37  C   UNL A   1      42.043  19.593  25.677  1.00  0.00     0.251 C 
ATOM     38  H   UNL A   1      40.806  18.033  25.399  1.00  0.00     0.163 HD
ATOM     39  O   UNL A   1      42.952  19.019  25.097  1.00  0.00    -0.269 OA
BRANCH  37  40
ATOM     40  C   UNL A   1      42.326  20.868  26.415  1.00  0.00     0.039 A 
ATOM     41  C   UNL A   1      42.091  20.924  27.800  1.00  0.00     0.014 A 
ATOM     42  C   UNL A   1      42.663  22.052  25.767  1.00  0.00     0.014 A 
ATOM     43  C   UNL A   1      42.131  22.150  28.480  1.00  0.00     0.010 A 
ATOM     44  C   UNL A   1      42.603  23.267  26.401  1.00  0.00     0.010 A 
ATOM     45  C   UNL A   1      42.334  23.325  27.757  1.00  0.00    -0.014 A 
BRANCH  45  46
ATOM     46  C   UNL A   1      42.602  24.626  28.363  1.00  0.00     0.031 A 
ATOM     47  C   UNL A   1      41.472  25.579  28.129  1.00  0.00     0.074 A 
ATOM     48  C   UNL A   1      43.486  24.789  29.374  1.00  0.00     0.049 A 
ATOM     49  N   UNL A   1      41.436  26.617  27.357  1.00  0.00    -0.248 NA
ATOM     50  C   UNL A   1      40.131  25.185  28.624  1.00  0.00     0.031 C 
ATOM     51  C   UNL A   1      44.319  23.765  30.017  1.00  0.00     0.029 A 
ATOM     52  N   UNL A   1      43.734  25.887  30.139  1.00  0.00    -0.354 N 
ATOM     53  C   UNL A   1      40.152  27.139  27.509  1.00  0.00     0.074 A 
ATOM     54  C   UNL A   1      39.351  26.058  27.990  1.00  0.00     0.031 C 
ATOM     55  C   UNL A   1      44.803  24.240  31.192  1.00  0.00     0.029 A 
ATOM     56  C   UNL A   1      44.446  25.645  31.316  1.00  0.00     0.049 A 
ATOM     57  H   UNL A   1      43.431  26.789  29.882  1.00  0.00     0.167 HD
ATOM     58  C   UNL A   1      39.930  28.482  27.576  1.00  0.00     0.034 A 
ATOM     59  C   UNL A   1      44.674  26.526  32.334  1.00  0.00     0.034 A 
ATOM     60  C   UNL A   1      41.099  29.202  27.110  1.00  0.00     0.049 A 
ATOM     61  C   UNL A   1      44.353  27.878  31.812  1.00  0.00     0.074 A 
ATOM     62  C   UNL A   1      41.835  29.199  25.940  1.00  0.00     0.029 A 
ATOM     63  N   UNL A   1      41.922  29.766  28.061  1.00  0.00    -0.354 N 
ATOM     64  N   UNL A   1      45.024  28.465  30.859  1.00  0.00    -0.248 NA
ATOM     65  C   UNL A   1      42.995  28.368  32.003  1.00  0.00     0.031 C 
ATOM     66  C   UNL A   1      43.195  29.285  26.361  1.00  0.00     0.029 A 
ATOM     67  C   UNL A   1      43.217  29.440  27.749  1.00  0.00     0.049 A 
ATOM     68  H   UNL A   1      41.631  30.309  28.830  1.00  0.00     0.167 HD
ATOM     69  C   UNL A   1      44.064  29.073  30.066  1.00  0.00     0.074 A 
ATOM     70  C   UNL A   1      42.842  29.055  30.868  1.00  0.00     0.031 C 
ATOM     71  C   UNL A   1      44.273  29.261  28.730  1.00  0.00     0.034 A 
BRANCH  58  72
ATOM     72  C   UNL A   1      38.871  29.149  28.450  1.00  0.00     0.023 A 
ATOM     73  C   UNL A   1      39.030  28.997  29.841  1.00  0.00     0.031 A 
ATOM     74  C   UNL A   1      37.615  29.663  28.046  1.00  0.00     0.131 A 
ATOM     75  C   UNL A   1      37.953  29.183  30.725  1.00  0.00     0.055 A 
ATOM     76  C   UNL A   1      36.563  29.906  28.938  1.00  0.00     0.041 A 
ATOM     77  F   UNL A   1      37.286  29.905  26.775  1.00  0.00    -0.206 F 
ATOM     78  C   UNL A   1      36.714  29.626  30.281  1.00  0.00     0.022 A 
BRANCH  75  79
ATOM     79  S   UNL A   1      38.159  28.641  32.437  1.00  0.00     0.124 S 
ATOM     80  O   UNL A   1      36.865  28.998  33.008  1.00  0.00    -0.237 OA
ATOM     81  O   UNL A   1      38.421  27.216  32.267  1.00  0.00    -0.237 OA
ATOM     82  O   UNL A   1      39.292  29.434  32.907  1.00  0.00    -0.744 OA
ENDBRANCH  75  79
ENDBRANCH  58  72
BRANCH  59  83
ATOM     83  C   UNL A   1      44.665  26.242  33.802  1.00  0.00     0.023 A 
ATOM     84  C   UNL A   1      43.537  26.413  34.642  1.00  0.00     0.031 A 
ATOM     85  C   UNL A   1      45.743  25.501  34.333  1.00  0.00     0.131 A 
ATOM     86  C   UNL A   1      43.531  25.860  35.949  1.00  0.00     0.055 A 
ATOM     87  C   UNL A   1      45.722  24.944  35.613  1.00  0.00     0.041 A 
ATOM     88  F   UNL A   1      46.824  25.228  33.585  1.00  0.00    -0.206 F 
ATOM     89  C   UNL A   1      44.620  25.129  36.432  1.00  0.00     0.022 A 
BRANCH  86  90
ATOM     90  S   UNL A   1      42.093  26.038  37.063  1.00  0.00     0.124 S 
ATOM     91  O   UNL A   1      41.425  24.748  36.947  1.00  0.00    -0.237 OA
ATOM     92  O   UNL A   1      42.732  26.328  38.342  1.00  0.00    -0.237 OA
ATOM     93  O   UNL A   1      41.355  27.161  36.479  1.00  0.00    -0.744 OA
ENDBRANCH  86  90
ENDBRANCH  59  83
BRANCH  71  94
ATOM     94  C   UNL A   1      45.681  29.106  28.190  1.00  0.00     0.023 A 
ATOM     95  C   UNL A   1      46.267  27.896  27.750  1.00  0.00     0.031 A 
ATOM     96  C   UNL A   1      46.405  30.294  27.995  1.00  0.00     0.131 A 
ATOM     97  C   UNL A   1      47.538  27.918  27.135  1.00  0.00     0.055 A 
ATOM     98  C   UNL A   1      47.648  30.313  27.369  1.00  0.00     0.041 A 
ATOM     99  F   UNL A   1      45.889  31.475  28.377  1.00  0.00    -0.206 F 
ATOM    100  C   UNL A   1      48.219  29.124  26.936  1.00  0.00     0.022 A 
BRANCH  97 101
ATOM    101  S   UNL A   1      48.339  26.376  26.575  1.00  0.00     0.124 S 
ATOM    102  O   UNL A   1      48.560  26.608  25.154  1.00  0.00    -0.237 OA
ATOM    103  O   UNL A   1      49.533  26.317  27.412  1.00  0.00    -0.237 OA
ATOM    104  O   UNL A   1      47.340  25.346  26.874  1.00  0.00    -0.744 OA
ENDBRANCH  97 101
ENDBRANCH  71  94
ENDBRANCH  45  46
ENDBRANCH  37  40
ENDBRANCH  35  36
ENDBRANCH  34  35
ENDBRANCH  33  34
ENDBRANCH   1  33
TORSDOF 20
ENDMDL
