MODEL 1
REMARK VINA RESULT:     -12.6      0.000      0.000
REMARK SMILES C[C@@H](NC1=[NH+]C(=O)/C(=C\c2ccccc2-n2cccn2)S1)C(=O)NCCCCCCNC(=O)c1ccc(-c2c3nc(c(-c4cc(S(=O)(=O)[O-])ccc4F)c4ccc([nH]4)c(-c4cc(S(=O)(=O)[O-])ccc4F)c4nc(c(-c5cc(S(=O)(=O)[O-])ccc5F)c5ccc2[nH]5)C=C4)C=C3)cc1
REMARK SMILES IDX 27 1 26 2 25 3 24 4 22 5 23 6 2 8 1 9 3 10 4 11 5 13 21 14
REMARK SMILES IDX 6 15 8 17 7 18 9 19 10 20 11 21 15 22 12 23 14 24 13 25
REMARK SMILES IDX 16 26 17 27 20 28 18 29 19 30 28 31 29 32 30 33 31 34 32 35
REMARK SMILES IDX 33 37 34 38 35 39 96 40 36 41 95 42 37 43 38 44 39 45 89 46
REMARK SMILES IDX 40 47 94 48 88 49 90 50 41 51 93 52 87 53 86 54 42 56 74 57
REMARK SMILES IDX 54 58 73 59 55 60 58 61 72 62 91 63 56 64 57 65 71 67 92 68
REMARK SMILES IDX 59 69 43 70 44 71 52 72 45 73 51 74 53 75 50 76 46 77 47 78
REMARK SMILES IDX 48 79 49 80 75 81 76 82 84 83 77 84 83 85 85 86 82 87 78 88
REMARK SMILES IDX 79 89 80 90 81 91 60 92 61 93 69 94 62 95 68 96 70 97 67 98
REMARK SMILES IDX 63 99 64 100 65 101 66 102
REMARK H PARENT 24 7 3 12 5 16 31 36 90 55 58 66
REMARK Flexibility Score: inf
ROOT
ATOM      1  C   UNL A   1      36.682  23.359  25.326  1.00  0.00     0.002 C 
ENDROOT
BRANCH   1   2
ATOM      2  C   UNL A   1      35.497  24.297  25.057  1.00  0.00     0.021 C 
BRANCH   2   3
ATOM      3  C   UNL A   1      34.326  24.238  26.032  1.00  0.00     0.116 C 
BRANCH   3   4
ATOM      4  N   UNL A   1      34.055  22.917  26.564  1.00  0.00    -0.352 N 
ATOM      5  C   UNL A   1      33.488  21.835  25.950  1.00  0.00     0.264 C 
ATOM      6  O   UNL A   1      33.509  20.756  26.550  1.00  0.00    -0.270 OA
ATOM      7  H   UNL A   1      34.316  22.779  27.504  1.00  0.00     0.163 HD
BRANCH   5   8
ATOM      8  C   UNL A   1      32.799  21.952  24.576  1.00  0.00     0.259 C 
ATOM      9  C   UNL A   1      32.626  20.546  23.978  1.00  0.00     0.069 C 
BRANCH   8  10
ATOM     10  N   UNL A   1      31.521  22.663  24.618  1.00  0.00    -0.257 N 
ATOM     11  C   UNL A   1      31.157  23.868  24.089  1.00  0.00     0.317 C 
ATOM     12  H   UNL A   1      30.807  22.196  25.107  1.00  0.00     0.306 HD
ATOM     13  N   UNL A   1      30.100  24.479  24.515  1.00  0.00    -0.200 N 
ATOM     14  S   UNL A   1      32.040  24.701  22.828  1.00  0.00     0.006 SA
ATOM     15  C   UNL A   1      29.892  25.724  23.937  1.00  0.00     0.346 C 
ATOM     16  H   UNL A   1      29.496  24.095  25.191  1.00  0.00     0.316 HD
ATOM     17  C   UNL A   1      31.026  26.106  23.027  1.00  0.00     0.110 C 
ATOM     18  O   UNL A   1      28.913  26.410  24.125  1.00  0.00    -0.240 OA
ATOM     19  C   UNL A   1      31.333  27.325  22.537  1.00  0.00     0.034 C 
BRANCH  19  20
ATOM     20  C   UNL A   1      30.710  28.632  22.894  1.00  0.00     0.002 A 
ATOM     21  C   UNL A   1      29.739  29.181  22.056  1.00  0.00     0.010 A 
ATOM     22  C   UNL A   1      30.999  29.344  24.081  1.00  0.00     0.072 A 
ATOM     23  C   UNL A   1      29.052  30.351  22.424  1.00  0.00     0.001 A 
ATOM     24  C   UNL A   1      30.268  30.468  24.492  1.00  0.00     0.029 A 
ATOM     25  C   UNL A   1      29.297  30.979  23.647  1.00  0.00     0.002 A 
BRANCH  22  26
ATOM     26  N   UNL A   1      31.939  28.844  24.990  1.00  0.00    -0.240 N 
ATOM     27  C   UNL A   1      31.667  28.205  26.180  1.00  0.00     0.115 A 
ATOM     28  N   UNL A   1      33.120  29.486  25.040  1.00  0.00    -0.177 NA
ATOM     29  C   UNL A   1      32.440  28.852  27.112  1.00  0.00     0.042 A 
ATOM     30  C   UNL A   1      33.252  29.707  26.345  1.00  0.00     0.135 A 
ENDBRANCH  22  26
ENDBRANCH  19  20
ENDBRANCH   8  10
ENDBRANCH   5   8
ENDBRANCH   3   4
ENDBRANCH   2   3
ENDBRANCH   1   2
BRANCH   1  31
ATOM     31  C   UNL A   1      36.874  22.149  24.403  1.00  0.00     0.002 C 
BRANCH  31  32
ATOM     32  C   UNL A   1      37.577  20.910  24.975  1.00  0.00     0.021 C 
BRANCH  32  33
ATOM     33  C   UNL A   1      38.894  21.160  25.670  1.00  0.00     0.116 C 
BRANCH  33  34
ATOM     34  N   UNL A   1      39.702  19.935  25.753  1.00  0.00    -0.352 N 
ATOM     35  C   UNL A   1      41.072  19.831  25.911  1.00  0.00     0.251 C 
ATOM     36  H   UNL A   1      39.209  19.085  25.690  1.00  0.00     0.163 HD
ATOM     37  O   UNL A   1      41.682  18.819  25.593  1.00  0.00    -0.269 OA
BRANCH  35  38
ATOM     38  C   UNL A   1      41.759  20.998  26.479  1.00  0.00     0.039 A 
ATOM     39  C   UNL A   1      42.091  22.110  25.704  1.00  0.00     0.014 A 
ATOM     40  C   UNL A   1      41.860  21.018  27.865  1.00  0.00     0.014 A 
ATOM     41  C   UNL A   1      42.410  23.295  26.362  1.00  0.00     0.010 A 
ATOM     42  C   UNL A   1      41.948  22.231  28.490  1.00  0.00     0.010 A 
ATOM     43  C   UNL A   1      42.286  23.364  27.761  1.00  0.00    -0.014 A 
BRANCH  43  44
ATOM     44  C   UNL A   1      42.360  24.633  28.479  1.00  0.00     0.031 A 
ATOM     45  C   UNL A   1      41.175  25.512  28.300  1.00  0.00     0.074 A 
ATOM     46  C   UNL A   1      43.313  24.918  29.398  1.00  0.00     0.049 A 
ATOM     47  N   UNL A   1      41.091  26.553  27.542  1.00  0.00    -0.248 NA
ATOM     48  C   UNL A   1      39.882  25.094  28.866  1.00  0.00     0.031 C 
ATOM     49  C   UNL A   1      44.383  24.049  29.908  1.00  0.00     0.029 A 
ATOM     50  N   UNL A   1      43.467  26.037  30.153  1.00  0.00    -0.354 N 
ATOM     51  C   UNL A   1      39.828  27.088  27.765  1.00  0.00     0.074 A 
ATOM     52  C   UNL A   1      39.067  26.031  28.372  1.00  0.00     0.031 C 
ATOM     53  C   UNL A   1      44.907  24.577  31.036  1.00  0.00     0.029 A 
ATOM     54  C   UNL A   1      44.360  25.908  31.215  1.00  0.00     0.049 A 
ATOM     55  H   UNL A   1      42.986  26.875  29.965  1.00  0.00     0.167 HD
ATOM     56  C   UNL A   1      39.624  28.435  27.686  1.00  0.00     0.034 A 
ATOM     57  C   UNL A   1      44.652  26.829  32.173  1.00  0.00     0.034 A 
ATOM     58  C   UNL A   1      40.754  29.082  27.044  1.00  0.00     0.049 A 
ATOM     59  C   UNL A   1      44.306  28.150  31.592  1.00  0.00     0.074 A 
ATOM     60  C   UNL A   1      41.391  28.931  25.825  1.00  0.00     0.029 A 
ATOM     61  N   UNL A   1      41.659  29.745  27.847  1.00  0.00    -0.354 N 
ATOM     62  N   UNL A   1      44.924  28.653  30.557  1.00  0.00    -0.248 NA
ATOM     63  C   UNL A   1      42.965  28.665  31.820  1.00  0.00     0.031 C 
ATOM     64  C   UNL A   1      42.784  29.022  26.129  1.00  0.00     0.029 A 
ATOM     65  C   UNL A   1      42.920  29.335  27.483  1.00  0.00     0.049 A 
ATOM     66  H   UNL A   1      41.441  30.396  28.553  1.00  0.00     0.167 HD
ATOM     67  C   UNL A   1      43.918  29.180  29.761  1.00  0.00     0.074 A 
ATOM     68  C   UNL A   1      42.747  29.250  30.636  1.00  0.00     0.031 C 
ATOM     69  C   UNL A   1      44.043  29.238  28.400  1.00  0.00     0.034 A 
BRANCH  56  70
ATOM     70  C   UNL A   1      38.633  29.221  28.522  1.00  0.00     0.023 A 
ATOM     71  C   UNL A   1      38.897  29.306  29.903  1.00  0.00     0.031 A 
ATOM     72  C   UNL A   1      37.339  29.628  28.126  1.00  0.00     0.131 A 
ATOM     73  C   UNL A   1      37.882  29.631  30.819  1.00  0.00     0.055 A 
ATOM     74  C   UNL A   1      36.351  30.019  29.036  1.00  0.00     0.041 A 
ATOM     75  F   UNL A   1      36.918  29.594  26.858  1.00  0.00    -0.206 F 
ATOM     76  C   UNL A   1      36.606  29.985  30.395  1.00  0.00     0.022 A 
BRANCH  73  77
ATOM     77  S   UNL A   1      38.215  29.386  32.581  1.00  0.00     0.124 S 
ATOM     78  O   UNL A   1      37.442  28.180  32.856  1.00  0.00    -0.237 OA
ATOM     79  O   UNL A   1      39.667  29.241  32.593  1.00  0.00    -0.237 OA
ATOM     80  O   UNL A   1      37.705  30.610  33.194  1.00  0.00    -0.744 OA
ENDBRANCH  73  77
ENDBRANCH  56  70
BRANCH  57  81
ATOM     81  C   UNL A   1      44.892  26.585  33.624  1.00  0.00     0.023 A 
ATOM     82  C   UNL A   1      43.882  26.710  34.604  1.00  0.00     0.031 A 
ATOM     83  C   UNL A   1      46.096  25.969  34.035  1.00  0.00     0.131 A 
ATOM     84  C   UNL A   1      44.097  26.221  35.918  1.00  0.00     0.055 A 
ATOM     85  C   UNL A   1      46.301  25.487  35.329  1.00  0.00     0.041 A 
ATOM     86  F   UNL A   1      47.089  25.733  33.163  1.00  0.00    -0.206 F 
ATOM     87  C   UNL A   1      45.297  25.601  36.275  1.00  0.00     0.022 A 
BRANCH  84  88
ATOM     88  S   UNL A   1      42.774  26.301  37.173  1.00  0.00     0.124 S 
ATOM     89  O   UNL A   1      42.060  27.514  36.794  1.00  0.00    -0.237 OA
ATOM     90  O   UNL A   1      42.071  25.040  36.969  1.00  0.00    -0.237 OA
ATOM     91  O   UNL A   1      43.509  26.391  38.437  1.00  0.00    -0.744 OA
ENDBRANCH  84  88
ENDBRANCH  57  81
BRANCH  69  92
ATOM     92  C   UNL A   1      45.414  28.999  27.786  1.00  0.00     0.023 A 
ATOM     93  C   UNL A   1      45.849  27.793  27.190  1.00  0.00     0.031 A 
ATOM     94  C   UNL A   1      46.278  30.106  27.709  1.00  0.00     0.131 A 
ATOM     95  C   UNL A   1      47.112  27.729  26.560  1.00  0.00     0.055 A 
ATOM     96  C   UNL A   1      47.513  30.047  27.066  1.00  0.00     0.041 A 
ATOM     97  F   UNL A   1      45.917  31.289  28.236  1.00  0.00    -0.206 F 
ATOM     98  C   UNL A   1      47.937  28.855  26.494  1.00  0.00     0.022 A 
BRANCH  95  99
ATOM     99  S   UNL A   1      47.723  26.170  25.836  1.00  0.00     0.124 S 
ATOM    100  O   UNL A   1      47.497  25.189  26.891  1.00  0.00    -0.237 OA
ATOM    101  O   UNL A   1      46.892  26.027  24.644  1.00  0.00    -0.237 OA
ATOM    102  O   UNL A   1      49.133  26.453  25.561  1.00  0.00    -0.744 OA
ENDBRANCH  95  99
ENDBRANCH  69  92
ENDBRANCH  43  44
ENDBRANCH  35  38
ENDBRANCH  33  34
ENDBRANCH  32  33
ENDBRANCH  31  32
ENDBRANCH   1  31
TORSDOF 19
ENDMDL
MODEL 2
REMARK VINA RESULT:     -12.2      3.005      8.844
REMARK SMILES C[C@@H](NC1=[NH+]C(=O)/C(=C\c2ccccc2-n2cccn2)S1)C(=O)NCCCCCCNC(=O)c1ccc(-c2c3nc(c(-c4cc(S(=O)(=O)[O-])ccc4F)c4ccc([nH]4)c(-c4cc(S(=O)(=O)[O-])ccc4F)c4nc(c(-c5cc(S(=O)(=O)[O-])ccc5F)c5ccc2[nH]5)C=C4)C=C3)cc1
REMARK SMILES IDX 27 1 26 2 25 3 24 4 22 5 23 6 2 8 1 9 3 10 4 11 5 13 21 14
REMARK SMILES IDX 6 15 8 17 7 18 9 19 10 20 11 21 15 22 12 23 14 24 13 25
REMARK SMILES IDX 16 26 17 27 20 28 18 29 19 30 28 31 29 32 30 33 31 34 32 35
REMARK SMILES IDX 33 37 34 38 35 39 96 40 36 41 95 42 37 43 38 44 39 45 89 46
REMARK SMILES IDX 40 47 94 48 88 49 90 50 41 51 93 52 87 53 86 54 42 56 74 57
REMARK SMILES IDX 54 58 73 59 55 60 58 61 72 62 91 63 56 64 57 65 71 67 92 68
REMARK SMILES IDX 59 69 43 70 44 71 52 72 45 73 51 74 53 75 50 76 46 77 47 78
REMARK SMILES IDX 48 79 49 80 75 81 76 82 84 83 77 84 83 85 85 86 82 87 78 88
REMARK SMILES IDX 79 89 80 90 81 91 60 92 61 93 69 94 62 95 68 96 70 97 67 98
REMARK SMILES IDX 63 99 64 100 65 101 66 102
REMARK H PARENT 24 7 3 12 5 16 31 36 90 55 58 66
REMARK Flexibility Score: inf
ROOT
ATOM      1  C   UNL A   1      32.353  29.207  27.325  1.00  0.00     0.002 C 
ENDROOT
BRANCH   1   2
ATOM      2  C   UNL A   1      31.838  28.484  26.073  1.00  0.00     0.021 C 
BRANCH   2   3
ATOM      3  C   UNL A   1      32.423  28.913  24.731  1.00  0.00     0.116 C 
BRANCH   3   4
ATOM      4  N   UNL A   1      31.513  29.671  23.895  1.00  0.00    -0.352 N 
ATOM      5  C   UNL A   1      30.268  29.334  23.442  1.00  0.00     0.264 C 
ATOM      6  O   UNL A   1      29.604  30.210  22.879  1.00  0.00    -0.270 OA
ATOM      7  H   UNL A   1      31.838  30.557  23.613  1.00  0.00     0.163 HD
BRANCH   5   8
ATOM      8  C   UNL A   1      29.716  27.901  23.578  1.00  0.00     0.259 C 
ATOM      9  C   UNL A   1      28.213  27.907  23.257  1.00  0.00     0.069 C 
BRANCH   8  10
ATOM     10  N   UNL A   1      30.422  26.919  22.756  1.00  0.00    -0.257 N 
ATOM     11  C   UNL A   1      31.084  25.777  23.105  1.00  0.00     0.317 C 
ATOM     12  H   UNL A   1      30.420  27.113  21.791  1.00  0.00     0.306 HD
ATOM     13  N   UNL A   1      31.924  25.229  22.291  1.00  0.00    -0.200 N 
ATOM     14  S   UNL A   1      30.888  24.953  24.638  1.00  0.00     0.006 SA
ATOM     15  C   UNL A   1      32.572  24.114  22.807  1.00  0.00     0.346 C 
ATOM     16  H   UNL A   1      32.091  25.572  21.383  1.00  0.00     0.316 HD
ATOM     17  C   UNL A   1      32.211  23.885  24.248  1.00  0.00     0.110 C 
ATOM     18  O   UNL A   1      33.319  23.404  22.173  1.00  0.00    -0.240 OA
ATOM     19  C   UNL A   1      32.843  23.115  25.158  1.00  0.00     0.034 C 
BRANCH  19  20
ATOM     20  C   UNL A   1      34.148  22.411  25.003  1.00  0.00     0.002 A 
ATOM     21  C   UNL A   1      35.336  23.139  25.087  1.00  0.00     0.010 A 
ATOM     22  C   UNL A   1      34.273  21.012  24.831  1.00  0.00     0.072 A 
ATOM     23  C   UNL A   1      36.581  22.486  25.061  1.00  0.00     0.001 A 
ATOM     24  C   UNL A   1      35.506  20.346  24.879  1.00  0.00     0.029 A 
ATOM     25  C   UNL A   1      36.666  21.094  24.983  1.00  0.00     0.002 A 
BRANCH  22  26
ATOM     26  N   UNL A   1      33.130  20.207  24.769  1.00  0.00    -0.240 N 
ATOM     27  C   UNL A   1      32.916  19.034  25.461  1.00  0.00     0.115 A 
ATOM     28  N   UNL A   1      32.458  20.215  23.604  1.00  0.00    -0.177 NA
ATOM     29  C   UNL A   1      32.510  18.133  24.509  1.00  0.00     0.042 A 
ATOM     30  C   UNL A   1      32.339  18.915  23.352  1.00  0.00     0.135 A 
ENDBRANCH  22  26
ENDBRANCH  19  20
ENDBRANCH   8  10
ENDBRANCH   5   8
ENDBRANCH   3   4
ENDBRANCH   2   3
ENDBRANCH   1   2
BRANCH   1  31
ATOM     31  C   UNL A   1      32.983  30.595  27.156  1.00  0.00     0.002 C 
BRANCH  31  32
ATOM     32  C   UNL A   1      34.512  30.709  27.247  1.00  0.00     0.021 C 
BRANCH  32  33
ATOM     33  C   UNL A   1      35.215  29.589  27.976  1.00  0.00     0.116 C 
BRANCH  33  34
ATOM     34  N   UNL A   1      35.582  29.981  29.344  1.00  0.00    -0.352 N 
ATOM     35  C   UNL A   1      36.625  29.500  30.114  1.00  0.00     0.251 C 
ATOM     36  H   UNL A   1      35.018  30.671  29.763  1.00  0.00     0.163 HD
ATOM     37  O   UNL A   1      36.623  29.596  31.334  1.00  0.00    -0.269 OA
BRANCH  35  38
ATOM     38  C   UNL A   1      37.736  28.865  29.393  1.00  0.00     0.039 A 
ATOM     39  C   UNL A   1      38.265  29.409  28.222  1.00  0.00     0.014 A 
ATOM     40  C   UNL A   1      38.365  27.821  30.062  1.00  0.00     0.014 A 
ATOM     41  C   UNL A   1      39.515  28.964  27.799  1.00  0.00     0.010 A 
ATOM     42  C   UNL A   1      39.676  27.563  29.770  1.00  0.00     0.010 A 
ATOM     43  C   UNL A   1      40.242  28.074  28.609  1.00  0.00    -0.014 A 
BRANCH  43  44
ATOM     44  C   UNL A   1      41.647  27.770  28.351  1.00  0.00     0.031 A 
ATOM     45  C   UNL A   1      41.876  26.506  27.604  1.00  0.00     0.074 A 
ATOM     46  C   UNL A   1      42.654  28.647  28.575  1.00  0.00     0.049 A 
ATOM     47  N   UNL A   1      42.271  25.379  28.092  1.00  0.00    -0.248 NA
ATOM     48  C   UNL A   1      41.442  26.416  26.200  1.00  0.00     0.031 C 
ATOM     49  C   UNL A   1      42.572  30.041  29.031  1.00  0.00     0.029 A 
ATOM     50  N   UNL A   1      43.985  28.499  28.343  1.00  0.00    -0.354 N 
ATOM     51  C   UNL A   1      42.418  24.522  27.008  1.00  0.00     0.074 A 
ATOM     52  C   UNL A   1      41.666  25.124  25.941  1.00  0.00     0.031 C 
ATOM     53  C   UNL A   1      43.748  30.669  28.813  1.00  0.00     0.029 A 
ATOM     54  C   UNL A   1      44.723  29.681  28.395  1.00  0.00     0.049 A 
ATOM     55  H   UNL A   1      44.397  27.625  28.154  1.00  0.00     0.167 HD
ATOM     56  C   UNL A   1      43.376  23.551  27.019  1.00  0.00     0.034 A 
ATOM     57  C   UNL A   1      46.047  29.846  28.131  1.00  0.00     0.034 A 
ATOM     58  C   UNL A   1      43.900  23.372  28.361  1.00  0.00     0.049 A 
ATOM     59  C   UNL A   1      46.675  28.517  28.331  1.00  0.00     0.074 A 
ATOM     60  C   UNL A   1      43.336  23.073  29.588  1.00  0.00     0.029 A 
ATOM     61  N   UNL A   1      45.130  23.924  28.652  1.00  0.00    -0.354 N 
ATOM     62  N   UNL A   1      46.718  27.920  29.493  1.00  0.00    -0.248 NA
ATOM     63  C   UNL A   1      46.784  27.633  27.180  1.00  0.00     0.031 C 
ATOM     64  C   UNL A   1      44.003  23.932  30.514  1.00  0.00     0.029 A 
ATOM     65  C   UNL A   1      45.008  24.620  29.831  1.00  0.00     0.049 A 
ATOM     66  H   UNL A   1      45.949  23.835  28.112  1.00  0.00     0.167 HD
ATOM     67  C   UNL A   1      46.400  26.596  29.228  1.00  0.00     0.074 A 
ATOM     68  C   UNL A   1      46.553  26.459  27.778  1.00  0.00     0.031 C 
ATOM     69  C   UNL A   1      45.766  25.817  30.155  1.00  0.00     0.034 A 
BRANCH  56  70
ATOM     70  C   UNL A   1      44.130  23.050  25.802  1.00  0.00     0.023 A 
ATOM     71  C   UNL A   1      43.995  21.682  25.493  1.00  0.00     0.031 A 
ATOM     72  C   UNL A   1      45.168  23.726  25.122  1.00  0.00     0.131 A 
ATOM     73  C   UNL A   1      44.933  21.024  24.679  1.00  0.00     0.055 A 
ATOM     74  C   UNL A   1      46.057  23.081  24.256  1.00  0.00     0.041 A 
ATOM     75  F   UNL A   1      45.444  25.020  25.311  1.00  0.00    -0.206 F 
ATOM     76  C   UNL A   1      45.969  21.715  24.059  1.00  0.00     0.022 A 
BRANCH  73  77
ATOM     77  S   UNL A   1      44.882  19.217  24.611  1.00  0.00     0.124 S 
ATOM     78  O   UNL A   1      44.695  18.880  26.017  1.00  0.00    -0.237 OA
ATOM     79  O   UNL A   1      43.740  18.983  23.732  1.00  0.00    -0.237 OA
ATOM     80  O   UNL A   1      46.184  18.863  24.050  1.00  0.00    -0.744 OA
ENDBRANCH  73  77
ENDBRANCH  56  70
BRANCH  57  81
ATOM     81  C   UNL A   1      46.695  30.984  27.420  1.00  0.00     0.023 A 
ATOM     82  C   UNL A   1      45.968  32.054  26.851  1.00  0.00     0.031 A 
ATOM     83  C   UNL A   1      48.096  31.154  27.514  1.00  0.00     0.131 A 
ATOM     84  C   UNL A   1      46.640  33.225  26.418  1.00  0.00     0.055 A 
ATOM     85  C   UNL A   1      48.751  32.311  27.088  1.00  0.00     0.041 A 
ATOM     86  F   UNL A   1      48.871  30.232  28.106  1.00  0.00    -0.206 F 
ATOM     87  C   UNL A   1      48.024  33.358  26.549  1.00  0.00     0.022 A 
BRANCH  84  88
ATOM     88  S   UNL A   1      45.707  34.647  25.758  1.00  0.00     0.124 S 
ATOM     89  O   UNL A   1      46.717  35.699  25.738  1.00  0.00    -0.237 OA
ATOM     90  O   UNL A   1      45.255  34.153  24.463  1.00  0.00    -0.237 OA
ATOM     91  O   UNL A   1      44.639  34.841  26.743  1.00  0.00    -0.744 OA
ENDBRANCH  84  88
ENDBRANCH  57  81
BRANCH  69  92
ATOM     92  C   UNL A   1      45.681  26.318  31.589  1.00  0.00     0.023 A 
ATOM     93  C   UNL A   1      44.582  27.006  32.155  1.00  0.00     0.031 A 
ATOM     94  C   UNL A   1      46.738  25.969  32.448  1.00  0.00     0.131 A 
ATOM     95  C   UNL A   1      44.582  27.328  33.530  1.00  0.00     0.055 A 
ATOM     96  C   UNL A   1      46.724  26.267  33.810  1.00  0.00     0.041 A 
ATOM     97  F   UNL A   1      47.802  25.295  31.980  1.00  0.00    -0.206 F 
ATOM     98  C   UNL A   1      45.646  26.954  34.355  1.00  0.00     0.022 A 
BRANCH  95  99
ATOM     99  S   UNL A   1      43.206  28.268  34.274  1.00  0.00     0.124 S 
ATOM    100  O   UNL A   1      43.824  28.941  35.410  1.00  0.00    -0.237 OA
ATOM    101  O   UNL A   1      42.781  29.131  33.176  1.00  0.00    -0.237 OA
ATOM    102  O   UNL A   1      42.240  27.228  34.635  1.00  0.00    -0.744 OA
ENDBRANCH  95  99
ENDBRANCH  69  92
ENDBRANCH  43  44
ENDBRANCH  35  38
ENDBRANCH  33  34
ENDBRANCH  32  33
ENDBRANCH  31  32
ENDBRANCH   1  31
TORSDOF 19
ENDMDL
MODEL 3
REMARK VINA RESULT:     -12.1      3.952      5.401
REMARK SMILES C[C@@H](NC1=[NH+]C(=O)/C(=C\c2ccccc2-n2cccn2)S1)C(=O)NCCCCCCNC(=O)c1ccc(-c2c3nc(c(-c4cc(S(=O)(=O)[O-])ccc4F)c4ccc([nH]4)c(-c4cc(S(=O)(=O)[O-])ccc4F)c4nc(c(-c5cc(S(=O)(=O)[O-])ccc5F)c5ccc2[nH]5)C=C4)C=C3)cc1
REMARK SMILES IDX 27 1 26 2 25 3 24 4 22 5 23 6 2 8 1 9 3 10 4 11 5 13 21 14
REMARK SMILES IDX 6 15 8 17 7 18 9 19 10 20 11 21 15 22 12 23 14 24 13 25
REMARK SMILES IDX 16 26 17 27 20 28 18 29 19 30 28 31 29 32 30 33 31 34 32 35
REMARK SMILES IDX 33 37 34 38 35 39 96 40 36 41 95 42 37 43 38 44 39 45 89 46
REMARK SMILES IDX 40 47 94 48 88 49 90 50 41 51 93 52 87 53 86 54 42 56 74 57
REMARK SMILES IDX 54 58 73 59 55 60 58 61 72 62 91 63 56 64 57 65 71 67 92 68
REMARK SMILES IDX 59 69 43 70 44 71 52 72 45 73 51 74 53 75 50 76 46 77 47 78
REMARK SMILES IDX 48 79 49 80 75 81 76 82 84 83 77 84 83 85 85 86 82 87 78 88
REMARK SMILES IDX 79 89 80 90 81 91 60 92 61 93 69 94 62 95 68 96 70 97 67 98
REMARK SMILES IDX 63 99 64 100 65 101 66 102
REMARK H PARENT 24 7 3 12 5 16 31 36 90 55 58 66
REMARK Flexibility Score: inf
ROOT
ATOM      1  C   UNL A   1      38.062  20.543  25.057  1.00  0.00     0.002 C 
ENDROOT
BRANCH   1   2
ATOM      2  C   UNL A   1      36.732  19.796  24.883  1.00  0.00     0.021 C 
BRANCH   2   3
ATOM      3  C   UNL A   1      35.452  20.618  24.984  1.00  0.00     0.116 C 
BRANCH   3   4
ATOM      4  N   UNL A   1      34.278  19.855  25.360  1.00  0.00    -0.352 N 
ATOM      5  C   UNL A   1      33.012  19.904  24.845  1.00  0.00     0.264 C 
ATOM      6  O   UNL A   1      32.209  19.039  25.209  1.00  0.00    -0.270 OA
ATOM      7  H   UNL A   1      34.411  19.209  26.091  1.00  0.00     0.163 HD
BRANCH   5   8
ATOM      8  C   UNL A   1      32.572  21.022  23.879  1.00  0.00     0.259 C 
ATOM      9  C   UNL A   1      32.130  20.393  22.548  1.00  0.00     0.069 C 
BRANCH   8  10
ATOM     10  N   UNL A   1      31.525  21.888  24.421  1.00  0.00    -0.257 N 
ATOM     11  C   UNL A   1      31.343  23.237  24.314  1.00  0.00     0.317 C 
ATOM     12  H   UNL A   1      30.839  21.422  24.950  1.00  0.00     0.306 HD
ATOM     13  N   UNL A   1      30.563  23.862  25.134  1.00  0.00    -0.200 N 
ATOM     14  S   UNL A   1      32.116  24.245  23.109  1.00  0.00     0.006 SA
ATOM     15  C   UNL A   1      30.529  25.238  24.950  1.00  0.00     0.346 C 
ATOM     16  H   UNL A   1      30.039  23.402  25.829  1.00  0.00     0.316 HD
ATOM     17  C   UNL A   1      31.509  25.677  23.898  1.00  0.00     0.110 C 
ATOM     18  O   UNL A   1      29.790  25.989  25.545  1.00  0.00    -0.240 OA
ATOM     19  C   UNL A   1      31.978  26.919  23.656  1.00  0.00     0.034 C 
BRANCH  19  20
ATOM     20  C   UNL A   1      31.754  28.149  24.468  1.00  0.00     0.002 A 
ATOM     21  C   UNL A   1      32.536  28.377  25.601  1.00  0.00     0.010 A 
ATOM     22  C   UNL A   1      30.819  29.157  24.131  1.00  0.00     0.072 A 
ATOM     23  C   UNL A   1      32.427  29.581  26.318  1.00  0.00     0.001 A 
ATOM     24  C   UNL A   1      30.756  30.390  24.795  1.00  0.00     0.029 A 
ATOM     25  C   UNL A   1      31.559  30.594  25.904  1.00  0.00     0.002 A 
BRANCH  22  26
ATOM     26  N   UNL A   1      30.018  29.019  22.991  1.00  0.00    -0.240 N 
ATOM     27  C   UNL A   1      29.993  29.860  21.901  1.00  0.00     0.115 A 
ATOM     28  N   UNL A   1      28.828  28.416  23.169  1.00  0.00    -0.177 NA
ATOM     29  C   UNL A   1      28.665  30.144  21.704  1.00  0.00     0.042 A 
ATOM     30  C   UNL A   1      27.999  29.283  22.595  1.00  0.00     0.135 A 
ENDBRANCH  22  26
ENDBRANCH  19  20
ENDBRANCH   8  10
ENDBRANCH   5   8
ENDBRANCH   3   4
ENDBRANCH   2   3
ENDBRANCH   1   2
BRANCH   1  31
ATOM     31  C   UNL A   1      38.016  22.048  25.351  1.00  0.00     0.002 C 
BRANCH  31  32
ATOM     32  C   UNL A   1      38.990  22.607  26.398  1.00  0.00     0.021 C 
BRANCH  32  33
ATOM     33  C   UNL A   1      39.055  24.112  26.502  1.00  0.00     0.116 C 
BRANCH  33  34
ATOM     34  N   UNL A   1      40.303  24.640  25.932  1.00  0.00    -0.352 N 
ATOM     35  C   UNL A   1      40.787  25.933  26.001  1.00  0.00     0.251 C 
ATOM     36  H   UNL A   1      40.862  23.994  25.442  1.00  0.00     0.163 HD
ATOM     37  O   UNL A   1      41.609  26.357  25.199  1.00  0.00    -0.269 OA
BRANCH  35  38
ATOM     38  C   UNL A   1      40.264  26.774  27.085  1.00  0.00     0.039 A 
ATOM     39  C   UNL A   1      40.061  26.279  28.373  1.00  0.00     0.014 A 
ATOM     40  C   UNL A   1      40.192  28.135  26.807  1.00  0.00     0.014 A 
ATOM     41  C   UNL A   1      39.907  27.194  29.411  1.00  0.00     0.010 A 
ATOM     42  C   UNL A   1      40.271  29.013  27.851  1.00  0.00     0.010 A 
ATOM     43  C   UNL A   1      40.065  28.567  29.150  1.00  0.00    -0.014 A 
BRANCH  43  44
ATOM     44  C   UNL A   1      40.166  29.549  30.227  1.00  0.00     0.031 A 
ATOM     45  C   UNL A   1      38.909  30.291  30.504  1.00  0.00     0.074 A 
ATOM     46  C   UNL A   1      41.235  29.644  31.052  1.00  0.00     0.049 A 
ATOM     47  N   UNL A   1      38.628  31.498  30.146  1.00  0.00    -0.248 NA
ATOM     48  C   UNL A   1      37.760  29.565  31.070  1.00  0.00     0.031 C 
ATOM     49  C   UNL A   1      42.433  28.795  31.104  1.00  0.00     0.029 A 
ATOM     50  N   UNL A   1      41.432  30.482  32.104  1.00  0.00    -0.354 N 
ATOM     51  C   UNL A   1      37.384  31.781  30.698  1.00  0.00     0.074 A 
ATOM     52  C   UNL A   1      36.810  30.504  31.021  1.00  0.00     0.031 C 
ATOM     53  C   UNL A   1      43.097  29.004  32.261  1.00  0.00     0.029 A 
ATOM     54  C   UNL A   1      42.495  30.136  32.937  1.00  0.00     0.049 A 
ATOM     55  H   UNL A   1      40.868  31.272  32.266  1.00  0.00     0.167 HD
ATOM     56  C   UNL A   1      37.075  33.051  31.091  1.00  0.00     0.034 A 
ATOM     57  C   UNL A   1      42.874  30.740  34.095  1.00  0.00     0.034 A 
ATOM     58  C   UNL A   1      38.035  33.996  30.551  1.00  0.00     0.049 A 
ATOM     59  C   UNL A   1      42.345  32.125  34.029  1.00  0.00     0.074 A 
ATOM     60  C   UNL A   1      38.472  34.311  29.277  1.00  0.00     0.029 A 
ATOM     61  N   UNL A   1      39.011  34.479  31.399  1.00  0.00    -0.354 N 
ATOM     62  N   UNL A   1      42.747  32.996  33.143  1.00  0.00    -0.248 NA
ATOM     63  C   UNL A   1      41.026  32.379  34.589  1.00  0.00     0.031 C 
ATOM     64  C   UNL A   1      39.886  34.469  29.406  1.00  0.00     0.029 A 
ATOM     65  C   UNL A   1      40.220  34.358  30.756  1.00  0.00     0.049 A 
ATOM     66  H   UNL A   1      38.867  34.846  32.301  1.00  0.00     0.167 HD
ATOM     67  C   UNL A   1      41.589  33.621  32.704  1.00  0.00     0.074 A 
ATOM     68  C   UNL A   1      40.576  33.273  33.702  1.00  0.00     0.031 C 
ATOM     69  C   UNL A   1      41.484  34.114  31.433  1.00  0.00     0.034 A 
BRANCH  56  70
ATOM     70  C   UNL A   1      36.182  33.412  32.263  1.00  0.00     0.023 A 
ATOM     71  C   UNL A   1      35.028  34.165  31.970  1.00  0.00     0.031 A 
ATOM     72  C   UNL A   1      36.522  33.331  33.632  1.00  0.00     0.131 A 
ATOM     73  C   UNL A   1      34.364  34.898  32.969  1.00  0.00     0.055 A 
ATOM     74  C   UNL A   1      35.816  34.006  34.633  1.00  0.00     0.041 A 
ATOM     75  F   UNL A   1      37.595  32.672  34.081  1.00  0.00    -0.206 F 
ATOM     76  C   UNL A   1      34.754  34.827  34.302  1.00  0.00     0.022 A 
BRANCH  73  77
ATOM     77  S   UNL A   1      33.110  36.096  32.454  1.00  0.00     0.124 S 
ATOM     78  O   UNL A   1      33.203  37.087  33.520  1.00  0.00    -0.237 OA
ATOM     79  O   UNL A   1      33.608  36.507  31.145  1.00  0.00    -0.237 OA
ATOM     80  O   UNL A   1      31.879  35.310  32.435  1.00  0.00    -0.744 OA
ENDBRANCH  73  77
ENDBRANCH  56  70
BRANCH  57  81
ATOM     81  C   UNL A   1      43.366  30.086  35.341  1.00  0.00     0.023 A 
ATOM     82  C   UNL A   1      42.916  28.820  35.777  1.00  0.00     0.031 A 
ATOM     83  C   UNL A   1      44.500  30.613  36.001  1.00  0.00     0.131 A 
ATOM     84  C   UNL A   1      43.598  28.138  36.817  1.00  0.00     0.055 A 
ATOM     85  C   UNL A   1      45.168  29.936  37.022  1.00  0.00     0.041 A 
ATOM     86  F   UNL A   1      45.054  31.773  35.613  1.00  0.00    -0.206 F 
ATOM     87  C   UNL A   1      44.727  28.688  37.428  1.00  0.00     0.022 A 
BRANCH  84  88
ATOM     88  S   UNL A   1      43.079  26.467  37.335  1.00  0.00     0.124 S 
ATOM     89  O   UNL A   1      43.558  25.638  36.235  1.00  0.00    -0.237 OA
ATOM     90  O   UNL A   1      43.761  26.309  38.614  1.00  0.00    -0.237 OA
ATOM     91  O   UNL A   1      41.621  26.577  37.430  1.00  0.00    -0.744 OA
ENDBRANCH  84  88
ENDBRANCH  57  81
BRANCH  69  92
ATOM     92  C   UNL A   1      42.748  34.246  30.598  1.00  0.00     0.023 A 
ATOM     93  C   UNL A   1      43.185  33.324  29.618  1.00  0.00     0.031 A 
ATOM     94  C   UNL A   1      43.482  35.438  30.738  1.00  0.00     0.131 A 
ATOM     95  C   UNL A   1      44.325  33.612  28.835  1.00  0.00     0.055 A 
ATOM     96  C   UNL A   1      44.592  35.730  29.946  1.00  0.00     0.041 A 
ATOM     97  F   UNL A   1      43.107  36.366  31.634  1.00  0.00    -0.206 F 
ATOM     98  C   UNL A   1      45.021  34.813  28.995  1.00  0.00     0.022 A 
BRANCH  95  99
ATOM     99  S   UNL A   1      44.946  32.414  27.606  1.00  0.00     0.124 S 
ATOM    100  O   UNL A   1      46.340  32.799  27.426  1.00  0.00    -0.237 OA
ATOM    101  O   UNL A   1      44.717  31.133  28.268  1.00  0.00    -0.237 OA
ATOM    102  O   UNL A   1      44.093  32.653  26.439  1.00  0.00    -0.744 OA
ENDBRANCH  95  99
ENDBRANCH  69  92
ENDBRANCH  43  44
ENDBRANCH  35  38
ENDBRANCH  33  34
ENDBRANCH  32  33
ENDBRANCH  31  32
ENDBRANCH   1  31
TORSDOF 19
ENDMDL
