MODEL 1
REMARK VINA RESULT:     -13.2      0.000      0.000
REMARK SMILES Cc1cc(C(=O)NCCCCCCNC(=O)c2ccc(-c3c4nc(c(-c5cc(S(=O)(=O)[O-])ccc5F)c5ccc([nH]5)c(-c5cc(S(=O)(=O)[O-])ccc5F)c5nc(c(-c6cc(S(=O)(=O)[O-])ccc6F)c6ccc3[nH]6)C=C5)C=C4)cc2)ccc1NS(=O)(=O)c1c(F)cccc1F
REMARK SMILES IDX 10 1 9 2 8 3 7 4 5 5 6 6 4 8 1 9 2 10 3 11 82 12 81 13 80 14
REMARK SMILES IDX 83 15 84 17 85 18 86 19 87 20 88 21 93 22 89 23 90 24 92 25
REMARK SMILES IDX 94 26 91 27 11 28 12 29 13 30 14 31 15 32 16 34 17 35 18 36
REMARK SMILES IDX 79 37 19 38 78 39 20 40 21 41 22 42 72 43 23 44 77 45 71 46
REMARK SMILES IDX 73 47 24 48 76 49 70 50 69 51 25 53 57 54 37 55 56 56 38 57
REMARK SMILES IDX 41 58 55 59 74 60 39 61 40 62 54 64 75 65 42 66 26 67 27 68
REMARK SMILES IDX 35 69 28 70 34 71 36 72 33 73 29 74 30 75 31 76 32 77 58 78
REMARK SMILES IDX 59 79 67 80 60 81 66 82 68 83 65 84 61 85 62 86 63 87 64 88
REMARK SMILES IDX 43 89 44 90 52 91 45 92 51 93 53 94 50 95 46 96 47 97 48 98
REMARK SMILES IDX 49 99
REMARK H PARENT 7 7 83 16 14 33 73 52 41 63
REMARK Flexibility Score: inf
ROOT
ATOM      1  C   UNL A   1      35.980  22.857  25.385  1.00  0.00     0.002 C 
ENDROOT
BRANCH   1   2
ATOM      2  C   UNL A   1      35.606  21.504  26.000  1.00  0.00     0.021 C 
BRANCH   2   3
ATOM      3  C   UNL A   1      35.442  20.320  25.047  1.00  0.00     0.116 C 
BRANCH   3   4
ATOM      4  N   UNL A   1      34.344  19.424  25.374  1.00  0.00    -0.352 N 
ATOM      5  C   UNL A   1      33.009  19.462  25.037  1.00  0.00     0.251 C 
ATOM      6  O   UNL A   1      32.260  18.570  25.432  1.00  0.00    -0.269 OA
ATOM      7  H   UNL A   1      34.600  18.655  25.934  1.00  0.00     0.163 HD
BRANCH   5   8
ATOM      8  C   UNL A   1      32.419  20.594  24.270  1.00  0.00     0.040 A 
ATOM      9  C   UNL A   1      31.066  24.034  25.141  1.00  0.00     0.046 C 
ATOM     10  C   UNL A   1      31.618  22.901  24.319  1.00  0.00    -0.026 A 
ATOM     11  C   UNL A   1      32.005  21.725  24.985  1.00  0.00     0.019 A 
ATOM     12  C   UNL A   1      31.741  22.954  22.922  1.00  0.00     0.052 A 
ATOM     13  C   UNL A   1      31.886  21.758  22.216  1.00  0.00     0.028 A 
ATOM     14  C   UNL A   1      32.228  20.578  22.889  1.00  0.00     0.016 A 
BRANCH  12  15
ATOM     15  N   UNL A   1      31.839  24.243  22.314  1.00  0.00    -0.279 N 
ATOM     16  H   UNL A   1      31.027  24.581  21.872  1.00  0.00     0.180 HD
BRANCH  15  17
ATOM     17  S   UNL A   1      33.181  25.241  22.270  1.00  0.00     0.267 S 
ATOM     18  O   UNL A   1      34.284  24.447  22.793  1.00  0.00    -0.201 OA
ATOM     19  O   UNL A   1      33.223  25.783  20.936  1.00  0.00    -0.201 OA
BRANCH  17  20
ATOM     20  C   UNL A   1      32.937  26.591  23.363  1.00  0.00     0.158 A 
ATOM     21  C   UNL A   1      32.009  27.559  22.996  1.00  0.00     0.146 A 
ATOM     22  C   UNL A   1      33.708  26.789  24.498  1.00  0.00     0.146 A 
ATOM     23  F   UNL A   1      31.184  27.373  21.957  1.00  0.00    -0.205 F 
ATOM     24  C   UNL A   1      31.906  28.755  23.704  1.00  0.00     0.041 A 
ATOM     25  C   UNL A   1      33.635  27.996  25.200  1.00  0.00     0.041 A 
ATOM     26  F   UNL A   1      34.562  25.856  24.939  1.00  0.00    -0.205 F 
ATOM     27  C   UNL A   1      32.744  28.989  24.793  1.00  0.00     0.006 A 
ENDBRANCH  17  20
ENDBRANCH  15  17
ENDBRANCH  12  15
ENDBRANCH   5   8
ENDBRANCH   3   4
ENDBRANCH   2   3
ENDBRANCH   1   2
BRANCH   1  28
ATOM     28  C   UNL A   1      37.390  23.402  25.660  1.00  0.00     0.002 C 
BRANCH  28  29
ATOM     29  C   UNL A   1      38.518  22.373  25.752  1.00  0.00     0.021 C 
BRANCH  29  30
ATOM     30  C   UNL A   1      39.526  22.628  26.870  1.00  0.00     0.116 C 
BRANCH  30  31
ATOM     31  N   UNL A   1      40.860  22.996  26.405  1.00  0.00    -0.352 N 
ATOM     32  C   UNL A   1      41.410  24.259  26.272  1.00  0.00     0.251 C 
ATOM     33  H   UNL A   1      41.447  22.247  26.151  1.00  0.00     0.163 HD
ATOM     34  O   UNL A   1      42.533  24.425  25.805  1.00  0.00    -0.269 OA
BRANCH  32  35
ATOM     35  C   UNL A   1      40.669  25.418  26.823  1.00  0.00     0.039 A 
ATOM     36  C   UNL A   1      40.775  26.636  26.141  1.00  0.00     0.014 A 
ATOM     37  C   UNL A   1      40.090  25.365  28.087  1.00  0.00     0.014 A 
ATOM     38  C   UNL A   1      40.525  27.824  26.823  1.00  0.00     0.010 A 
ATOM     39  C   UNL A   1      39.929  26.543  28.793  1.00  0.00     0.010 A 
ATOM     40  C   UNL A   1      40.210  27.770  28.181  1.00  0.00    -0.014 A 
BRANCH  40  41
ATOM     41  C   UNL A   1      40.285  28.931  29.063  1.00  0.00     0.031 A 
ATOM     42  C   UNL A   1      39.193  29.923  29.104  1.00  0.00     0.074 A 
ATOM     43  C   UNL A   1      41.353  29.085  29.877  1.00  0.00     0.049 A 
ATOM     44  N   UNL A   1      39.333  31.140  29.510  1.00  0.00    -0.248 NA
ATOM     45  C   UNL A   1      37.844  29.621  28.643  1.00  0.00     0.031 C 
ATOM     46  C   UNL A   1      41.508  30.037  30.973  1.00  0.00     0.029 A 
ATOM     47  N   UNL A   1      42.634  28.577  29.674  1.00  0.00    -0.354 N 
ATOM     48  C   UNL A   1      38.083  31.703  29.602  1.00  0.00     0.074 A 
ATOM     49  C   UNL A   1      37.193  30.729  29.011  1.00  0.00     0.031 C 
ATOM     50  C   UNL A   1      42.817  30.261  31.165  1.00  0.00     0.029 A 
ATOM     51  C   UNL A   1      43.537  29.564  30.115  1.00  0.00     0.049 A 
ATOM     52  H   UNL A   1      42.863  27.697  29.296  1.00  0.00     0.167 HD
ATOM     53  C   UNL A   1      37.920  32.884  30.261  1.00  0.00     0.034 A 
ATOM     54  C   UNL A   1      44.424  30.128  29.243  1.00  0.00     0.034 A 
ATOM     55  C   UNL A   1      39.192  33.442  30.715  1.00  0.00     0.049 A 
ATOM     56  C   UNL A   1      44.243  31.621  29.054  1.00  0.00     0.074 A 
ATOM     57  C   UNL A   1      39.876  33.450  31.919  1.00  0.00     0.029 A 
ATOM     58  N   UNL A   1      40.086  33.900  29.765  1.00  0.00    -0.354 N 
ATOM     59  N   UNL A   1      43.298  32.329  29.610  1.00  0.00    -0.248 NA
ATOM     60  C   UNL A   1      45.068  32.415  28.141  1.00  0.00     0.031 C 
ATOM     61  C   UNL A   1      41.213  33.878  31.664  1.00  0.00     0.029 A 
ATOM     62  C   UNL A   1      41.329  34.152  30.313  1.00  0.00     0.049 A 
ATOM     63  H   UNL A   1      39.864  34.031  28.814  1.00  0.00     0.167 HD
ATOM     64  C   UNL A   1      43.331  33.605  29.107  1.00  0.00     0.074 A 
ATOM     65  C   UNL A   1      44.459  33.612  28.194  1.00  0.00     0.031 C 
ATOM     66  C   UNL A   1      42.410  34.558  29.431  1.00  0.00     0.034 A 
BRANCH  53  67
ATOM     67  C   UNL A   1      36.580  33.422  30.698  1.00  0.00     0.023 A 
ATOM     68  C   UNL A   1      35.732  34.008  29.737  1.00  0.00     0.031 A 
ATOM     69  C   UNL A   1      36.094  33.419  32.018  1.00  0.00     0.131 A 
ATOM     70  C   UNL A   1      34.533  34.640  30.108  1.00  0.00     0.055 A 
ATOM     71  C   UNL A   1      34.934  34.107  32.401  1.00  0.00     0.041 A 
ATOM     72  F   UNL A   1      36.692  32.708  32.985  1.00  0.00    -0.206 F 
ATOM     73  C   UNL A   1      34.151  34.735  31.444  1.00  0.00     0.022 A 
BRANCH  70  74
ATOM     74  S   UNL A   1      33.465  35.328  28.814  1.00  0.00     0.124 S 
ATOM     75  O   UNL A   1      32.536  36.150  29.582  1.00  0.00    -0.237 OA
ATOM     76  O   UNL A   1      34.423  36.044  27.978  1.00  0.00    -0.237 OA
ATOM     77  O   UNL A   1      32.874  34.142  28.197  1.00  0.00    -0.744 OA
ENDBRANCH  70  74
ENDBRANCH  53  67
BRANCH  54  78
ATOM     78  C   UNL A   1      44.891  29.164  28.199  1.00  0.00     0.023 A 
ATOM     79  C   UNL A   1      45.829  28.191  28.607  1.00  0.00     0.031 A 
ATOM     80  C   UNL A   1      44.177  28.929  27.018  1.00  0.00     0.131 A 
ATOM     81  C   UNL A   1      45.881  26.948  27.963  1.00  0.00     0.055 A 
ATOM     82  C   UNL A   1      44.309  27.724  26.317  1.00  0.00     0.041 A 
ATOM     83  F   UNL A   1      43.246  29.796  26.592  1.00  0.00    -0.206 F 
ATOM     84  C   UNL A   1      45.123  26.707  26.817  1.00  0.00     0.022 A 
BRANCH  81  85
ATOM     85  S   UNL A   1      46.686  25.564  28.827  1.00  0.00     0.124 S 
ATOM     86  O   UNL A   1      46.641  26.001  30.217  1.00  0.00    -0.237 OA
ATOM     87  O   UNL A   1      45.827  24.430  28.486  1.00  0.00    -0.237 OA
ATOM     88  O   UNL A   1      48.016  25.508  28.224  1.00  0.00    -0.744 OA
ENDBRANCH  81  85
ENDBRANCH  54  78
BRANCH  66  89
ATOM     89  C   UNL A   1      42.471  35.958  28.888  1.00  0.00     0.023 A 
ATOM     90  C   UNL A   1      42.991  37.016  29.649  1.00  0.00     0.031 A 
ATOM     91  C   UNL A   1      41.952  36.291  27.618  1.00  0.00     0.131 A 
ATOM     92  C   UNL A   1      43.061  38.314  29.118  1.00  0.00     0.055 A 
ATOM     93  C   UNL A   1      41.939  37.599  27.130  1.00  0.00     0.041 A 
ATOM     94  F   UNL A   1      41.482  35.352  26.783  1.00  0.00    -0.206 F 
ATOM     95  C   UNL A   1      42.511  38.621  27.874  1.00  0.00     0.022 A 
BRANCH  92  96
ATOM     96  S   UNL A   1      43.977  39.574  30.042  1.00  0.00     0.124 S 
ATOM     97  O   UNL A   1      43.255  40.799  29.712  1.00  0.00    -0.237 OA
ATOM     98  O   UNL A   1      43.826  39.099  31.415  1.00  0.00    -0.237 OA
ATOM     99  O   UNL A   1      45.330  39.484  29.501  1.00  0.00    -0.744 OA
ENDBRANCH  92  96
ENDBRANCH  66  89
ENDBRANCH  40  41
ENDBRANCH  32  35
ENDBRANCH  30  31
ENDBRANCH  29  30
ENDBRANCH  28  29
ENDBRANCH   1  28
TORSDOF 19
ENDMDL
MODEL 2
REMARK VINA RESULT:     -12.8      4.051     10.263
REMARK SMILES Cc1cc(C(=O)NCCCCCCNC(=O)c2ccc(-c3c4nc(c(-c5cc(S(=O)(=O)[O-])ccc5F)c5ccc([nH]5)c(-c5cc(S(=O)(=O)[O-])ccc5F)c5nc(c(-c6cc(S(=O)(=O)[O-])ccc6F)c6ccc3[nH]6)C=C5)C=C4)cc2)ccc1NS(=O)(=O)c1c(F)cccc1F
REMARK SMILES IDX 10 1 9 2 8 3 7 4 5 5 6 6 4 8 1 9 2 10 3 11 82 12 81 13 80 14
REMARK SMILES IDX 83 15 84 17 85 18 86 19 87 20 88 21 93 22 89 23 90 24 92 25
REMARK SMILES IDX 94 26 91 27 11 28 12 29 13 30 14 31 15 32 16 34 17 35 18 36
REMARK SMILES IDX 79 37 19 38 78 39 20 40 21 41 22 42 72 43 23 44 77 45 71 46
REMARK SMILES IDX 73 47 24 48 76 49 70 50 69 51 25 53 57 54 37 55 56 56 38 57
REMARK SMILES IDX 41 58 55 59 74 60 39 61 40 62 54 64 75 65 42 66 26 67 27 68
REMARK SMILES IDX 35 69 28 70 34 71 36 72 33 73 29 74 30 75 31 76 32 77 58 78
REMARK SMILES IDX 59 79 67 80 60 81 66 82 68 83 65 84 61 85 62 86 63 87 64 88
REMARK SMILES IDX 43 89 44 90 52 91 45 92 51 93 53 94 50 95 46 96 47 97 48 98
REMARK SMILES IDX 49 99
REMARK H PARENT 7 7 83 16 14 33 73 52 41 63
REMARK Flexibility Score: inf
ROOT
ATOM      1  C   UNL A   1      33.283  28.587  25.189  1.00  0.00     0.002 C 
ENDROOT
BRANCH   1   2
ATOM      2  C   UNL A   1      33.500  27.557  24.075  1.00  0.00     0.021 C 
BRANCH   2   3
ATOM      3  C   UNL A   1      32.534  27.588  22.891  1.00  0.00     0.116 C 
BRANCH   3   4
ATOM      4  N   UNL A   1      32.937  26.773  21.756  1.00  0.00    -0.352 N 
ATOM      5  C   UNL A   1      32.803  25.424  21.514  1.00  0.00     0.251 C 
ATOM      6  O   UNL A   1      33.222  24.954  20.457  1.00  0.00    -0.269 OA
ATOM      7  H   UNL A   1      33.383  27.273  21.035  1.00  0.00     0.163 HD
BRANCH   5   8
ATOM      8  C   UNL A   1      32.233  24.491  22.525  1.00  0.00     0.040 A 
ATOM      9  C   UNL A   1      32.428  20.751  23.163  1.00  0.00     0.046 C 
ATOM     10  C   UNL A   1      32.192  22.217  23.415  1.00  0.00    -0.026 A 
ATOM     11  C   UNL A   1      32.531  23.128  22.400  1.00  0.00     0.019 A 
ATOM     12  C   UNL A   1      31.630  22.711  24.602  1.00  0.00     0.052 A 
ATOM     13  C   UNL A   1      31.094  24.001  24.604  1.00  0.00     0.028 A 
ATOM     14  C   UNL A   1      31.398  24.892  23.567  1.00  0.00     0.016 A 
BRANCH  12  15
ATOM     15  N   UNL A   1      31.752  21.909  25.778  1.00  0.00    -0.279 N 
ATOM     16  H   UNL A   1      30.919  21.526  26.136  1.00  0.00     0.180 HD
BRANCH  15  17
ATOM     17  S   UNL A   1      33.156  21.547  26.614  1.00  0.00     0.267 S 
ATOM     18  O   UNL A   1      33.017  22.184  27.916  1.00  0.00    -0.201 OA
ATOM     19  O   UNL A   1      33.324  20.121  26.498  1.00  0.00    -0.201 OA
BRANCH  17  20
ATOM     20  C   UNL A   1      34.522  22.291  25.805  1.00  0.00     0.158 A 
ATOM     21  C   UNL A   1      34.588  23.680  25.792  1.00  0.00     0.146 A 
ATOM     22  C   UNL A   1      35.457  21.563  25.085  1.00  0.00     0.146 A 
ATOM     23  F   UNL A   1      33.759  24.421  26.539  1.00  0.00    -0.205 F 
ATOM     24  C   UNL A   1      35.524  24.343  25.003  1.00  0.00     0.041 A 
ATOM     25  C   UNL A   1      36.383  22.216  24.267  1.00  0.00     0.041 A 
ATOM     26  F   UNL A   1      35.487  20.225  25.123  1.00  0.00    -0.205 F 
ATOM     27  C   UNL A   1      36.407  23.610  24.211  1.00  0.00     0.006 A 
ENDBRANCH  17  20
ENDBRANCH  15  17
ENDBRANCH  12  15
ENDBRANCH   5   8
ENDBRANCH   3   4
ENDBRANCH   2   3
ENDBRANCH   1   2
BRANCH   1  28
ATOM     28  C   UNL A   1      33.678  28.188  26.619  1.00  0.00     0.002 C 
BRANCH  28  29
ATOM     29  C   UNL A   1      33.626  29.290  27.679  1.00  0.00     0.021 C 
BRANCH  29  30
ATOM     30  C   UNL A   1      34.441  30.537  27.345  1.00  0.00     0.116 C 
BRANCH  30  31
ATOM     31  N   UNL A   1      34.896  31.289  28.510  1.00  0.00    -0.352 N 
ATOM     32  C   UNL A   1      35.916  30.979  29.394  1.00  0.00     0.251 C 
ATOM     33  H   UNL A   1      34.414  32.128  28.693  1.00  0.00     0.163 HD
ATOM     34  O   UNL A   1      36.150  31.677  30.375  1.00  0.00    -0.269 OA
BRANCH  32  35
ATOM     35  C   UNL A   1      36.815  29.847  29.070  1.00  0.00     0.039 A 
ATOM     36  C   UNL A   1      37.074  28.917  30.084  1.00  0.00     0.014 A 
ATOM     37  C   UNL A   1      37.560  29.834  27.895  1.00  0.00     0.014 A 
ATOM     38  C   UNL A   1      38.228  28.141  30.021  1.00  0.00     0.010 A 
ATOM     39  C   UNL A   1      38.751  29.133  27.871  1.00  0.00     0.010 A 
ATOM     40  C   UNL A   1      39.117  28.338  28.963  1.00  0.00    -0.014 A 
BRANCH  40  41
ATOM     41  C   UNL A   1      40.496  27.860  28.983  1.00  0.00     0.031 A 
ATOM     42  C   UNL A   1      40.835  26.502  28.512  1.00  0.00     0.074 A 
ATOM     43  C   UNL A   1      41.483  28.680  29.406  1.00  0.00     0.049 A 
ATOM     44  N   UNL A   1      41.899  25.858  28.858  1.00  0.00    -0.248 NA
ATOM     45  C   UNL A   1      39.961  25.740  27.631  1.00  0.00     0.031 C 
ATOM     46  C   UNL A   1      42.924  28.475  29.292  1.00  0.00     0.029 A 
ATOM     47  N   UNL A   1      41.353  29.750  30.289  1.00  0.00    -0.354 N 
ATOM     48  C   UNL A   1      41.983  24.729  28.079  1.00  0.00     0.074 A 
ATOM     49  C   UNL A   1      40.730  24.680  27.360  1.00  0.00     0.031 C 
ATOM     50  C   UNL A   1      43.536  29.176  30.259  1.00  0.00     0.029 A 
ATOM     51  C   UNL A   1      42.502  29.746  31.104  1.00  0.00     0.049 A 
ATOM     52  H   UNL A   1      40.603  30.387  30.333  1.00  0.00     0.167 HD
ATOM     53  C   UNL A   1      43.143  24.016  28.047  1.00  0.00     0.034 A 
ATOM     54  C   UNL A   1      42.390  29.578  32.455  1.00  0.00     0.034 A 
ATOM     55  C   UNL A   1      44.142  24.546  28.972  1.00  0.00     0.049 A 
ATOM     56  C   UNL A   1      43.079  28.335  32.984  1.00  0.00     0.074 A 
ATOM     57  C   UNL A   1      45.245  25.374  28.841  1.00  0.00     0.029 A 
ATOM     58  N   UNL A   1      43.910  24.432  30.330  1.00  0.00    -0.354 N 
ATOM     59  N   UNL A   1      43.682  27.449  32.240  1.00  0.00    -0.248 NA
ATOM     60  C   UNL A   1      43.055  27.951  34.396  1.00  0.00     0.031 C 
ATOM     61  C   UNL A   1      45.640  25.790  30.147  1.00  0.00     0.029 A 
ATOM     62  C   UNL A   1      44.795  25.195  31.066  1.00  0.00     0.049 A 
ATOM     63  H   UNL A   1      43.201  23.873  30.724  1.00  0.00     0.167 HD
ATOM     64  C   UNL A   1      44.056  26.383  33.017  1.00  0.00     0.074 A 
ATOM     65  C   UNL A   1      43.645  26.744  34.361  1.00  0.00     0.031 C 
ATOM     66  C   UNL A   1      44.631  25.255  32.508  1.00  0.00     0.034 A 
BRANCH  53  67
ATOM     67  C   UNL A   1      43.454  22.970  27.006  1.00  0.00     0.023 A 
ATOM     68  C   UNL A   1      42.810  21.718  27.079  1.00  0.00     0.031 A 
ATOM     69  C   UNL A   1      44.375  23.120  25.952  1.00  0.00     0.131 A 
ATOM     70  C   UNL A   1      43.158  20.665  26.215  1.00  0.00     0.055 A 
ATOM     71  C   UNL A   1      44.773  22.054  25.135  1.00  0.00     0.041 A 
ATOM     72  F   UNL A   1      44.891  24.317  25.637  1.00  0.00    -0.206 F 
ATOM     73  C   UNL A   1      44.172  20.811  25.272  1.00  0.00     0.022 A 
BRANCH  70  74
ATOM     74  S   UNL A   1      42.253  19.099  26.332  1.00  0.00     0.124 S 
ATOM     75  O   UNL A   1      42.285  18.827  27.765  1.00  0.00    -0.237 OA
ATOM     76  O   UNL A   1      40.955  19.453  25.769  1.00  0.00    -0.237 OA
ATOM     77  O   UNL A   1      43.051  18.185  25.514  1.00  0.00    -0.744 OA
ENDBRANCH  70  74
ENDBRANCH  53  67
BRANCH  54  78
ATOM     78  C   UNL A   1      41.140  30.188  33.005  1.00  0.00     0.023 A 
ATOM     79  C   UNL A   1      41.104  31.597  33.089  1.00  0.00     0.031 A 
ATOM     80  C   UNL A   1      39.923  29.498  33.049  1.00  0.00     0.131 A 
ATOM     81  C   UNL A   1      39.882  32.276  33.003  1.00  0.00     0.055 A 
ATOM     82  C   UNL A   1      38.701  30.183  33.068  1.00  0.00     0.041 A 
ATOM     83  F   UNL A   1      39.883  28.162  32.938  1.00  0.00    -0.206 F 
ATOM     84  C   UNL A   1      38.675  31.576  32.992  1.00  0.00     0.022 A 
BRANCH  81  85
ATOM     85  S   UNL A   1      39.909  34.045  32.575  1.00  0.00     0.124 S 
ATOM     86  O   UNL A   1      41.109  34.509  33.262  1.00  0.00    -0.237 OA
ATOM     87  O   UNL A   1      39.978  34.020  31.115  1.00  0.00    -0.237 OA
ATOM     88  O   UNL A   1      38.643  34.547  33.104  1.00  0.00    -0.744 OA
ENDBRANCH  81  85
ENDBRANCH  54  78
BRANCH  66  89
ATOM     89  C   UNL A   1      45.054  24.102  33.375  1.00  0.00     0.023 A 
ATOM     90  C   UNL A   1      46.370  23.989  33.852  1.00  0.00     0.031 A 
ATOM     91  C   UNL A   1      44.174  23.047  33.699  1.00  0.00     0.131 A 
ATOM     92  C   UNL A   1      46.743  22.917  34.678  1.00  0.00     0.055 A 
ATOM     93  C   UNL A   1      44.573  21.936  34.445  1.00  0.00     0.041 A 
ATOM     94  F   UNL A   1      42.880  23.078  33.345  1.00  0.00    -0.206 F 
ATOM     95  C   UNL A   1      45.862  21.873  34.955  1.00  0.00     0.022 A 
BRANCH  92  96
ATOM     96  S   UNL A   1      48.371  22.966  35.470  1.00  0.00     0.124 S 
ATOM     97  O   UNL A   1      48.593  21.570  35.828  1.00  0.00    -0.237 OA
ATOM     98  O   UNL A   1      49.207  23.486  34.390  1.00  0.00    -0.237 OA
ATOM     99  O   UNL A   1      48.180  23.876  36.597  1.00  0.00    -0.744 OA
ENDBRANCH  92  96
ENDBRANCH  66  89
ENDBRANCH  40  41
ENDBRANCH  32  35
ENDBRANCH  30  31
ENDBRANCH  29  30
ENDBRANCH  28  29
ENDBRANCH   1  28
TORSDOF 19
ENDMDL
MODEL 3
REMARK VINA RESULT:     -12.6      2.115      2.645
REMARK SMILES Cc1cc(C(=O)NCCCCCCNC(=O)c2ccc(-c3c4nc(c(-c5cc(S(=O)(=O)[O-])ccc5F)c5ccc([nH]5)c(-c5cc(S(=O)(=O)[O-])ccc5F)c5nc(c(-c6cc(S(=O)(=O)[O-])ccc6F)c6ccc3[nH]6)C=C5)C=C4)cc2)ccc1NS(=O)(=O)c1c(F)cccc1F
REMARK SMILES IDX 10 1 9 2 8 3 7 4 5 5 6 6 4 8 1 9 2 10 3 11 82 12 81 13 80 14
REMARK SMILES IDX 83 15 84 17 85 18 86 19 87 20 88 21 93 22 89 23 90 24 92 25
REMARK SMILES IDX 94 26 91 27 11 28 12 29 13 30 14 31 15 32 16 34 17 35 18 36
REMARK SMILES IDX 79 37 19 38 78 39 20 40 21 41 22 42 72 43 23 44 77 45 71 46
REMARK SMILES IDX 73 47 24 48 76 49 70 50 69 51 25 53 57 54 37 55 56 56 38 57
REMARK SMILES IDX 41 58 55 59 74 60 39 61 40 62 54 64 75 65 42 66 26 67 27 68
REMARK SMILES IDX 35 69 28 70 34 71 36 72 33 73 29 74 30 75 31 76 32 77 58 78
REMARK SMILES IDX 59 79 67 80 60 81 66 82 68 83 65 84 61 85 62 86 63 87 64 88
REMARK SMILES IDX 43 89 44 90 52 91 45 92 51 93 53 94 50 95 46 96 47 97 48 98
REMARK SMILES IDX 49 99
REMARK H PARENT 7 7 83 16 14 33 73 52 41 63
REMARK Flexibility Score: inf
ROOT
ATOM      1  C   UNL A   1      36.237  22.624  25.169  1.00  0.00     0.002 C 
ENDROOT
BRANCH   1   2
ATOM      2  C   UNL A   1      35.558  21.413  25.820  1.00  0.00     0.021 C 
BRANCH   2   3
ATOM      3  C   UNL A   1      35.442  20.139  24.985  1.00  0.00     0.116 C 
BRANCH   3   4
ATOM      4  N   UNL A   1      34.319  19.284  25.333  1.00  0.00    -0.352 N 
ATOM      5  C   UNL A   1      32.980  19.370  25.021  1.00  0.00     0.251 C 
ATOM      6  O   UNL A   1      32.206  18.507  25.430  1.00  0.00    -0.269 OA
ATOM      7  H   UNL A   1      34.556  18.507  25.889  1.00  0.00     0.163 HD
BRANCH   5   8
ATOM      8  C   UNL A   1      32.417  20.522  24.262  1.00  0.00     0.040 A 
ATOM      9  C   UNL A   1      31.014  23.932  25.175  1.00  0.00     0.046 C 
ATOM     10  C   UNL A   1      31.605  22.824  24.345  1.00  0.00    -0.026 A 
ATOM     11  C   UNL A   1      31.969  21.630  24.992  1.00  0.00     0.019 A 
ATOM     12  C   UNL A   1      31.787  22.918  22.957  1.00  0.00     0.052 A 
ATOM     13  C   UNL A   1      31.966  21.744  22.222  1.00  0.00     0.028 A 
ATOM     14  C   UNL A   1      32.284  20.546  22.875  1.00  0.00     0.016 A 
BRANCH  12  15
ATOM     15  N   UNL A   1      31.904  24.225  22.390  1.00  0.00    -0.279 N 
ATOM     16  H   UNL A   1      31.106  24.578  21.934  1.00  0.00     0.180 HD
BRANCH  15  17
ATOM     17  S   UNL A   1      33.248  25.221  22.417  1.00  0.00     0.267 S 
ATOM     18  O   UNL A   1      34.361  24.376  22.826  1.00  0.00    -0.201 OA
ATOM     19  O   UNL A   1      33.258  25.899  21.146  1.00  0.00    -0.201 OA
BRANCH  17  20
ATOM     20  C   UNL A   1      33.036  26.450  23.650  1.00  0.00     0.158 A 
ATOM     21  C   UNL A   1      33.811  26.351  24.800  1.00  0.00     0.146 A 
ATOM     22  C   UNL A   1      32.056  27.427  23.577  1.00  0.00     0.146 A 
ATOM     23  F   UNL A   1      34.825  25.478  24.882  1.00  0.00    -0.205 F 
ATOM     24  C   UNL A   1      33.559  27.164  25.903  1.00  0.00     0.041 A 
ATOM     25  C   UNL A   1      31.774  28.230  24.687  1.00  0.00     0.041 A 
ATOM     26  F   UNL A   1      31.333  27.616  22.466  1.00  0.00    -0.205 F 
ATOM     27  C   UNL A   1      32.516  28.087  25.860  1.00  0.00     0.006 A 
ENDBRANCH  17  20
ENDBRANCH  15  17
ENDBRANCH  12  15
ENDBRANCH   5   8
ENDBRANCH   3   4
ENDBRANCH   2   3
ENDBRANCH   1   2
BRANCH   1  28
ATOM     28  C   UNL A   1      37.648  22.997  25.651  1.00  0.00     0.002 C 
BRANCH  28  29
ATOM     29  C   UNL A   1      38.692  21.880  25.648  1.00  0.00     0.021 C 
BRANCH  29  30
ATOM     30  C   UNL A   1      39.737  21.978  26.757  1.00  0.00     0.116 C 
BRANCH  30  31
ATOM     31  N   UNL A   1      41.062  22.388  26.302  1.00  0.00    -0.352 N 
ATOM     32  C   UNL A   1      41.563  23.668  26.144  1.00  0.00     0.251 C 
ATOM     33  H   UNL A   1      41.682  21.657  26.077  1.00  0.00     0.163 HD
ATOM     34  O   UNL A   1      42.686  23.867  25.689  1.00  0.00    -0.269 OA
BRANCH  32  35
ATOM     35  C   UNL A   1      40.768  24.810  26.653  1.00  0.00     0.039 A 
ATOM     36  C   UNL A   1      41.037  26.074  26.116  1.00  0.00     0.014 A 
ATOM     37  C   UNL A   1      39.962  24.678  27.780  1.00  0.00     0.014 A 
ATOM     38  C   UNL A   1      40.699  27.212  26.846  1.00  0.00     0.010 A 
ATOM     39  C   UNL A   1      39.708  25.799  28.549  1.00  0.00     0.010 A 
ATOM     40  C   UNL A   1      40.136  27.058  28.112  1.00  0.00    -0.014 A 
BRANCH  40  41
ATOM     41  C   UNL A   1      40.080  28.136  29.095  1.00  0.00     0.031 A 
ATOM     42  C   UNL A   1      39.165  29.281  28.915  1.00  0.00     0.074 A 
ATOM     43  C   UNL A   1      40.852  28.073  30.203  1.00  0.00     0.049 A 
ATOM     44  N   UNL A   1      39.325  30.434  29.472  1.00  0.00    -0.248 NA
ATOM     45  C   UNL A   1      37.999  29.219  28.043  1.00  0.00     0.031 C 
ATOM     46  C   UNL A   1      40.779  28.919  31.390  1.00  0.00     0.029 A 
ATOM     47  N   UNL A   1      42.057  27.387  30.338  1.00  0.00    -0.354 N 
ATOM     48  C   UNL A   1      38.191  31.175  29.246  1.00  0.00     0.074 A 
ATOM     49  C   UNL A   1      37.412  30.388  28.316  1.00  0.00     0.031 C 
ATOM     50  C   UNL A   1      41.981  28.927  31.987  1.00  0.00     0.029 A 
ATOM     51  C   UNL A   1      42.896  28.194  31.131  1.00  0.00     0.049 A 
ATOM     52  H   UNL A   1      42.279  26.508  29.954  1.00  0.00     0.167 HD
ATOM     53  C   UNL A   1      37.983  32.324  29.949  1.00  0.00     0.034 A 
ATOM     54  C   UNL A   1      44.075  28.668  30.629  1.00  0.00     0.034 A 
ATOM     55  C   UNL A   1      39.111  32.650  30.818  1.00  0.00     0.049 A 
ATOM     56  C   UNL A   1      44.154  30.181  30.555  1.00  0.00     0.074 A 
ATOM     57  C   UNL A   1      39.383  32.477  32.165  1.00  0.00     0.029 A 
ATOM     58  N   UNL A   1      40.307  33.023  30.233  1.00  0.00    -0.354 N 
ATOM     59  N   UNL A   1      43.181  30.990  30.876  1.00  0.00    -0.248 NA
ATOM     60  C   UNL A   1      45.315  30.894  30.021  1.00  0.00     0.031 C 
ATOM     61  C   UNL A   1      40.776  32.709  32.367  1.00  0.00     0.029 A 
ATOM     62  C   UNL A   1      41.339  33.046  31.150  1.00  0.00     0.049 A 
ATOM     63  H   UNL A   1      40.410  33.246  29.279  1.00  0.00     0.167 HD
ATOM     64  C   UNL A   1      43.531  32.273  30.546  1.00  0.00     0.074 A 
ATOM     65  C   UNL A   1      44.878  32.164  30.017  1.00  0.00     0.031 C 
ATOM     66  C   UNL A   1      42.683  33.335  30.680  1.00  0.00     0.034 A 
BRANCH  53  67
ATOM     67  C   UNL A   1      36.654  33.033  30.020  1.00  0.00     0.023 A 
ATOM     68  C   UNL A   1      36.074  33.276  31.282  1.00  0.00     0.031 A 
ATOM     69  C   UNL A   1      35.902  33.465  28.912  1.00  0.00     0.131 A 
ATOM     70  C   UNL A   1      34.782  33.814  31.401  1.00  0.00     0.055 A 
ATOM     71  C   UNL A   1      34.588  33.937  29.025  1.00  0.00     0.041 A 
ATOM     72  F   UNL A   1      36.425  33.494  27.677  1.00  0.00    -0.206 F 
ATOM     73  C   UNL A   1      34.014  34.103  30.276  1.00  0.00     0.022 A 
BRANCH  70  74
ATOM     74  S   UNL A   1      34.118  34.147  33.055  1.00  0.00     0.124 S 
ATOM     75  O   UNL A   1      35.300  34.002  33.899  1.00  0.00    -0.237 OA
ATOM     76  O   UNL A   1      33.592  35.500  32.907  1.00  0.00    -0.237 OA
ATOM     77  O   UNL A   1      33.105  33.107  33.230  1.00  0.00    -0.744 OA
ENDBRANCH  70  74
ENDBRANCH  53  67
BRANCH  54  78
ATOM     78  C   UNL A   1      44.716  27.711  29.675  1.00  0.00     0.023 A 
ATOM     79  C   UNL A   1      44.400  27.868  28.308  1.00  0.00     0.031 A 
ATOM     80  C   UNL A   1      45.864  26.980  30.001  1.00  0.00     0.131 A 
ATOM     81  C   UNL A   1      45.320  27.486  27.323  1.00  0.00     0.055 A 
ATOM     82  C   UNL A   1      46.731  26.508  29.007  1.00  0.00     0.041 A 
ATOM     83  F   UNL A   1      46.242  26.823  31.278  1.00  0.00    -0.206 F 
ATOM     84  C   UNL A   1      46.489  26.806  27.665  1.00  0.00     0.022 A 
BRANCH  81  85
ATOM     85  S   UNL A   1      45.128  28.179  25.652  1.00  0.00     0.124 S 
ATOM     86  O   UNL A   1      43.725  28.575  25.642  1.00  0.00    -0.237 OA
ATOM     87  O   UNL A   1      46.100  29.272  25.644  1.00  0.00    -0.237 OA
ATOM     88  O   UNL A   1      45.477  27.064  24.774  1.00  0.00    -0.744 OA
ENDBRANCH  81  85
ENDBRANCH  54  78
BRANCH  66  89
ATOM     89  C   UNL A   1      43.088  34.740  30.332  1.00  0.00     0.023 A 
ATOM     90  C   UNL A   1      43.066  35.202  29.007  1.00  0.00     0.031 A 
ATOM     91  C   UNL A   1      43.569  35.642  31.306  1.00  0.00     0.131 A 
ATOM     92  C   UNL A   1      43.427  36.524  28.703  1.00  0.00     0.055 A 
ATOM     93  C   UNL A   1      44.014  36.927  30.986  1.00  0.00     0.041 A 
ATOM     94  F   UNL A   1      43.581  35.328  32.610  1.00  0.00    -0.206 F 
ATOM     95  C   UNL A   1      43.930  37.382  29.679  1.00  0.00     0.022 A 
BRANCH  92  96
ATOM     96  S   UNL A   1      43.130  37.133  27.024  1.00  0.00     0.124 S 
ATOM     97  O   UNL A   1      42.889  35.904  26.276  1.00  0.00    -0.237 OA
ATOM     98  O   UNL A   1      41.965  37.992  27.225  1.00  0.00    -0.237 OA
ATOM     99  O   UNL A   1      44.365  37.836  26.687  1.00  0.00    -0.744 OA
ENDBRANCH  92  96
ENDBRANCH  66  89
ENDBRANCH  40  41
ENDBRANCH  32  35
ENDBRANCH  30  31
ENDBRANCH  29  30
ENDBRANCH  28  29
ENDBRANCH   1  28
TORSDOF 19
ENDMDL
