MODEL 1
REMARK VINA RESULT:     -12.7      0.000      0.000
REMARK SMILES C[C@@H]1C(C(=O)NCCCCCCNC(=O)c2ccc(-c3c4nc(c(-c5cc(S(=O)(=O)[O-])ccc5F)c5ccc([nH]5)c(-c5cc(S(=O)(=O)[O-])ccc5F)c5nc(c(-c6cc(S(=O)(=O)[O-])ccc6F)c6ccc3[nH]6)C=C5)C=C4)cc2)=NC2=C1C(=O)C[C@H](c1ccccc1)C2
REMARK SMILES IDX 10 1 9 2 8 3 7 4 6 5 4 6 5 7 3 9 1 10 2 11 81 12 79 13 80 14
REMARK SMILES IDX 82 15 92 16 83 17 84 18 85 19 86 20 87 21 91 22 88 23 90 24
REMARK SMILES IDX 89 25 11 26 12 27 13 28 14 29 15 31 16 32 17 33 78 34 18 35
REMARK SMILES IDX 77 36 19 37 20 38 21 39 71 40 22 41 76 42 70 43 72 44 23 45
REMARK SMILES IDX 75 46 69 47 68 48 24 50 56 51 36 52 55 53 37 54 40 55 54 56
REMARK SMILES IDX 73 57 38 58 39 59 53 61 74 62 41 63 25 64 26 65 34 66 27 67
REMARK SMILES IDX 33 68 35 69 32 70 28 71 29 72 30 73 31 74 57 75 58 76 66 77
REMARK SMILES IDX 59 78 65 79 67 80 64 81 60 82 61 83 62 84 63 85 42 86 43 87
REMARK SMILES IDX 51 88 44 89 50 90 52 91 49 92 45 93 46 94 47 95 48 96
REMARK H PARENT 6 8 13 30 72 49 40 60
REMARK Flexibility Score: inf
ROOT
ATOM      1  C   UNL A   1      31.902  29.530  26.126  1.00  0.00     0.002 C 
ENDROOT
BRANCH   1   2
ATOM      2  C   UNL A   1      33.254  28.926  26.516  1.00  0.00     0.002 C 
BRANCH   2   3
ATOM      3  C   UNL A   1      33.491  27.429  26.324  1.00  0.00     0.021 C 
BRANCH   3   4
ATOM      4  C   UNL A   1      32.988  26.723  25.067  1.00  0.00     0.116 C 
BRANCH   4   5
ATOM      5  N   UNL A   1      33.952  26.086  24.192  1.00  0.00    -0.351 N 
ATOM      6  C   UNL A   1      33.803  24.933  23.429  1.00  0.00     0.266 C 
ATOM      7  O   UNL A   1      34.559  24.729  22.484  1.00  0.00    -0.268 OA
ATOM      8  H   UNL A   1      34.829  26.528  24.130  1.00  0.00     0.163 HD
BRANCH   6   9
ATOM      9  C   UNL A   1      32.813  23.836  23.828  1.00  0.00     0.113 C 
ATOM     10  C   UNL A   1      30.359  23.933  23.348  1.00  0.00     0.020 C 
ATOM     11  C   UNL A   1      31.447  24.107  24.403  1.00  0.00     0.076 C 
ATOM     12  C   UNL A   1      31.545  22.920  25.301  1.00  0.00     0.026 C 
ATOM     13  N   UNL A   1      33.140  22.565  23.786  1.00  0.00    -0.251 NA
ATOM     14  C   UNL A   1      32.348  21.996  24.763  1.00  0.00     0.049 C 
ATOM     15  C   UNL A   1      31.598  23.037  26.773  1.00  0.00     0.161 C 
ATOM     16  C   UNL A   1      32.843  20.841  25.583  1.00  0.00     0.065 C 
ATOM     17  O   UNL A   1      30.774  23.757  27.334  1.00  0.00    -0.294 OA
ATOM     18  C   UNL A   1      32.755  22.371  27.545  1.00  0.00     0.089 C 
ATOM     19  C   UNL A   1      33.696  21.421  26.729  1.00  0.00     0.033 C 
BRANCH  19  20
ATOM     20  C   UNL A   1      35.038  22.007  26.237  1.00  0.00    -0.044 A 
ATOM     21  C   UNL A   1      35.983  21.195  25.571  1.00  0.00     0.004 A 
ATOM     22  C   UNL A   1      35.396  23.346  26.439  1.00  0.00     0.004 A 
ATOM     23  C   UNL A   1      37.140  21.720  24.994  1.00  0.00     0.000 A 
ATOM     24  C   UNL A   1      36.573  23.871  25.884  1.00  0.00     0.000 A 
ATOM     25  C   UNL A   1      37.427  23.066  25.135  1.00  0.00     0.000 A 
ENDBRANCH  19  20
ENDBRANCH   6   9
ENDBRANCH   4   5
ENDBRANCH   3   4
ENDBRANCH   2   3
ENDBRANCH   1   2
BRANCH   1  26
ATOM     26  C   UNL A   1      31.714  31.049  26.218  1.00  0.00     0.021 C 
BRANCH  26  27
ATOM     27  C   UNL A   1      32.390  31.728  27.401  1.00  0.00     0.116 C 
BRANCH  27  28
ATOM     28  N   UNL A   1      32.218  33.181  27.441  1.00  0.00    -0.352 N 
ATOM     29  C   UNL A   1      32.924  34.098  28.215  1.00  0.00     0.251 C 
ATOM     30  H   UNL A   1      31.524  33.553  26.851  1.00  0.00     0.163 HD
ATOM     31  O   UNL A   1      32.464  35.199  28.456  1.00  0.00    -0.269 OA
BRANCH  29  32
ATOM     32  C   UNL A   1      34.247  33.693  28.739  1.00  0.00     0.039 A 
ATOM     33  C   UNL A   1      34.429  33.207  30.038  1.00  0.00     0.014 A 
ATOM     34  C   UNL A   1      35.318  33.776  27.860  1.00  0.00     0.014 A 
ATOM     35  C   UNL A   1      35.688  32.723  30.403  1.00  0.00     0.010 A 
ATOM     36  C   UNL A   1      36.480  33.117  28.147  1.00  0.00     0.010 A 
ATOM     37  C   UNL A   1      36.707  32.666  29.441  1.00  0.00    -0.014 A 
BRANCH  37  38
ATOM     38  C   UNL A   1      38.010  32.068  29.714  1.00  0.00     0.031 A 
ATOM     39  C   UNL A   1      38.170  30.661  29.260  1.00  0.00     0.074 A 
ATOM     40  C   UNL A   1      39.074  32.817  30.086  1.00  0.00     0.049 A 
ATOM     41  N   UNL A   1      38.339  29.612  29.993  1.00  0.00    -0.248 NA
ATOM     42  C   UNL A   1      37.986  30.357  27.832  1.00  0.00     0.031 C 
ATOM     43  C   UNL A   1      39.144  34.274  30.263  1.00  0.00     0.029 A 
ATOM     44  N   UNL A   1      40.372  32.446  30.235  1.00  0.00    -0.354 N 
ATOM     45  C   UNL A   1      38.530  28.551  29.112  1.00  0.00     0.074 A 
ATOM     46  C   UNL A   1      38.086  29.024  27.829  1.00  0.00     0.031 C 
ATOM     47  C   UNL A   1      40.433  34.676  30.218  1.00  0.00     0.029 A 
ATOM     48  C   UNL A   1      41.283  33.499  30.192  1.00  0.00     0.049 A 
ATOM     49  H   UNL A   1      40.647  31.510  30.364  1.00  0.00     0.167 HD
ATOM     50  C   UNL A   1      39.266  27.460  29.472  1.00  0.00     0.034 A 
ATOM     51  C   UNL A   1      42.637  33.415  30.097  1.00  0.00     0.034 A 
ATOM     52  C   UNL A   1      39.493  27.439  30.901  1.00  0.00     0.049 A 
ATOM     53  C   UNL A   1      43.002  32.059  30.588  1.00  0.00     0.074 A 
ATOM     54  C   UNL A   1      38.665  27.461  32.009  1.00  0.00     0.029 A 
ATOM     55  N   UNL A   1      40.733  27.821  31.369  1.00  0.00    -0.354 N 
ATOM     56  N   UNL A   1      42.793  31.670  31.819  1.00  0.00    -0.248 NA
ATOM     57  C   UNL A   1      43.095  30.981  29.612  1.00  0.00     0.031 C 
ATOM     58  C   UNL A   1      39.299  28.365  32.913  1.00  0.00     0.029 A 
ATOM     59  C   UNL A   1      40.520  28.754  32.355  1.00  0.00     0.049 A 
ATOM     60  H   UNL A   1      41.605  27.487  31.057  1.00  0.00     0.167 HD
ATOM     61  C   UNL A   1      42.285  30.383  31.708  1.00  0.00     0.074 A 
ATOM     62  C   UNL A   1      42.591  29.976  30.335  1.00  0.00     0.031 C 
ATOM     63  C   UNL A   1      41.403  29.876  32.624  1.00  0.00     0.034 A 
BRANCH  50  64
ATOM     64  C   UNL A   1      40.086  26.602  28.531  1.00  0.00     0.023 A 
ATOM     65  C   UNL A   1      41.211  27.203  27.930  1.00  0.00     0.031 A 
ATOM     66  C   UNL A   1      39.684  25.367  27.975  1.00  0.00     0.131 A 
ATOM     67  C   UNL A   1      41.802  26.651  26.782  1.00  0.00     0.055 A 
ATOM     68  C   UNL A   1      40.324  24.783  26.877  1.00  0.00     0.041 A 
ATOM     69  F   UNL A   1      38.600  24.703  28.391  1.00  0.00    -0.206 F 
ATOM     70  C   UNL A   1      41.367  25.441  26.250  1.00  0.00     0.022 A 
BRANCH  67  71
ATOM     71  S   UNL A   1      43.021  27.645  25.883  1.00  0.00     0.124 S 
ATOM     72  O   UNL A   1      43.076  28.852  26.702  1.00  0.00    -0.237 OA
ATOM     73  O   UNL A   1      44.198  26.784  25.923  1.00  0.00    -0.237 OA
ATOM     74  O   UNL A   1      42.415  27.813  24.565  1.00  0.00    -0.744 OA
ENDBRANCH  67  71
ENDBRANCH  50  64
BRANCH  51  75
ATOM     75  C   UNL A   1      43.531  34.310  29.304  1.00  0.00     0.023 A 
ATOM     76  C   UNL A   1      44.099  33.948  28.062  1.00  0.00     0.031 A 
ATOM     77  C   UNL A   1      43.672  35.667  29.684  1.00  0.00     0.131 A 
ATOM     78  C   UNL A   1      44.773  34.915  27.274  1.00  0.00     0.055 A 
ATOM     79  C   UNL A   1      44.342  36.614  28.906  1.00  0.00     0.041 A 
ATOM     80  F   UNL A   1      43.091  36.143  30.797  1.00  0.00    -0.206 F 
ATOM     81  C   UNL A   1      44.892  36.243  27.691  1.00  0.00     0.022 A 
BRANCH  78  82
ATOM     82  S   UNL A   1      45.444  34.482  25.633  1.00  0.00     0.124 S 
ATOM     83  O   UNL A   1      45.977  33.143  25.859  1.00  0.00    -0.237 OA
ATOM     84  O   UNL A   1      44.267  34.579  24.777  1.00  0.00    -0.237 OA
ATOM     85  O   UNL A   1      46.457  35.511  25.394  1.00  0.00    -0.744 OA
ENDBRANCH  78  82
ENDBRANCH  51  75
BRANCH  63  86
ATOM     86  C   UNL A   1      41.149  30.646  33.910  1.00  0.00     0.023 A 
ATOM     87  C   UNL A   1      40.071  31.539  34.120  1.00  0.00     0.031 A 
ATOM     88  C   UNL A   1      41.953  30.333  35.020  1.00  0.00     0.131 A 
ATOM     89  C   UNL A   1      39.842  32.085  35.401  1.00  0.00     0.055 A 
ATOM     90  C   UNL A   1      41.710  30.856  36.290  1.00  0.00     0.041 A 
ATOM     91  F   UNL A   1      42.975  29.469  34.898  1.00  0.00    -0.206 F 
ATOM     92  C   UNL A   1      40.655  31.738  36.485  1.00  0.00     0.022 A 
BRANCH  89  93
ATOM     93  S   UNL A   1      38.483  33.269  35.682  1.00  0.00     0.124 S 
ATOM     94  O   UNL A   1      39.115  34.338  36.447  1.00  0.00    -0.237 OA
ATOM     95  O   UNL A   1      38.072  33.611  34.323  1.00  0.00    -0.237 OA
ATOM     96  O   UNL A   1      37.500  32.485  36.433  1.00  0.00    -0.744 OA
ENDBRANCH  89  93
ENDBRANCH  63  86
ENDBRANCH  37  38
ENDBRANCH  29  32
ENDBRANCH  27  28
ENDBRANCH  26  27
ENDBRANCH   1  26
TORSDOF 17
ENDMDL
MODEL 2
REMARK VINA RESULT:     -12.7      4.124      5.459
REMARK SMILES C[C@@H]1C(C(=O)NCCCCCCNC(=O)c2ccc(-c3c4nc(c(-c5cc(S(=O)(=O)[O-])ccc5F)c5ccc([nH]5)c(-c5cc(S(=O)(=O)[O-])ccc5F)c5nc(c(-c6cc(S(=O)(=O)[O-])ccc6F)c6ccc3[nH]6)C=C5)C=C4)cc2)=NC2=C1C(=O)C[C@H](c1ccccc1)C2
REMARK SMILES IDX 10 1 9 2 8 3 7 4 6 5 4 6 5 7 3 9 1 10 2 11 81 12 79 13 80 14
REMARK SMILES IDX 82 15 92 16 83 17 84 18 85 19 86 20 87 21 91 22 88 23 90 24
REMARK SMILES IDX 89 25 11 26 12 27 13 28 14 29 15 31 16 32 17 33 78 34 18 35
REMARK SMILES IDX 77 36 19 37 20 38 21 39 71 40 22 41 76 42 70 43 72 44 23 45
REMARK SMILES IDX 75 46 69 47 68 48 24 50 56 51 36 52 55 53 37 54 40 55 54 56
REMARK SMILES IDX 73 57 38 58 39 59 53 61 74 62 41 63 25 64 26 65 34 66 27 67
REMARK SMILES IDX 33 68 35 69 32 70 28 71 29 72 30 73 31 74 57 75 58 76 66 77
REMARK SMILES IDX 59 78 65 79 67 80 64 81 60 82 61 83 62 84 63 85 42 86 43 87
REMARK SMILES IDX 51 88 44 89 50 90 52 91 49 92 45 93 46 94 47 95 48 96
REMARK H PARENT 6 8 13 30 72 49 40 60
REMARK Flexibility Score: inf
ROOT
ATOM      1  C   UNL A   1      33.901  29.403  25.678  1.00  0.00     0.002 C 
ENDROOT
BRANCH   1   2
ATOM      2  C   UNL A   1      32.715  28.598  25.139  1.00  0.00     0.002 C 
BRANCH   2   3
ATOM      3  C   UNL A   1      32.510  27.158  25.606  1.00  0.00     0.021 C 
BRANCH   3   4
ATOM      4  C   UNL A   1      33.687  26.185  25.644  1.00  0.00     0.116 C 
BRANCH   4   5
ATOM      5  N   UNL A   1      34.286  25.765  24.393  1.00  0.00    -0.351 N 
ATOM      6  C   UNL A   1      33.784  24.886  23.441  1.00  0.00     0.266 C 
ATOM      7  O   UNL A   1      34.224  24.913  22.296  1.00  0.00    -0.268 OA
ATOM      8  H   UNL A   1      35.166  26.156  24.190  1.00  0.00     0.163 HD
BRANCH   6   9
ATOM      9  C   UNL A   1      32.796  23.779  23.822  1.00  0.00     0.113 C 
ATOM     10  C   UNL A   1      30.327  23.927  23.446  1.00  0.00     0.020 C 
ATOM     11  C   UNL A   1      31.458  24.034  24.465  1.00  0.00     0.076 C 
ATOM     12  C   UNL A   1      31.577  22.800  25.294  1.00  0.00     0.026 C 
ATOM     13  N   UNL A   1      33.106  22.508  23.700  1.00  0.00    -0.251 NA
ATOM     14  C   UNL A   1      32.346  21.897  24.677  1.00  0.00     0.049 C 
ATOM     15  C   UNL A   1      31.689  22.837  26.767  1.00  0.00     0.161 C 
ATOM     16  C   UNL A   1      32.858  20.695  25.415  1.00  0.00     0.065 C 
ATOM     17  O   UNL A   1      30.898  23.536  27.398  1.00  0.00    -0.294 OA
ATOM     18  C   UNL A   1      32.868  22.120  27.455  1.00  0.00     0.089 C 
ATOM     19  C   UNL A   1      33.764  21.205  26.554  1.00  0.00     0.033 C 
BRANCH  19  20
ATOM     20  C   UNL A   1      35.092  21.802  26.040  1.00  0.00    -0.044 A 
ATOM     21  C   UNL A   1      35.460  23.130  26.355  1.00  0.00     0.004 A 
ATOM     22  C   UNL A   1      35.979  21.083  25.229  1.00  0.00     0.004 A 
ATOM     23  C   UNL A   1      36.710  23.654  26.024  1.00  0.00     0.000 A 
ATOM     24  C   UNL A   1      37.226  21.618  24.871  1.00  0.00     0.000 A 
ATOM     25  C   UNL A   1      37.604  22.889  25.295  1.00  0.00     0.000 A 
ENDBRANCH  19  20
ENDBRANCH   6   9
ENDBRANCH   4   5
ENDBRANCH   3   4
ENDBRANCH   2   3
ENDBRANCH   1   2
BRANCH   1  26
ATOM     26  C   UNL A   1      34.007  29.647  27.188  1.00  0.00     0.021 C 
BRANCH  26  27
ATOM     27  C   UNL A   1      35.405  29.534  27.780  1.00  0.00     0.116 C 
BRANCH  27  28
ATOM     28  N   UNL A   1      35.503  29.953  29.178  1.00  0.00    -0.352 N 
ATOM     29  C   UNL A   1      36.469  29.581  30.110  1.00  0.00     0.251 C 
ATOM     30  H   UNL A   1      34.807  30.571  29.497  1.00  0.00     0.163 HD
ATOM     31  O   UNL A   1      36.255  29.672  31.304  1.00  0.00    -0.269 OA
BRANCH  29  32
ATOM     32  C   UNL A   1      37.762  29.068  29.604  1.00  0.00     0.039 A 
ATOM     33  C   UNL A   1      38.408  29.616  28.491  1.00  0.00     0.014 A 
ATOM     34  C   UNL A   1      38.344  28.029  30.318  1.00  0.00     0.014 A 
ATOM     35  C   UNL A   1      39.688  29.158  28.165  1.00  0.00     0.010 A 
ATOM     36  C   UNL A   1      39.664  27.734  30.126  1.00  0.00     0.010 A 
ATOM     37  C   UNL A   1      40.317  28.226  29.003  1.00  0.00    -0.014 A 
BRANCH  37  38
ATOM     38  C   UNL A   1      41.693  27.789  28.795  1.00  0.00     0.031 A 
ATOM     39  C   UNL A   1      41.850  26.543  27.999  1.00  0.00     0.074 A 
ATOM     40  C   UNL A   1      42.746  28.599  29.057  1.00  0.00     0.049 A 
ATOM     41  N   UNL A   1      42.310  25.406  28.400  1.00  0.00    -0.248 NA
ATOM     42  C   UNL A   1      41.308  26.509  26.631  1.00  0.00     0.031 C 
ATOM     43  C   UNL A   1      42.729  29.984  29.547  1.00  0.00     0.029 A 
ATOM     44  N   UNL A   1      44.063  28.406  28.788  1.00  0.00    -0.354 N 
ATOM     45  C   UNL A   1      42.348  24.586  27.276  1.00  0.00     0.074 A 
ATOM     46  C   UNL A   1      41.525  25.236  26.291  1.00  0.00     0.031 C 
ATOM     47  C   UNL A   1      43.912  30.576  29.279  1.00  0.00     0.029 A 
ATOM     48  C   UNL A   1      44.826  29.571  28.768  1.00  0.00     0.049 A 
ATOM     49  H   UNL A   1      44.447  27.515  28.620  1.00  0.00     0.167 HD
ATOM     50  C   UNL A   1      43.251  23.568  27.174  1.00  0.00     0.034 A 
ATOM     51  C   UNL A   1      46.103  29.712  28.322  1.00  0.00     0.034 A 
ATOM     52  C   UNL A   1      43.864  23.293  28.457  1.00  0.00     0.049 A 
ATOM     53  C   UNL A   1      46.712  28.356  28.374  1.00  0.00     0.074 A 
ATOM     54  C   UNL A   1      43.375  22.966  29.708  1.00  0.00     0.029 A 
ATOM     55  N   UNL A   1      45.145  23.755  28.678  1.00  0.00    -0.354 N 
ATOM     56  N   UNL A   1      46.887  27.700  29.492  1.00  0.00    -0.248 NA
ATOM     57  C   UNL A   1      46.631  27.524  27.181  1.00  0.00     0.031 C 
ATOM     58  C   UNL A   1      44.148  23.754  30.613  1.00  0.00     0.029 A 
ATOM     59  C   UNL A   1      45.127  24.428  29.877  1.00  0.00     0.049 A 
ATOM     60  H   UNL A   1      45.924  23.627  28.089  1.00  0.00     0.167 HD
ATOM     61  C   UNL A   1      46.488  26.400  29.212  1.00  0.00     0.074 A 
ATOM     62  C   UNL A   1      46.440  26.329  27.750  1.00  0.00     0.031 C 
ATOM     63  C   UNL A   1      45.943  25.592  30.173  1.00  0.00     0.034 A 
BRANCH  50  64
ATOM     64  C   UNL A   1      43.854  23.051  25.885  1.00  0.00     0.023 A 
ATOM     65  C   UNL A   1      43.714  21.674  25.618  1.00  0.00     0.031 A 
ATOM     66  C   UNL A   1      44.779  23.740  25.070  1.00  0.00     0.131 A 
ATOM     67  C   UNL A   1      44.537  21.031  24.679  1.00  0.00     0.055 A 
ATOM     68  C   UNL A   1      45.543  23.108  24.084  1.00  0.00     0.041 A 
ATOM     69  F   UNL A   1      45.071  25.035  25.239  1.00  0.00    -0.206 F 
ATOM     70  C   UNL A   1      45.452  21.739  23.907  1.00  0.00     0.022 A 
BRANCH  67  71
ATOM     71  S   UNL A   1      44.526  19.219  24.630  1.00  0.00     0.124 S 
ATOM     72  O   UNL A   1      43.139  18.925  24.975  1.00  0.00    -0.237 OA
ATOM     73  O   UNL A   1      44.917  18.955  23.250  1.00  0.00    -0.237 OA
ATOM     74  O   UNL A   1      45.512  18.847  25.640  1.00  0.00    -0.744 OA
ENDBRANCH  67  71
ENDBRANCH  50  64
BRANCH  51  75
ATOM     75  C   UNL A   1      46.658  30.874  27.564  1.00  0.00     0.023 A 
ATOM     76  C   UNL A   1      45.858  31.884  26.985  1.00  0.00     0.031 A 
ATOM     77  C   UNL A   1      48.053  31.116  27.585  1.00  0.00     0.131 A 
ATOM     78  C   UNL A   1      46.458  33.055  26.455  1.00  0.00     0.055 A 
ATOM     79  C   UNL A   1      48.638  32.268  27.056  1.00  0.00     0.041 A 
ATOM     80  F   UNL A   1      48.898  30.269  28.195  1.00  0.00    -0.206 F 
ATOM     81  C   UNL A   1      47.840  33.249  26.493  1.00  0.00     0.022 A 
BRANCH  78  82
ATOM     82  S   UNL A   1      45.433  34.403  25.773  1.00  0.00     0.124 S 
ATOM     83  O   UNL A   1      44.884  33.796  24.566  1.00  0.00    -0.237 OA
ATOM     84  O   UNL A   1      44.493  34.661  26.858  1.00  0.00    -0.237 OA
ATOM     85  O   UNL A   1      46.397  35.478  25.533  1.00  0.00    -0.744 OA
ENDBRANCH  78  82
ENDBRANCH  51  75
BRANCH  63  86
ATOM     86  C   UNL A   1      45.985  26.039  31.625  1.00  0.00     0.023 A 
ATOM     87  C   UNL A   1      44.886  26.573  32.340  1.00  0.00     0.031 A 
ATOM     88  C   UNL A   1      47.155  25.762  32.354  1.00  0.00     0.131 A 
ATOM     89  C   UNL A   1      44.991  26.815  33.726  1.00  0.00     0.055 A 
ATOM     90  C   UNL A   1      47.249  25.979  33.729  1.00  0.00     0.041 A 
ATOM     91  F   UNL A   1      48.225  25.227  31.744  1.00  0.00    -0.206 F 
ATOM     92  C   UNL A   1      46.168  26.512  34.420  1.00  0.00     0.022 A 
BRANCH  89  93
ATOM     93  S   UNL A   1      43.600  27.540  34.656  1.00  0.00     0.124 S 
ATOM     94  O   UNL A   1      43.732  26.949  35.983  1.00  0.00    -0.237 OA
ATOM     95  O   UNL A   1      43.867  28.972  34.564  1.00  0.00    -0.237 OA
ATOM     96  O   UNL A   1      42.423  27.094  33.908  1.00  0.00    -0.744 OA
ENDBRANCH  89  93
ENDBRANCH  63  86
ENDBRANCH  37  38
ENDBRANCH  29  32
ENDBRANCH  27  28
ENDBRANCH  26  27
ENDBRANCH   1  26
TORSDOF 17
ENDMDL
MODEL 3
REMARK VINA RESULT:     -12.6      2.848      8.456
REMARK SMILES C[C@@H]1C(C(=O)NCCCCCCNC(=O)c2ccc(-c3c4nc(c(-c5cc(S(=O)(=O)[O-])ccc5F)c5ccc([nH]5)c(-c5cc(S(=O)(=O)[O-])ccc5F)c5nc(c(-c6cc(S(=O)(=O)[O-])ccc6F)c6ccc3[nH]6)C=C5)C=C4)cc2)=NC2=C1C(=O)C[C@H](c1ccccc1)C2
REMARK SMILES IDX 10 1 9 2 8 3 7 4 6 5 4 6 5 7 3 9 1 10 2 11 81 12 79 13 80 14
REMARK SMILES IDX 82 15 92 16 83 17 84 18 85 19 86 20 87 21 91 22 88 23 90 24
REMARK SMILES IDX 89 25 11 26 12 27 13 28 14 29 15 31 16 32 17 33 78 34 18 35
REMARK SMILES IDX 77 36 19 37 20 38 21 39 71 40 22 41 76 42 70 43 72 44 23 45
REMARK SMILES IDX 75 46 69 47 68 48 24 50 56 51 36 52 55 53 37 54 40 55 54 56
REMARK SMILES IDX 73 57 38 58 39 59 53 61 74 62 41 63 25 64 26 65 34 66 27 67
REMARK SMILES IDX 33 68 35 69 32 70 28 71 29 72 30 73 31 74 57 75 58 76 66 77
REMARK SMILES IDX 59 78 65 79 67 80 64 81 60 82 61 83 62 84 63 85 42 86 43 87
REMARK SMILES IDX 51 88 44 89 50 90 52 91 49 92 45 93 46 94 47 95 48 96
REMARK H PARENT 6 8 13 30 72 49 40 60
REMARK Flexibility Score: inf
ROOT
ATOM      1  C   UNL A   1      37.237  23.251  24.389  1.00  0.00     0.002 C 
ENDROOT
BRANCH   1   2
ATOM      2  C   UNL A   1      35.796  22.923  23.989  1.00  0.00     0.002 C 
BRANCH   2   3
ATOM      3  C   UNL A   1      34.655  23.268  24.945  1.00  0.00     0.021 C 
BRANCH   3   4
ATOM      4  C   UNL A   1      34.400  24.718  25.351  1.00  0.00     0.116 C 
BRANCH   4   5
ATOM      5  N   UNL A   1      33.348  24.999  26.307  1.00  0.00    -0.351 N 
ATOM      6  C   UNL A   1      31.978  25.087  26.089  1.00  0.00     0.266 C 
ATOM      7  O   UNL A   1      31.204  24.972  27.035  1.00  0.00    -0.268 OA
ATOM      8  H   UNL A   1      33.643  25.148  27.234  1.00  0.00     0.163 HD
BRANCH   6   9
ATOM      9  C   UNL A   1      31.412  25.475  24.720  1.00  0.00     0.113 C 
ATOM     10  C   UNL A   1      30.512  23.825  23.068  1.00  0.00     0.020 C 
ATOM     11  C   UNL A   1      31.692  24.713  23.451  1.00  0.00     0.076 C 
ATOM     12  C   UNL A   1      31.719  25.974  22.654  1.00  0.00     0.026 C 
ATOM     13  N   UNL A   1      30.715  26.575  24.550  1.00  0.00    -0.251 NA
ATOM     14  C   UNL A   1      30.953  26.905  23.231  1.00  0.00     0.049 C 
ATOM     15  C   UNL A   1      32.943  26.471  21.990  1.00  0.00     0.161 C 
ATOM     16  C   UNL A   1      31.033  28.339  22.796  1.00  0.00     0.065 C 
ATOM     17  O   UNL A   1      33.603  25.685  21.314  1.00  0.00    -0.294 OA
ATOM     18  C   UNL A   1      33.429  27.906  22.275  1.00  0.00     0.089 C 
ATOM     19  C   UNL A   1      32.464  28.832  23.092  1.00  0.00     0.033 C 
BRANCH  19  20
ATOM     20  C   UNL A   1      32.743  28.984  24.603  1.00  0.00    -0.044 A 
ATOM     21  C   UNL A   1      31.897  29.766  25.421  1.00  0.00     0.004 A 
ATOM     22  C   UNL A   1      33.842  28.384  25.232  1.00  0.00     0.004 A 
ATOM     23  C   UNL A   1      32.040  29.814  26.809  1.00  0.00     0.000 A 
ATOM     24  C   UNL A   1      34.004  28.453  26.624  1.00  0.00     0.000 A 
ATOM     25  C   UNL A   1      33.086  29.140  27.415  1.00  0.00     0.000 A 
ENDBRANCH  19  20
ENDBRANCH   6   9
ENDBRANCH   4   5
ENDBRANCH   3   4
ENDBRANCH   2   3
ENDBRANCH   1   2
BRANCH   1  26
ATOM     26  C   UNL A   1      37.661  23.071  25.851  1.00  0.00     0.021 C 
BRANCH  26  27
ATOM     27  C   UNL A   1      38.465  24.215  26.453  1.00  0.00     0.116 C 
BRANCH  27  28
ATOM     28  N   UNL A   1      39.823  24.341  25.924  1.00  0.00    -0.352 N 
ATOM     29  C   UNL A   1      40.658  25.454  25.986  1.00  0.00     0.251 C 
ATOM     30  H   UNL A   1      40.190  23.548  25.473  1.00  0.00     0.163 HD
ATOM     31  O   UNL A   1      41.586  25.585  25.210  1.00  0.00    -0.269 OA
BRANCH  29  32
ATOM     32  C   UNL A   1      40.382  26.473  27.023  1.00  0.00     0.039 A 
ATOM     33  C   UNL A   1      40.003  26.141  28.327  1.00  0.00     0.014 A 
ATOM     34  C   UNL A   1      40.559  27.801  26.656  1.00  0.00     0.014 A 
ATOM     35  C   UNL A   1      39.893  27.162  29.276  1.00  0.00     0.010 A 
ATOM     36  C   UNL A   1      40.655  28.762  27.622  1.00  0.00     0.010 A 
ATOM     37  C   UNL A   1      40.240  28.472  28.916  1.00  0.00    -0.014 A 
BRANCH  37  38
ATOM     38  C   UNL A   1      40.264  29.569  29.878  1.00  0.00     0.031 A 
ATOM     39  C   UNL A   1      38.960  30.251  30.094  1.00  0.00     0.074 A 
ATOM     40  C   UNL A   1      41.311  29.762  30.714  1.00  0.00     0.049 A 
ATOM     41  N   UNL A   1      38.652  31.470  29.801  1.00  0.00    -0.248 NA
ATOM     42  C   UNL A   1      37.818  29.453  30.567  1.00  0.00     0.031 C 
ATOM     43  C   UNL A   1      42.538  28.963  30.834  1.00  0.00     0.029 A 
ATOM     44  N   UNL A   1      41.430  30.631  31.751  1.00  0.00    -0.354 N 
ATOM     45  C   UNL A   1      37.359  31.667  30.277  1.00  0.00     0.074 A 
ATOM     46  C   UNL A   1      36.831  30.354  30.528  1.00  0.00     0.031 C 
ATOM     47  C   UNL A   1      43.123  29.204  32.028  1.00  0.00     0.029 A 
ATOM     48  C   UNL A   1      42.419  30.297  32.674  1.00  0.00     0.049 A 
ATOM     49  H   UNL A   1      40.865  31.431  31.842  1.00  0.00     0.167 HD
ATOM     50  C   UNL A   1      36.926  32.906  30.652  1.00  0.00     0.034 A 
ATOM     51  C   UNL A   1      42.619  30.846  33.902  1.00  0.00     0.034 A 
ATOM     52  C   UNL A   1      37.834  33.932  30.184  1.00  0.00     0.049 A 
ATOM     53  C   UNL A   1      41.978  32.188  33.865  1.00  0.00     0.074 A 
ATOM     54  C   UNL A   1      38.327  34.291  28.943  1.00  0.00     0.029 A 
ATOM     55  N   UNL A   1      38.703  34.496  31.095  1.00  0.00    -0.354 N 
ATOM     56  N   UNL A   1      42.382  33.145  33.070  1.00  0.00    -0.248 NA
ATOM     57  C   UNL A   1      40.590  32.295  34.296  1.00  0.00     0.031 C 
ATOM     58  C   UNL A   1      39.712  34.549  29.168  1.00  0.00     0.029 A 
ATOM     59  C   UNL A   1      39.959  34.440  30.539  1.00  0.00     0.049 A 
ATOM     60  H   UNL A   1      38.469  34.869  31.976  1.00  0.00     0.167 HD
ATOM     61  C   UNL A   1      41.219  33.697  32.550  1.00  0.00     0.074 A 
ATOM     62  C   UNL A   1      40.149  33.203  33.419  1.00  0.00     0.031 C 
ATOM     63  C   UNL A   1      41.182  34.251  31.300  1.00  0.00     0.034 A 
BRANCH  50  64
ATOM     64  C   UNL A   1      35.900  33.191  31.728  1.00  0.00     0.023 A 
ATOM     65  C   UNL A   1      34.787  33.975  31.361  1.00  0.00     0.031 A 
ATOM     66  C   UNL A   1      36.080  32.998  33.115  1.00  0.00     0.131 A 
ATOM     67  C   UNL A   1      33.996  34.609  32.333  1.00  0.00     0.055 A 
ATOM     68  C   UNL A   1      35.244  33.570  34.078  1.00  0.00     0.041 A 
ATOM     69  F   UNL A   1      37.122  32.332  33.626  1.00  0.00    -0.206 F 
ATOM     70  C   UNL A   1      34.215  34.411  33.693  1.00  0.00     0.022 A 
BRANCH  67  71
ATOM     71  S   UNL A   1      32.799  35.854  31.784  1.00  0.00     0.124 S 
ATOM     72  O   UNL A   1      33.456  37.092  32.190  1.00  0.00    -0.237 OA
ATOM     73  O   UNL A   1      32.737  35.598  30.349  1.00  0.00    -0.237 OA
ATOM     74  O   UNL A   1      31.591  35.515  32.532  1.00  0.00    -0.744 OA
ENDBRANCH  67  71
ENDBRANCH  50  64
BRANCH  51  75
ATOM     75  C   UNL A   1      43.028  30.125  35.144  1.00  0.00     0.023 A 
ATOM     76  C   UNL A   1      42.519  28.861  35.518  1.00  0.00     0.031 A 
ATOM     77  C   UNL A   1      44.126  30.605  35.899  1.00  0.00     0.131 A 
ATOM     78  C   UNL A   1      43.096  28.150  36.601  1.00  0.00     0.055 A 
ATOM     79  C   UNL A   1      44.686  29.903  36.968  1.00  0.00     0.041 A 
ATOM     80  F   UNL A   1      44.749  31.749  35.572  1.00  0.00    -0.206 F 
ATOM     81  C   UNL A   1      44.176  28.665  37.321  1.00  0.00     0.022 A 
BRANCH  78  82
ATOM     82  S   UNL A   1      42.500  26.483  37.048  1.00  0.00     0.124 S 
ATOM     83  O   UNL A   1      43.019  26.321  38.401  1.00  0.00    -0.237 OA
ATOM     84  O   UNL A   1      41.054  26.621  36.917  1.00  0.00    -0.237 OA
ATOM     85  O   UNL A   1      43.123  25.617  36.046  1.00  0.00    -0.744 OA
ENDBRANCH  78  82
ENDBRANCH  51  75
BRANCH  63  86
ATOM     86  C   UNL A   1      42.487  34.477  30.552  1.00  0.00     0.023 A 
ATOM     87  C   UNL A   1      42.899  33.757  29.405  1.00  0.00     0.031 A 
ATOM     88  C   UNL A   1      43.269  35.581  30.936  1.00  0.00     0.131 A 
ATOM     89  C   UNL A   1      44.056  34.148  28.700  1.00  0.00     0.055 A 
ATOM     90  C   UNL A   1      44.399  35.980  30.223  1.00  0.00     0.041 A 
ATOM     91  F   UNL A   1      42.919  36.326  31.998  1.00  0.00    -0.206 F 
ATOM     92  C   UNL A   1      44.800  35.262  29.104  1.00  0.00     0.022 A 
BRANCH  89  93
ATOM     93  S   UNL A   1      44.625  33.208  27.245  1.00  0.00     0.124 S 
ATOM     94  O   UNL A   1      44.348  31.822  27.604  1.00  0.00    -0.237 OA
ATOM     95  O   UNL A   1      43.813  33.765  26.167  1.00  0.00    -0.237 OA
ATOM     96  O   UNL A   1      46.050  33.540  27.162  1.00  0.00    -0.744 OA
ENDBRANCH  89  93
ENDBRANCH  63  86
ENDBRANCH  37  38
ENDBRANCH  29  32
ENDBRANCH  27  28
ENDBRANCH  26  27
ENDBRANCH   1  26
TORSDOF 17
ENDMDL
