MODEL 1
REMARK VINA RESULT:     -10.8      0.000      0.000
REMARK SMILES CC(=O)NCCNC(=O)C[N@H+]1CC[C@@H](C(=O)NCCCCCCNC(=O)c2ccc(-c3c4nc(c(-c5cc(S(=O)(=O)[O-])ccc5F)c5ccc([nH]5)c(-c5cc(S(=O)(=O)[O-])ccc5F)c5nc(c(-c6cc(S(=O)(=O)[O-])ccc6F)c6ccc3[nH]6)C=C5)C=C4)cc2)[C@H]1C
REMARK SMILES IDX 19 1 18 2 17 3 15 4 16 5 14 7 11 8 12 9 90 10 13 12 91 13
REMARK SMILES IDX 10 14 8 15 7 16 9 18 6 19 5 20 4 21 1 22 2 23 3 24 20 26
REMARK SMILES IDX 21 27 22 28 23 29 24 30 25 31 26 33 27 34 28 35 89 36 29 37
REMARK SMILES IDX 88 38 30 39 31 40 32 41 82 42 33 43 87 44 81 45 83 46 34 47
REMARK SMILES IDX 86 48 80 49 79 50 35 52 67 53 47 54 66 55 48 56 51 57 65 58
REMARK SMILES IDX 84 59 49 60 50 61 64 63 85 64 52 65 36 66 37 67 45 68 38 69
REMARK SMILES IDX 44 70 46 71 43 72 39 73 40 74 41 75 42 76 68 77 69 78 77 79
REMARK SMILES IDX 70 80 76 81 78 82 75 83 71 84 72 85 73 86 74 87 53 88 54 89
REMARK SMILES IDX 62 90 55 91 61 92 63 93 60 94 56 95 57 96 58 97 59 98
REMARK H PARENT 17 6 11 11 7 17 4 25 24 32 83 51 51 62
REMARK Flexibility Score: inf
ROOT
ATOM      1  C   UNL A   1      33.516  21.130  25.876  1.00  0.00     0.021 C 
ENDROOT
BRANCH   1   2
ATOM      2  C   UNL A   1      32.138  21.337  25.244  1.00  0.00     0.116 C 
BRANCH   2   3
ATOM      3  N   UNL A   1      31.254  22.090  26.111  1.00  0.00    -0.356 N 
ATOM      4  C   UNL A   1      31.149  23.421  26.347  1.00  0.00     0.229 C 
ATOM      5  O   UNL A   1      30.330  23.774  27.204  1.00  0.00    -0.275 OA
ATOM      6  H   UNL A   1      30.616  21.537  26.618  1.00  0.00     0.163 HD
BRANCH   4   7
ATOM      7  C   UNL A   1      31.991  24.473  25.642  1.00  0.00     0.142 C 
ATOM      8  N   UNL A   1      32.043  26.769  24.817  1.00  0.00    -0.324 N 
ATOM      9  C   UNL A   1      33.264  26.478  25.606  1.00  0.00     0.263 C 
ATOM     10  C   UNL A   1      31.288  25.491  24.731  1.00  0.00     0.194 C 
ATOM     11  H   UNL A   1      32.183  27.039  23.843  1.00  0.00     0.348 HD
ATOM     12  C   UNL A   1      32.961  25.273  26.484  1.00  0.00     0.081 C 
ATOM     13  C   UNL A   1      29.767  25.524  24.777  1.00  0.00     0.076 C 
BRANCH   8  14
ATOM     14  C   UNL A   1      31.397  27.987  25.358  1.00  0.00     0.363 C 
BRANCH  14  15
ATOM     15  C   UNL A   1      31.779  29.331  24.734  1.00  0.00     0.275 C 
ATOM     16  N   UNL A   1      31.383  29.708  23.487  1.00  0.00    -0.349 N 
ATOM     17  H   UNL A   1      31.678  30.607  23.213  1.00  0.00     0.163 HD
ATOM     18  O   UNL A   1      32.509  30.111  25.353  1.00  0.00    -0.269 OA
BRANCH  16  19
ATOM     19  C   UNL A   1      30.596  28.994  22.499  1.00  0.00     0.137 C 
BRANCH  19  20
ATOM     20  C   UNL A   1      29.396  29.794  21.970  1.00  0.00     0.137 C 
BRANCH  20  21
ATOM     21  N   UNL A   1      29.547  31.236  22.105  1.00  0.00    -0.355 N 
ATOM     22  C   UNL A   1      27.562  31.535  23.524  1.00  0.00     0.114 C 
ATOM     23  C   UNL A   1      28.801  32.083  22.872  1.00  0.00     0.216 C 
ATOM     24  O   UNL A   1      29.149  33.252  23.018  1.00  0.00    -0.275 OA
ATOM     25  H   UNL A   1      30.272  31.648  21.583  1.00  0.00     0.163 HD
ENDBRANCH  20  21
ENDBRANCH  19  20
ENDBRANCH  16  19
ENDBRANCH  14  15
ENDBRANCH   8  14
ENDBRANCH   4   7
ENDBRANCH   2   3
ENDBRANCH   1   2
BRANCH   1  26
ATOM     26  C   UNL A   1      34.610  20.646  24.931  1.00  0.00     0.002 C 
BRANCH  26  27
ATOM     27  C   UNL A   1      35.588  21.721  24.465  1.00  0.00     0.002 C 
BRANCH  27  28
ATOM     28  C   UNL A   1      35.406  23.090  25.126  1.00  0.00     0.021 C 
BRANCH  28  29
ATOM     29  C   UNL A   1      36.631  23.611  25.874  1.00  0.00     0.116 C 
BRANCH  29  30
ATOM     30  N   UNL A   1      37.640  22.580  26.040  1.00  0.00    -0.352 N 
ATOM     31  C   UNL A   1      38.971  22.714  26.350  1.00  0.00     0.251 C 
ATOM     32  H   UNL A   1      37.327  21.656  25.911  1.00  0.00     0.163 HD
ATOM     33  O   UNL A   1      39.731  21.765  26.205  1.00  0.00    -0.269 OA
BRANCH  31  34
ATOM     34  C   UNL A   1      39.477  24.014  26.839  1.00  0.00     0.039 A 
ATOM     35  C   UNL A   1      40.073  24.894  25.933  1.00  0.00     0.014 A 
ATOM     36  C   UNL A   1      39.367  24.362  28.189  1.00  0.00     0.014 A 
ATOM     37  C   UNL A   1      40.512  26.144  26.372  1.00  0.00     0.010 A 
ATOM     38  C   UNL A   1      39.737  25.636  28.609  1.00  0.00     0.010 A 
ATOM     39  C   UNL A   1      40.320  26.539  27.707  1.00  0.00    -0.014 A 
BRANCH  39  40
ATOM     40  C   UNL A   1      40.741  27.884  28.180  1.00  0.00     0.031 A 
ATOM     41  C   UNL A   1      42.204  28.238  28.229  1.00  0.00     0.074 A 
ATOM     42  C   UNL A   1      39.815  28.767  28.601  1.00  0.00     0.049 A 
ATOM     43  N   UNL A   1      42.778  29.326  28.675  1.00  0.00    -0.248 NA
ATOM     44  C   UNL A   1      43.145  27.222  27.734  1.00  0.00     0.031 C 
ATOM     45  C   UNL A   1      38.369  28.528  28.625  1.00  0.00     0.029 A 
ATOM     46  N   UNL A   1      39.945  30.041  29.095  1.00  0.00    -0.354 N 
ATOM     47  C   UNL A   1      44.145  29.127  28.512  1.00  0.00     0.074 A 
ATOM     48  C   UNL A   1      44.313  27.785  27.998  1.00  0.00     0.031 C 
ATOM     49  C   UNL A   1      37.750  29.626  29.087  1.00  0.00     0.029 A 
ATOM     50  C   UNL A   1      38.750  30.628  29.439  1.00  0.00     0.049 A 
ATOM     51  H   UNL A   1      40.815  30.493  29.194  1.00  0.00     0.167 HD
ATOM     52  C   UNL A   1      45.163  29.994  28.740  1.00  0.00     0.034 A 
ATOM     53  C   UNL A   1      38.490  31.831  29.992  1.00  0.00     0.034 A 
ATOM     54  C   UNL A   1      44.979  31.328  29.255  1.00  0.00     0.049 A 
ATOM     55  C   UNL A   1      39.645  32.756  30.291  1.00  0.00     0.074 A 
ATOM     56  C   UNL A   1      45.936  32.296  29.510  1.00  0.00     0.029 A 
ATOM     57  N   UNL A   1      43.753  31.885  29.600  1.00  0.00    -0.354 N 
ATOM     58  N   UNL A   1      40.930  32.564  30.098  1.00  0.00    -0.248 NA
ATOM     59  C   UNL A   1      39.316  34.063  30.872  1.00  0.00     0.031 C 
ATOM     60  C   UNL A   1      45.299  33.409  30.067  1.00  0.00     0.029 A 
ATOM     61  C   UNL A   1      43.935  33.172  30.086  1.00  0.00     0.049 A 
ATOM     62  H   UNL A   1      42.883  31.433  29.512  1.00  0.00     0.167 HD
ATOM     63  C   UNL A   1      41.555  33.744  30.496  1.00  0.00     0.074 A 
ATOM     64  C   UNL A   1      40.504  34.645  30.922  1.00  0.00     0.031 C 
ATOM     65  C   UNL A   1      42.875  34.058  30.506  1.00  0.00     0.034 A 
BRANCH  52  66
ATOM     66  C   UNL A   1      46.563  29.513  28.442  1.00  0.00     0.023 A 
ATOM     67  C   UNL A   1      47.344  28.877  29.424  1.00  0.00     0.031 A 
ATOM     68  C   UNL A   1      47.135  29.708  27.173  1.00  0.00     0.131 A 
ATOM     69  C   UNL A   1      48.673  28.526  29.144  1.00  0.00     0.055 A 
ATOM     70  C   UNL A   1      48.431  29.279  26.876  1.00  0.00     0.041 A 
ATOM     71  F   UNL A   1      46.449  30.328  26.201  1.00  0.00    -0.206 F 
ATOM     72  C   UNL A   1      49.214  28.698  27.869  1.00  0.00     0.022 A 
BRANCH  69  73
ATOM     73  S   UNL A   1      49.726  27.971  30.513  1.00  0.00     0.124 S 
ATOM     74  O   UNL A   1      50.369  29.220  30.914  1.00  0.00    -0.237 OA
ATOM     75  O   UNL A   1      48.758  27.420  31.453  1.00  0.00    -0.237 OA
ATOM     76  O   UNL A   1      50.615  26.994  29.886  1.00  0.00    -0.744 OA
ENDBRANCH  69  73
ENDBRANCH  52  66
BRANCH  53  77
ATOM     77  C   UNL A   1      37.091  32.235  30.321  1.00  0.00     0.023 A 
ATOM     78  C   UNL A   1      36.291  32.902  29.380  1.00  0.00     0.031 A 
ATOM     79  C   UNL A   1      36.559  32.031  31.607  1.00  0.00     0.131 A 
ATOM     80  C   UNL A   1      35.034  33.402  29.757  1.00  0.00     0.055 A 
ATOM     81  C   UNL A   1      35.281  32.470  31.957  1.00  0.00     0.041 A 
ATOM     82  F   UNL A   1      37.278  31.399  32.548  1.00  0.00    -0.206 F 
ATOM     83  C   UNL A   1      34.518  33.178  31.034  1.00  0.00     0.022 A 
BRANCH  80  84
ATOM     84  S   UNL A   1      34.140  34.464  28.590  1.00  0.00     0.124 S 
ATOM     85  O   UNL A   1      34.800  34.141  27.330  1.00  0.00    -0.237 OA
ATOM     86  O   UNL A   1      32.768  33.988  28.737  1.00  0.00    -0.237 OA
ATOM     87  O   UNL A   1      34.389  35.812  29.098  1.00  0.00    -0.744 OA
ENDBRANCH  80  84
ENDBRANCH  53  77
BRANCH  65  88
ATOM     88  C   UNL A   1      43.245  35.457  30.940  1.00  0.00     0.023 A 
ATOM     89  C   UNL A   1      43.410  36.502  30.016  1.00  0.00     0.031 A 
ATOM     90  C   UNL A   1      43.448  35.741  32.303  1.00  0.00     0.131 A 
ATOM     91  C   UNL A   1      43.826  37.767  30.458  1.00  0.00     0.055 A 
ATOM     92  C   UNL A   1      43.797  37.019  32.744  1.00  0.00     0.041 A 
ATOM     93  F   UNL A   1      43.306  34.781  33.230  1.00  0.00    -0.206 F 
ATOM     94  C   UNL A   1      44.002  38.037  31.817  1.00  0.00     0.022 A 
BRANCH  91  95
ATOM     95  S   UNL A   1      44.229  39.032  29.222  1.00  0.00     0.124 S 
ATOM     96  O   UNL A   1      45.667  38.848  29.056  1.00  0.00    -0.237 OA
ATOM     97  O   UNL A   1      43.402  38.635  28.087  1.00  0.00    -0.237 OA
ATOM     98  O   UNL A   1      43.833  40.283  29.868  1.00  0.00    -0.744 OA
ENDBRANCH  91  95
ENDBRANCH  65  88
ENDBRANCH  39  40
ENDBRANCH  31  34
ENDBRANCH  29  30
ENDBRANCH  28  29
ENDBRANCH  27  28
ENDBRANCH  26  27
ENDBRANCH   1  26
TORSDOF 21
ENDMDL
MODEL 2
REMARK VINA RESULT:     -10.8      2.801      7.869
REMARK SMILES CC(=O)NCCNC(=O)C[N@H+]1CC[C@@H](C(=O)NCCCCCCNC(=O)c2ccc(-c3c4nc(c(-c5cc(S(=O)(=O)[O-])ccc5F)c5ccc([nH]5)c(-c5cc(S(=O)(=O)[O-])ccc5F)c5nc(c(-c6cc(S(=O)(=O)[O-])ccc6F)c6ccc3[nH]6)C=C5)C=C4)cc2)[C@H]1C
REMARK SMILES IDX 19 1 18 2 17 3 15 4 16 5 14 7 11 8 12 9 90 10 13 12 91 13
REMARK SMILES IDX 10 14 8 15 7 16 9 18 6 19 5 20 4 21 1 22 2 23 3 24 20 26
REMARK SMILES IDX 21 27 22 28 23 29 24 30 25 31 26 33 27 34 28 35 89 36 29 37
REMARK SMILES IDX 88 38 30 39 31 40 32 41 82 42 33 43 87 44 81 45 83 46 34 47
REMARK SMILES IDX 86 48 80 49 79 50 35 52 67 53 47 54 66 55 48 56 51 57 65 58
REMARK SMILES IDX 84 59 49 60 50 61 64 63 85 64 52 65 36 66 37 67 45 68 38 69
REMARK SMILES IDX 44 70 46 71 43 72 39 73 40 74 41 75 42 76 68 77 69 78 77 79
REMARK SMILES IDX 70 80 76 81 78 82 75 83 71 84 72 85 73 86 74 87 53 88 54 89
REMARK SMILES IDX 62 90 55 91 61 92 63 93 60 94 56 95 57 96 58 97 59 98
REMARK H PARENT 17 6 11 11 7 17 4 25 24 32 83 51 51 62
REMARK Flexibility Score: inf
ROOT
ATOM      1  C   UNL A   1      34.373  23.344  26.636  1.00  0.00     0.021 C 
ENDROOT
BRANCH   1   2
ATOM      2  C   UNL A   1      33.440  22.135  26.727  1.00  0.00     0.116 C 
BRANCH   2   3
ATOM      3  N   UNL A   1      32.150  22.488  27.286  1.00  0.00    -0.356 N 
ATOM      4  C   UNL A   1      31.043  23.025  26.717  1.00  0.00     0.229 C 
ATOM      5  O   UNL A   1      30.097  23.282  27.470  1.00  0.00    -0.275 OA
ATOM      6  H   UNL A   1      32.064  22.307  28.249  1.00  0.00     0.163 HD
BRANCH   4   7
ATOM      7  C   UNL A   1      30.924  23.343  25.234  1.00  0.00     0.142 C 
ATOM      8  N   UNL A   1      31.772  24.724  23.411  1.00  0.00    -0.324 N 
ATOM      9  C   UNL A   1      31.723  23.302  22.998  1.00  0.00     0.263 C 
ATOM     10  C   UNL A   1      31.168  24.786  24.768  1.00  0.00     0.194 C 
ATOM     11  H   UNL A   1      31.214  25.378  22.862  1.00  0.00     0.348 HD
ATOM     12  C   UNL A   1      31.682  22.462  24.266  1.00  0.00     0.081 C 
ATOM     13  C   UNL A   1      31.742  25.755  25.791  1.00  0.00     0.076 C 
BRANCH   8  14
ATOM     14  C   UNL A   1      33.136  25.248  23.173  1.00  0.00     0.363 C 
BRANCH  14  15
ATOM     15  C   UNL A   1      33.327  26.236  22.020  1.00  0.00     0.275 C 
ATOM     16  N   UNL A   1      33.437  27.580  22.206  1.00  0.00    -0.349 N 
ATOM     17  H   UNL A   1      33.579  28.102  21.382  1.00  0.00     0.163 HD
ATOM     18  O   UNL A   1      33.349  25.824  20.855  1.00  0.00    -0.269 OA
BRANCH  16  19
ATOM     19  C   UNL A   1      33.376  28.365  23.424  1.00  0.00     0.137 C 
BRANCH  19  20
ATOM     20  C   UNL A   1      32.022  29.056  23.647  1.00  0.00     0.137 C 
BRANCH  20  21
ATOM     21  N   UNL A   1      31.192  29.117  22.452  1.00  0.00    -0.355 N 
ATOM     22  C   UNL A   1      29.381  30.403  23.505  1.00  0.00     0.114 C 
ATOM     23  C   UNL A   1      30.017  29.791  22.287  1.00  0.00     0.216 C 
ATOM     24  O   UNL A   1      29.512  29.889  21.172  1.00  0.00    -0.275 OA
ATOM     25  H   UNL A   1      31.517  28.613  21.672  1.00  0.00     0.163 HD
ENDBRANCH  20  21
ENDBRANCH  19  20
ENDBRANCH  16  19
ENDBRANCH  14  15
ENDBRANCH   8  14
ENDBRANCH   4   7
ENDBRANCH   2   3
ENDBRANCH   1   2
BRANCH   1  26
ATOM     26  C   UNL A   1      35.354  23.336  25.468  1.00  0.00     0.002 C 
BRANCH  26  27
ATOM     27  C   UNL A   1      35.256  22.122  24.548  1.00  0.00     0.002 C 
BRANCH  27  28
ATOM     28  C   UNL A   1      36.311  21.039  24.791  1.00  0.00     0.021 C 
BRANCH  28  29
ATOM     29  C   UNL A   1      37.698  21.562  25.153  1.00  0.00     0.116 C 
BRANCH  29  30
ATOM     30  N   UNL A   1      38.528  20.527  25.743  1.00  0.00    -0.352 N 
ATOM     31  C   UNL A   1      39.752  20.642  26.356  1.00  0.00     0.251 C 
ATOM     32  H   UNL A   1      38.164  19.613  25.695  1.00  0.00     0.163 HD
ATOM     33  O   UNL A   1      40.424  19.642  26.571  1.00  0.00    -0.269 OA
BRANCH  31  34
ATOM     34  C   UNL A   1      40.252  21.981  26.733  1.00  0.00     0.039 A 
ATOM     35  C   UNL A   1      41.202  22.087  27.752  1.00  0.00     0.014 A 
ATOM     36  C   UNL A   1      39.781  23.129  26.087  1.00  0.00     0.014 A 
ATOM     37  C   UNL A   1      41.718  23.340  28.086  1.00  0.00     0.010 A 
ATOM     38  C   UNL A   1      40.351  24.367  26.370  1.00  0.00     0.010 A 
ATOM     39  C   UNL A   1      41.320  24.488  27.378  1.00  0.00    -0.014 A 
BRANCH  39  40
ATOM     40  C   UNL A   1      41.894  25.823  27.692  1.00  0.00     0.031 A 
ATOM     41  C   UNL A   1      41.068  26.838  28.434  1.00  0.00     0.074 A 
ATOM     42  C   UNL A   1      43.137  26.132  27.274  1.00  0.00     0.049 A 
ATOM     43  N   UNL A   1      41.358  28.077  28.740  1.00  0.00    -0.248 NA
ATOM     44  C   UNL A   1      39.729  26.410  28.868  1.00  0.00     0.031 C 
ATOM     45  C   UNL A   1      44.023  25.240  26.522  1.00  0.00     0.029 A 
ATOM     46  N   UNL A   1      43.872  27.284  27.414  1.00  0.00    -0.354 N 
ATOM     47  C   UNL A   1      40.240  28.575  29.403  1.00  0.00     0.074 A 
ATOM     48  C   UNL A   1      39.243  27.527  29.386  1.00  0.00     0.031 C 
ATOM     49  C   UNL A   1      45.186  25.869  26.289  1.00  0.00     0.029 A 
ATOM     50  C   UNL A   1      45.115  27.223  26.827  1.00  0.00     0.049 A 
ATOM     51  H   UNL A   1      43.540  28.079  27.891  1.00  0.00     0.167 HD
ATOM     52  C   UNL A   1      40.073  29.782  29.998  1.00  0.00     0.034 A 
ATOM     53  C   UNL A   1      46.080  28.159  26.720  1.00  0.00     0.034 A 
ATOM     54  C   UNL A   1      41.077  30.818  30.005  1.00  0.00     0.049 A 
ATOM     55  C   UNL A   1      45.848  29.516  27.341  1.00  0.00     0.074 A 
ATOM     56  C   UNL A   1      41.020  32.072  30.590  1.00  0.00     0.029 A 
ATOM     57  N   UNL A   1      42.321  30.724  29.393  1.00  0.00    -0.354 N 
ATOM     58  N   UNL A   1      44.798  29.957  27.995  1.00  0.00    -0.248 NA
ATOM     59  C   UNL A   1      46.934  30.496  27.220  1.00  0.00     0.031 C 
ATOM     60  C   UNL A   1      42.199  32.757  30.278  1.00  0.00     0.029 A 
ATOM     61  C   UNL A   1      43.028  31.904  29.567  1.00  0.00     0.049 A 
ATOM     62  H   UNL A   1      42.652  29.934  28.907  1.00  0.00     0.167 HD
ATOM     63  C   UNL A   1      45.117  31.252  28.397  1.00  0.00     0.074 A 
ATOM     64  C   UNL A   1      46.462  31.512  27.926  1.00  0.00     0.031 C 
ATOM     65  C   UNL A   1      44.370  32.146  29.093  1.00  0.00     0.034 A 
BRANCH  52  66
ATOM     66  C   UNL A   1      38.751  30.043  30.679  1.00  0.00     0.023 A 
ATOM     67  C   UNL A   1      37.738  30.791  30.051  1.00  0.00     0.031 A 
ATOM     68  C   UNL A   1      38.501  29.559  31.975  1.00  0.00     0.131 A 
ATOM     69  C   UNL A   1      36.557  31.095  30.744  1.00  0.00     0.055 A 
ATOM     70  C   UNL A   1      37.289  29.794  32.627  1.00  0.00     0.041 A 
ATOM     71  F   UNL A   1      39.435  28.858  32.635  1.00  0.00    -0.206 F 
ATOM     72  C   UNL A   1      36.313  30.579  32.019  1.00  0.00     0.022 A 
BRANCH  69  73
ATOM     73  S   UNL A   1      35.408  32.290  30.011  1.00  0.00     0.124 S 
ATOM     74  O   UNL A   1      34.904  31.545  28.859  1.00  0.00    -0.237 OA
ATOM     75  O   UNL A   1      34.456  32.518  31.091  1.00  0.00    -0.237 OA
ATOM     76  O   UNL A   1      36.263  33.428  29.681  1.00  0.00    -0.744 OA
ENDBRANCH  69  73
ENDBRANCH  52  66
BRANCH  53  77
ATOM     77  C   UNL A   1      47.348  27.870  25.986  1.00  0.00     0.023 A 
ATOM     78  C   UNL A   1      47.434  28.047  24.596  1.00  0.00     0.031 A 
ATOM     79  C   UNL A   1      48.467  27.338  26.650  1.00  0.00     0.131 A 
ATOM     80  C   UNL A   1      48.584  27.632  23.906  1.00  0.00     0.055 A 
ATOM     81  C   UNL A   1      49.635  26.989  25.969  1.00  0.00     0.041 A 
ATOM     82  F   UNL A   1      48.443  27.146  27.979  1.00  0.00    -0.206 F 
ATOM     83  C   UNL A   1      49.691  27.118  24.584  1.00  0.00     0.022 A 
BRANCH  80  84
ATOM     84  S   UNL A   1      48.561  27.652  22.093  1.00  0.00     0.124 S 
ATOM     85  O   UNL A   1      49.686  28.530  21.793  1.00  0.00    -0.237 OA
ATOM     86  O   UNL A   1      48.743  26.240  21.772  1.00  0.00    -0.237 OA
ATOM     87  O   UNL A   1      47.242  28.198  21.777  1.00  0.00    -0.744 OA
ENDBRANCH  80  84
ENDBRANCH  53  77
BRANCH  65  88
ATOM     88  C   UNL A   1      45.020  33.465  29.436  1.00  0.00     0.023 A 
ATOM     89  C   UNL A   1      44.860  34.606  28.632  1.00  0.00     0.031 A 
ATOM     90  C   UNL A   1      45.825  33.575  30.585  1.00  0.00     0.131 A 
ATOM     91  C   UNL A   1      45.543  35.789  28.951  1.00  0.00     0.055 A 
ATOM     92  C   UNL A   1      46.449  34.774  30.935  1.00  0.00     0.041 A 
ATOM     93  F   UNL A   1      46.017  32.518  31.390  1.00  0.00    -0.206 F 
ATOM     94  C   UNL A   1      46.321  35.886  30.107  1.00  0.00     0.022 A 
BRANCH  91  95
ATOM     95  S   UNL A   1      45.478  37.174  27.782  1.00  0.00     0.124 S 
ATOM     96  O   UNL A   1      46.772  37.069  27.114  1.00  0.00    -0.237 OA
ATOM     97  O   UNL A   1      44.314  36.842  26.968  1.00  0.00    -0.237 OA
ATOM     98  O   UNL A   1      45.317  38.344  28.644  1.00  0.00    -0.744 OA
ENDBRANCH  91  95
ENDBRANCH  65  88
ENDBRANCH  39  40
ENDBRANCH  31  34
ENDBRANCH  29  30
ENDBRANCH  28  29
ENDBRANCH  27  28
ENDBRANCH  26  27
ENDBRANCH   1  26
TORSDOF 21
ENDMDL
MODEL 3
REMARK VINA RESULT:     -10.7      2.681      3.288
REMARK SMILES CC(=O)NCCNC(=O)C[N@H+]1CC[C@@H](C(=O)NCCCCCCNC(=O)c2ccc(-c3c4nc(c(-c5cc(S(=O)(=O)[O-])ccc5F)c5ccc([nH]5)c(-c5cc(S(=O)(=O)[O-])ccc5F)c5nc(c(-c6cc(S(=O)(=O)[O-])ccc6F)c6ccc3[nH]6)C=C5)C=C4)cc2)[C@H]1C
REMARK SMILES IDX 19 1 18 2 17 3 15 4 16 5 14 7 11 8 12 9 90 10 13 12 91 13
REMARK SMILES IDX 10 14 8 15 7 16 9 18 6 19 5 20 4 21 1 22 2 23 3 24 20 26
REMARK SMILES IDX 21 27 22 28 23 29 24 30 25 31 26 33 27 34 28 35 89 36 29 37
REMARK SMILES IDX 88 38 30 39 31 40 32 41 82 42 33 43 87 44 81 45 83 46 34 47
REMARK SMILES IDX 86 48 80 49 79 50 35 52 67 53 47 54 66 55 48 56 51 57 65 58
REMARK SMILES IDX 84 59 49 60 50 61 64 63 85 64 52 65 36 66 37 67 45 68 38 69
REMARK SMILES IDX 44 70 46 71 43 72 39 73 40 74 41 75 42 76 68 77 69 78 77 79
REMARK SMILES IDX 70 80 76 81 78 82 75 83 71 84 72 85 73 86 74 87 53 88 54 89
REMARK SMILES IDX 62 90 55 91 61 92 63 93 60 94 56 95 57 96 58 97 59 98
REMARK H PARENT 17 6 11 11 7 17 4 25 24 32 83 51 51 62
REMARK Flexibility Score: inf
ROOT
ATOM      1  C   UNL A   1      34.229  23.248  26.833  1.00  0.00     0.021 C 
ENDROOT
BRANCH   1   2
ATOM      2  C   UNL A   1      33.219  22.120  26.615  1.00  0.00     0.116 C 
BRANCH   2   3
ATOM      3  N   UNL A   1      31.948  22.403  27.253  1.00  0.00    -0.356 N 
ATOM      4  C   UNL A   1      30.835  23.026  26.797  1.00  0.00     0.229 C 
ATOM      5  O   UNL A   1      29.911  23.183  27.604  1.00  0.00    -0.275 OA
ATOM      6  H   UNL A   1      31.883  22.086  28.183  1.00  0.00     0.163 HD
BRANCH   4   7
ATOM      7  C   UNL A   1      30.683  23.554  25.378  1.00  0.00     0.142 C 
ATOM      8  N   UNL A   1      31.511  25.167  23.746  1.00  0.00    -0.324 N 
ATOM      9  C   UNL A   1      31.421  23.819  23.136  1.00  0.00     0.263 C 
ATOM     10  C   UNL A   1      30.945  25.045  25.114  1.00  0.00     0.194 C 
ATOM     11  H   UNL A   1      30.952  25.902  23.311  1.00  0.00     0.348 HD
ATOM     12  C   UNL A   1      31.397  22.807  24.273  1.00  0.00     0.081 C 
ATOM     13  C   UNL A   1      31.565  25.849  26.248  1.00  0.00     0.076 C 
BRANCH   8  14
ATOM     14  C   UNL A   1      32.879  25.697  23.544  1.00  0.00     0.363 C 
BRANCH  14  15
ATOM     15  C   UNL A   1      33.199  26.347  22.197  1.00  0.00     0.275 C 
ATOM     16  N   UNL A   1      32.947  27.657  21.927  1.00  0.00    -0.349 N 
ATOM     17  H   UNL A   1      33.221  27.955  21.029  1.00  0.00     0.163 HD
ATOM     18  O   UNL A   1      33.673  25.665  21.282  1.00  0.00    -0.269 OA
BRANCH  16  19
ATOM     19  C   UNL A   1      32.338  28.682  22.753  1.00  0.00     0.137 C 
BRANCH  19  20
ATOM     20  C   UNL A   1      33.241  29.175  23.893  1.00  0.00     0.137 C 
BRANCH  20  21
ATOM     21  N   UNL A   1      32.515  29.810  24.984  1.00  0.00    -0.355 N 
ATOM     22  C   UNL A   1      33.891  28.827  26.769  1.00  0.00     0.114 C 
ATOM     23  C   UNL A   1      32.809  29.769  26.316  1.00  0.00     0.216 C 
ATOM     24  O   UNL A   1      32.204  30.490  27.105  1.00  0.00    -0.275 OA
ATOM     25  H   UNL A   1      31.718  30.329  24.731  1.00  0.00     0.163 HD
ENDBRANCH  20  21
ENDBRANCH  19  20
ENDBRANCH  16  19
ENDBRANCH  14  15
ENDBRANCH   8  14
ENDBRANCH   4   7
ENDBRANCH   2   3
ENDBRANCH   1   2
BRANCH   1  26
ATOM     26  C   UNL A   1      35.023  23.669  25.601  1.00  0.00     0.002 C 
BRANCH  26  27
ATOM     27  C   UNL A   1      35.099  22.625  24.490  1.00  0.00     0.002 C 
BRANCH  27  28
ATOM     28  C   UNL A   1      36.277  21.653  24.595  1.00  0.00     0.021 C 
BRANCH  28  29
ATOM     29  C   UNL A   1      37.573  22.266  25.121  1.00  0.00     0.116 C 
BRANCH  29  30
ATOM     30  N   UNL A   1      38.452  21.261  25.692  1.00  0.00    -0.352 N 
ATOM     31  C   UNL A   1      39.648  21.428  26.346  1.00  0.00     0.251 C 
ATOM     32  H   UNL A   1      38.150  20.329  25.594  1.00  0.00     0.163 HD
ATOM     33  O   UNL A   1      40.378  20.464  26.540  1.00  0.00    -0.269 OA
BRANCH  31  34
ATOM     34  C   UNL A   1      40.049  22.778  26.794  1.00  0.00     0.039 A 
ATOM     35  C   UNL A   1      40.924  22.901  27.875  1.00  0.00     0.014 A 
ATOM     36  C   UNL A   1      39.558  23.920  26.152  1.00  0.00     0.014 A 
ATOM     37  C   UNL A   1      41.348  24.169  28.279  1.00  0.00     0.010 A 
ATOM     38  C   UNL A   1      40.040  25.177  26.508  1.00  0.00     0.010 A 
ATOM     39  C   UNL A   1      40.935  25.316  27.580  1.00  0.00    -0.014 A 
BRANCH  39  40
ATOM     40  C   UNL A   1      41.413  26.668  27.969  1.00  0.00     0.031 A 
ATOM     41  C   UNL A   1      42.849  27.053  27.730  1.00  0.00     0.074 A 
ATOM     42  C   UNL A   1      40.571  27.529  28.573  1.00  0.00     0.049 A 
ATOM     43  N   UNL A   1      43.477  28.152  28.062  1.00  0.00    -0.248 NA
ATOM     44  C   UNL A   1      43.694  26.060  27.050  1.00  0.00     0.031 C 
ATOM     45  C   UNL A   1      39.165  27.258  28.883  1.00  0.00     0.029 A 
ATOM     46  N   UNL A   1      40.771  28.804  29.042  1.00  0.00    -0.354 N 
ATOM     47  C   UNL A   1      44.789  27.984  27.629  1.00  0.00     0.074 A 
ATOM     48  C   UNL A   1      44.879  26.648  27.080  1.00  0.00     0.031 C 
ATOM     49  C   UNL A   1      38.626  28.339  29.467  1.00  0.00     0.029 A 
ATOM     50  C   UNL A   1      39.656  29.363  29.622  1.00  0.00     0.049 A 
ATOM     51  H   UNL A   1      41.633  29.274  28.970  1.00  0.00     0.167 HD
ATOM     52  C   UNL A   1      45.813  28.872  27.657  1.00  0.00     0.034 A 
ATOM     53  C   UNL A   1      39.486  30.557  30.225  1.00  0.00     0.034 A 
ATOM     54  C   UNL A   1      45.708  30.200  28.209  1.00  0.00     0.049 A 
ATOM     55  C   UNL A   1      40.658  31.506  30.296  1.00  0.00     0.074 A 
ATOM     56  C   UNL A   1      46.676  31.188  28.276  1.00  0.00     0.029 A 
ATOM     57  N   UNL A   1      44.564  30.729  28.795  1.00  0.00    -0.354 N 
ATOM     58  N   UNL A   1      41.883  31.344  29.849  1.00  0.00    -0.248 NA
ATOM     59  C   UNL A   1      40.423  32.804  30.940  1.00  0.00     0.031 C 
ATOM     60  C   UNL A   1      46.139  32.285  28.958  1.00  0.00     0.029 A 
ATOM     61  C   UNL A   1      44.811  32.017  29.246  1.00  0.00     0.049 A 
ATOM     62  H   UNL A   1      43.703  30.258  28.878  1.00  0.00     0.167 HD
ATOM     63  C   UNL A   1      42.549  32.536  30.125  1.00  0.00     0.074 A 
ATOM     64  C   UNL A   1      41.586  33.411  30.759  1.00  0.00     0.031 C 
ATOM     65  C   UNL A   1      43.839  32.878  29.875  1.00  0.00     0.034 A 
BRANCH  52  66
ATOM     66  C   UNL A   1      47.136  28.424  27.083  1.00  0.00     0.023 A 
ATOM     67  C   UNL A   1      47.302  28.215  25.702  1.00  0.00     0.031 A 
ATOM     68  C   UNL A   1      48.239  28.183  27.920  1.00  0.00     0.131 A 
ATOM     69  C   UNL A   1      48.515  27.710  25.209  1.00  0.00     0.055 A 
ATOM     70  C   UNL A   1      49.470  27.761  27.413  1.00  0.00     0.041 A 
ATOM     71  F   UNL A   1      48.137  28.343  29.248  1.00  0.00    -0.206 F 
ATOM     72  C   UNL A   1      49.610  27.507  26.051  1.00  0.00     0.022 A 
BRANCH  69  73
ATOM     73  S   UNL A   1      48.593  27.191  23.474  1.00  0.00     0.124 S 
ATOM     74  O   UNL A   1      50.033  27.196  23.228  1.00  0.00    -0.237 OA
ATOM     75  O   UNL A   1      47.956  25.880  23.507  1.00  0.00    -0.237 OA
ATOM     76  O   UNL A   1      47.845  28.231  22.771  1.00  0.00    -0.744 OA
ENDBRANCH  69  73
ENDBRANCH  52  66
BRANCH  53  77
ATOM     77  C   UNL A   1      38.173  30.929  30.829  1.00  0.00     0.023 A 
ATOM     78  C   UNL A   1      37.203  31.618  30.082  1.00  0.00     0.031 A 
ATOM     79  C   UNL A   1      37.896  30.672  32.183  1.00  0.00     0.131 A 
ATOM     80  C   UNL A   1      36.037  32.086  30.709  1.00  0.00     0.055 A 
ATOM     81  C   UNL A   1      36.705  31.080  32.786  1.00  0.00     0.041 A 
ATOM     82  F   UNL A   1      38.786  30.017  32.946  1.00  0.00    -0.206 F 
ATOM     83  C   UNL A   1      35.775  31.809  32.052  1.00  0.00     0.022 A 
BRANCH  80  84
ATOM     84  S   UNL A   1      34.930  33.176  29.774  1.00  0.00     0.124 S 
ATOM     85  O   UNL A   1      34.069  33.698  30.829  1.00  0.00    -0.237 OA
ATOM     86  O   UNL A   1      35.868  34.125  29.182  1.00  0.00    -0.237 OA
ATOM     87  O   UNL A   1      34.280  32.270  28.829  1.00  0.00    -0.744 OA
ENDBRANCH  80  84
ENDBRANCH  53  77
BRANCH  65  88
ATOM     88  C   UNL A   1      44.258  34.283  30.237  1.00  0.00     0.023 A 
ATOM     89  C   UNL A   1      44.814  34.594  31.490  1.00  0.00     0.031 A 
ATOM     90  C   UNL A   1      44.087  35.330  29.312  1.00  0.00     0.131 A 
ATOM     91  C   UNL A   1      45.120  35.926  31.808  1.00  0.00     0.055 A 
ATOM     92  C   UNL A   1      44.455  36.643  29.610  1.00  0.00     0.041 A 
ATOM     93  F   UNL A   1      43.559  35.092  28.101  1.00  0.00    -0.206 F 
ATOM     94  C   UNL A   1      44.963  36.948  30.870  1.00  0.00     0.022 A 
BRANCH  91  95
ATOM     95  S   UNL A   1      45.638  36.319  33.501  1.00  0.00     0.124 S 
ATOM     96  O   UNL A   1      46.523  35.202  33.816  1.00  0.00    -0.237 OA
ATOM     97  O   UNL A   1      46.285  37.617  33.337  1.00  0.00    -0.237 OA
ATOM     98  O   UNL A   1      44.382  36.345  34.248  1.00  0.00    -0.744 OA
ENDBRANCH  91  95
ENDBRANCH  65  88
ENDBRANCH  39  40
ENDBRANCH  31  34
ENDBRANCH  29  30
ENDBRANCH  28  29
ENDBRANCH  27  28
ENDBRANCH  26  27
ENDBRANCH   1  26
TORSDOF 21
ENDMDL
