MODEL 1
REMARK VINA RESULT:     -11.3      0.000      0.000
REMARK SMILES CCc1[nH]nc(-n2cccc2)c1C(=O)NCCCCCCNC(=O)c1ccc(-c2c3nc(c(-c4cc(S(=O)(=O)[O-])ccc4F)c4ccc([nH]4)c(-c4cc(S(=O)(=O)[O-])ccc4F)c4nc(c(-c5cc(S(=O)(=O)[O-])ccc5F)c5ccc2[nH]5)C=C4)C=C3)cc1
REMARK SMILES IDX 19 1 18 2 17 3 16 4 15 5 13 6 14 7 12 9 3 10 4 11 5 12 6 14
REMARK SMILES IDX 2 15 1 16 7 17 8 18 11 19 9 20 10 21 20 22 21 23 22 24 23 25
REMARK SMILES IDX 24 27 25 28 26 29 87 30 27 31 86 32 28 33 29 34 30 35 80 36
REMARK SMILES IDX 31 37 85 38 79 39 81 40 32 41 84 42 78 43 77 44 33 46 65 47
REMARK SMILES IDX 45 48 64 49 46 50 49 51 63 52 82 53 47 54 48 55 62 57 83 58
REMARK SMILES IDX 50 59 34 60 35 61 43 62 36 63 42 64 44 65 41 66 37 67 38 68
REMARK SMILES IDX 39 69 40 70 66 71 67 72 75 73 68 74 74 75 76 76 73 77 69 78
REMARK SMILES IDX 70 79 71 80 72 81 51 82 52 83 60 84 53 85 59 86 61 87 58 88
REMARK SMILES IDX 54 89 55 90 56 91 57 92
REMARK H PARENT 15 8 4 13 22 26 81 45 49 56
REMARK Flexibility Score: inf
ROOT
ATOM      1  C   UNL A   1      35.838  23.563  25.200  1.00  0.00     0.002 C 
ENDROOT
BRANCH   1   2
ATOM      2  C   UNL A   1      35.162  22.565  24.248  1.00  0.00     0.002 C 
BRANCH   2   3
ATOM      3  C   UNL A   1      34.845  23.122  22.859  1.00  0.00     0.021 C 
BRANCH   3   4
ATOM      4  C   UNL A   1      33.457  23.740  22.780  1.00  0.00     0.116 C 
BRANCH   4   5
ATOM      5  N   UNL A   1      33.496  25.109  23.158  1.00  0.00    -0.352 N 
ATOM      6  C   UNL A   1      33.123  25.714  24.314  1.00  0.00     0.256 C 
ATOM      7  O   UNL A   1      33.865  26.671  24.559  1.00  0.00    -0.269 OA
ATOM      8  H   UNL A   1      33.852  25.717  22.472  1.00  0.00     0.163 HD
BRANCH   6   9
ATOM      9  C   UNL A   1      32.048  25.316  25.241  1.00  0.00     0.105 A 
ATOM     10  C   UNL A   1      31.763  24.273  26.157  1.00  0.00     0.050 A 
ATOM     11  N   UNL A   1      30.589  24.664  26.779  1.00  0.00    -0.280 N 
ATOM     12  N   UNL A   1      30.073  25.815  26.369  1.00  0.00    -0.156 NA
ATOM     13  H   UNL A   1      30.162  24.121  27.481  1.00  0.00     0.190 HD
ATOM     14  C   UNL A   1      30.859  26.138  25.342  1.00  0.00     0.171 A 
BRANCH  10  15
ATOM     15  C   UNL A   1      32.203  22.876  26.559  1.00  0.00     0.053 C 
ATOM     16  C   UNL A   1      33.212  22.656  27.672  1.00  0.00     0.011 C 
ENDBRANCH  10  15
BRANCH  14  17
ATOM     17  N   UNL A   1      30.401  27.208  24.500  1.00  0.00    -0.307 N 
ATOM     18  C   UNL A   1      30.926  28.485  24.395  1.00  0.00     0.093 A 
ATOM     19  C   UNL A   1      29.384  27.118  23.565  1.00  0.00     0.093 A 
ATOM     20  C   UNL A   1      30.144  29.230  23.541  1.00  0.00     0.020 A 
ATOM     21  C   UNL A   1      29.157  28.365  23.024  1.00  0.00     0.020 A 
ENDBRANCH  14  17
ENDBRANCH   6   9
ENDBRANCH   4   5
ENDBRANCH   3   4
ENDBRANCH   2   3
ENDBRANCH   1   2
BRANCH   1  22
ATOM     22  C   UNL A   1      37.319  23.284  25.503  1.00  0.00     0.021 C 
BRANCH  22  23
ATOM     23  C   UNL A   1      37.865  24.153  26.630  1.00  0.00     0.116 C 
BRANCH  23  24
ATOM     24  N   UNL A   1      39.132  23.616  27.089  1.00  0.00    -0.352 N 
ATOM     25  C   UNL A   1      40.305  24.221  27.443  1.00  0.00     0.251 C 
ATOM     26  H   UNL A   1      39.150  22.634  27.158  1.00  0.00     0.163 HD
ATOM     27  O   UNL A   1      41.321  23.539  27.454  1.00  0.00    -0.269 OA
BRANCH  25  28
ATOM     28  C   UNL A   1      40.376  25.651  27.810  1.00  0.00     0.039 A 
ATOM     29  C   UNL A   1      40.394  25.954  29.180  1.00  0.00     0.014 A 
ATOM     30  C   UNL A   1      40.300  26.677  26.865  1.00  0.00     0.014 A 
ATOM     31  C   UNL A   1      40.361  27.276  29.599  1.00  0.00     0.010 A 
ATOM     32  C   UNL A   1      40.301  28.002  27.274  1.00  0.00     0.010 A 
ATOM     33  C   UNL A   1      40.330  28.292  28.640  1.00  0.00    -0.014 A 
BRANCH  33  34
ATOM     34  C   UNL A   1      40.478  29.692  29.069  1.00  0.00     0.031 A 
ATOM     35  C   UNL A   1      39.084  30.323  29.365  1.00  0.00     0.074 A 
ATOM     36  C   UNL A   1      41.775  30.139  29.129  1.00  0.00     0.049 A 
ATOM     37  N   UNL A   1      38.708  31.563  29.417  1.00  0.00    -0.248 NA
ATOM     38  C   UNL A   1      37.903  29.426  29.580  1.00  0.00     0.031 C 
ATOM     39  C   UNL A   1      42.986  29.325  28.827  1.00  0.00     0.029 A 
ATOM     40  N   UNL A   1      42.358  31.341  29.456  1.00  0.00    -0.354 N 
ATOM     41  C   UNL A   1      37.375  31.602  29.910  1.00  0.00     0.074 A 
ATOM     42  C   UNL A   1      36.899  30.257  29.872  1.00  0.00     0.031 C 
ATOM     43  C   UNL A   1      44.116  30.070  28.892  1.00  0.00     0.029 A 
ATOM     44  C   UNL A   1      43.773  31.426  29.264  1.00  0.00     0.049 A 
ATOM     45  H   UNL A   1      41.833  32.100  29.801  1.00  0.00     0.167 HD
ATOM     46  C   UNL A   1      36.803  32.729  30.435  1.00  0.00     0.034 A 
ATOM     47  C   UNL A   1      44.584  32.531  29.360  1.00  0.00     0.034 A 
ATOM     48  C   UNL A   1      37.726  33.807  30.329  1.00  0.00     0.049 A 
ATOM     49  C   UNL A   1      43.684  33.557  29.902  1.00  0.00     0.074 A 
ATOM     50  C   UNL A   1      38.151  34.543  29.258  1.00  0.00     0.029 A 
ATOM     51  N   UNL A   1      38.580  34.008  31.388  1.00  0.00    -0.354 N 
ATOM     52  N   UNL A   1      43.262  33.594  31.129  1.00  0.00    -0.248 NA
ATOM     53  C   UNL A   1      43.124  34.557  28.985  1.00  0.00     0.031 C 
ATOM     54  C   UNL A   1      39.520  34.718  29.532  1.00  0.00     0.029 A 
ATOM     55  C   UNL A   1      39.800  34.322  30.848  1.00  0.00     0.049 A 
ATOM     56  H   UNL A   1      38.357  33.939  32.345  1.00  0.00     0.167 HD
ATOM     57  C   UNL A   1      42.164  34.407  31.042  1.00  0.00     0.074 A 
ATOM     58  C   UNL A   1      42.334  35.199  29.840  1.00  0.00     0.031 C 
ATOM     59  C   UNL A   1      40.992  34.024  31.612  1.00  0.00     0.034 A 
BRANCH  46  60
ATOM     60  C   UNL A   1      35.552  33.021  31.229  1.00  0.00     0.023 A 
ATOM     61  C   UNL A   1      34.781  34.131  30.789  1.00  0.00     0.031 A 
ATOM     62  C   UNL A   1      35.253  32.531  32.504  1.00  0.00     0.131 A 
ATOM     63  C   UNL A   1      33.896  34.805  31.639  1.00  0.00     0.055 A 
ATOM     64  C   UNL A   1      34.307  33.163  33.333  1.00  0.00     0.041 A 
ATOM     65  F   UNL A   1      35.914  31.488  33.025  1.00  0.00    -0.206 F 
ATOM     66  C   UNL A   1      33.656  34.327  32.920  1.00  0.00     0.022 A 
BRANCH  63  67
ATOM     67  S   UNL A   1      33.240  36.410  31.091  1.00  0.00     0.124 S 
ATOM     68  O   UNL A   1      34.037  37.352  31.869  1.00  0.00    -0.237 OA
ATOM     69  O   UNL A   1      33.510  36.376  29.658  1.00  0.00    -0.237 OA
ATOM     70  O   UNL A   1      31.827  36.340  31.459  1.00  0.00    -0.744 OA
ENDBRANCH  63  67
ENDBRANCH  46  60
BRANCH  47  71
ATOM     71  C   UNL A   1      45.996  33.011  29.032  1.00  0.00     0.023 A 
ATOM     72  C   UNL A   1      46.519  33.347  27.769  1.00  0.00     0.031 A 
ATOM     73  C   UNL A   1      46.900  33.248  30.120  1.00  0.00     0.131 A 
ATOM     74  C   UNL A   1      47.809  33.955  27.664  1.00  0.00     0.055 A 
ATOM     75  C   UNL A   1      48.113  33.928  30.022  1.00  0.00     0.041 A 
ATOM     76  F   UNL A   1      46.646  32.829  31.368  1.00  0.00    -0.206 F 
ATOM     77  C   UNL A   1      48.568  34.303  28.785  1.00  0.00     0.022 A 
BRANCH  74  78
ATOM     78  S   UNL A   1      48.563  34.339  26.051  1.00  0.00     0.124 S 
ATOM     79  O   UNL A   1      49.365  35.516  26.364  1.00  0.00    -0.237 OA
ATOM     80  O   UNL A   1      49.301  33.120  25.737  1.00  0.00    -0.237 OA
ATOM     81  O   UNL A   1      47.406  34.592  25.190  1.00  0.00    -0.744 OA
ENDBRANCH  74  78
ENDBRANCH  47  71
BRANCH  59  82
ATOM     82  C   UNL A   1      41.128  33.001  32.744  1.00  0.00     0.023 A 
ATOM     83  C   UNL A   1      40.954  31.629  32.478  1.00  0.00     0.031 A 
ATOM     84  C   UNL A   1      41.317  33.336  34.098  1.00  0.00     0.131 A 
ATOM     85  C   UNL A   1      40.941  30.678  33.520  1.00  0.00     0.055 A 
ATOM     86  C   UNL A   1      41.309  32.395  35.138  1.00  0.00     0.041 A 
ATOM     87  F   UNL A   1      41.511  34.598  34.476  1.00  0.00    -0.206 F 
ATOM     88  C   UNL A   1      41.116  31.055  34.851  1.00  0.00     0.022 A 
BRANCH  85  89
ATOM     89  S   UNL A   1      40.715  28.925  33.118  1.00  0.00     0.124 S 
ATOM     90  O   UNL A   1      39.381  28.900  32.529  1.00  0.00    -0.237 OA
ATOM     91  O   UNL A   1      41.825  28.666  32.206  1.00  0.00    -0.237 OA
ATOM     92  O   UNL A   1      40.827  28.260  34.418  1.00  0.00    -0.744 OA
ENDBRANCH  85  89
ENDBRANCH  59  82
ENDBRANCH  33  34
ENDBRANCH  25  28
ENDBRANCH  23  24
ENDBRANCH  22  23
ENDBRANCH   1  22
TORSDOF 18
ENDMDL
MODEL 2
REMARK VINA RESULT:     -10.7      3.888      7.132
REMARK SMILES CCc1[nH]nc(-n2cccc2)c1C(=O)NCCCCCCNC(=O)c1ccc(-c2c3nc(c(-c4cc(S(=O)(=O)[O-])ccc4F)c4ccc([nH]4)c(-c4cc(S(=O)(=O)[O-])ccc4F)c4nc(c(-c5cc(S(=O)(=O)[O-])ccc5F)c5ccc2[nH]5)C=C4)C=C3)cc1
REMARK SMILES IDX 19 1 18 2 17 3 16 4 15 5 13 6 14 7 12 9 3 10 4 11 5 12 6 14
REMARK SMILES IDX 2 15 1 16 7 17 8 18 11 19 9 20 10 21 20 22 21 23 22 24 23 25
REMARK SMILES IDX 24 27 25 28 26 29 87 30 27 31 86 32 28 33 29 34 30 35 80 36
REMARK SMILES IDX 31 37 85 38 79 39 81 40 32 41 84 42 78 43 77 44 33 46 65 47
REMARK SMILES IDX 45 48 64 49 46 50 49 51 63 52 82 53 47 54 48 55 62 57 83 58
REMARK SMILES IDX 50 59 34 60 35 61 43 62 36 63 42 64 44 65 41 66 37 67 38 68
REMARK SMILES IDX 39 69 40 70 66 71 67 72 75 73 68 74 74 75 76 76 73 77 69 78
REMARK SMILES IDX 70 79 71 80 72 81 51 82 52 83 60 84 53 85 59 86 61 87 58 88
REMARK SMILES IDX 54 89 55 90 56 91 57 92
REMARK H PARENT 15 8 4 13 22 26 81 45 49 56
REMARK Flexibility Score: inf
ROOT
ATOM      1  C   UNL A   1      43.331  25.474  27.570  1.00  0.00     0.002 C 
ENDROOT
BRANCH   1   2
ATOM      2  C   UNL A   1      43.102  25.293  29.078  1.00  0.00     0.002 C 
BRANCH   2   3
ATOM      3  C   UNL A   1      44.297  24.718  29.841  1.00  0.00     0.021 C 
BRANCH   3   4
ATOM      4  C   UNL A   1      45.520  25.619  29.776  1.00  0.00     0.116 C 
BRANCH   4   5
ATOM      5  N   UNL A   1      46.599  24.955  29.133  1.00  0.00    -0.352 N 
ATOM      6  C   UNL A   1      47.332  25.312  28.049  1.00  0.00     0.256 C 
ATOM      7  O   UNL A   1      48.501  24.935  28.175  1.00  0.00    -0.269 OA
ATOM      8  H   UNL A   1      46.857  24.098  29.540  1.00  0.00     0.163 HD
BRANCH   6   9
ATOM      9  C   UNL A   1      46.898  26.098  26.878  1.00  0.00     0.105 A 
ATOM     10  C   UNL A   1      46.692  27.453  26.521  1.00  0.00     0.050 A 
ATOM     11  N   UNL A   1      46.406  27.419  25.167  1.00  0.00    -0.280 N 
ATOM     12  N   UNL A   1      46.386  26.216  24.610  1.00  0.00    -0.156 NA
ATOM     13  H   UNL A   1      46.228  28.237  24.649  1.00  0.00     0.190 HD
ATOM     14  C   UNL A   1      46.530  25.406  25.659  1.00  0.00     0.171 A 
BRANCH  10  15
ATOM     15  C   UNL A   1      46.537  28.840  27.120  1.00  0.00     0.053 C 
ATOM     16  C   UNL A   1      46.404  30.069  26.239  1.00  0.00     0.011 C 
ENDBRANCH  10  15
BRANCH  14  17
ATOM     17  N   UNL A   1      46.277  24.011  25.428  1.00  0.00    -0.307 N 
ATOM     18  C   UNL A   1      45.720  23.097  26.306  1.00  0.00     0.093 A 
ATOM     19  C   UNL A   1      46.475  23.344  24.231  1.00  0.00     0.093 A 
ATOM     20  C   UNL A   1      45.732  21.847  25.729  1.00  0.00     0.020 A 
ATOM     21  C   UNL A   1      46.223  22.002  24.416  1.00  0.00     0.020 A 
ENDBRANCH  14  17
ENDBRANCH   6   9
ENDBRANCH   4   5
ENDBRANCH   3   4
ENDBRANCH   2   3
ENDBRANCH   1   2
BRANCH   1  22
ATOM     22  C   UNL A   1      42.649  24.430  26.671  1.00  0.00     0.021 C 
BRANCH  22  23
ATOM     23  C   UNL A   1      41.884  23.377  27.467  1.00  0.00     0.116 C 
BRANCH  23  24
ATOM     24  N   UNL A   1      40.502  23.345  27.028  1.00  0.00    -0.352 N 
ATOM     25  C   UNL A   1      39.458  24.203  27.236  1.00  0.00     0.251 C 
ATOM     26  H   UNL A   1      40.274  22.560  26.480  1.00  0.00     0.163 HD
ATOM     27  O   UNL A   1      38.324  23.778  27.060  1.00  0.00    -0.269 OA
BRANCH  25  28
ATOM     28  C   UNL A   1      39.661  25.605  27.654  1.00  0.00     0.039 A 
ATOM     29  C   UNL A   1      39.426  25.905  29.005  1.00  0.00     0.014 A 
ATOM     30  C   UNL A   1      39.948  26.629  26.747  1.00  0.00     0.014 A 
ATOM     31  C   UNL A   1      39.502  27.217  29.447  1.00  0.00     0.010 A 
ATOM     32  C   UNL A   1      40.059  27.938  27.188  1.00  0.00     0.010 A 
ATOM     33  C   UNL A   1      39.833  28.224  28.537  1.00  0.00    -0.014 A 
BRANCH  33  34
ATOM     34  C   UNL A   1      40.093  29.586  29.030  1.00  0.00     0.031 A 
ATOM     35  C   UNL A   1      38.755  30.307  29.375  1.00  0.00     0.074 A 
ATOM     36  C   UNL A   1      41.421  29.929  29.096  1.00  0.00     0.049 A 
ATOM     37  N   UNL A   1      38.477  31.569  29.492  1.00  0.00    -0.248 NA
ATOM     38  C   UNL A   1      37.510  29.494  29.561  1.00  0.00     0.031 C 
ATOM     39  C   UNL A   1      42.563  29.039  28.739  1.00  0.00     0.029 A 
ATOM     40  N   UNL A   1      42.099  31.064  29.472  1.00  0.00    -0.354 N 
ATOM     41  C   UNL A   1      37.155  31.686  30.003  1.00  0.00     0.074 A 
ATOM     42  C   UNL A   1      36.576  30.384  29.906  1.00  0.00     0.031 C 
ATOM     43  C   UNL A   1      43.747  29.691  28.825  1.00  0.00     0.029 A 
ATOM     44  C   UNL A   1      43.514  31.049  29.267  1.00  0.00     0.049 A 
ATOM     45  H   UNL A   1      41.638  31.843  29.861  1.00  0.00     0.167 HD
ATOM     46  C   UNL A   1      36.677  32.826  30.589  1.00  0.00     0.034 A 
ATOM     47  C   UNL A   1      44.409  32.083  29.405  1.00  0.00     0.034 A 
ATOM     48  C   UNL A   1      37.680  33.833  30.523  1.00  0.00     0.049 A 
ATOM     49  C   UNL A   1      43.597  33.147  30.008  1.00  0.00     0.074 A 
ATOM     50  C   UNL A   1      38.151  34.586  29.483  1.00  0.00     0.029 A 
ATOM     51  N   UNL A   1      38.556  33.916  31.580  1.00  0.00    -0.354 N 
ATOM     52  N   UNL A   1      43.190  33.157  31.240  1.00  0.00    -0.248 NA
ATOM     53  C   UNL A   1      43.108  34.231  29.148  1.00  0.00     0.031 C 
ATOM     54  C   UNL A   1      39.532  34.642  29.748  1.00  0.00     0.029 A 
ATOM     55  C   UNL A   1      39.792  34.162  31.040  1.00  0.00     0.049 A 
ATOM     56  H   UNL A   1      38.338  33.818  32.535  1.00  0.00     0.167 HD
ATOM     57  C   UNL A   1      42.157  34.055  31.207  1.00  0.00     0.074 A 
ATOM     58  C   UNL A   1      42.377  34.889  30.043  1.00  0.00     0.031 C 
ATOM     59  C   UNL A   1      40.964  33.736  31.773  1.00  0.00     0.034 A 
BRANCH  46  60
ATOM     60  C   UNL A   1      35.460  33.174  31.412  1.00  0.00     0.023 A 
ATOM     61  C   UNL A   1      34.685  34.269  30.944  1.00  0.00     0.031 A 
ATOM     62  C   UNL A   1      35.204  32.755  32.722  1.00  0.00     0.131 A 
ATOM     63  C   UNL A   1      33.839  34.996  31.789  1.00  0.00     0.055 A 
ATOM     64  C   UNL A   1      34.296  33.441  33.550  1.00  0.00     0.041 A 
ATOM     65  F   UNL A   1      35.874  31.732  33.272  1.00  0.00    -0.206 F 
ATOM     66  C   UNL A   1      33.642  34.589  33.101  1.00  0.00     0.022 A 
BRANCH  63  67
ATOM     67  S   UNL A   1      33.179  36.579  31.182  1.00  0.00     0.124 S 
ATOM     68  O   UNL A   1      31.768  36.484  31.542  1.00  0.00    -0.237 OA
ATOM     69  O   UNL A   1      33.967  37.547  31.938  1.00  0.00    -0.237 OA
ATOM     70  O   UNL A   1      33.459  36.533  29.748  1.00  0.00    -0.744 OA
ENDBRANCH  63  67
ENDBRANCH  46  60
BRANCH  47  71
ATOM     71  C   UNL A   1      45.851  32.468  29.083  1.00  0.00     0.023 A 
ATOM     72  C   UNL A   1      46.299  33.408  28.136  1.00  0.00     0.031 A 
ATOM     73  C   UNL A   1      46.899  31.895  29.878  1.00  0.00     0.131 A 
ATOM     74  C   UNL A   1      47.679  33.781  28.090  1.00  0.00     0.055 A 
ATOM     75  C   UNL A   1      48.223  32.332  29.895  1.00  0.00     0.041 A 
ATOM     76  F   UNL A   1      46.688  30.862  30.705  1.00  0.00    -0.206 F 
ATOM     77  C   UNL A   1      48.618  33.297  29.006  1.00  0.00     0.022 A 
BRANCH  74  78
ATOM     78  S   UNL A   1      48.323  34.934  26.836  1.00  0.00     0.124 S 
ATOM     79  O   UNL A   1      47.462  36.096  27.023  1.00  0.00    -0.237 OA
ATOM     80  O   UNL A   1      49.719  35.096  27.227  1.00  0.00    -0.237 OA
ATOM     81  O   UNL A   1      48.120  34.212  25.578  1.00  0.00    -0.744 OA
ENDBRANCH  74  78
ENDBRANCH  47  71
BRANCH  59  82
ATOM     82  C   UNL A   1      41.031  32.650  32.853  1.00  0.00     0.023 A 
ATOM     83  C   UNL A   1      40.804  31.303  32.512  1.00  0.00     0.031 A 
ATOM     84  C   UNL A   1      41.204  32.907  34.226  1.00  0.00     0.131 A 
ATOM     85  C   UNL A   1      40.727  30.301  33.502  1.00  0.00     0.055 A 
ATOM     86  C   UNL A   1      41.133  31.915  35.215  1.00  0.00     0.041 A 
ATOM     87  F   UNL A   1      41.444  34.137  34.673  1.00  0.00    -0.206 F 
ATOM     88  C   UNL A   1      40.889  30.601  34.854  1.00  0.00     0.022 A 
BRANCH  85  89
ATOM     89  S   UNL A   1      40.435  28.582  33.004  1.00  0.00     0.124 S 
ATOM     90  O   UNL A   1      39.055  28.615  32.533  1.00  0.00    -0.237 OA
ATOM     91  O   UNL A   1      41.458  28.373  31.984  1.00  0.00    -0.237 OA
ATOM     92  O   UNL A   1      40.645  27.829  34.242  1.00  0.00    -0.744 OA
ENDBRANCH  85  89
ENDBRANCH  59  82
ENDBRANCH  33  34
ENDBRANCH  25  28
ENDBRANCH  23  24
ENDBRANCH  22  23
ENDBRANCH   1  22
TORSDOF 18
ENDMDL
MODEL 3
REMARK VINA RESULT:     -10.6      4.020      9.438
REMARK SMILES CCc1[nH]nc(-n2cccc2)c1C(=O)NCCCCCCNC(=O)c1ccc(-c2c3nc(c(-c4cc(S(=O)(=O)[O-])ccc4F)c4ccc([nH]4)c(-c4cc(S(=O)(=O)[O-])ccc4F)c4nc(c(-c5cc(S(=O)(=O)[O-])ccc5F)c5ccc2[nH]5)C=C4)C=C3)cc1
REMARK SMILES IDX 19 1 18 2 17 3 16 4 15 5 13 6 14 7 12 9 3 10 4 11 5 12 6 14
REMARK SMILES IDX 2 15 1 16 7 17 8 18 11 19 9 20 10 21 20 22 21 23 22 24 23 25
REMARK SMILES IDX 24 27 25 28 26 29 87 30 27 31 86 32 28 33 29 34 30 35 80 36
REMARK SMILES IDX 31 37 85 38 79 39 81 40 32 41 84 42 78 43 77 44 33 46 65 47
REMARK SMILES IDX 45 48 64 49 46 50 49 51 63 52 82 53 47 54 48 55 62 57 83 58
REMARK SMILES IDX 50 59 34 60 35 61 43 62 36 63 42 64 44 65 41 66 37 67 38 68
REMARK SMILES IDX 39 69 40 70 66 71 67 72 75 73 68 74 74 75 76 76 73 77 69 78
REMARK SMILES IDX 70 79 71 80 72 81 51 82 52 83 60 84 53 85 59 86 61 87 58 88
REMARK SMILES IDX 54 89 55 90 56 91 57 92
REMARK H PARENT 15 8 4 13 22 26 81 45 49 56
REMARK Flexibility Score: inf
ROOT
ATOM      1  C   UNL A   1      33.872  29.885  26.126  1.00  0.00     0.002 C 
ENDROOT
BRANCH   1   2
ATOM      2  C   UNL A   1      32.337  29.936  26.107  1.00  0.00     0.002 C 
BRANCH   2   3
ATOM      3  C   UNL A   1      31.655  29.049  27.150  1.00  0.00     0.021 C 
BRANCH   3   4
ATOM      4  C   UNL A   1      32.124  27.603  27.084  1.00  0.00     0.116 C 
BRANCH   4   5
ATOM      5  N   UNL A   1      31.032  26.733  26.821  1.00  0.00    -0.352 N 
ATOM      6  C   UNL A   1      30.966  25.606  26.070  1.00  0.00     0.256 C 
ATOM      7  O   UNL A   1      30.179  24.798  26.573  1.00  0.00    -0.269 OA
ATOM      8  H   UNL A   1      30.188  26.989  27.255  1.00  0.00     0.163 HD
BRANCH   6   9
ATOM      9  C   UNL A   1      31.737  25.277  24.856  1.00  0.00     0.105 A 
ATOM     10  C   UNL A   1      32.816  24.441  24.473  1.00  0.00     0.050 A 
ATOM     11  N   UNL A   1      32.888  24.573  23.096  1.00  0.00    -0.280 N 
ATOM     12  N   UNL A   1      32.006  25.397  22.547  1.00  0.00    -0.156 NA
ATOM     13  H   UNL A   1      33.553  24.085  22.558  1.00  0.00     0.190 HD
ATOM     14  C   UNL A   1      31.412  25.939  23.609  1.00  0.00     0.171 A 
BRANCH  10  15
ATOM     15  C   UNL A   1      33.953  23.614  25.045  1.00  0.00     0.053 C 
ATOM     16  C   UNL A   1      35.270  24.254  25.445  1.00  0.00     0.011 C 
ENDBRANCH  10  15
BRANCH  14  17
ATOM     17  N   UNL A   1      30.582  27.085  23.361  1.00  0.00    -0.307 N 
ATOM     18  C   UNL A   1      29.204  27.171  23.469  1.00  0.00     0.093 A 
ATOM     19  C   UNL A   1      31.036  28.355  23.044  1.00  0.00     0.093 A 
ATOM     20  C   UNL A   1      28.792  28.419  23.059  1.00  0.00     0.020 A 
ATOM     21  C   UNL A   1      29.955  29.166  22.777  1.00  0.00     0.020 A 
ENDBRANCH  14  17
ENDBRANCH   6   9
ENDBRANCH   4   5
ENDBRANCH   3   4
ENDBRANCH   2   3
ENDBRANCH   1   2
BRANCH   1  22
ATOM     22  C   UNL A   1      34.530  30.366  27.430  1.00  0.00     0.021 C 
BRANCH  22  23
ATOM     23  C   UNL A   1      35.474  29.331  28.031  1.00  0.00     0.116 C 
BRANCH  23  24
ATOM     24  N   UNL A   1      35.725  29.652  29.423  1.00  0.00    -0.352 N 
ATOM     25  C   UNL A   1      36.795  29.408  30.238  1.00  0.00     0.251 C 
ATOM     26  H   UNL A   1      34.988  30.136  29.863  1.00  0.00     0.163 HD
ATOM     27  O   UNL A   1      36.619  29.467  31.448  1.00  0.00    -0.269 OA
BRANCH  25  28
ATOM     28  C   UNL A   1      38.135  29.086  29.705  1.00  0.00     0.039 A 
ATOM     29  C   UNL A   1      39.074  28.575  30.614  1.00  0.00     0.014 A 
ATOM     30  C   UNL A   1      38.518  29.387  28.395  1.00  0.00     0.014 A 
ATOM     31  C   UNL A   1      40.379  28.342  30.206  1.00  0.00     0.010 A 
ATOM     32  C   UNL A   1      39.811  29.125  27.970  1.00  0.00     0.010 A 
ATOM     33  C   UNL A   1      40.734  28.606  28.880  1.00  0.00    -0.014 A 
BRANCH  33  34
ATOM     34  C   UNL A   1      42.061  28.194  28.394  1.00  0.00     0.031 A 
ATOM     35  C   UNL A   1      43.015  29.422  28.302  1.00  0.00     0.074 A 
ATOM     36  C   UNL A   1      42.186  26.850  28.139  1.00  0.00     0.049 A 
ATOM     37  N   UNL A   1      44.106  29.601  27.623  1.00  0.00    -0.248 NA
ATOM     38  C   UNL A   1      42.667  30.679  29.041  1.00  0.00     0.031 C 
ATOM     39  C   UNL A   1      41.120  25.828  28.340  1.00  0.00     0.029 A 
ATOM     40  N   UNL A   1      43.208  26.056  27.675  1.00  0.00    -0.354 N 
ATOM     41  C   UNL A   1      44.691  30.828  28.038  1.00  0.00     0.074 A 
ATOM     42  C   UNL A   1      43.698  31.498  28.816  1.00  0.00     0.031 C 
ATOM     43  C   UNL A   1      41.518  24.604  27.918  1.00  0.00     0.029 A 
ATOM     44  C   UNL A   1      42.877  24.687  27.427  1.00  0.00     0.049 A 
ATOM     45  H   UNL A   1      44.115  26.408  27.521  1.00  0.00     0.167 HD
ATOM     46  C   UNL A   1      46.002  31.147  27.812  1.00  0.00     0.034 A 
ATOM     47  C   UNL A   1      43.644  23.717  26.826  1.00  0.00     0.034 A 
ATOM     48  C   UNL A   1      46.608  30.101  27.062  1.00  0.00     0.049 A 
ATOM     49  C   UNL A   1      44.952  24.369  26.685  1.00  0.00     0.074 A 
ATOM     50  C   UNL A   1      46.491  29.731  25.751  1.00  0.00     0.029 A 
ATOM     51  N   UNL A   1      47.202  29.083  27.771  1.00  0.00    -0.354 N 
ATOM     52  N   UNL A   1      45.771  24.599  27.664  1.00  0.00    -0.248 NA
ATOM     53  C   UNL A   1      45.333  24.902  25.372  1.00  0.00     0.031 C 
ATOM     54  C   UNL A   1      46.509  28.327  25.827  1.00  0.00     0.029 A 
ATOM     55  C   UNL A   1      46.893  27.921  27.113  1.00  0.00     0.049 A 
ATOM     56  H   UNL A   1      47.742  29.173  28.590  1.00  0.00     0.167 HD
ATOM     57  C   UNL A   1      46.590  25.567  27.147  1.00  0.00     0.074 A 
ATOM     58  C   UNL A   1      46.494  25.458  25.706  1.00  0.00     0.031 C 
ATOM     59  C   UNL A   1      46.852  26.688  27.869  1.00  0.00     0.034 A 
BRANCH  46  60
ATOM     60  C   UNL A   1      46.944  32.214  28.317  1.00  0.00     0.023 A 
ATOM     61  C   UNL A   1      47.196  33.293  27.428  1.00  0.00     0.031 A 
ATOM     62  C   UNL A   1      47.820  32.093  29.402  1.00  0.00     0.131 A 
ATOM     63  C   UNL A   1      48.345  34.086  27.528  1.00  0.00     0.055 A 
ATOM     64  C   UNL A   1      48.935  32.939  29.545  1.00  0.00     0.041 A 
ATOM     65  F   UNL A   1      47.681  31.113  30.306  1.00  0.00    -0.206 F 
ATOM     66  C   UNL A   1      49.227  33.911  28.586  1.00  0.00     0.022 A 
BRANCH  63  67
ATOM     67  S   UNL A   1      48.743  35.193  26.141  1.00  0.00     0.124 S 
ATOM     68  O   UNL A   1      48.119  34.512  25.012  1.00  0.00    -0.237 OA
ATOM     69  O   UNL A   1      48.116  36.442  26.559  1.00  0.00    -0.237 OA
ATOM     70  O   UNL A   1      50.205  35.205  26.128  1.00  0.00    -0.744 OA
ENDBRANCH  63  67
ENDBRANCH  46  60
BRANCH  47  71
ATOM     71  C   UNL A   1      43.549  22.312  26.236  1.00  0.00     0.023 A 
ATOM     72  C   UNL A   1      44.596  21.517  25.736  1.00  0.00     0.031 A 
ATOM     73  C   UNL A   1      42.274  21.654  26.256  1.00  0.00     0.131 A 
ATOM     74  C   UNL A   1      44.358  20.150  25.387  1.00  0.00     0.055 A 
ATOM     75  C   UNL A   1      42.068  20.298  26.008  1.00  0.00     0.041 A 
ATOM     76  F   UNL A   1      41.135  22.305  26.532  1.00  0.00    -0.206 F 
ATOM     77  C   UNL A   1      43.121  19.530  25.586  1.00  0.00     0.022 A 
BRANCH  74  78
ATOM     78  S   UNL A   1      45.659  19.101  24.666  1.00  0.00     0.124 S 
ATOM     79  O   UNL A   1      46.848  19.927  24.844  1.00  0.00    -0.237 OA
ATOM     80  O   UNL A   1      45.590  17.890  25.476  1.00  0.00    -0.237 OA
ATOM     81  O   UNL A   1      45.227  18.933  23.277  1.00  0.00    -0.744 OA
ENDBRANCH  74  78
ENDBRANCH  47  71
BRANCH  59  82
ATOM     82  C   UNL A   1      46.662  26.541  29.382  1.00  0.00     0.023 A 
ATOM     83  C   UNL A   1      45.596  27.199  30.025  1.00  0.00     0.031 A 
ATOM     84  C   UNL A   1      47.557  25.864  30.232  1.00  0.00     0.131 A 
ATOM     85  C   UNL A   1      45.473  27.192  31.430  1.00  0.00     0.055 A 
ATOM     86  C   UNL A   1      47.438  25.850  31.630  1.00  0.00     0.041 A 
ATOM     87  F   UNL A   1      48.595  25.189  29.744  1.00  0.00    -0.206 F 
ATOM     88  C   UNL A   1      46.391  26.522  32.237  1.00  0.00     0.022 A 
BRANCH  85  89
ATOM     89  S   UNL A   1      44.078  28.055  32.203  1.00  0.00     0.124 S 
ATOM     90  O   UNL A   1      42.927  27.307  31.712  1.00  0.00    -0.237 OA
ATOM     91  O   UNL A   1      44.375  27.918  33.626  1.00  0.00    -0.237 OA
ATOM     92  O   UNL A   1      44.193  29.420  31.685  1.00  0.00    -0.744 OA
ENDBRANCH  85  89
ENDBRANCH  59  82
ENDBRANCH  33  34
ENDBRANCH  25  28
ENDBRANCH  23  24
ENDBRANCH  22  23
ENDBRANCH   1  22
TORSDOF 18
ENDMDL
