MODEL 1
REMARK VINA RESULT:     -12.1      0.000      0.000
REMARK SMILES O=C(NCCCCCCNC(=O)[C@H]1[C@@H](C(=O)NNC(=O)c2ccccc2Cl)[C@H]2C=C[C@@H]1C2)c1ccc(-c2c3nc(c(-c4cc(S(=O)(=O)[O-])ccc4F)c4ccc([nH]4)c(-c4cc(S(=O)(=O)[O-])ccc4F)c4nc(c(-c5cc(S(=O)(=O)[O-])ccc5F)c5ccc2[nH]5)C=C4)C=C3)cc1
REMARK SMILES IDX 6 1 5 2 4 3 3 4 1 5 2 6 33 8 34 9 95 10 35 11 94 12 36 13
REMARK SMILES IDX 37 14 38 15 88 16 39 17 93 18 87 19 89 20 40 21 92 22 86 23
REMARK SMILES IDX 85 24 41 26 73 27 53 28 72 29 54 30 57 31 71 32 90 33 55 34
REMARK SMILES IDX 56 35 70 37 91 38 58 39 42 40 43 41 51 42 44 43 50 44 52 45
REMARK SMILES IDX 49 46 45 47 46 48 47 49 48 50 74 51 75 52 83 53 76 54 82 55
REMARK SMILES IDX 84 56 81 57 77 58 78 59 79 60 80 61 59 62 60 63 68 64 61 65
REMARK SMILES IDX 67 66 69 67 66 68 62 69 63 70 64 71 65 72 7 73 8 74 9 75
REMARK SMILES IDX 10 76 11 77 12 79 13 80 14 81 31 82 28 83 30 84 32 85 29 86
REMARK SMILES IDX 15 87 16 88 17 89 18 91 19 92 20 94 21 95 22 96 26 97 23 98
REMARK SMILES IDX 25 99 27 100 24 101
REMARK H PARENT 3 7 89 25 57 36 10 78 17 90 18 93
REMARK Flexibility Score: inf
ROOT
ATOM      1  C   UNL A   1      31.502  30.221  25.876  1.00  0.00     0.002 C 
ENDROOT
BRANCH   1   2
ATOM      2  C   UNL A   1      31.379  31.615  26.491  1.00  0.00     0.021 C 
BRANCH   2   3
ATOM      3  C   UNL A   1      32.703  32.240  26.912  1.00  0.00     0.116 C 
BRANCH   3   4
ATOM      4  N   UNL A   1      32.540  33.615  27.357  1.00  0.00    -0.352 N 
ATOM      5  O   UNL A   1      32.808  35.373  28.743  1.00  0.00    -0.269 OA
ATOM      6  C   UNL A   1      33.202  34.275  28.360  1.00  0.00     0.251 C 
ATOM      7  H   UNL A   1      31.864  34.141  26.873  1.00  0.00     0.163 HD
BRANCH   6   8
ATOM      8  C   UNL A   1      34.389  33.650  28.982  1.00  0.00     0.039 A 
ATOM      9  C   UNL A   1      35.672  34.110  28.674  1.00  0.00     0.014 A 
ATOM     10  C   UNL A   1      34.212  32.600  29.885  1.00  0.00     0.014 A 
ATOM     11  C   UNL A   1      36.784  33.447  29.182  1.00  0.00     0.010 A 
ATOM     12  C   UNL A   1      35.329  31.989  30.458  1.00  0.00     0.010 A 
ATOM     13  C   UNL A   1      36.625  32.396  30.098  1.00  0.00    -0.014 A 
BRANCH  13  14
ATOM     14  C   UNL A   1      37.819  31.781  30.728  1.00  0.00     0.031 A 
ATOM     15  C   UNL A   1      38.634  30.752  30.001  1.00  0.00     0.074 A 
ATOM     16  C   UNL A   1      38.148  32.149  31.982  1.00  0.00     0.049 A 
ATOM     17  N   UNL A   1      39.664  30.065  30.424  1.00  0.00    -0.248 NA
ATOM     18  C   UNL A   1      38.230  30.446  28.623  1.00  0.00     0.031 C 
ATOM     19  C   UNL A   1      37.419  33.136  32.784  1.00  0.00     0.029 A 
ATOM     20  N   UNL A   1      39.165  31.738  32.804  1.00  0.00    -0.354 N 
ATOM     21  C   UNL A   1      40.023  29.228  29.373  1.00  0.00     0.074 A 
ATOM     22  C   UNL A   1      39.072  29.473  28.307  1.00  0.00     0.031 C 
ATOM     23  C   UNL A   1      38.018  33.259  33.976  1.00  0.00     0.029 A 
ATOM     24  C   UNL A   1      39.123  32.312  34.053  1.00  0.00     0.049 A 
ATOM     25  H   UNL A   1      39.856  31.094  32.527  1.00  0.00     0.167 HD
ATOM     26  C   UNL A   1      41.052  28.345  29.308  1.00  0.00     0.034 A 
ATOM     27  C   UNL A   1      39.858  32.072  35.156  1.00  0.00     0.034 A 
ATOM     28  C   UNL A   1      41.977  28.114  30.395  1.00  0.00     0.049 A 
ATOM     29  C   UNL A   1      40.955  31.048  35.083  1.00  0.00     0.074 A 
ATOM     30  C   UNL A   1      43.082  27.281  30.424  1.00  0.00     0.029 A 
ATOM     31  N   UNL A   1      41.891  28.698  31.654  1.00  0.00    -0.354 N 
ATOM     32  N   UNL A   1      41.309  30.290  34.071  1.00  0.00    -0.248 NA
ATOM     33  C   UNL A   1      41.756  30.849  36.296  1.00  0.00     0.031 C 
ATOM     34  C   UNL A   1      43.610  27.298  31.721  1.00  0.00     0.029 A 
ATOM     35  C   UNL A   1      42.894  28.210  32.479  1.00  0.00     0.049 A 
ATOM     36  H   UNL A   1      41.214  29.362  31.922  1.00  0.00     0.167 HD
ATOM     37  C   UNL A   1      42.390  29.538  34.518  1.00  0.00     0.074 A 
ATOM     38  C   UNL A   1      42.635  29.943  35.890  1.00  0.00     0.031 C 
ATOM     39  C   UNL A   1      43.118  28.606  33.852  1.00  0.00     0.034 A 
BRANCH  26  40
ATOM     40  C   UNL A   1      41.189  27.530  28.041  1.00  0.00     0.023 A 
ATOM     41  C   UNL A   1      40.818  26.175  27.986  1.00  0.00     0.031 A 
ATOM     42  C   UNL A   1      41.743  28.104  26.882  1.00  0.00     0.131 A 
ATOM     43  C   UNL A   1      41.093  25.418  26.836  1.00  0.00     0.055 A 
ATOM     44  C   UNL A   1      41.929  27.368  25.709  1.00  0.00     0.041 A 
ATOM     45  F   UNL A   1      42.135  29.388  26.874  1.00  0.00    -0.206 F 
ATOM     46  C   UNL A   1      41.622  26.011  25.688  1.00  0.00     0.022 A 
BRANCH  43  47
ATOM     47  S   UNL A   1      40.918  23.614  26.927  1.00  0.00     0.124 S 
ATOM     48  O   UNL A   1      41.284  23.348  28.316  1.00  0.00    -0.237 OA
ATOM     49  O   UNL A   1      39.512  23.417  26.590  1.00  0.00    -0.237 OA
ATOM     50  O   UNL A   1      41.873  23.125  25.935  1.00  0.00    -0.744 OA
ENDBRANCH  43  47
ENDBRANCH  26  40
BRANCH  27  51
ATOM     51  C   UNL A   1      39.528  32.780  36.424  1.00  0.00     0.023 A 
ATOM     52  C   UNL A   1      38.598  32.257  37.333  1.00  0.00     0.031 A 
ATOM     53  C   UNL A   1      40.165  33.993  36.750  1.00  0.00     0.131 A 
ATOM     54  C   UNL A   1      38.314  32.957  38.517  1.00  0.00     0.055 A 
ATOM     55  C   UNL A   1      39.916  34.657  37.950  1.00  0.00     0.041 A 
ATOM     56  F   UNL A   1      41.069  34.531  35.915  1.00  0.00    -0.206 F 
ATOM     57  C   UNL A   1      38.979  34.142  38.839  1.00  0.00     0.022 A 
BRANCH  54  58
ATOM     58  S   UNL A   1      37.018  32.319  39.612  1.00  0.00     0.124 S 
ATOM     59  O   UNL A   1      35.809  32.651  38.867  1.00  0.00    -0.237 OA
ATOM     60  O   UNL A   1      37.356  30.901  39.689  1.00  0.00    -0.237 OA
ATOM     61  O   UNL A   1      37.216  33.072  40.848  1.00  0.00    -0.744 OA
ENDBRANCH  54  58
ENDBRANCH  27  51
BRANCH  39  62
ATOM     62  C   UNL A   1      44.283  27.989  34.588  1.00  0.00     0.023 A 
ATOM     63  C   UNL A   1      44.155  26.791  35.311  1.00  0.00     0.031 A 
ATOM     64  C   UNL A   1      45.543  28.611  34.551  1.00  0.00     0.131 A 
ATOM     65  C   UNL A   1      45.263  26.272  36.001  1.00  0.00     0.055 A 
ATOM     66  C   UNL A   1      46.654  28.061  35.189  1.00  0.00     0.041 A 
ATOM     67  F   UNL A   1      45.718  29.762  33.880  1.00  0.00    -0.206 F 
ATOM     68  C   UNL A   1      46.515  26.888  35.928  1.00  0.00     0.022 A 
BRANCH  65  69
ATOM     69  S   UNL A   1      45.033  24.816  37.057  1.00  0.00     0.124 S 
ATOM     70  O   UNL A   1      46.388  24.579  37.545  1.00  0.00    -0.237 OA
ATOM     71  O   UNL A   1      44.073  25.294  38.046  1.00  0.00    -0.237 OA
ATOM     72  O   UNL A   1      44.519  23.802  36.137  1.00  0.00    -0.744 OA
ENDBRANCH  65  69
ENDBRANCH  39  62
ENDBRANCH  13  14
ENDBRANCH   6   8
ENDBRANCH   3   4
ENDBRANCH   2   3
ENDBRANCH   1   2
BRANCH   1  73
ATOM     73  C   UNL A   1      32.220  29.189  26.751  1.00  0.00     0.002 C 
BRANCH  73  74
ATOM     74  C   UNL A   1      31.394  27.947  27.101  1.00  0.00     0.021 C 
BRANCH  74  75
ATOM     75  C   UNL A   1      32.043  26.625  26.701  1.00  0.00     0.116 C 
BRANCH  75  76
ATOM     76  N   UNL A   1      32.923  26.806  25.561  1.00  0.00    -0.356 N 
ATOM     77  C   UNL A   1      33.579  25.889  24.794  1.00  0.00     0.224 C 
ATOM     78  H   UNL A   1      33.070  27.742  25.299  1.00  0.00     0.163 HD
ATOM     79  O   UNL A   1      34.405  26.307  23.981  1.00  0.00    -0.275 OA
BRANCH  77  80
ATOM     80  C   UNL A   1      33.314  24.408  25.028  1.00  0.00     0.098 C 
ATOM     81  C   UNL A   1      32.774  23.540  23.832  1.00  0.00     0.100 C 
ATOM     82  C   UNL A   1      34.625  23.677  25.430  1.00  0.00     0.025 C 
ATOM     83  C   UNL A   1      33.866  22.446  23.723  1.00  0.00     0.025 C 
ATOM     84  C   UNL A   1      35.639  23.768  24.311  1.00  0.00    -0.027 C 
ATOM     85  C   UNL A   1      34.203  22.226  25.211  1.00  0.00     0.017 C 
ATOM     86  C   UNL A   1      35.171  23.046  23.283  1.00  0.00    -0.027 C 
BRANCH  81  87
ATOM     87  C   UNL A   1      32.279  24.332  22.622  1.00  0.00     0.242 C 
ATOM     88  O   UNL A   1      33.033  24.599  21.680  1.00  0.00    -0.273 OA
ATOM     89  N   UNL A   1      31.070  24.972  22.623  1.00  0.00    -0.267 N 
ATOM     90  H   UNL A   1      30.814  25.445  21.799  1.00  0.00     0.191 HD
BRANCH  89  91
ATOM     91  N   UNL A   1      30.176  25.017  23.674  1.00  0.00    -0.263 N 
ATOM     92  C   UNL A   1      29.454  26.130  24.047  1.00  0.00     0.271 C 
ATOM     93  H   UNL A   1      30.044  24.191  24.196  1.00  0.00     0.191 HD
ATOM     94  O   UNL A   1      28.720  26.100  25.032  1.00  0.00    -0.267 OA
BRANCH  92  95
ATOM     95  C   UNL A   1      29.674  27.418  23.360  1.00  0.00     0.060 A 
ATOM     96  C   UNL A   1      31.014  27.747  23.094  1.00  0.00     0.015 A 
ATOM     97  C   UNL A   1      28.655  28.301  23.000  1.00  0.00     0.053 A 
ATOM     98  C   UNL A   1      31.329  28.931  22.431  1.00  0.00     0.001 A 
ATOM     99  C   UNL A   1      28.977  29.482  22.320  1.00  0.00     0.021 A 
ATOM    100  Cl  UNL A   1      27.000  28.033  23.400  1.00  0.00    -0.083 Cl
ATOM    101  C   UNL A   1      30.309  29.793  22.033  1.00  0.00     0.002 A 
ENDBRANCH  92  95
ENDBRANCH  89  91
ENDBRANCH  81  87
ENDBRANCH  77  80
ENDBRANCH  75  76
ENDBRANCH  74  75
ENDBRANCH  73  74
ENDBRANCH   1  73
TORSDOF 19
ENDMDL
MODEL 2
REMARK VINA RESULT:     -12.0      2.088      3.727
REMARK SMILES O=C(NCCCCCCNC(=O)[C@H]1[C@@H](C(=O)NNC(=O)c2ccccc2Cl)[C@H]2C=C[C@@H]1C2)c1ccc(-c2c3nc(c(-c4cc(S(=O)(=O)[O-])ccc4F)c4ccc([nH]4)c(-c4cc(S(=O)(=O)[O-])ccc4F)c4nc(c(-c5cc(S(=O)(=O)[O-])ccc5F)c5ccc2[nH]5)C=C4)C=C3)cc1
REMARK SMILES IDX 6 1 5 2 4 3 3 4 1 5 2 6 33 8 34 9 95 10 35 11 94 12 36 13
REMARK SMILES IDX 37 14 38 15 88 16 39 17 93 18 87 19 89 20 40 21 92 22 86 23
REMARK SMILES IDX 85 24 41 26 73 27 53 28 72 29 54 30 57 31 71 32 90 33 55 34
REMARK SMILES IDX 56 35 70 37 91 38 58 39 42 40 43 41 51 42 44 43 50 44 52 45
REMARK SMILES IDX 49 46 45 47 46 48 47 49 48 50 74 51 75 52 83 53 76 54 82 55
REMARK SMILES IDX 84 56 81 57 77 58 78 59 79 60 80 61 59 62 60 63 68 64 61 65
REMARK SMILES IDX 67 66 69 67 66 68 62 69 63 70 64 71 65 72 7 73 8 74 9 75
REMARK SMILES IDX 10 76 11 77 12 79 13 80 14 81 31 82 28 83 30 84 32 85 29 86
REMARK SMILES IDX 15 87 16 88 17 89 18 91 19 92 20 94 21 95 22 96 26 97 23 98
REMARK SMILES IDX 25 99 27 100 24 101
REMARK H PARENT 3 7 89 25 57 36 10 78 17 90 18 93
REMARK Flexibility Score: inf
ROOT
ATOM      1  C   UNL A   1      31.684  30.685  26.340  1.00  0.00     0.002 C 
ENDROOT
BRANCH   1   2
ATOM      2  C   UNL A   1      31.524  32.146  26.762  1.00  0.00     0.021 C 
BRANCH   2   3
ATOM      3  C   UNL A   1      32.802  32.803  27.267  1.00  0.00     0.116 C 
BRANCH   3   4
ATOM      4  N   UNL A   1      32.572  34.165  27.721  1.00  0.00    -0.352 N 
ATOM      5  O   UNL A   1      32.712  35.911  29.142  1.00  0.00    -0.269 OA
ATOM      6  C   UNL A   1      33.161  34.831  28.765  1.00  0.00     0.251 C 
ATOM      7  H   UNL A   1      31.905  34.677  27.210  1.00  0.00     0.163 HD
BRANCH   6   8
ATOM      8  C   UNL A   1      34.334  34.235  29.439  1.00  0.00     0.039 A 
ATOM      9  C   UNL A   1      34.161  33.396  30.545  1.00  0.00     0.014 A 
ATOM     10  C   UNL A   1      35.613  34.512  28.955  1.00  0.00     0.014 A 
ATOM     11  C   UNL A   1      35.273  32.926  31.235  1.00  0.00     0.010 A 
ATOM     12  C   UNL A   1      36.727  33.971  29.602  1.00  0.00     0.010 A 
ATOM     13  C   UNL A   1      36.566  33.188  30.757  1.00  0.00    -0.014 A 
BRANCH  13  14
ATOM     14  C   UNL A   1      37.738  32.575  31.430  1.00  0.00     0.031 A 
ATOM     15  C   UNL A   1      38.474  31.426  30.806  1.00  0.00     0.074 A 
ATOM     16  C   UNL A   1      38.118  33.056  32.630  1.00  0.00     0.049 A 
ATOM     17  N   UNL A   1      39.473  30.729  31.284  1.00  0.00    -0.248 NA
ATOM     18  C   UNL A   1      38.021  30.997  29.477  1.00  0.00     0.031 C 
ATOM     19  C   UNL A   1      37.465  34.165  33.332  1.00  0.00     0.029 A 
ATOM     20  N   UNL A   1      39.128  32.676  33.475  1.00  0.00    -0.354 N 
ATOM     21  C   UNL A   1      39.758  29.763  30.325  1.00  0.00     0.074 A 
ATOM     22  C   UNL A   1      38.798  29.947  29.255  1.00  0.00     0.031 C 
ATOM     23  C   UNL A   1      38.098  34.381  34.493  1.00  0.00     0.029 A 
ATOM     24  C   UNL A   1      39.149  33.383  34.654  1.00  0.00     0.049 A 
ATOM     25  H   UNL A   1      39.774  31.966  33.258  1.00  0.00     0.167 HD
ATOM     26  C   UNL A   1      40.734  28.818  30.338  1.00  0.00     0.034 A 
ATOM     27  C   UNL A   1      39.895  33.221  35.763  1.00  0.00     0.034 A 
ATOM     28  C   UNL A   1      41.669  28.652  31.428  1.00  0.00     0.049 A 
ATOM     29  C   UNL A   1      40.930  32.131  35.784  1.00  0.00     0.074 A 
ATOM     30  C   UNL A   1      42.725  27.762  31.529  1.00  0.00     0.029 A 
ATOM     31  N   UNL A   1      41.647  29.373  32.617  1.00  0.00    -0.354 N 
ATOM     32  N   UNL A   1      41.215  31.249  34.855  1.00  0.00    -0.248 NA
ATOM     33  C   UNL A   1      41.747  32.017  36.998  1.00  0.00     0.031 C 
ATOM     34  C   UNL A   1      43.284  27.888  32.807  1.00  0.00     0.029 A 
ATOM     35  C   UNL A   1      42.640  28.918  33.473  1.00  0.00     0.049 A 
ATOM     36  H   UNL A   1      41.016  30.101  32.823  1.00  0.00     0.167 HD
ATOM     37  C   UNL A   1      42.261  30.486  35.363  1.00  0.00     0.074 A 
ATOM     38  C   UNL A   1      42.561  31.022  36.677  1.00  0.00     0.031 C 
ATOM     39  C   UNL A   1      42.918  29.446  34.790  1.00  0.00     0.034 A 
BRANCH  26  40
ATOM     40  C   UNL A   1      40.793  27.864  29.167  1.00  0.00     0.023 A 
ATOM     41  C   UNL A   1      41.733  28.015  28.132  1.00  0.00     0.031 A 
ATOM     42  C   UNL A   1      39.865  26.812  29.059  1.00  0.00     0.131 A 
ATOM     43  C   UNL A   1      41.663  27.194  26.995  1.00  0.00     0.055 A 
ATOM     44  C   UNL A   1      39.860  25.940  27.967  1.00  0.00     0.041 A 
ATOM     45  F   UNL A   1      38.929  26.625  30.003  1.00  0.00    -0.206 F 
ATOM     46  C   UNL A   1      40.750  26.142  26.916  1.00  0.00     0.022 A 
BRANCH  43  47
ATOM     47  S   UNL A   1      42.662  27.640  25.546  1.00  0.00     0.124 S 
ATOM     48  O   UNL A   1      42.529  26.446  24.714  1.00  0.00    -0.237 OA
ATOM     49  O   UNL A   1      41.989  28.836  25.055  1.00  0.00    -0.237 OA
ATOM     50  O   UNL A   1      43.996  27.855  26.102  1.00  0.00    -0.744 OA
ENDBRANCH  43  47
ENDBRANCH  26  40
BRANCH  27  51
ATOM     51  C   UNL A   1      39.637  34.080  36.952  1.00  0.00     0.023 A 
ATOM     52  C   UNL A   1      39.023  33.570  38.104  1.00  0.00     0.031 A 
ATOM     53  C   UNL A   1      40.025  35.433  36.951  1.00  0.00     0.131 A 
ATOM     54  C   UNL A   1      38.796  34.414  39.203  1.00  0.00     0.055 A 
ATOM     55  C   UNL A   1      39.844  36.254  38.064  1.00  0.00     0.041 A 
ATOM     56  F   UNL A   1      40.624  35.968  35.875  1.00  0.00    -0.206 F 
ATOM     57  C   UNL A   1      39.217  35.746  39.197  1.00  0.00     0.022 A 
BRANCH  54  58
ATOM     58  S   UNL A   1      37.889  33.758  40.629  1.00  0.00     0.124 S 
ATOM     59  O   UNL A   1      38.907  32.939  41.277  1.00  0.00    -0.237 OA
ATOM     60  O   UNL A   1      37.502  34.977  41.331  1.00  0.00    -0.237 OA
ATOM     61  O   UNL A   1      36.786  33.017  40.020  1.00  0.00    -0.744 OA
ENDBRANCH  54  58
ENDBRANCH  27  51
BRANCH  39  62
ATOM     62  C   UNL A   1      44.063  28.844  35.569  1.00  0.00     0.023 A 
ATOM     63  C   UNL A   1      43.883  27.746  36.427  1.00  0.00     0.031 A 
ATOM     64  C   UNL A   1      45.358  29.377  35.435  1.00  0.00     0.131 A 
ATOM     65  C   UNL A   1      44.975  27.240  37.150  1.00  0.00     0.055 A 
ATOM     66  C   UNL A   1      46.450  28.832  36.111  1.00  0.00     0.041 A 
ATOM     67  F   UNL A   1      45.584  30.430  34.634  1.00  0.00    -0.206 F 
ATOM     68  C   UNL A   1      46.260  27.763  36.982  1.00  0.00     0.022 A 
BRANCH  65  69
ATOM     69  S   UNL A   1      44.686  25.930  38.371  1.00  0.00     0.124 S 
ATOM     70  O   UNL A   1      43.864  26.618  39.362  1.00  0.00    -0.237 OA
ATOM     71  O   UNL A   1      44.009  24.908  37.580  1.00  0.00    -0.237 OA
ATOM     72  O   UNL A   1      46.031  25.575  38.820  1.00  0.00    -0.744 OA
ENDBRANCH  65  69
ENDBRANCH  39  62
ENDBRANCH  13  14
ENDBRANCH   6   8
ENDBRANCH   3   4
ENDBRANCH   2   3
ENDBRANCH   1   2
BRANCH   1  73
ATOM     73  C   UNL A   1      33.048  30.331  25.741  1.00  0.00     0.002 C 
BRANCH  73  74
ATOM     74  C   UNL A   1      34.036  29.677  26.714  1.00  0.00     0.021 C 
BRANCH  74  75
ATOM     75  C   UNL A   1      33.976  28.153  26.743  1.00  0.00     0.116 C 
BRANCH  75  76
ATOM     76  N   UNL A   1      32.675  27.695  27.193  1.00  0.00    -0.356 N 
ATOM     77  C   UNL A   1      31.717  26.973  26.545  1.00  0.00     0.224 C 
ATOM     78  H   UNL A   1      32.445  27.948  28.116  1.00  0.00     0.163 HD
ATOM     79  O   UNL A   1      30.619  26.855  27.092  1.00  0.00    -0.275 OA
BRANCH  77  80
ATOM     80  C   UNL A   1      32.024  26.416  25.162  1.00  0.00     0.098 C 
ATOM     81  C   UNL A   1      31.650  24.919  24.852  1.00  0.00     0.100 C 
ATOM     82  C   UNL A   1      31.249  27.206  24.072  1.00  0.00     0.025 C 
ATOM     83  C   UNL A   1      30.707  25.081  23.633  1.00  0.00     0.025 C 
ATOM     84  C   UNL A   1      29.758  27.061  24.280  1.00  0.00    -0.027 C 
ATOM     85  C   UNL A   1      31.390  26.247  22.892  1.00  0.00     0.017 C 
ATOM     86  C   UNL A   1      29.440  25.781  24.036  1.00  0.00    -0.027 C 
BRANCH  81  87
ATOM     87  C   UNL A   1      31.284  24.072  26.069  1.00  0.00     0.242 C 
ATOM     88  O   UNL A   1      30.139  24.082  26.534  1.00  0.00    -0.273 OA
ATOM     89  N   UNL A   1      32.236  23.453  26.832  1.00  0.00    -0.267 N 
ATOM     90  H   UNL A   1      31.919  22.909  27.589  1.00  0.00     0.191 HD
BRANCH  89  91
ATOM     91  N   UNL A   1      33.601  23.521  26.638  1.00  0.00    -0.263 N 
ATOM     92  C   UNL A   1      34.324  22.675  25.824  1.00  0.00     0.271 C 
ATOM     93  H   UNL A   1      34.095  24.227  27.117  1.00  0.00     0.191 HD
ATOM     94  O   UNL A   1      35.547  22.768  25.752  1.00  0.00    -0.267 OA
BRANCH  92  95
ATOM     95  C   UNL A   1      33.653  21.546  25.151  1.00  0.00     0.060 A 
ATOM     96  C   UNL A   1      33.485  20.386  25.926  1.00  0.00     0.015 A 
ATOM     97  C   UNL A   1      33.218  21.567  23.825  1.00  0.00     0.053 A 
ATOM     98  C   UNL A   1      32.845  19.269  25.391  1.00  0.00     0.001 A 
ATOM     99  C   UNL A   1      32.561  20.448  23.299  1.00  0.00     0.021 A 
ATOM    100  Cl  UNL A   1      33.496  22.902  22.770  1.00  0.00    -0.083 Cl
ATOM    101  C   UNL A   1      32.372  19.305  24.082  1.00  0.00     0.002 A 
ENDBRANCH  92  95
ENDBRANCH  89  91
ENDBRANCH  81  87
ENDBRANCH  77  80
ENDBRANCH  75  76
ENDBRANCH  74  75
ENDBRANCH  73  74
ENDBRANCH   1  73
TORSDOF 19
ENDMDL
MODEL 3
REMARK VINA RESULT:     -11.8      4.803      8.346
REMARK SMILES O=C(NCCCCCCNC(=O)[C@H]1[C@@H](C(=O)NNC(=O)c2ccccc2Cl)[C@H]2C=C[C@@H]1C2)c1ccc(-c2c3nc(c(-c4cc(S(=O)(=O)[O-])ccc4F)c4ccc([nH]4)c(-c4cc(S(=O)(=O)[O-])ccc4F)c4nc(c(-c5cc(S(=O)(=O)[O-])ccc5F)c5ccc2[nH]5)C=C4)C=C3)cc1
REMARK SMILES IDX 6 1 5 2 4 3 3 4 1 5 2 6 33 8 34 9 95 10 35 11 94 12 36 13
REMARK SMILES IDX 37 14 38 15 88 16 39 17 93 18 87 19 89 20 40 21 92 22 86 23
REMARK SMILES IDX 85 24 41 26 73 27 53 28 72 29 54 30 57 31 71 32 90 33 55 34
REMARK SMILES IDX 56 35 70 37 91 38 58 39 42 40 43 41 51 42 44 43 50 44 52 45
REMARK SMILES IDX 49 46 45 47 46 48 47 49 48 50 74 51 75 52 83 53 76 54 82 55
REMARK SMILES IDX 84 56 81 57 77 58 78 59 79 60 80 61 59 62 60 63 68 64 61 65
REMARK SMILES IDX 67 66 69 67 66 68 62 69 63 70 64 71 65 72 7 73 8 74 9 75
REMARK SMILES IDX 10 76 11 77 12 79 13 80 14 81 31 82 28 83 30 84 32 85 29 86
REMARK SMILES IDX 15 87 16 88 17 89 18 91 19 92 20 94 21 95 22 96 26 97 23 98
REMARK SMILES IDX 25 99 27 100 24 101
REMARK H PARENT 3 7 89 25 57 36 10 78 17 90 18 93
REMARK Flexibility Score: inf
ROOT
ATOM      1  C   UNL A   1      36.387  22.917  23.813  1.00  0.00     0.002 C 
ENDROOT
BRANCH   1   2
ATOM      2  C   UNL A   1      36.393  23.908  24.977  1.00  0.00     0.021 C 
BRANCH   2   3
ATOM      3  C   UNL A   1      36.746  23.296  26.326  1.00  0.00     0.116 C 
BRANCH   3   4
ATOM      4  N   UNL A   1      37.856  22.362  26.228  1.00  0.00    -0.352 N 
ATOM      5  O   UNL A   1      40.016  21.748  26.015  1.00  0.00    -0.269 OA
ATOM      6  C   UNL A   1      39.200  22.615  26.319  1.00  0.00     0.251 C 
ATOM      7  H   UNL A   1      37.608  21.421  26.075  1.00  0.00     0.163 HD
BRANCH   6   8
ATOM      8  C   UNL A   1      39.660  23.943  26.778  1.00  0.00     0.039 A 
ATOM      9  C   UNL A   1      39.681  24.250  28.142  1.00  0.00     0.014 A 
ATOM     10  C   UNL A   1      40.078  24.884  25.835  1.00  0.00     0.014 A 
ATOM     11  C   UNL A   1      40.014  25.535  28.556  1.00  0.00     0.010 A 
ATOM     12  C   UNL A   1      40.490  26.149  26.261  1.00  0.00     0.010 A 
ATOM     13  C   UNL A   1      40.445  26.490  27.623  1.00  0.00    -0.014 A 
BRANCH  13  14
ATOM     14  C   UNL A   1      40.917  27.817  28.091  1.00  0.00     0.031 A 
ATOM     15  C   UNL A   1      42.379  28.154  28.111  1.00  0.00     0.074 A 
ATOM     16  C   UNL A   1      40.006  28.711  28.523  1.00  0.00     0.049 A 
ATOM     17  N   UNL A   1      42.971  29.235  28.550  1.00  0.00    -0.248 NA
ATOM     18  C   UNL A   1      43.297  27.138  27.580  1.00  0.00     0.031 C 
ATOM     19  C   UNL A   1      38.558  28.482  28.554  1.00  0.00     0.029 A 
ATOM     20  N   UNL A   1      40.153  29.978  29.023  1.00  0.00    -0.354 N 
ATOM     21  C   UNL A   1      44.333  29.026  28.369  1.00  0.00     0.074 A 
ATOM     22  C   UNL A   1      44.477  27.695  27.812  1.00  0.00     0.031 C 
ATOM     23  C   UNL A   1      37.953  29.576  29.038  1.00  0.00     0.029 A 
ATOM     24  C   UNL A   1      38.968  30.550  29.419  1.00  0.00     0.049 A 
ATOM     25  H   UNL A   1      41.024  30.433  29.093  1.00  0.00     0.167 HD
ATOM     26  C   UNL A   1      45.363  29.869  28.638  1.00  0.00     0.034 A 
ATOM     27  C   UNL A   1      38.722  31.709  30.062  1.00  0.00     0.034 A 
ATOM     28  C   UNL A   1      45.188  31.187  29.206  1.00  0.00     0.049 A 
ATOM     29  C   UNL A   1      39.879  32.603  30.406  1.00  0.00     0.074 A 
ATOM     30  C   UNL A   1      46.152  32.144  29.476  1.00  0.00     0.029 A 
ATOM     31  N   UNL A   1      43.973  31.725  29.615  1.00  0.00    -0.354 N 
ATOM     32  N   UNL A   1      41.160  32.410  30.194  1.00  0.00    -0.248 NA
ATOM     33  C   UNL A   1      39.560  33.872  31.069  1.00  0.00     0.031 C 
ATOM     34  C   UNL A   1      45.532  33.220  30.123  1.00  0.00     0.029 A 
ATOM     35  C   UNL A   1      44.169  32.980  30.175  1.00  0.00     0.049 A 
ATOM     36  H   UNL A   1      43.099  31.281  29.521  1.00  0.00     0.167 HD
ATOM     37  C   UNL A   1      41.801  33.545  30.679  1.00  0.00     0.074 A 
ATOM     38  C   UNL A   1      40.762  34.421  31.185  1.00  0.00     0.031 C 
ATOM     39  C   UNL A   1      43.127  33.838  30.696  1.00  0.00     0.034 A 
BRANCH  26  40
ATOM     40  C   UNL A   1      46.763  29.363  28.373  1.00  0.00     0.023 A 
ATOM     41  C   UNL A   1      47.504  28.677  29.352  1.00  0.00     0.031 A 
ATOM     42  C   UNL A   1      47.387  29.612  27.136  1.00  0.00     0.131 A 
ATOM     43  C   UNL A   1      48.848  28.350  29.114  1.00  0.00     0.055 A 
ATOM     44  C   UNL A   1      48.697  29.202  26.874  1.00  0.00     0.041 A 
ATOM     45  F   UNL A   1      46.743  30.279  26.166  1.00  0.00    -0.206 F 
ATOM     46  C   UNL A   1      49.442  28.584  27.874  1.00  0.00     0.022 A 
BRANCH  43  47
ATOM     47  S   UNL A   1      49.858  27.781  30.511  1.00  0.00     0.124 S 
ATOM     48  O   UNL A   1      49.740  28.902  31.441  1.00  0.00    -0.237 OA
ATOM     49  O   UNL A   1      49.182  26.551  30.908  1.00  0.00    -0.237 OA
ATOM     50  O   UNL A   1      51.186  27.605  29.926  1.00  0.00    -0.744 OA
ENDBRANCH  43  47
ENDBRANCH  26  40
BRANCH  27  51
ATOM     51  C   UNL A   1      37.327  32.041  30.463  1.00  0.00     0.023 A 
ATOM     52  C   UNL A   1      36.443  32.676  29.579  1.00  0.00     0.031 A 
ATOM     53  C   UNL A   1      36.855  31.704  31.746  1.00  0.00     0.131 A 
ATOM     54  C   UNL A   1      35.136  32.973  29.998  1.00  0.00     0.055 A 
ATOM     55  C   UNL A   1      35.541  31.956  32.138  1.00  0.00     0.041 A 
ATOM     56  F   UNL A   1      37.660  31.088  32.626  1.00  0.00    -0.206 F 
ATOM     57  C   UNL A   1      34.675  32.603  31.263  1.00  0.00     0.022 A 
BRANCH  54  58
ATOM     58  S   UNL A   1      34.057  33.904  28.877  1.00  0.00     0.124 S 
ATOM     59  O   UNL A   1      35.022  34.703  28.130  1.00  0.00    -0.237 OA
ATOM     60  O   UNL A   1      33.395  32.836  28.135  1.00  0.00    -0.237 OA
ATOM     61  O   UNL A   1      33.192  34.657  29.784  1.00  0.00    -0.744 OA
ENDBRANCH  54  58
ENDBRANCH  27  51
BRANCH  39  62
ATOM     62  C   UNL A   1      43.525  35.188  31.241  1.00  0.00     0.023 A 
ATOM     63  C   UNL A   1      43.668  36.312  30.411  1.00  0.00     0.031 A 
ATOM     64  C   UNL A   1      43.754  35.347  32.619  1.00  0.00     0.131 A 
ATOM     65  C   UNL A   1      44.067  37.541  30.963  1.00  0.00     0.055 A 
ATOM     66  C   UNL A   1      44.093  36.583  33.171  1.00  0.00     0.041 A 
ATOM     67  F   UNL A   1      43.639  34.303  33.457  1.00  0.00    -0.206 F 
ATOM     68  C   UNL A   1      44.261  37.687  32.339  1.00  0.00     0.022 A 
BRANCH  65  69
ATOM     69  S   UNL A   1      44.400  38.933  29.851  1.00  0.00     0.124 S 
ATOM     70  O   UNL A   1      45.235  39.793  30.684  1.00  0.00    -0.237 OA
ATOM     71  O   UNL A   1      45.072  38.286  28.729  1.00  0.00    -0.237 OA
ATOM     72  O   UNL A   1      43.070  39.462  29.553  1.00  0.00    -0.744 OA
ENDBRANCH  65  69
ENDBRANCH  39  62
ENDBRANCH  13  14
ENDBRANCH   6   8
ENDBRANCH   3   4
ENDBRANCH   2   3
ENDBRANCH   1   2
BRANCH   1  73
ATOM     73  C   UNL A   1      35.467  23.294  22.647  1.00  0.00     0.002 C 
BRANCH  73  74
ATOM     74  C   UNL A   1      34.000  22.886  22.819  1.00  0.00     0.021 C 
BRANCH  74  75
ATOM     75  C   UNL A   1      33.005  23.793  22.101  1.00  0.00     0.116 C 
BRANCH  75  76
ATOM     76  N   UNL A   1      33.553  25.125  21.927  1.00  0.00    -0.356 N 
ATOM     77  C   UNL A   1      32.987  26.349  22.125  1.00  0.00     0.224 C 
ATOM     78  H   UNL A   1      34.486  25.150  21.614  1.00  0.00     0.163 HD
ATOM     79  O   UNL A   1      33.611  27.340  21.744  1.00  0.00    -0.275 OA
BRANCH  77  80
ATOM     80  C   UNL A   1      31.594  26.426  22.736  1.00  0.00     0.098 C 
ATOM     81  C   UNL A   1      31.453  26.366  24.302  1.00  0.00     0.100 C 
ATOM     82  C   UNL A   1      30.913  27.774  22.372  1.00  0.00     0.025 C 
ATOM     83  C   UNL A   1      30.719  27.698  24.600  1.00  0.00     0.025 C 
ATOM     84  C   UNL A   1      31.704  28.931  22.942  1.00  0.00    -0.027 C 
ATOM     85  C   UNL A   1      29.771  27.782  23.387  1.00  0.00     0.017 C 
ATOM     86  C   UNL A   1      31.602  28.870  24.278  1.00  0.00    -0.027 C 
BRANCH  81  87
ATOM     87  C   UNL A   1      32.710  25.933  25.055  1.00  0.00     0.242 C 
ATOM     88  O   UNL A   1      33.831  26.050  24.547  1.00  0.00    -0.273 OA
ATOM     89  N   UNL A   1      32.647  25.197  26.206  1.00  0.00    -0.267 N 
ATOM     90  H   UNL A   1      33.501  24.974  26.642  1.00  0.00     0.191 HD
BRANCH  89  91
ATOM     91  N   UNL A   1      31.495  24.738  26.813  1.00  0.00    -0.263 N 
ATOM     92  C   UNL A   1      31.162  23.409  26.967  1.00  0.00     0.271 C 
ATOM     93  H   UNL A   1      30.865  25.410  27.163  1.00  0.00     0.191 HD
ATOM     94  O   UNL A   1      30.088  23.086  27.469  1.00  0.00    -0.267 OA
BRANCH  92  95
ATOM     95  C   UNL A   1      32.022  22.360  26.385  1.00  0.00     0.060 A 
ATOM     96  C   UNL A   1      31.501  21.697  25.261  1.00  0.00     0.015 A 
ATOM     97  C   UNL A   1      33.268  21.993  26.896  1.00  0.00     0.053 A 
ATOM     98  C   UNL A   1      32.243  20.704  24.625  1.00  0.00     0.001 A 
ATOM     99  C   UNL A   1      34.015  21.006  26.242  1.00  0.00     0.021 A 
ATOM    100  Cl  UNL A   1      33.923  22.668  28.340  1.00  0.00    -0.083 Cl
ATOM    101  C   UNL A   1      33.505  20.367  25.108  1.00  0.00     0.002 A 
ENDBRANCH  92  95
ENDBRANCH  89  91
ENDBRANCH  81  87
ENDBRANCH  77  80
ENDBRANCH  75  76
ENDBRANCH  74  75
ENDBRANCH  73  74
ENDBRANCH   1  73
TORSDOF 19
ENDMDL
