MODEL 1
REMARK VINA RESULT:     -12.1      0.000      0.000
REMARK SMILES COc1cc(C)cc2c1O[C@H](C(F)(F)F)C(C(=O)NCCCCCCNC(=O)c1ccc(-c3c4nc(c(-c5cc(S(=O)(=O)[O-])ccc5F)c5ccc([nH]5)c(-c5cc(S(=O)(=O)[O-])ccc5F)c5nc(c(-c6cc(S(=O)(=O)[O-])ccc6F)c6ccc3[nH]6)C=C5)C=C4)cc1)=C2
REMARK SMILES IDX 23 1 22 2 21 3 20 4 19 5 17 6 18 7 16 9 3 10 4 11 9 12 5 13
REMARK SMILES IDX 8 14 10 15 6 16 7 17 92 18 11 19 2 20 1 21 12 22 13 23 14 24
REMARK SMILES IDX 15 25 24 26 25 27 26 28 27 29 28 31 29 32 30 33 91 34 31 35
REMARK SMILES IDX 90 36 32 37 33 38 34 39 84 40 35 41 89 42 83 43 85 44 36 45
REMARK SMILES IDX 88 46 82 47 81 48 37 50 69 51 49 52 68 53 50 54 53 55 67 56
REMARK SMILES IDX 86 57 51 58 52 59 66 61 87 62 54 63 38 64 39 65 47 66 40 67
REMARK SMILES IDX 46 68 48 69 45 70 41 71 42 72 43 73 44 74 70 75 71 76 79 77
REMARK SMILES IDX 72 78 78 79 80 80 77 81 73 82 74 83 75 84 76 85 55 86 56 87
REMARK SMILES IDX 64 88 57 89 63 90 65 91 62 92 58 93 59 94 60 95 61 96
REMARK H PARENT 19 8 26 30 85 49 53 60
REMARK Flexibility Score: inf
ROOT
ATOM      1  C   UNL A   1      34.946  21.914  23.916  1.00  0.00     0.002 C 
ENDROOT
BRANCH   1   2
ATOM      2  C   UNL A   1      34.337  20.979  24.971  1.00  0.00     0.002 C 
BRANCH   2   3
ATOM      3  C   UNL A   1      32.848  20.658  24.801  1.00  0.00     0.021 C 
BRANCH   3   4
ATOM      4  C   UNL A   1      31.948  21.883  24.655  1.00  0.00     0.116 C 
BRANCH   4   5
ATOM      5  N   UNL A   1      31.233  22.178  25.885  1.00  0.00    -0.352 N 
ATOM      6  C   UNL A   1      30.844  23.279  26.568  1.00  0.00     0.251 C 
ATOM      7  O   UNL A   1      30.215  23.048  27.608  1.00  0.00    -0.270 OA
ATOM      8  H   UNL A   1      30.958  21.353  26.347  1.00  0.00     0.163 HD
BRANCH   6   9
ATOM      9  C   UNL A   1      31.108  24.695  26.170  1.00  0.00     0.067 C 
ATOM     10  C   UNL A   1      31.559  28.712  25.012  1.00  0.00     0.161 A 
ATOM     11  C   UNL A   1      30.753  29.244  24.005  1.00  0.00     0.054 A 
ATOM     12  C   UNL A   1      31.389  27.389  25.429  1.00  0.00     0.169 A 
ATOM     13  C   UNL A   1      29.737  28.466  23.437  1.00  0.00    -0.047 A 
ATOM     14  C   UNL A   1      30.381  26.604  24.871  1.00  0.00     0.021 A 
ATOM     15  O   UNL A   1      32.194  26.930  26.432  1.00  0.00    -0.471 OA
ATOM     16  C   UNL A   1      28.859  29.021  22.355  1.00  0.00     0.044 C 
ATOM     17  C   UNL A   1      29.555  27.146  23.879  1.00  0.00     0.015 A 
ATOM     18  C   UNL A   1      30.186  25.242  25.352  1.00  0.00     0.025 C 
ATOM     19  C   UNL A   1      32.320  25.491  26.572  1.00  0.00     0.314 C 
BRANCH  10  20
ATOM     20  O   UNL A   1      32.589  29.446  25.541  1.00  0.00    -0.493 OA
ATOM     21  C   UNL A   1      32.112  30.428  26.458  1.00  0.00     0.278 C 
ENDBRANCH  10  20
BRANCH  19  22
ATOM     22  C   UNL A   1      33.601  25.023  25.860  1.00  0.00     0.429 C 
ATOM     23  F   UNL A   1      34.545  25.996  25.874  1.00  0.00    -0.167 F 
ATOM     24  F   UNL A   1      34.158  23.945  26.463  1.00  0.00    -0.167 F 
ATOM     25  F   UNL A   1      33.383  24.679  24.570  1.00  0.00    -0.167 F 
ENDBRANCH  19  22
ENDBRANCH   6   9
ENDBRANCH   4   5
ENDBRANCH   3   4
ENDBRANCH   2   3
ENDBRANCH   1   2
BRANCH   1  26
ATOM     26  C   UNL A   1      36.384  22.368  24.175  1.00  0.00     0.021 C 
BRANCH  26  27
ATOM     27  C   UNL A   1      36.890  22.148  25.596  1.00  0.00     0.116 C 
BRANCH  27  28
ATOM     28  N   UNL A   1      37.980  21.189  25.664  1.00  0.00    -0.352 N 
ATOM     29  C   UNL A   1      39.266  21.380  26.113  1.00  0.00     0.251 C 
ATOM     30  H   UNL A   1      37.769  20.281  25.348  1.00  0.00     0.163 HD
ATOM     31  O   UNL A   1      40.104  20.493  25.981  1.00  0.00    -0.269 OA
BRANCH  29  32
ATOM     32  C   UNL A   1      39.636  22.680  26.712  1.00  0.00     0.039 A 
ATOM     33  C   UNL A   1      39.068  23.867  26.239  1.00  0.00     0.014 A 
ATOM     34  C   UNL A   1      40.608  22.714  27.715  1.00  0.00     0.014 A 
ATOM     35  C   UNL A   1      39.588  25.089  26.651  1.00  0.00     0.010 A 
ATOM     36  C   UNL A   1      41.076  23.944  28.181  1.00  0.00     0.010 A 
ATOM     37  C   UNL A   1      40.608  25.141  27.614  1.00  0.00    -0.014 A 
BRANCH  37  38
ATOM     38  C   UNL A   1      41.190  26.452  28.006  1.00  0.00     0.031 A 
ATOM     39  C   UNL A   1      42.613  26.793  27.654  1.00  0.00     0.074 A 
ATOM     40  C   UNL A   1      40.421  27.350  28.650  1.00  0.00     0.049 A 
ATOM     41  N   UNL A   1      43.289  27.881  27.922  1.00  0.00    -0.248 NA
ATOM     42  C   UNL A   1      43.378  25.783  26.905  1.00  0.00     0.031 C 
ATOM     43  C   UNL A   1      39.025  27.133  29.024  1.00  0.00     0.029 A 
ATOM     44  N   UNL A   1      40.693  28.620  29.090  1.00  0.00    -0.354 N 
ATOM     45  C   UNL A   1      44.560  27.681  27.395  1.00  0.00     0.074 A 
ATOM     46  C   UNL A   1      44.571  26.355  26.816  1.00  0.00     0.031 C 
ATOM     47  C   UNL A   1      38.549  28.245  29.601  1.00  0.00     0.029 A 
ATOM     48  C   UNL A   1      39.624  29.230  29.704  1.00  0.00     0.049 A 
ATOM     49  H   UNL A   1      41.570  29.055  28.978  1.00  0.00     0.167 HD
ATOM     50  C   UNL A   1      45.613  28.532  27.382  1.00  0.00     0.034 A 
ATOM     51  C   UNL A   1      39.520  30.435  30.302  1.00  0.00     0.034 A 
ATOM     52  C   UNL A   1      45.579  29.859  27.942  1.00  0.00     0.049 A 
ATOM     53  C   UNL A   1      40.719  31.346  30.317  1.00  0.00     0.074 A 
ATOM     54  C   UNL A   1      46.584  30.810  27.942  1.00  0.00     0.029 A 
ATOM     55  N   UNL A   1      44.494  30.424  28.596  1.00  0.00    -0.354 N 
ATOM     56  N   UNL A   1      41.901  31.157  29.780  1.00  0.00    -0.248 NA
ATOM     57  C   UNL A   1      40.580  32.627  31.023  1.00  0.00     0.031 C 
ATOM     58  C   UNL A   1      46.127  31.927  28.645  1.00  0.00     0.029 A 
ATOM     59  C   UNL A   1      44.815  31.698  29.032  1.00  0.00     0.049 A 
ATOM     60  H   UNL A   1      43.625  29.982  28.732  1.00  0.00     0.167 HD
ATOM     61  C   UNL A   1      42.644  32.296  30.074  1.00  0.00     0.074 A 
ATOM     62  C   UNL A   1      41.767  33.182  30.813  1.00  0.00     0.031 C 
ATOM     63  C   UNL A   1      43.935  32.577  29.766  1.00  0.00     0.034 A 
BRANCH  50  64
ATOM     64  C   UNL A   1      46.900  28.077  26.739  1.00  0.00     0.023 A 
ATOM     65  C   UNL A   1      47.048  28.136  25.340  1.00  0.00     0.031 A 
ATOM     66  C   UNL A   1      47.929  27.484  27.492  1.00  0.00     0.131 A 
ATOM     67  C   UNL A   1      48.188  27.591  24.736  1.00  0.00     0.055 A 
ATOM     68  C   UNL A   1      49.078  26.971  26.889  1.00  0.00     0.041 A 
ATOM     69  F   UNL A   1      47.834  27.405  28.830  1.00  0.00    -0.206 F 
ATOM     70  C   UNL A   1      49.206  27.015  25.504  1.00  0.00     0.022 A 
BRANCH  67  71
ATOM     71  S   UNL A   1      48.373  27.557  22.933  1.00  0.00     0.124 S 
ATOM     72  O   UNL A   1      49.654  28.235  22.752  1.00  0.00    -0.237 OA
ATOM     73  O   UNL A   1      48.380  26.125  22.652  1.00  0.00    -0.237 OA
ATOM     74  O   UNL A   1      47.209  28.289  22.447  1.00  0.00    -0.744 OA
ENDBRANCH  67  71
ENDBRANCH  50  64
BRANCH  51  75
ATOM     75  C   UNL A   1      38.210  30.833  30.893  1.00  0.00     0.023 A 
ATOM     76  C   UNL A   1      37.231  31.475  30.111  1.00  0.00     0.031 A 
ATOM     77  C   UNL A   1      37.975  30.703  32.270  1.00  0.00     0.131 A 
ATOM     78  C   UNL A   1      36.108  32.040  30.726  1.00  0.00     0.055 A 
ATOM     79  C   UNL A   1      36.816  31.203  32.869  1.00  0.00     0.041 A 
ATOM     80  F   UNL A   1      38.883  30.108  33.059  1.00  0.00    -0.206 F 
ATOM     81  C   UNL A   1      35.886  31.894  32.099  1.00  0.00     0.022 A 
BRANCH  78  82
ATOM     82  S   UNL A   1      34.979  33.112  29.794  1.00  0.00     0.124 S 
ATOM     83  O   UNL A   1      34.412  32.184  28.820  1.00  0.00    -0.237 OA
ATOM     84  O   UNL A   1      34.065  33.564  30.842  1.00  0.00    -0.237 OA
ATOM     85  O   UNL A   1      35.854  34.143  29.249  1.00  0.00    -0.744 OA
ENDBRANCH  78  82
ENDBRANCH  51  75
BRANCH  63  86
ATOM     86  C   UNL A   1      44.517  33.889  30.231  1.00  0.00     0.023 A 
ATOM     87  C   UNL A   1      44.988  34.026  31.551  1.00  0.00     0.031 A 
ATOM     88  C   UNL A   1      44.454  35.037  29.423  1.00  0.00     0.131 A 
ATOM     89  C   UNL A   1      45.333  35.292  32.039  1.00  0.00     0.055 A 
ATOM     90  C   UNL A   1      44.841  36.290  29.901  1.00  0.00     0.041 A 
ATOM     91  F   UNL A   1      44.005  34.957  28.161  1.00  0.00    -0.206 F 
ATOM     92  C   UNL A   1      45.269  36.423  31.219  1.00  0.00     0.022 A 
BRANCH  89  93
ATOM     93  S   UNL A   1      45.796  35.532  33.776  1.00  0.00     0.124 S 
ATOM     94  O   UNL A   1      46.602  36.749  33.710  1.00  0.00    -0.237 OA
ATOM     95  O   UNL A   1      44.495  35.680  34.423  1.00  0.00    -0.237 OA
ATOM     96  O   UNL A   1      46.531  34.318  34.117  1.00  0.00    -0.744 OA
ENDBRANCH  89  93
ENDBRANCH  63  86
ENDBRANCH  37  38
ENDBRANCH  29  32
ENDBRANCH  27  28
ENDBRANCH  26  27
ENDBRANCH   1  26
TORSDOF 18
ENDMDL
MODEL 2
REMARK VINA RESULT:     -12.0      0.884      7.437
REMARK SMILES COc1cc(C)cc2c1O[C@H](C(F)(F)F)C(C(=O)NCCCCCCNC(=O)c1ccc(-c3c4nc(c(-c5cc(S(=O)(=O)[O-])ccc5F)c5ccc([nH]5)c(-c5cc(S(=O)(=O)[O-])ccc5F)c5nc(c(-c6cc(S(=O)(=O)[O-])ccc6F)c6ccc3[nH]6)C=C5)C=C4)cc1)=C2
REMARK SMILES IDX 23 1 22 2 21 3 20 4 19 5 17 6 18 7 16 9 3 10 4 11 9 12 5 13
REMARK SMILES IDX 8 14 10 15 6 16 7 17 92 18 11 19 2 20 1 21 12 22 13 23 14 24
REMARK SMILES IDX 15 25 24 26 25 27 26 28 27 29 28 31 29 32 30 33 91 34 31 35
REMARK SMILES IDX 90 36 32 37 33 38 34 39 84 40 35 41 89 42 83 43 85 44 36 45
REMARK SMILES IDX 88 46 82 47 81 48 37 50 69 51 49 52 68 53 50 54 53 55 67 56
REMARK SMILES IDX 86 57 51 58 52 59 66 61 87 62 54 63 38 64 39 65 47 66 40 67
REMARK SMILES IDX 46 68 48 69 45 70 41 71 42 72 43 73 44 74 70 75 71 76 79 77
REMARK SMILES IDX 72 78 78 79 80 80 77 81 73 82 74 83 75 84 76 85 55 86 56 87
REMARK SMILES IDX 64 88 57 89 63 90 65 91 62 92 58 93 59 94 60 95 61 96
REMARK H PARENT 19 8 26 30 85 49 53 60
REMARK Flexibility Score: inf
ROOT
ATOM      1  C   UNL A   1      34.771  21.654  25.378  1.00  0.00     0.002 C 
ENDROOT
BRANCH   1   2
ATOM      2  C   UNL A   1      33.411  20.945  25.322  1.00  0.00     0.002 C 
BRANCH   2   3
ATOM      3  C   UNL A   1      32.586  21.178  24.051  1.00  0.00     0.021 C 
BRANCH   3   4
ATOM      4  C   UNL A   1      31.675  22.402  24.102  1.00  0.00     0.116 C 
BRANCH   4   5
ATOM      5  N   UNL A   1      31.124  22.610  25.430  1.00  0.00    -0.352 N 
ATOM      6  C   UNL A   1      30.835  23.660  26.233  1.00  0.00     0.251 C 
ATOM      7  O   UNL A   1      30.340  23.357  27.326  1.00  0.00    -0.270 OA
ATOM      8  H   UNL A   1      30.901  21.755  25.864  1.00  0.00     0.163 HD
BRANCH   6   9
ATOM      9  C   UNL A   1      31.062  25.101  25.905  1.00  0.00     0.067 C 
ATOM     10  C   UNL A   1      31.407  29.177  24.930  1.00  0.00     0.161 A 
ATOM     11  C   UNL A   1      30.631  29.718  23.905  1.00  0.00     0.054 A 
ATOM     12  C   UNL A   1      31.270  27.832  25.286  1.00  0.00     0.169 A 
ATOM     13  C   UNL A   1      29.677  28.926  23.255  1.00  0.00    -0.047 A 
ATOM     14  C   UNL A   1      30.324  27.032  24.646  1.00  0.00     0.021 A 
ATOM     15  O   UNL A   1      32.043  27.363  26.310  1.00  0.00    -0.471 OA
ATOM     16  C   UNL A   1      28.832  29.491  22.153  1.00  0.00     0.044 C 
ATOM     17  C   UNL A   1      29.527  27.583  23.635  1.00  0.00     0.015 A 
ATOM     18  C   UNL A   1      30.161  25.645  25.063  1.00  0.00     0.025 C 
ATOM     19  C   UNL A   1      32.219  25.925  26.399  1.00  0.00     0.314 C 
BRANCH  10  20
ATOM     20  O   UNL A   1      32.379  29.927  25.540  1.00  0.00    -0.493 OA
ATOM     21  C   UNL A   1      31.822  30.820  26.501  1.00  0.00     0.278 C 
ENDBRANCH  10  20
BRANCH  19  22
ATOM     22  C   UNL A   1      33.552  25.537  25.736  1.00  0.00     0.429 C 
ATOM     23  F   UNL A   1      34.148  24.521  26.407  1.00  0.00    -0.167 F 
ATOM     24  F   UNL A   1      33.384  25.104  24.463  1.00  0.00    -0.167 F 
ATOM     25  F   UNL A   1      34.428  26.567  25.686  1.00  0.00    -0.167 F 
ENDBRANCH  19  22
ENDBRANCH   6   9
ENDBRANCH   4   5
ENDBRANCH   3   4
ENDBRANCH   2   3
ENDBRANCH   1   2
BRANCH   1  26
ATOM     26  C   UNL A   1      35.986  20.802  25.008  1.00  0.00     0.021 C 
BRANCH  26  27
ATOM     27  C   UNL A   1      37.340  21.428  25.321  1.00  0.00     0.116 C 
BRANCH  27  28
ATOM     28  N   UNL A   1      38.364  20.439  25.616  1.00  0.00    -0.352 N 
ATOM     29  C   UNL A   1      39.602  20.627  26.185  1.00  0.00     0.251 C 
ATOM     30  H   UNL A   1      38.141  19.510  25.377  1.00  0.00     0.163 HD
ATOM     31  O   UNL A   1      40.402  19.697  26.246  1.00  0.00    -0.269 OA
BRANCH  29  32
ATOM     32  C   UNL A   1      39.973  21.970  26.680  1.00  0.00     0.039 A 
ATOM     33  C   UNL A   1      39.381  23.114  26.137  1.00  0.00     0.014 A 
ATOM     34  C   UNL A   1      40.968  22.084  27.654  1.00  0.00     0.014 A 
ATOM     35  C   UNL A   1      39.899  24.368  26.447  1.00  0.00     0.010 A 
ATOM     36  C   UNL A   1      41.435  23.349  28.017  1.00  0.00     0.010 A 
ATOM     37  C   UNL A   1      40.941  24.498  27.378  1.00  0.00    -0.014 A 
BRANCH  37  38
ATOM     38  C   UNL A   1      41.518  25.838  27.660  1.00  0.00     0.031 A 
ATOM     39  C   UNL A   1      40.740  26.856  28.449  1.00  0.00     0.074 A 
ATOM     40  C   UNL A   1      42.762  26.125  27.233  1.00  0.00     0.049 A 
ATOM     41  N   UNL A   1      41.080  28.075  28.781  1.00  0.00    -0.248 NA
ATOM     42  C   UNL A   1      39.407  26.456  28.928  1.00  0.00     0.031 C 
ATOM     43  C   UNL A   1      43.614  25.208  26.476  1.00  0.00     0.029 A 
ATOM     44  N   UNL A   1      43.531  27.251  27.380  1.00  0.00    -0.354 N 
ATOM     45  C   UNL A   1      40.000  28.594  29.488  1.00  0.00     0.074 A 
ATOM     46  C   UNL A   1      38.981  27.567  29.512  1.00  0.00     0.031 C 
ATOM     47  C   UNL A   1      44.801  25.792  26.261  1.00  0.00     0.029 A 
ATOM     48  C   UNL A   1      44.773  27.150  26.799  1.00  0.00     0.049 A 
ATOM     49  H   UNL A   1      43.223  28.056  27.857  1.00  0.00     0.167 HD
ATOM     50  C   UNL A   1      39.879  29.809  30.075  1.00  0.00     0.034 A 
ATOM     51  C   UNL A   1      45.772  28.050  26.690  1.00  0.00     0.034 A 
ATOM     52  C   UNL A   1      40.912  30.812  30.062  1.00  0.00     0.049 A 
ATOM     53  C   UNL A   1      45.596  29.411  27.309  1.00  0.00     0.074 A 
ATOM     54  C   UNL A   1      40.898  32.059  30.663  1.00  0.00     0.029 A 
ATOM     55  N   UNL A   1      42.138  30.691  29.424  1.00  0.00    -0.354 N 
ATOM     56  N   UNL A   1      44.584  29.872  28.008  1.00  0.00    -0.248 NA
ATOM     57  C   UNL A   1      46.685  30.380  27.123  1.00  0.00     0.031 C 
ATOM     58  C   UNL A   1      42.089  32.712  30.341  1.00  0.00     0.029 A 
ATOM     59  C   UNL A   1      42.875  31.852  29.589  1.00  0.00     0.049 A 
ATOM     60  H   UNL A   1      42.439  29.897  28.926  1.00  0.00     0.167 HD
ATOM     61  C   UNL A   1      44.918  31.178  28.351  1.00  0.00     0.074 A 
ATOM     62  C   UNL A   1      46.238  31.425  27.809  1.00  0.00     0.031 C 
ATOM     63  C   UNL A   1      44.192  32.090  29.047  1.00  0.00     0.034 A 
BRANCH  50  64
ATOM     64  C   UNL A   1      38.594  30.137  30.793  1.00  0.00     0.023 A 
ATOM     65  C   UNL A   1      37.610  30.919  30.156  1.00  0.00     0.031 A 
ATOM     66  C   UNL A   1      38.389  29.776  32.136  1.00  0.00     0.131 A 
ATOM     67  C   UNL A   1      36.479  31.333  30.870  1.00  0.00     0.055 A 
ATOM     68  C   UNL A   1      37.245  30.164  32.834  1.00  0.00     0.041 A 
ATOM     69  F   UNL A   1      39.298  29.031  32.786  1.00  0.00    -0.206 F 
ATOM     70  C   UNL A   1      36.289  30.954  32.204  1.00  0.00     0.022 A 
BRANCH  67  71
ATOM     71  S   UNL A   1      35.239  32.421  30.120  1.00  0.00     0.124 S 
ATOM     72  O   UNL A   1      34.323  32.644  31.235  1.00  0.00    -0.237 OA
ATOM     73  O   UNL A   1      36.040  33.578  29.731  1.00  0.00    -0.237 OA
ATOM     74  O   UNL A   1      34.697  31.631  29.020  1.00  0.00    -0.744 OA
ENDBRANCH  67  71
ENDBRANCH  50  64
BRANCH  51  75
ATOM     75  C   UNL A   1      47.027  27.650  25.991  1.00  0.00     0.023 A 
ATOM     76  C   UNL A   1      47.232  27.973  24.636  1.00  0.00     0.031 A 
ATOM     77  C   UNL A   1      47.970  26.825  26.624  1.00  0.00     0.131 A 
ATOM     78  C   UNL A   1      48.303  27.402  23.939  1.00  0.00     0.055 A 
ATOM     79  C   UNL A   1      49.079  26.318  25.943  1.00  0.00     0.041 A 
ATOM     80  F   UNL A   1      47.812  26.481  27.912  1.00  0.00    -0.206 F 
ATOM     81  C   UNL A   1      49.237  26.589  24.587  1.00  0.00     0.022 A 
BRANCH  78  82
ATOM     82  S   UNL A   1      48.433  27.571  22.137  1.00  0.00     0.124 S 
ATOM     83  O   UNL A   1      49.584  28.457  21.995  1.00  0.00    -0.237 OA
ATOM     84  O   UNL A   1      48.647  26.186  21.723  1.00  0.00    -0.237 OA
ATOM     85  O   UNL A   1      47.147  28.141  21.751  1.00  0.00    -0.744 OA
ENDBRANCH  78  82
ENDBRANCH  51  75
BRANCH  63  86
ATOM     86  C   UNL A   1      44.778  33.463  29.264  1.00  0.00     0.023 A 
ATOM     87  C   UNL A   1      45.488  33.750  30.446  1.00  0.00     0.031 A 
ATOM     88  C   UNL A   1      44.496  34.520  28.382  1.00  0.00     0.131 A 
ATOM     89  C   UNL A   1      45.850  35.071  30.736  1.00  0.00     0.055 A 
ATOM     90  C   UNL A   1      44.899  35.828  28.655  1.00  0.00     0.041 A 
ATOM     91  F   UNL A   1      43.816  34.296  27.246  1.00  0.00    -0.206 F 
ATOM     92  C   UNL A   1      45.565  36.110  29.845  1.00  0.00     0.022 A 
BRANCH  89  93
ATOM     93  S   UNL A   1      46.626  35.503  32.318  1.00  0.00     0.124 S 
ATOM     94  O   UNL A   1      45.954  34.592  33.243  1.00  0.00    -0.237 OA
ATOM     95  O   UNL A   1      48.033  35.205  32.062  1.00  0.00    -0.237 OA
ATOM     96  O   UNL A   1      46.307  36.915  32.495  1.00  0.00    -0.744 OA
ENDBRANCH  89  93
ENDBRANCH  63  86
ENDBRANCH  37  38
ENDBRANCH  29  32
ENDBRANCH  27  28
ENDBRANCH  26  27
ENDBRANCH   1  26
TORSDOF 18
ENDMDL
MODEL 3
REMARK VINA RESULT:     -12.0      4.653      9.728
REMARK SMILES COc1cc(C)cc2c1O[C@H](C(F)(F)F)C(C(=O)NCCCCCCNC(=O)c1ccc(-c3c4nc(c(-c5cc(S(=O)(=O)[O-])ccc5F)c5ccc([nH]5)c(-c5cc(S(=O)(=O)[O-])ccc5F)c5nc(c(-c6cc(S(=O)(=O)[O-])ccc6F)c6ccc3[nH]6)C=C5)C=C4)cc1)=C2
REMARK SMILES IDX 23 1 22 2 21 3 20 4 19 5 17 6 18 7 16 9 3 10 4 11 9 12 5 13
REMARK SMILES IDX 8 14 10 15 6 16 7 17 92 18 11 19 2 20 1 21 12 22 13 23 14 24
REMARK SMILES IDX 15 25 24 26 25 27 26 28 27 29 28 31 29 32 30 33 91 34 31 35
REMARK SMILES IDX 90 36 32 37 33 38 34 39 84 40 35 41 89 42 83 43 85 44 36 45
REMARK SMILES IDX 88 46 82 47 81 48 37 50 69 51 49 52 68 53 50 54 53 55 67 56
REMARK SMILES IDX 86 57 51 58 52 59 66 61 87 62 54 63 38 64 39 65 47 66 40 67
REMARK SMILES IDX 46 68 48 69 45 70 41 71 42 72 43 73 44 74 70 75 71 76 79 77
REMARK SMILES IDX 72 78 78 79 80 80 77 81 73 82 74 83 75 84 76 85 55 86 56 87
REMARK SMILES IDX 64 88 57 89 63 90 65 91 62 92 58 93 59 94 60 95 61 96
REMARK H PARENT 19 8 26 30 85 49 53 60
REMARK Flexibility Score: inf
ROOT
ATOM      1  C   UNL A   1      31.639  29.241  24.364  1.00  0.00     0.002 C 
ENDROOT
BRANCH   1   2
ATOM      2  C   UNL A   1      30.224  29.009  23.815  1.00  0.00     0.002 C 
BRANCH   2   3
ATOM      3  C   UNL A   1      30.112  28.018  22.651  1.00  0.00     0.021 C 
BRANCH   3   4
ATOM      4  C   UNL A   1      30.868  26.708  22.860  1.00  0.00     0.116 C 
BRANCH   4   5
ATOM      5  N   UNL A   1      31.710  26.382  21.722  1.00  0.00    -0.352 N 
ATOM      6  C   UNL A   1      32.708  25.514  21.440  1.00  0.00     0.251 C 
ATOM      7  O   UNL A   1      33.141  25.578  20.283  1.00  0.00    -0.270 OA
ATOM      8  H   UNL A   1      31.496  26.947  20.944  1.00  0.00     0.163 HD
BRANCH   6   9
ATOM      9  C   UNL A   1      33.299  24.522  22.390  1.00  0.00     0.067 C 
ATOM     10  C   UNL A   1      34.870  21.518  24.878  1.00  0.00     0.161 A 
ATOM     11  C   UNL A   1      34.184  20.314  25.038  1.00  0.00     0.054 A 
ATOM     12  C   UNL A   1      34.374  22.507  24.022  1.00  0.00     0.169 A 
ATOM     13  C   UNL A   1      33.015  20.071  24.307  1.00  0.00    -0.047 A 
ATOM     14  C   UNL A   1      33.211  22.277  23.289  1.00  0.00     0.021 A 
ATOM     15  O   UNL A   1      35.099  23.656  23.891  1.00  0.00    -0.471 OA
ATOM     16  C   UNL A   1      32.265  18.782  24.464  1.00  0.00     0.044 C 
ATOM     17  C   UNL A   1      32.537  21.058  23.430  1.00  0.00     0.015 A 
ATOM     18  C   UNL A   1      32.734  23.299  22.365  1.00  0.00     0.025 C 
ATOM     19  C   UNL A   1      34.406  24.818  23.366  1.00  0.00     0.314 C 
BRANCH  10  20
ATOM     20  O   UNL A   1      35.988  21.789  25.624  1.00  0.00    -0.493 OA
ATOM     21  C   UNL A   1      37.169  21.308  24.987  1.00  0.00     0.278 C 
ENDBRANCH  10  20
BRANCH  19  22
ATOM     22  C   UNL A   1      33.945  25.705  24.536  1.00  0.00     0.429 C 
ATOM     23  F   UNL A   1      33.995  27.016  24.197  1.00  0.00    -0.167 F 
ATOM     24  F   UNL A   1      32.664  25.453  24.895  1.00  0.00    -0.167 F 
ATOM     25  F   UNL A   1      34.703  25.537  25.644  1.00  0.00    -0.167 F 
ENDBRANCH  19  22
ENDBRANCH   6   9
ENDBRANCH   4   5
ENDBRANCH   3   4
ENDBRANCH   2   3
ENDBRANCH   1   2
BRANCH   1  26
ATOM     26  C   UNL A   1      31.754  29.357  25.886  1.00  0.00     0.021 C 
BRANCH  26  27
ATOM     27  C   UNL A   1      33.067  29.940  26.396  1.00  0.00     0.116 C 
BRANCH  27  28
ATOM     28  N   UNL A   1      32.937  31.317  26.843  1.00  0.00    -0.352 N 
ATOM     29  C   UNL A   1      33.788  32.046  27.641  1.00  0.00     0.251 C 
ATOM     30  H   UNL A   1      32.132  31.791  26.533  1.00  0.00     0.163 HD
ATOM     31  O   UNL A   1      33.463  33.163  28.032  1.00  0.00    -0.269 OA
BRANCH  29  32
ATOM     32  C   UNL A   1      35.076  31.450  28.057  1.00  0.00     0.039 A 
ATOM     33  C   UNL A   1      35.141  30.112  28.459  1.00  0.00     0.014 A 
ATOM     34  C   UNL A   1      36.215  32.257  28.103  1.00  0.00     0.014 A 
ATOM     35  C   UNL A   1      36.300  29.631  29.059  1.00  0.00     0.010 A 
ATOM     36  C   UNL A   1      37.400  31.748  28.639  1.00  0.00     0.010 A 
ATOM     37  C   UNL A   1      37.437  30.448  29.170  1.00  0.00    -0.014 A 
BRANCH  37  38
ATOM     38  C   UNL A   1      38.650  29.938  29.860  1.00  0.00     0.031 A 
ATOM     39  C   UNL A   1      39.006  30.422  31.240  1.00  0.00     0.074 A 
ATOM     40  C   UNL A   1      39.413  29.009  29.255  1.00  0.00     0.049 A 
ATOM     41  N   UNL A   1      40.028  30.096  31.989  1.00  0.00    -0.248 NA
ATOM     42  C   UNL A   1      38.098  31.400  31.861  1.00  0.00     0.031 C 
ATOM     43  C   UNL A   1      39.152  28.454  27.927  1.00  0.00     0.029 A 
ATOM     44  N   UNL A   1      40.547  28.359  29.673  1.00  0.00    -0.354 N 
ATOM     45  C   UNL A   1      39.899  30.840  33.157  1.00  0.00     0.074 A 
ATOM     46  C   UNL A   1      38.715  31.656  33.006  1.00  0.00     0.031 C 
ATOM     47  C   UNL A   1      40.073  27.520  27.656  1.00  0.00     0.029 A 
ATOM     48  C   UNL A   1      41.033  27.457  28.756  1.00  0.00     0.049 A 
ATOM     49  H   UNL A   1      40.972  28.522  30.546  1.00  0.00     0.167 HD
ATOM     50  C   UNL A   1      40.689  30.828  34.257  1.00  0.00     0.034 A 
ATOM     51  C   UNL A   1      42.136  26.680  28.782  1.00  0.00     0.034 A 
ATOM     52  C   UNL A   1      41.852  29.991  34.401  1.00  0.00     0.049 A 
ATOM     53  C   UNL A   1      43.025  26.720  29.997  1.00  0.00     0.074 A 
ATOM     54  C   UNL A   1      42.693  29.880  35.495  1.00  0.00     0.029 A 
ATOM     55  N   UNL A   1      42.340  29.125  33.433  1.00  0.00    -0.354 N 
ATOM     56  N   UNL A   1      42.867  27.399  31.109  1.00  0.00    -0.248 NA
ATOM     57  C   UNL A   1      44.243  25.898  29.964  1.00  0.00     0.031 C 
ATOM     58  C   UNL A   1      43.719  28.991  35.168  1.00  0.00     0.029 A 
ATOM     59  C   UNL A   1      43.487  28.500  33.892  1.00  0.00     0.049 A 
ATOM     60  H   UNL A   1      41.931  28.978  32.550  1.00  0.00     0.167 HD
ATOM     61  C   UNL A   1      43.959  27.082  31.911  1.00  0.00     0.074 A 
ATOM     62  C   UNL A   1      44.756  26.127  31.168  1.00  0.00     0.031 C 
ATOM     63  C   UNL A   1      44.275  27.547  33.146  1.00  0.00     0.034 A 
BRANCH  50  64
ATOM     64  C   UNL A   1      40.333  31.736  35.409  1.00  0.00     0.023 A 
ATOM     65  C   UNL A   1      39.291  31.384  36.287  1.00  0.00     0.031 A 
ATOM     66  C   UNL A   1      40.943  32.992  35.570  1.00  0.00     0.131 A 
ATOM     67  C   UNL A   1      38.875  32.287  37.273  1.00  0.00     0.055 A 
ATOM     68  C   UNL A   1      40.547  33.876  36.575  1.00  0.00     0.041 A 
ATOM     69  F   UNL A   1      41.943  33.373  34.758  1.00  0.00    -0.206 F 
ATOM     70  C   UNL A   1      39.502  33.529  37.425  1.00  0.00     0.022 A 
BRANCH  67  71
ATOM     71  S   UNL A   1      37.472  31.915  38.359  1.00  0.00     0.124 S 
ATOM     72  O   UNL A   1      38.082  32.024  39.682  1.00  0.00    -0.237 OA
ATOM     73  O   UNL A   1      36.529  32.976  38.019  1.00  0.00    -0.237 OA
ATOM     74  O   UNL A   1      37.073  30.567  37.969  1.00  0.00    -0.744 OA
ENDBRANCH  67  71
ENDBRANCH  50  64
BRANCH  51  75
ATOM     75  C   UNL A   1      42.413  25.786  27.622  1.00  0.00     0.023 A 
ATOM     76  C   UNL A   1      41.843  24.500  27.551  1.00  0.00     0.031 A 
ATOM     77  C   UNL A   1      43.353  26.147  26.645  1.00  0.00     0.131 A 
ATOM     78  C   UNL A   1      42.287  23.595  26.578  1.00  0.00     0.055 A 
ATOM     79  C   UNL A   1      43.737  25.266  25.631  1.00  0.00     0.041 A 
ATOM     80  F   UNL A   1      43.931  27.358  26.677  1.00  0.00    -0.206 F 
ATOM     81  C   UNL A   1      43.218  23.975  25.608  1.00  0.00     0.022 A 
BRANCH  78  82
ATOM     82  S   UNL A   1      41.784  21.852  26.635  1.00  0.00     0.124 S 
ATOM     83  O   UNL A   1      42.448  21.382  27.845  1.00  0.00    -0.237 OA
ATOM     84  O   UNL A   1      40.329  21.965  26.715  1.00  0.00    -0.237 OA
ATOM     85  O   UNL A   1      42.294  21.306  25.382  1.00  0.00    -0.744 OA
ENDBRANCH  78  82
ENDBRANCH  51  75
BRANCH  63  86
ATOM     86  C   UNL A   1      45.545  27.058  33.796  1.00  0.00     0.023 A 
ATOM     87  C   UNL A   1      45.517  25.938  34.650  1.00  0.00     0.031 A 
ATOM     88  C   UNL A   1      46.740  27.793  33.699  1.00  0.00     0.131 A 
ATOM     89  C   UNL A   1      46.649  25.614  35.409  1.00  0.00     0.055 A 
ATOM     90  C   UNL A   1      47.878  27.439  34.425  1.00  0.00     0.041 A 
ATOM     91  F   UNL A   1      46.811  28.872  32.904  1.00  0.00    -0.206 F 
ATOM     92  C   UNL A   1      47.830  26.354  35.296  1.00  0.00     0.022 A 
BRANCH  89  93
ATOM     93  S   UNL A   1      46.602  24.275  36.632  1.00  0.00     0.124 S 
ATOM     94  O   UNL A   1      46.570  25.017  37.891  1.00  0.00    -0.237 OA
ATOM     95  O   UNL A   1      45.364  23.583  36.284  1.00  0.00    -0.237 OA
ATOM     96  O   UNL A   1      47.830  23.527  36.384  1.00  0.00    -0.744 OA
ENDBRANCH  89  93
ENDBRANCH  63  86
ENDBRANCH  37  38
ENDBRANCH  29  32
ENDBRANCH  27  28
ENDBRANCH  26  27
ENDBRANCH   1  26
TORSDOF 18
ENDMDL
