MODEL 1
REMARK VINA RESULT:     -12.4      0.000      0.000
REMARK SMILES CC1=Nc2c(c(C)nn2-c2ccc(F)cc2)[C@H](c2ccc(C(=O)NCCCCCCNC(=O)c3ccc(-c4c5nc(c(-c6cc(S(=O)(=O)[O-])ccc6F)c6ccc([nH]6)c(-c6cc(S(=O)(=O)[O-])ccc6F)c6nc(c(-c7cc(S(=O)(=O)[O-])ccc7F)c7ccc4[nH]7)C=C6)C=C5)cc3)cc2)S1
REMARK SMILES IDX 28 1 27 2 26 3 25 4 24 5 22 6 23 7 21 9 18 10 19 11 98 12
REMARK SMILES IDX 20 13 97 14 17 15 1 16 2 17 3 18 99 19 4 20 5 21 9 22 6 23
REMARK SMILES IDX 8 24 7 25 10 26 11 27 16 28 12 29 15 30 13 31 14 32 29 33
REMARK SMILES IDX 30 34 31 35 32 36 33 38 34 39 35 40 96 41 36 42 95 43 37 44
REMARK SMILES IDX 38 45 39 46 89 47 40 48 94 49 88 50 90 51 41 52 93 53 87 54
REMARK SMILES IDX 86 55 42 57 74 58 54 59 73 60 55 61 58 62 72 63 91 64 56 65
REMARK SMILES IDX 57 66 71 68 92 69 59 70 43 71 44 72 52 73 45 74 51 75 53 76
REMARK SMILES IDX 50 77 46 78 47 79 48 80 49 81 75 82 76 83 84 84 77 85 83 86
REMARK SMILES IDX 85 87 82 88 78 89 79 90 80 91 81 92 60 93 61 94 69 95 62 96
REMARK SMILES IDX 68 97 70 98 67 99 63 100 64 101 65 102 66 103
REMARK H PARENT 24 8 31 37 90 56 58 67
REMARK Flexibility Score: inf
ROOT
ATOM      1  C   UNL A   1      38.885  22.335  26.253  1.00  0.00     0.002 C 
ENDROOT
BRANCH   1   2
ATOM      2  C   UNL A   1      37.650  23.124  25.788  1.00  0.00     0.002 C 
BRANCH   2   3
ATOM      3  C   UNL A   1      36.550  22.295  25.111  1.00  0.00     0.021 C 
BRANCH   3   4
ATOM      4  C   UNL A   1      35.689  21.507  26.097  1.00  0.00     0.116 C 
BRANCH   4   5
ATOM      5  N   UNL A   1      35.018  20.419  25.413  1.00  0.00    -0.352 N 
ATOM      6  C   UNL A   1      33.853  20.367  24.697  1.00  0.00     0.251 C 
ATOM      7  O   UNL A   1      33.526  19.293  24.193  1.00  0.00    -0.269 OA
ATOM      8  H   UNL A   1      35.487  19.555  25.479  1.00  0.00     0.163 HD
BRANCH   6   9
ATOM      9  C   UNL A   1      33.030  21.571  24.426  1.00  0.00     0.039 A 
ATOM     10  C   UNL A   1      31.639  23.961  23.819  1.00  0.00    -0.030 A 
ATOM     11  C   UNL A   1      32.792  23.593  23.104  1.00  0.00     0.006 A 
ATOM     12  C   UNL A   1      31.174  23.083  24.815  1.00  0.00     0.006 A 
ATOM     13  C   UNL A   1      33.469  22.409  23.396  1.00  0.00     0.014 A 
ATOM     14  C   UNL A   1      31.852  21.892  25.102  1.00  0.00     0.014 A 
BRANCH  10  15
ATOM     15  C   UNL A   1      30.915  25.240  23.433  1.00  0.00     0.119 C 
ATOM     16  C   UNL A   1      33.770  27.624  21.612  1.00  0.00     0.075 C 
ATOM     17  C   UNL A   1      32.697  27.180  22.570  1.00  0.00     0.074 C 
ATOM     18  N   UNL A   1      32.681  27.710  23.751  1.00  0.00    -0.227 NA
ATOM     19  S   UNL A   1      31.545  26.021  21.914  1.00  0.00    -0.098 SA
ATOM     20  C   UNL A   1      31.786  27.251  24.657  1.00  0.00     0.161 A 
ATOM     21  C   UNL A   1      30.994  26.127  24.614  1.00  0.00     0.038 A 
ATOM     22  N   UNL A   1      31.608  27.806  25.915  1.00  0.00    -0.215 N 
ATOM     23  C   UNL A   1      30.386  26.058  25.895  1.00  0.00     0.067 A 
ATOM     24  N   UNL A   1      30.824  27.030  26.706  1.00  0.00    -0.171 NA
ATOM     25  C   UNL A   1      29.413  25.060  26.410  1.00  0.00     0.069 C 
BRANCH  22  26
ATOM     26  C   UNL A   1      32.110  29.045  26.370  1.00  0.00     0.067 A 
ATOM     27  C   UNL A   1      33.262  29.068  27.171  1.00  0.00     0.031 A 
ATOM     28  C   UNL A   1      31.444  30.230  26.037  1.00  0.00     0.031 A 
ATOM     29  C   UNL A   1      33.746  30.283  27.646  1.00  0.00     0.041 A 
ATOM     30  C   UNL A   1      31.906  31.437  26.565  1.00  0.00     0.041 A 
ATOM     31  C   UNL A   1      33.055  31.453  27.353  1.00  0.00     0.123 A 
ATOM     32  F   UNL A   1      33.510  32.616  27.839  1.00  0.00    -0.207 F 
ENDBRANCH  22  26
ENDBRANCH  10  15
ENDBRANCH   6   9
ENDBRANCH   4   5
ENDBRANCH   3   4
ENDBRANCH   2   3
ENDBRANCH   1   2
BRANCH   1  33
ATOM     33  C   UNL A   1      39.195  21.043  25.482  1.00  0.00     0.021 C 
BRANCH  33  34
ATOM     34  C   UNL A   1      39.559  19.867  26.375  1.00  0.00     0.116 C 
BRANCH  34  35
ATOM     35  N   UNL A   1      40.809  19.231  25.962  1.00  0.00    -0.352 N 
ATOM     36  C   UNL A   1      42.055  19.799  25.762  1.00  0.00     0.251 C 
ATOM     37  H   UNL A   1      40.756  18.261  25.802  1.00  0.00     0.163 HD
ATOM     38  O   UNL A   1      42.871  19.244  25.046  1.00  0.00    -0.269 OA
BRANCH  36  39
ATOM     39  C   UNL A   1      42.372  21.080  26.424  1.00  0.00     0.039 A 
ATOM     40  C   UNL A   1      42.657  22.234  25.689  1.00  0.00     0.014 A 
ATOM     41  C   UNL A   1      42.377  21.114  27.814  1.00  0.00     0.014 A 
ATOM     42  C   UNL A   1      42.867  23.432  26.373  1.00  0.00     0.010 A 
ATOM     43  C   UNL A   1      42.397  22.315  28.473  1.00  0.00     0.010 A 
ATOM     44  C   UNL A   1      42.714  23.468  27.769  1.00  0.00    -0.014 A 
BRANCH  44  45
ATOM     45  C   UNL A   1      42.751  24.723  28.511  1.00  0.00     0.031 A 
ATOM     46  C   UNL A   1      41.546  25.568  28.320  1.00  0.00     0.074 A 
ATOM     47  C   UNL A   1      43.667  24.998  29.466  1.00  0.00     0.049 A 
ATOM     48  N   UNL A   1      41.464  26.675  27.663  1.00  0.00    -0.248 NA
ATOM     49  C   UNL A   1      40.242  25.044  28.763  1.00  0.00     0.031 C 
ATOM     50  C   UNL A   1      44.745  24.139  29.968  1.00  0.00     0.029 A 
ATOM     51  N   UNL A   1      43.758  26.085  30.281  1.00  0.00    -0.354 N 
ATOM     52  C   UNL A   1      40.161  27.123  27.842  1.00  0.00     0.074 A 
ATOM     53  C   UNL A   1      39.412  25.988  28.313  1.00  0.00     0.031 C 
ATOM     54  C   UNL A   1      45.221  24.633  31.133  1.00  0.00     0.029 A 
ATOM     55  C   UNL A   1      44.611  25.928  31.374  1.00  0.00     0.049 A 
ATOM     56  H   UNL A   1      43.261  26.918  30.113  1.00  0.00     0.167 HD
ATOM     57  C   UNL A   1      39.876  28.454  27.852  1.00  0.00     0.034 A 
ATOM     58  C   UNL A   1      44.799  26.798  32.403  1.00  0.00     0.034 A 
ATOM     59  C   UNL A   1      40.969  29.228  27.308  1.00  0.00     0.049 A 
ATOM     60  C   UNL A   1      44.411  28.132  31.883  1.00  0.00     0.074 A 
ATOM     61  C   UNL A   1      41.653  29.222  26.106  1.00  0.00     0.029 A 
ATOM     62  N   UNL A   1      41.794  29.883  28.195  1.00  0.00    -0.354 N 
ATOM     63  N   UNL A   1      45.035  28.730  30.905  1.00  0.00    -0.248 NA
ATOM     64  C   UNL A   1      43.045  28.577  32.113  1.00  0.00     0.031 C 
ATOM     65  C   UNL A   1      43.023  29.399  26.464  1.00  0.00     0.029 A 
ATOM     66  C   UNL A   1      43.091  29.595  27.844  1.00  0.00     0.049 A 
ATOM     67  H   UNL A   1      41.506  30.454  28.945  1.00  0.00     0.167 HD
ATOM     68  C   UNL A   1      44.030  29.286  30.130  1.00  0.00     0.074 A 
ATOM     69  C   UNL A   1      42.836  29.244  30.973  1.00  0.00     0.031 C 
ATOM     70  C   UNL A   1      44.188  29.468  28.786  1.00  0.00     0.034 A 
BRANCH  57  71
ATOM     71  C   UNL A   1      38.783  29.082  28.684  1.00  0.00     0.023 A 
ATOM     72  C   UNL A   1      38.997  29.194  30.070  1.00  0.00     0.031 A 
ATOM     73  C   UNL A   1      37.461  29.318  28.241  1.00  0.00     0.131 A 
ATOM     74  C   UNL A   1      37.928  29.464  30.944  1.00  0.00     0.055 A 
ATOM     75  C   UNL A   1      36.416  29.650  29.106  1.00  0.00     0.041 A 
ATOM     76  F   UNL A   1      37.082  29.144  26.970  1.00  0.00    -0.206 F 
ATOM     77  C   UNL A   1      36.640  29.699  30.470  1.00  0.00     0.022 A 
BRANCH  74  78
ATOM     78  S   UNL A   1      38.222  29.361  32.727  1.00  0.00     0.124 S 
ATOM     79  O   UNL A   1      37.466  28.164  33.081  1.00  0.00    -0.237 OA
ATOM     80  O   UNL A   1      39.676  29.247  32.786  1.00  0.00    -0.237 OA
ATOM     81  O   UNL A   1      37.677  30.618  33.233  1.00  0.00    -0.744 OA
ENDBRANCH  74  78
ENDBRANCH  57  71
BRANCH  58  82
ATOM     82  C   UNL A   1      44.991  26.511  33.856  1.00  0.00     0.023 A 
ATOM     83  C   UNL A   1      43.949  26.675  34.798  1.00  0.00     0.031 A 
ATOM     84  C   UNL A   1      46.130  25.804  34.301  1.00  0.00     0.131 A 
ATOM     85  C   UNL A   1      44.060  26.130  36.099  1.00  0.00     0.055 A 
ATOM     86  C   UNL A   1      46.236  25.267  35.588  1.00  0.00     0.041 A 
ATOM     87  F   UNL A   1      47.147  25.525  33.471  1.00  0.00    -0.206 F 
ATOM     88  C   UNL A   1      45.193  25.415  36.490  1.00  0.00     0.022 A 
BRANCH  85  89
ATOM     89  S   UNL A   1      42.668  26.226  37.273  1.00  0.00     0.124 S 
ATOM     90  O   UNL A   1      41.978  24.963  37.034  1.00  0.00    -0.237 OA
ATOM     91  O   UNL A   1      43.342  26.363  38.559  1.00  0.00    -0.237 OA
ATOM     92  O   UNL A   1      41.939  27.418  36.837  1.00  0.00    -0.744 OA
ENDBRANCH  85  89
ENDBRANCH  58  82
BRANCH  70  93
ATOM     93  C   UNL A   1      45.579  29.350  28.193  1.00  0.00     0.023 A 
ATOM     94  C   UNL A   1      46.163  28.162  27.695  1.00  0.00     0.031 A 
ATOM     95  C   UNL A   1      46.276  30.555  27.990  1.00  0.00     0.131 A 
ATOM     96  C   UNL A   1      47.401  28.217  27.020  1.00  0.00     0.055 A 
ATOM     97  C   UNL A   1      47.488  30.607  27.305  1.00  0.00     0.041 A 
ATOM     98  F   UNL A   1      45.757  31.718  28.416  1.00  0.00    -0.206 F 
ATOM     99  C   UNL A   1      48.056  29.437  26.817  1.00  0.00     0.022 A 
BRANCH  96 100
ATOM    100  S   UNL A   1      48.177  26.702  26.359  1.00  0.00     0.124 S 
ATOM    101  O   UNL A   1      47.314  26.348  25.237  1.00  0.00    -0.237 OA
ATOM    102  O   UNL A   1      49.523  27.150  26.017  1.00  0.00    -0.237 OA
ATOM    103  O   UNL A   1      48.121  25.767  27.486  1.00  0.00    -0.744 OA
ENDBRANCH  96 100
ENDBRANCH  70  93
ENDBRANCH  44  45
ENDBRANCH  36  39
ENDBRANCH  34  35
ENDBRANCH  33  34
ENDBRANCH   1  33
TORSDOF 18
ENDMDL
MODEL 2
REMARK VINA RESULT:     -12.2      2.451      6.287
REMARK SMILES CC1=Nc2c(c(C)nn2-c2ccc(F)cc2)[C@H](c2ccc(C(=O)NCCCCCCNC(=O)c3ccc(-c4c5nc(c(-c6cc(S(=O)(=O)[O-])ccc6F)c6ccc([nH]6)c(-c6cc(S(=O)(=O)[O-])ccc6F)c6nc(c(-c7cc(S(=O)(=O)[O-])ccc7F)c7ccc4[nH]7)C=C6)C=C5)cc3)cc2)S1
REMARK SMILES IDX 28 1 27 2 26 3 25 4 24 5 22 6 23 7 21 9 18 10 19 11 98 12
REMARK SMILES IDX 20 13 97 14 17 15 1 16 2 17 3 18 99 19 4 20 5 21 9 22 6 23
REMARK SMILES IDX 8 24 7 25 10 26 11 27 16 28 12 29 15 30 13 31 14 32 29 33
REMARK SMILES IDX 30 34 31 35 32 36 33 38 34 39 35 40 96 41 36 42 95 43 37 44
REMARK SMILES IDX 38 45 39 46 89 47 40 48 94 49 88 50 90 51 41 52 93 53 87 54
REMARK SMILES IDX 86 55 42 57 74 58 54 59 73 60 55 61 58 62 72 63 91 64 56 65
REMARK SMILES IDX 57 66 71 68 92 69 59 70 43 71 44 72 52 73 45 74 51 75 53 76
REMARK SMILES IDX 50 77 46 78 47 79 48 80 49 81 75 82 76 83 84 84 77 85 83 86
REMARK SMILES IDX 85 87 82 88 78 89 79 90 80 91 81 92 60 93 61 94 69 95 62 96
REMARK SMILES IDX 68 97 70 98 67 99 63 100 64 101 65 102 66 103
REMARK H PARENT 24 8 31 37 90 56 58 67
REMARK Flexibility Score: inf
ROOT
ATOM      1  C   UNL A   1      40.135  21.793  26.881  1.00  0.00     0.002 C 
ENDROOT
BRANCH   1   2
ATOM      2  C   UNL A   1      38.880  22.233  26.109  1.00  0.00     0.002 C 
BRANCH   2   3
ATOM      3  C   UNL A   1      38.134  21.116  25.366  1.00  0.00     0.021 C 
BRANCH   3   4
ATOM      4  C   UNL A   1      36.724  21.513  24.930  1.00  0.00     0.116 C 
BRANCH   4   5
ATOM      5  N   UNL A   1      35.832  20.375  25.034  1.00  0.00    -0.352 N 
ATOM      6  C   UNL A   1      34.480  20.252  24.860  1.00  0.00     0.251 C 
ATOM      7  O   UNL A   1      33.975  19.137  24.990  1.00  0.00    -0.269 OA
ATOM      8  H   UNL A   1      36.283  19.534  25.277  1.00  0.00     0.163 HD
BRANCH   6   9
ATOM      9  C   UNL A   1      33.625  21.385  24.429  1.00  0.00     0.039 A 
ATOM     10  C   UNL A   1      32.050  23.651  23.797  1.00  0.00    -0.030 A 
ATOM     11  C   UNL A   1      33.135  23.749  24.684  1.00  0.00     0.006 A 
ATOM     12  C   UNL A   1      31.799  22.401  23.200  1.00  0.00     0.006 A 
ATOM     13  C   UNL A   1      33.918  22.635  24.986  1.00  0.00     0.014 A 
ATOM     14  C   UNL A   1      32.590  21.286  23.499  1.00  0.00     0.014 A 
BRANCH  10  15
ATOM     15  C   UNL A   1      31.254  24.904  23.470  1.00  0.00     0.119 C 
ATOM     16  C   UNL A   1      33.949  27.490  21.679  1.00  0.00     0.075 C 
ATOM     17  C   UNL A   1      32.919  26.960  22.640  1.00  0.00     0.074 C 
ATOM     18  N   UNL A   1      32.900  27.448  23.839  1.00  0.00    -0.227 NA
ATOM     19  S   UNL A   1      31.814  25.767  21.967  1.00  0.00    -0.098 SA
ATOM     20  C   UNL A   1      32.048  26.913  24.746  1.00  0.00     0.161 A 
ATOM     21  C   UNL A   1      31.313  25.754  24.679  1.00  0.00     0.038 A 
ATOM     22  N   UNL A   1      31.868  27.416  26.025  1.00  0.00    -0.215 N 
ATOM     23  C   UNL A   1      30.736  25.611  25.968  1.00  0.00     0.067 A 
ATOM     24  N   UNL A   1      31.141  26.575  26.804  1.00  0.00    -0.171 NA
ATOM     25  C   UNL A   1      29.825  24.548  26.466  1.00  0.00     0.069 C 
BRANCH  22  26
ATOM     26  C   UNL A   1      32.317  28.663  26.513  1.00  0.00     0.067 A 
ATOM     27  C   UNL A   1      31.532  29.807  26.303  1.00  0.00     0.031 A 
ATOM     28  C   UNL A   1      33.545  28.749  27.179  1.00  0.00     0.031 A 
ATOM     29  C   UNL A   1      31.982  31.043  26.756  1.00  0.00     0.041 A 
ATOM     30  C   UNL A   1      34.013  30.002  27.579  1.00  0.00     0.041 A 
ATOM     31  C   UNL A   1      33.224  31.133  27.374  1.00  0.00     0.123 A 
ATOM     32  F   UNL A   1      33.664  32.330  27.781  1.00  0.00    -0.207 F 
ENDBRANCH  22  26
ENDBRANCH  10  15
ENDBRANCH   6   9
ENDBRANCH   4   5
ENDBRANCH   3   4
ENDBRANCH   2   3
ENDBRANCH   1   2
BRANCH   1  33
ATOM     33  C   UNL A   1      40.767  20.461  26.448  1.00  0.00     0.021 C 
BRANCH  33  34
ATOM     34  C   UNL A   1      42.128  20.195  27.072  1.00  0.00     0.116 C 
BRANCH  34  35
ATOM     35  N   UNL A   1      43.178  20.070  26.062  1.00  0.00    -0.352 N 
ATOM     36  C   UNL A   1      43.810  21.060  25.329  1.00  0.00     0.251 C 
ATOM     37  H   UNL A   1      43.478  19.151  25.876  1.00  0.00     0.163 HD
ATOM     38  O   UNL A   1      44.348  20.786  24.269  1.00  0.00    -0.269 OA
BRANCH  36  39
ATOM     39  C   UNL A   1      43.815  22.442  25.849  1.00  0.00     0.039 A 
ATOM     40  C   UNL A   1      43.031  23.445  25.272  1.00  0.00     0.014 A 
ATOM     41  C   UNL A   1      44.627  22.726  26.942  1.00  0.00     0.014 A 
ATOM     42  C   UNL A   1      43.018  24.709  25.862  1.00  0.00     0.010 A 
ATOM     43  C   UNL A   1      44.472  23.903  27.626  1.00  0.00     0.010 A 
ATOM     44  C   UNL A   1      43.728  24.925  27.055  1.00  0.00    -0.014 A 
BRANCH  44  45
ATOM     45  C   UNL A   1      43.609  26.172  27.801  1.00  0.00     0.031 A 
ATOM     46  C   UNL A   1      44.707  27.134  27.539  1.00  0.00     0.074 A 
ATOM     47  C   UNL A   1      42.496  26.533  28.480  1.00  0.00     0.049 A 
ATOM     48  N   UNL A   1      45.662  27.467  28.341  1.00  0.00    -0.248 NA
ATOM     49  C   UNL A   1      44.868  27.664  26.174  1.00  0.00     0.031 C 
ATOM     50  C   UNL A   1      41.223  25.812  28.588  1.00  0.00     0.029 A 
ATOM     51  N   UNL A   1      42.230  27.694  29.139  1.00  0.00    -0.354 N 
ATOM     52  C   UNL A   1      46.385  28.451  27.677  1.00  0.00     0.074 A 
ATOM     53  C   UNL A   1      46.002  28.359  26.293  1.00  0.00     0.031 C 
ATOM     54  C   UNL A   1      40.266  26.641  29.063  1.00  0.00     0.029 A 
ATOM     55  C   UNL A   1      40.887  27.892  29.458  1.00  0.00     0.049 A 
ATOM     56  H   UNL A   1      42.932  28.343  29.374  1.00  0.00     0.167 HD
ATOM     57  C   UNL A   1      47.022  29.435  28.369  1.00  0.00     0.034 A 
ATOM     58  C   UNL A   1      40.327  29.005  30.003  1.00  0.00     0.034 A 
ATOM     59  C   UNL A   1      47.143  29.096  29.769  1.00  0.00     0.049 A 
ATOM     60  C   UNL A   1      41.424  29.706  30.714  1.00  0.00     0.074 A 
ATOM     61  C   UNL A   1      47.693  28.033  30.463  1.00  0.00     0.029 A 
ATOM     62  N   UNL A   1      46.272  29.697  30.651  1.00  0.00    -0.354 N 
ATOM     63  N   UNL A   1      42.059  29.195  31.734  1.00  0.00    -0.248 NA
ATOM     64  C   UNL A   1      42.139  30.749  29.996  1.00  0.00     0.031 C 
ATOM     65  C   UNL A   1      46.758  27.752  31.504  1.00  0.00     0.029 A 
ATOM     66  C   UNL A   1      45.744  28.710  31.447  1.00  0.00     0.049 A 
ATOM     67  H   UNL A   1      46.066  30.659  30.702  1.00  0.00     0.167 HD
ATOM     68  C   UNL A   1      43.389  29.518  31.521  1.00  0.00     0.074 A 
ATOM     69  C   UNL A   1      43.366  30.555  30.491  1.00  0.00     0.031 C 
ATOM     70  C   UNL A   1      44.397  28.723  31.988  1.00  0.00     0.034 A 
BRANCH  57  71
ATOM     71  C   UNL A   1      47.202  30.847  27.866  1.00  0.00     0.023 A 
ATOM     72  C   UNL A   1      46.057  31.538  27.429  1.00  0.00     0.031 A 
ATOM     73  C   UNL A   1      48.444  31.440  27.541  1.00  0.00     0.131 A 
ATOM     74  C   UNL A   1      46.173  32.712  26.662  1.00  0.00     0.055 A 
ATOM     75  C   UNL A   1      48.554  32.641  26.836  1.00  0.00     0.041 A 
ATOM     76  F   UNL A   1      49.617  30.848  27.794  1.00  0.00    -0.206 F 
ATOM     77  C   UNL A   1      47.415  33.271  26.369  1.00  0.00     0.022 A 
BRANCH  74  78
ATOM     78  S   UNL A   1      44.676  33.420  25.932  1.00  0.00     0.124 S 
ATOM     79  O   UNL A   1      44.046  34.039  27.093  1.00  0.00    -0.237 OA
ATOM     80  O   UNL A   1      45.230  34.330  24.935  1.00  0.00    -0.237 OA
ATOM     81  O   UNL A   1      43.981  32.255  25.390  1.00  0.00    -0.744 OA
ENDBRANCH  74  78
ENDBRANCH  57  71
BRANCH  58  82
ATOM     82  C   UNL A   1      39.011  29.644  29.698  1.00  0.00     0.023 A 
ATOM     83  C   UNL A   1      38.240  30.288  30.694  1.00  0.00     0.031 A 
ATOM     84  C   UNL A   1      38.620  29.871  28.360  1.00  0.00     0.131 A 
ATOM     85  C   UNL A   1      37.157  31.126  30.336  1.00  0.00     0.055 A 
ATOM     86  C   UNL A   1      37.549  30.700  28.012  1.00  0.00     0.041 A 
ATOM     87  F   UNL A   1      39.323  29.371  27.332  1.00  0.00    -0.206 F 
ATOM     88  C   UNL A   1      36.821  31.345  29.000  1.00  0.00     0.022 A 
BRANCH  85  89
ATOM     89  S   UNL A   1      36.242  32.061  31.608  1.00  0.00     0.124 S 
ATOM     90  O   UNL A   1      34.940  32.244  30.976  1.00  0.00    -0.237 OA
ATOM     91  O   UNL A   1      36.283  31.162  32.756  1.00  0.00    -0.237 OA
ATOM     92  O   UNL A   1      37.030  33.284  31.762  1.00  0.00    -0.744 OA
ENDBRANCH  85  89
ENDBRANCH  58  82
BRANCH  70  93
ATOM     93  C   UNL A   1      44.066  27.651  33.008  1.00  0.00     0.023 A 
ATOM     94  C   UNL A   1      44.153  26.256  32.793  1.00  0.00     0.031 A 
ATOM     95  C   UNL A   1      43.796  28.094  34.315  1.00  0.00     0.131 A 
ATOM     96  C   UNL A   1      43.974  25.365  33.873  1.00  0.00     0.055 A 
ATOM     97  C   UNL A   1      43.641  27.212  35.383  1.00  0.00     0.041 A 
ATOM     98  F   UNL A   1      43.730  29.409  34.585  1.00  0.00    -0.206 F 
ATOM     99  C   UNL A   1      43.729  25.843  35.166  1.00  0.00     0.022 A 
BRANCH  96 100
ATOM    100  S   UNL A   1      44.088  23.560  33.629  1.00  0.00     0.124 S 
ATOM    101  O   UNL A   1      42.954  23.048  34.392  1.00  0.00    -0.237 OA
ATOM    102  O   UNL A   1      43.999  23.422  32.178  1.00  0.00    -0.237 OA
ATOM    103  O   UNL A   1      45.398  23.218  34.188  1.00  0.00    -0.744 OA
ENDBRANCH  96 100
ENDBRANCH  70  93
ENDBRANCH  44  45
ENDBRANCH  36  39
ENDBRANCH  34  35
ENDBRANCH  33  34
ENDBRANCH   1  33
TORSDOF 18
ENDMDL
MODEL 3
REMARK VINA RESULT:     -12.0      2.709      7.065
REMARK SMILES CC1=Nc2c(c(C)nn2-c2ccc(F)cc2)[C@H](c2ccc(C(=O)NCCCCCCNC(=O)c3ccc(-c4c5nc(c(-c6cc(S(=O)(=O)[O-])ccc6F)c6ccc([nH]6)c(-c6cc(S(=O)(=O)[O-])ccc6F)c6nc(c(-c7cc(S(=O)(=O)[O-])ccc7F)c7ccc4[nH]7)C=C6)C=C5)cc3)cc2)S1
REMARK SMILES IDX 28 1 27 2 26 3 25 4 24 5 22 6 23 7 21 9 18 10 19 11 98 12
REMARK SMILES IDX 20 13 97 14 17 15 1 16 2 17 3 18 99 19 4 20 5 21 9 22 6 23
REMARK SMILES IDX 8 24 7 25 10 26 11 27 16 28 12 29 15 30 13 31 14 32 29 33
REMARK SMILES IDX 30 34 31 35 32 36 33 38 34 39 35 40 96 41 36 42 95 43 37 44
REMARK SMILES IDX 38 45 39 46 89 47 40 48 94 49 88 50 90 51 41 52 93 53 87 54
REMARK SMILES IDX 86 55 42 57 74 58 54 59 73 60 55 61 58 62 72 63 91 64 56 65
REMARK SMILES IDX 57 66 71 68 92 69 59 70 43 71 44 72 52 73 45 74 51 75 53 76
REMARK SMILES IDX 50 77 46 78 47 79 48 80 49 81 75 82 76 83 84 84 77 85 83 86
REMARK SMILES IDX 85 87 82 88 78 89 79 90 80 91 81 92 60 93 61 94 69 95 62 96
REMARK SMILES IDX 68 97 70 98 67 99 63 100 64 101 65 102 66 103
REMARK H PARENT 24 8 31 37 90 56 58 67
REMARK Flexibility Score: inf
ROOT
ATOM      1  C   UNL A   1      41.438  18.839  25.743  1.00  0.00     0.002 C 
ENDROOT
BRANCH   1   2
ATOM      2  C   UNL A   1      41.034  20.029  26.630  1.00  0.00     0.002 C 
BRANCH   2   3
ATOM      3  C   UNL A   1      40.555  21.281  25.881  1.00  0.00     0.021 C 
BRANCH   3   4
ATOM      4  C   UNL A   1      39.088  21.620  26.141  1.00  0.00     0.116 C 
BRANCH   4   5
ATOM      5  N   UNL A   1      38.968  22.989  26.602  1.00  0.00    -0.352 N 
ATOM      6  C   UNL A   1      37.938  23.888  26.544  1.00  0.00     0.251 C 
ATOM      7  O   UNL A   1      38.104  24.998  27.048  1.00  0.00    -0.269 OA
ATOM      8  H   UNL A   1      39.780  23.337  27.038  1.00  0.00     0.163 HD
BRANCH   6   9
ATOM      9  C   UNL A   1      36.607  23.541  25.987  1.00  0.00     0.039 A 
ATOM     10  C   UNL A   1      34.085  23.062  24.794  1.00  0.00    -0.030 A 
ATOM     11  C   UNL A   1      35.063  23.824  24.135  1.00  0.00     0.006 A 
ATOM     12  C   UNL A   1      34.414  22.508  26.046  1.00  0.00     0.006 A 
ATOM     13  C   UNL A   1      36.311  24.050  24.717  1.00  0.00     0.014 A 
ATOM     14  C   UNL A   1      35.669  22.730  26.626  1.00  0.00     0.014 A 
BRANCH  10  15
ATOM     15  C   UNL A   1      32.758  22.811  24.097  1.00  0.00     0.119 C 
ATOM     16  C   UNL A   1      33.035  24.761  20.454  1.00  0.00     0.075 C 
ATOM     17  C   UNL A   1      32.519  24.358  21.810  1.00  0.00     0.074 C 
ATOM     18  N   UNL A   1      31.828  25.225  22.478  1.00  0.00    -0.227 NA
ATOM     19  S   UNL A   1      32.881  22.702  22.284  1.00  0.00    -0.098 SA
ATOM     20  C   UNL A   1      31.441  24.916  23.738  1.00  0.00     0.161 A 
ATOM     21  C   UNL A   1      31.847  23.884  24.551  1.00  0.00     0.038 A 
ATOM     22  N   UNL A   1      30.616  25.719  24.510  1.00  0.00    -0.215 N 
ATOM     23  C   UNL A   1      31.244  24.148  25.808  1.00  0.00     0.067 A 
ATOM     24  N   UNL A   1      30.567  25.303  25.802  1.00  0.00    -0.171 NA
ATOM     25  C   UNL A   1      31.317  23.352  27.060  1.00  0.00     0.069 C 
BRANCH  22  26
ATOM     26  C   UNL A   1      29.853  26.821  24.065  1.00  0.00     0.067 A 
ATOM     27  C   UNL A   1      28.471  26.671  23.881  1.00  0.00     0.031 A 
ATOM     28  C   UNL A   1      30.485  28.040  23.792  1.00  0.00     0.031 A 
ATOM     29  C   UNL A   1      27.718  27.745  23.416  1.00  0.00     0.041 A 
ATOM     30  C   UNL A   1      29.730  29.093  23.272  1.00  0.00     0.041 A 
ATOM     31  C   UNL A   1      28.355  28.939  23.100  1.00  0.00     0.123 A 
ATOM     32  F   UNL A   1      27.629  29.959  22.624  1.00  0.00    -0.207 F 
ENDBRANCH  22  26
ENDBRANCH  10  15
ENDBRANCH   6   9
ENDBRANCH   4   5
ENDBRANCH   3   4
ENDBRANCH   2   3
ENDBRANCH   1   2
BRANCH   1  33
ATOM     33  C   UNL A   1      42.572  17.949  26.276  1.00  0.00     0.021 C 
BRANCH  33  34
ATOM     34  C   UNL A   1      43.936  18.621  26.267  1.00  0.00     0.116 C 
BRANCH  34  35
ATOM     35  N   UNL A   1      44.493  18.711  24.918  1.00  0.00    -0.352 N 
ATOM     36  C   UNL A   1      44.612  19.815  24.092  1.00  0.00     0.251 C 
ATOM     37  H   UNL A   1      44.831  17.865  24.544  1.00  0.00     0.163 HD
ATOM     38  O   UNL A   1      44.711  19.667  22.886  1.00  0.00    -0.269 OA
BRANCH  36  39
ATOM     39  C   UNL A   1      44.612  21.163  24.696  1.00  0.00     0.039 A 
ATOM     40  C   UNL A   1      43.677  22.132  24.324  1.00  0.00     0.014 A 
ATOM     41  C   UNL A   1      45.576  21.449  25.658  1.00  0.00     0.014 A 
ATOM     42  C   UNL A   1      43.679  23.358  24.990  1.00  0.00     0.010 A 
ATOM     43  C   UNL A   1      45.460  22.571  26.434  1.00  0.00     0.010 A 
ATOM     44  C   UNL A   1      44.563  23.562  26.063  1.00  0.00    -0.014 A 
BRANCH  44  45
ATOM     45  C   UNL A   1      44.488  24.753  26.901  1.00  0.00     0.031 A 
ATOM     46  C   UNL A   1      45.591  25.718  26.669  1.00  0.00     0.074 A 
ATOM     47  C   UNL A   1      43.405  25.078  27.642  1.00  0.00     0.049 A 
ATOM     48  N   UNL A   1      46.578  25.981  27.459  1.00  0.00    -0.248 NA
ATOM     49  C   UNL A   1      45.714  26.343  25.341  1.00  0.00     0.031 C 
ATOM     50  C   UNL A   1      42.125  24.367  27.742  1.00  0.00     0.029 A 
ATOM     51  N   UNL A   1      43.179  26.191  28.392  1.00  0.00    -0.354 N 
ATOM     52  C   UNL A   1      47.292  27.000  26.843  1.00  0.00     0.074 A 
ATOM     53  C   UNL A   1      46.861  27.013  25.470  1.00  0.00     0.031 C 
ATOM     54  C   UNL A   1      41.197  25.171  28.309  1.00  0.00     0.029 A 
ATOM     55  C   UNL A   1      41.850  26.383  28.770  1.00  0.00     0.049 A 
ATOM     56  H   UNL A   1      43.898  26.814  28.647  1.00  0.00     0.167 HD
ATOM     57  C   UNL A   1      47.967  27.924  27.580  1.00  0.00     0.034 A 
ATOM     58  C   UNL A   1      41.325  27.461  29.413  1.00  0.00     0.034 A 
ATOM     59  C   UNL A   1      48.131  27.483  28.948  1.00  0.00     0.049 A 
ATOM     60  C   UNL A   1      42.457  28.095  30.134  1.00  0.00     0.074 A 
ATOM     61  C   UNL A   1      48.688  26.367  29.544  1.00  0.00     0.029 A 
ATOM     62  N   UNL A   1      47.300  28.030  29.901  1.00  0.00    -0.354 N 
ATOM     63  N   UNL A   1      43.118  27.504  31.092  1.00  0.00    -0.248 NA
ATOM     64  C   UNL A   1      43.163  29.178  29.467  1.00  0.00     0.031 C 
ATOM     65  C   UNL A   1      47.785  26.023  30.594  1.00  0.00     0.029 A 
ATOM     66  C   UNL A   1      46.784  26.995  30.642  1.00  0.00     0.049 A 
ATOM     67  H   UNL A   1      47.110  28.989  30.027  1.00  0.00     0.167 HD
ATOM     68  C   UNL A   1      44.445  27.825  30.855  1.00  0.00     0.074 A 
ATOM     69  C   UNL A   1      44.402  28.934  29.904  1.00  0.00     0.031 C 
ATOM     70  C   UNL A   1      45.456  26.986  31.229  1.00  0.00     0.034 A 
BRANCH  57  71
ATOM     71  C   UNL A   1      48.150  29.367  27.174  1.00  0.00     0.023 A 
ATOM     72  C   UNL A   1      49.442  29.916  27.267  1.00  0.00     0.031 A 
ATOM     73  C   UNL A   1      47.099  30.291  26.968  1.00  0.00     0.131 A 
ATOM     74  C   UNL A   1      49.638  31.308  27.218  1.00  0.00     0.055 A 
ATOM     75  C   UNL A   1      47.306  31.667  26.853  1.00  0.00     0.041 A 
ATOM     76  F   UNL A   1      45.811  29.931  26.965  1.00  0.00    -0.206 F 
ATOM     77  C   UNL A   1      48.579  32.187  27.005  1.00  0.00     0.022 A 
BRANCH  74  78
ATOM     78  S   UNL A   1      51.286  31.962  27.581  1.00  0.00     0.124 S 
ATOM     79  O   UNL A   1      51.380  33.067  26.633  1.00  0.00    -0.237 OA
ATOM     80  O   UNL A   1      51.161  32.328  28.988  1.00  0.00    -0.237 OA
ATOM     81  O   UNL A   1      52.167  30.829  27.310  1.00  0.00    -0.744 OA
ENDBRANCH  74  78
ENDBRANCH  57  71
BRANCH  58  82
ATOM     82  C   UNL A   1      40.010  28.136  29.201  1.00  0.00     0.023 A 
ATOM     83  C   UNL A   1      39.182  28.524  30.280  1.00  0.00     0.031 A 
ATOM     84  C   UNL A   1      39.672  28.661  27.934  1.00  0.00     0.131 A 
ATOM     85  C   UNL A   1      38.096  29.408  30.074  1.00  0.00     0.055 A 
ATOM     86  C   UNL A   1      38.598  29.534  27.735  1.00  0.00     0.041 A 
ATOM     87  F   UNL A   1      40.430  28.419  26.853  1.00  0.00    -0.206 F 
ATOM     88  C   UNL A   1      37.813  29.924  28.809  1.00  0.00     0.022 A 
BRANCH  85  89
ATOM     89  S   UNL A   1      37.106  30.013  31.482  1.00  0.00     0.124 S 
ATOM     90  O   UNL A   1      35.843  30.359  30.840  1.00  0.00    -0.237 OA
ATOM     91  O   UNL A   1      37.085  28.861  32.376  1.00  0.00    -0.237 OA
ATOM     92  O   UNL A   1      37.880  31.153  31.974  1.00  0.00    -0.744 OA
ENDBRANCH  85  89
ENDBRANCH  58  82
BRANCH  70  93
ATOM     93  C   UNL A   1      45.144  25.847  32.181  1.00  0.00     0.023 A 
ATOM     94  C   UNL A   1      45.028  25.959  33.586  1.00  0.00     0.031 A 
ATOM     95  C   UNL A   1      44.798  24.618  31.592  1.00  0.00     0.131 A 
ATOM     96  C   UNL A   1      44.574  24.857  34.343  1.00  0.00     0.055 A 
ATOM     97  C   UNL A   1      44.329  23.541  32.341  1.00  0.00     0.041 A 
ATOM     98  F   UNL A   1      44.861  24.463  30.260  1.00  0.00    -0.206 F 
ATOM     99  C   UNL A   1      44.216  23.656  33.721  1.00  0.00     0.022 A 
BRANCH  96 100
ATOM    100  S   UNL A   1      44.406  24.972  36.158  1.00  0.00     0.124 S 
ATOM    101  O   UNL A   1      45.201  23.847  36.638  1.00  0.00    -0.237 OA
ATOM    102  O   UNL A   1      44.935  26.301  36.449  1.00  0.00    -0.237 OA
ATOM    103  O   UNL A   1      42.964  24.835  36.379  1.00  0.00    -0.744 OA
ENDBRANCH  96 100
ENDBRANCH  70  93
ENDBRANCH  44  45
ENDBRANCH  36  39
ENDBRANCH  34  35
ENDBRANCH  33  34
ENDBRANCH   1  33
TORSDOF 18
ENDMDL
