MODEL 1
REMARK VINA RESULT:     -11.1      0.000      0.000
REMARK SMILES Cc1ccc([C@@H](C)[N@@H+]2CCO[C@H](CC(=O)NCCCCCCNC(=O)c3ccc(-c4c5nc(c(-c6cc(S(=O)(=O)[O-])ccc6F)c6ccc([nH]6)c(-c6cc(S(=O)(=O)[O-])ccc6F)c6nc(c(-c7cc(S(=O)(=O)[O-])ccc7F)c7ccc4[nH]7)C=C6)C=C5)cc3)C2)o1
REMARK SMILES IDX 19 1 18 2 17 3 16 4 14 5 15 6 13 8 12 9 8 10 9 11 89 12
REMARK SMILES IDX 10 14 11 15 6 16 7 17 5 18 1 19 2 20 3 21 90 22 4 23 20 24
REMARK SMILES IDX 21 25 22 26 23 27 24 28 25 30 26 31 27 32 88 33 28 34 87 35
REMARK SMILES IDX 29 36 30 37 31 38 81 39 32 40 86 41 80 42 82 43 33 44 85 45
REMARK SMILES IDX 79 46 78 47 34 49 66 50 46 51 65 52 47 53 50 54 64 55 83 56
REMARK SMILES IDX 48 57 49 58 63 60 84 61 51 62 35 63 36 64 44 65 37 66 43 67
REMARK SMILES IDX 45 68 42 69 38 70 39 71 40 72 41 73 67 74 68 75 76 76 69 77
REMARK SMILES IDX 75 78 77 79 74 80 70 81 71 82 72 83 73 84 52 85 53 86 61 87
REMARK SMILES IDX 54 88 60 89 62 90 59 91 55 92 56 93 57 94 58 95
REMARK H PARENT 16 7 8 13 23 29 82 48 50 59
REMARK Flexibility Score: inf
ROOT
ATOM      1  C   UNL A   1      30.573  28.082  23.977  1.00  0.00     0.002 C 
ENDROOT
BRANCH   1   2
ATOM      2  C   UNL A   1      29.424  27.082  23.868  1.00  0.00     0.021 C 
BRANCH   2   3
ATOM      3  C   UNL A   1      29.907  25.646  24.064  1.00  0.00     0.116 C 
BRANCH   3   4
ATOM      4  N   UNL A   1      29.631  25.207  25.411  1.00  0.00    -0.356 N 
ATOM      5  C   UNL A   1      30.269  24.255  26.144  1.00  0.00     0.222 C 
ATOM      6  O   UNL A   1      29.796  23.975  27.250  1.00  0.00    -0.275 OA
ATOM      7  H   UNL A   1      28.880  25.658  25.860  1.00  0.00     0.163 HD
BRANCH   5   8
ATOM      8  C   UNL A   1      31.610  23.702  25.719  1.00  0.00     0.138 C 
BRANCH   8   9
ATOM      9  C   UNL A   1      32.777  23.477  26.682  1.00  0.00     0.182 C 
ATOM     10  N   UNL A   1      34.954  23.235  25.340  1.00  0.00    -0.322 N 
ATOM     11  C   UNL A   1      35.274  22.077  26.158  1.00  0.00     0.291 C 
ATOM     12  C   UNL A   1      34.060  24.120  26.080  1.00  0.00     0.295 C 
ATOM     13  H   UNL A   1      35.778  23.818  25.194  1.00  0.00     0.348 HD
ATOM     14  C   UNL A   1      34.036  21.353  26.678  1.00  0.00     0.222 C 
ATOM     15  O   UNL A   1      32.971  22.158  27.199  1.00  0.00    -0.366 OA
BRANCH  10  16
ATOM     16  C   UNL A   1      34.875  23.050  23.881  1.00  0.00     0.248 C 
ATOM     17  C   UNL A   1      36.275  22.938  23.264  1.00  0.00     0.084 C 
BRANCH  16  18
ATOM     18  C   UNL A   1      34.002  23.968  23.055  1.00  0.00     0.161 A 
ATOM     19  C   UNL A   1      33.618  27.380  22.007  1.00  0.00     0.087 C 
ATOM     20  C   UNL A   1      33.481  25.910  22.130  1.00  0.00     0.101 A 
ATOM     21  C   UNL A   1      32.570  24.998  21.648  1.00  0.00     0.046 A 
ATOM     22  O   UNL A   1      34.394  25.275  22.918  1.00  0.00    -0.460 OA
ATOM     23  C   UNL A   1      32.902  23.752  22.242  1.00  0.00     0.052 A 
ENDBRANCH  16  18
ENDBRANCH  10  16
ENDBRANCH   8   9
ENDBRANCH   5   8
ENDBRANCH   3   4
ENDBRANCH   2   3
ENDBRANCH   1   2
BRANCH   1  24
ATOM     24  C   UNL A   1      31.152  28.191  25.394  1.00  0.00     0.002 C 
BRANCH  24  25
ATOM     25  C   UNL A   1      32.674  28.038  25.494  1.00  0.00     0.021 C 
BRANCH  25  26
ATOM     26  C   UNL A   1      33.479  29.288  25.145  1.00  0.00     0.116 C 
BRANCH  26  27
ATOM     27  N   UNL A   1      32.899  30.492  25.720  1.00  0.00    -0.352 N 
ATOM     28  C   UNL A   1      33.256  31.178  26.851  1.00  0.00     0.251 C 
ATOM     29  H   UNL A   1      32.139  30.870  25.223  1.00  0.00     0.163 HD
ATOM     30  O   UNL A   1      32.522  32.070  27.278  1.00  0.00    -0.269 OA
BRANCH  28  31
ATOM     31  C   UNL A   1      34.499  30.828  27.567  1.00  0.00     0.039 A 
ATOM     32  C   UNL A   1      35.459  31.821  27.777  1.00  0.00     0.014 A 
ATOM     33  C   UNL A   1      34.721  29.528  28.031  1.00  0.00     0.014 A 
ATOM     34  C   UNL A   1      36.613  31.525  28.504  1.00  0.00     0.010 A 
ATOM     35  C   UNL A   1      35.833  29.255  28.822  1.00  0.00     0.010 A 
ATOM     36  C   UNL A   1      36.794  30.248  29.064  1.00  0.00    -0.014 A 
BRANCH  36  37
ATOM     37  C   UNL A   1      37.980  29.942  29.905  1.00  0.00     0.031 A 
ATOM     38  C   UNL A   1      39.046  29.010  29.398  1.00  0.00     0.074 A 
ATOM     39  C   UNL A   1      38.065  30.457  31.148  1.00  0.00     0.049 A 
ATOM     40  N   UNL A   1      40.120  28.573  30.005  1.00  0.00    -0.248 NA
ATOM     41  C   UNL A   1      38.863  28.476  28.041  1.00  0.00     0.031 C 
ATOM     42  C   UNL A   1      37.070  31.337  31.765  1.00  0.00     0.029 A 
ATOM     43  N   UNL A   1      39.023  30.308  32.119  1.00  0.00    -0.354 N 
ATOM     44  C   UNL A   1      40.733  27.701  29.109  1.00  0.00     0.074 A 
ATOM     45  C   UNL A   1      39.873  27.625  27.948  1.00  0.00     0.031 C 
ATOM     46  C   UNL A   1      37.481  31.668  32.998  1.00  0.00     0.029 A 
ATOM     47  C   UNL A   1      38.740  30.986  33.283  1.00  0.00     0.049 A 
ATOM     48  H   UNL A   1      39.837  29.769  31.995  1.00  0.00     0.167 HD
ATOM     49  C   UNL A   1      41.912  27.042  29.240  1.00  0.00     0.034 A 
ATOM     50  C   UNL A   1      39.406  31.039  34.453  1.00  0.00     0.034 A 
ATOM     51  C   UNL A   1      42.755  27.136  30.408  1.00  0.00     0.049 A 
ATOM     52  C   UNL A   1      40.701  30.279  34.586  1.00  0.00     0.074 A 
ATOM     53  C   UNL A   1      43.999  26.569  30.619  1.00  0.00     0.029 A 
ATOM     54  N   UNL A   1      42.435  27.830  31.569  1.00  0.00    -0.354 N 
ATOM     55  N   UNL A   1      41.302  29.509  33.707  1.00  0.00    -0.248 NA
ATOM     56  C   UNL A   1      41.413  30.404  35.863  1.00  0.00     0.031 C 
ATOM     57  C   UNL A   1      44.389  26.843  31.934  1.00  0.00     0.029 A 
ATOM     58  C   UNL A   1      43.436  27.665  32.515  1.00  0.00     0.049 A 
ATOM     59  H   UNL A   1      41.616  28.361  31.701  1.00  0.00     0.167 HD
ATOM     60  C   UNL A   1      42.477  29.081  34.318  1.00  0.00     0.074 A 
ATOM     61  C   UNL A   1      42.507  29.692  35.631  1.00  0.00     0.031 C 
ATOM     62  C   UNL A   1      43.447  28.262  33.832  1.00  0.00     0.034 A 
BRANCH  49  63
ATOM     63  C   UNL A   1      42.330  26.134  28.104  1.00  0.00     0.023 A 
ATOM     64  C   UNL A   1      41.766  24.858  27.924  1.00  0.00     0.031 A 
ATOM     65  C   UNL A   1      43.338  26.535  27.209  1.00  0.00     0.131 A 
ATOM     66  C   UNL A   1      42.273  23.999  26.938  1.00  0.00     0.055 A 
ATOM     67  C   UNL A   1      43.773  25.710  26.169  1.00  0.00     0.041 A 
ATOM     68  F   UNL A   1      43.933  27.731  27.339  1.00  0.00    -0.206 F 
ATOM     69  C   UNL A   1      43.254  24.425  26.042  1.00  0.00     0.022 A 
BRANCH  66  70
ATOM     70  S   UNL A   1      41.756  22.260  26.958  1.00  0.00     0.124 S 
ATOM     71  O   UNL A   1      40.373  22.369  27.420  1.00  0.00    -0.237 OA
ATOM     72  O   UNL A   1      41.935  21.862  25.567  1.00  0.00    -0.237 OA
ATOM     73  O   UNL A   1      42.675  21.640  27.910  1.00  0.00    -0.744 OA
ENDBRANCH  66  70
ENDBRANCH  49  63
BRANCH  50  74
ATOM     74  C   UNL A   1      38.852  31.820  35.596  1.00  0.00     0.023 A 
ATOM     75  C   UNL A   1      38.259  31.183  36.696  1.00  0.00     0.031 A 
ATOM     76  C   UNL A   1      38.896  33.227  35.593  1.00  0.00     0.131 A 
ATOM     77  C   UNL A   1      37.700  31.951  37.731  1.00  0.00     0.055 A 
ATOM     78  C   UNL A   1      38.389  33.984  36.650  1.00  0.00     0.041 A 
ATOM     79  F   UNL A   1      39.456  33.887  34.567  1.00  0.00    -0.206 F 
ATOM     80  C   UNL A   1      37.775  33.345  37.723  1.00  0.00     0.022 A 
BRANCH  77  81
ATOM     81  S   UNL A   1      36.804  31.101  39.060  1.00  0.00     0.124 S 
ATOM     82  O   UNL A   1      36.635  29.766  38.499  1.00  0.00    -0.237 OA
ATOM     83  O   UNL A   1      37.738  31.217  40.176  1.00  0.00    -0.237 OA
ATOM     84  O   UNL A   1      35.576  31.882  39.196  1.00  0.00    -0.744 OA
ENDBRANCH  77  81
ENDBRANCH  50  74
BRANCH  62  85
ATOM     85  C   UNL A   1      44.645  28.015  34.718  1.00  0.00     0.023 A 
ATOM     86  C   UNL A   1      44.714  26.910  35.585  1.00  0.00     0.031 A 
ATOM     87  C   UNL A   1      45.733  28.906  34.699  1.00  0.00     0.131 A 
ATOM     88  C   UNL A   1      45.820  26.756  36.436  1.00  0.00     0.055 A 
ATOM     89  C   UNL A   1      46.861  28.709  35.497  1.00  0.00     0.041 A 
ATOM     90  F   UNL A   1      45.722  29.983  33.897  1.00  0.00    -0.206 F 
ATOM     91  C   UNL A   1      46.903  27.637  36.383  1.00  0.00     0.022 A 
BRANCH  88  92
ATOM     92  S   UNL A   1      45.777  25.448  37.691  1.00  0.00     0.124 S 
ATOM     93  O   UNL A   1      47.197  25.250  37.971  1.00  0.00    -0.237 OA
ATOM     94  O   UNL A   1      44.998  26.065  38.760  1.00  0.00    -0.237 OA
ATOM     95  O   UNL A   1      45.120  24.336  37.008  1.00  0.00    -0.744 OA
ENDBRANCH  88  92
ENDBRANCH  62  85
ENDBRANCH  36  37
ENDBRANCH  28  31
ENDBRANCH  26  27
ENDBRANCH  25  26
ENDBRANCH  24  25
ENDBRANCH   1  24
TORSDOF 19
ENDMDL
MODEL 2
REMARK VINA RESULT:     -11.0      1.280      2.282
REMARK SMILES Cc1ccc([C@@H](C)[N@@H+]2CCO[C@H](CC(=O)NCCCCCCNC(=O)c3ccc(-c4c5nc(c(-c6cc(S(=O)(=O)[O-])ccc6F)c6ccc([nH]6)c(-c6cc(S(=O)(=O)[O-])ccc6F)c6nc(c(-c7cc(S(=O)(=O)[O-])ccc7F)c7ccc4[nH]7)C=C6)C=C5)cc3)C2)o1
REMARK SMILES IDX 19 1 18 2 17 3 16 4 14 5 15 6 13 8 12 9 8 10 9 11 89 12
REMARK SMILES IDX 10 14 11 15 6 16 7 17 5 18 1 19 2 20 3 21 90 22 4 23 20 24
REMARK SMILES IDX 21 25 22 26 23 27 24 28 25 30 26 31 27 32 88 33 28 34 87 35
REMARK SMILES IDX 29 36 30 37 31 38 81 39 32 40 86 41 80 42 82 43 33 44 85 45
REMARK SMILES IDX 79 46 78 47 34 49 66 50 46 51 65 52 47 53 50 54 64 55 83 56
REMARK SMILES IDX 48 57 49 58 63 60 84 61 51 62 35 63 36 64 44 65 37 66 43 67
REMARK SMILES IDX 45 68 42 69 38 70 39 71 40 72 41 73 67 74 68 75 76 76 69 77
REMARK SMILES IDX 75 78 77 79 74 80 70 81 71 82 72 83 73 84 52 85 53 86 61 87
REMARK SMILES IDX 54 88 60 89 62 90 59 91 55 92 56 93 57 94 58 95
REMARK H PARENT 16 7 8 13 23 29 82 48 50 59
REMARK Flexibility Score: inf
ROOT
ATOM      1  C   UNL A   1      31.449  27.121  22.573  1.00  0.00     0.002 C 
ENDROOT
BRANCH   1   2
ATOM      2  C   UNL A   1      30.534  26.291  23.471  1.00  0.00     0.021 C 
BRANCH   2   3
ATOM      3  C   UNL A   1      30.929  24.815  23.467  1.00  0.00     0.116 C 
BRANCH   3   4
ATOM      4  N   UNL A   1      31.825  24.542  22.370  1.00  0.00    -0.356 N 
ATOM      5  C   UNL A   1      32.904  23.714  22.336  1.00  0.00     0.222 C 
ATOM      6  O   UNL A   1      33.588  23.710  21.309  1.00  0.00    -0.275 OA
ATOM      7  H   UNL A   1      31.628  25.018  21.531  1.00  0.00     0.163 HD
BRANCH   5   8
ATOM      8  C   UNL A   1      33.147  22.695  23.427  1.00  0.00     0.138 C 
BRANCH   8   9
ATOM      9  C   UNL A   1      32.195  21.535  23.729  1.00  0.00     0.182 C 
ATOM     10  N   UNL A   1      32.663  20.644  26.093  1.00  0.00    -0.322 N 
ATOM     11  C   UNL A   1      32.633  19.300  25.541  1.00  0.00     0.291 C 
ATOM     12  C   UNL A   1      31.869  21.533  25.250  1.00  0.00     0.295 C 
ATOM     13  H   UNL A   1      32.174  20.683  26.987  1.00  0.00     0.348 HD
ATOM     14  C   UNL A   1      33.054  19.246  24.076  1.00  0.00     0.222 C 
ATOM     15  O   UNL A   1      32.523  20.248  23.199  1.00  0.00    -0.366 OA
BRANCH  10  16
ATOM     16  C   UNL A   1      33.887  21.078  26.789  1.00  0.00     0.248 C 
ATOM     17  C   UNL A   1      33.583  22.203  27.787  1.00  0.00     0.084 C 
BRANCH  16  18
ATOM     18  C   UNL A   1      35.130  21.397  25.989  1.00  0.00     0.161 A 
ATOM     19  C   UNL A   1      37.753  23.819  25.615  1.00  0.00     0.087 C 
ATOM     20  C   UNL A   1      36.935  22.589  25.515  1.00  0.00     0.101 A 
ATOM     21  C   UNL A   1      36.982  21.481  24.701  1.00  0.00     0.046 A 
ATOM     22  O   UNL A   1      35.860  22.501  26.349  1.00  0.00    -0.460 OA
ATOM     23  C   UNL A   1      35.824  20.716  25.003  1.00  0.00     0.052 A 
ENDBRANCH  16  18
ENDBRANCH  10  16
ENDBRANCH   8   9
ENDBRANCH   5   8
ENDBRANCH   3   4
ENDBRANCH   2   3
ENDBRANCH   1   2
BRANCH   1  24
ATOM     24  C   UNL A   1      32.047  28.345  23.278  1.00  0.00     0.002 C 
BRANCH  24  25
ATOM     25  C   UNL A   1      31.599  28.550  24.730  1.00  0.00     0.021 C 
BRANCH  25  26
ATOM     26  C   UNL A   1      32.629  29.214  25.641  1.00  0.00     0.116 C 
BRANCH  26  27
ATOM     27  N   UNL A   1      32.243  30.567  26.011  1.00  0.00    -0.352 N 
ATOM     28  C   UNL A   1      32.789  31.404  26.948  1.00  0.00     0.251 C 
ATOM     29  H   UNL A   1      31.478  30.935  25.514  1.00  0.00     0.163 HD
ATOM     30  O   UNL A   1      32.202  32.445  27.248  1.00  0.00    -0.269 OA
BRANCH  28  31
ATOM     31  C   UNL A   1      34.057  31.044  27.613  1.00  0.00     0.039 A 
ATOM     32  C   UNL A   1      34.943  32.063  27.972  1.00  0.00     0.014 A 
ATOM     33  C   UNL A   1      34.376  29.710  27.881  1.00  0.00     0.014 A 
ATOM     34  C   UNL A   1      36.119  31.749  28.655  1.00  0.00     0.010 A 
ATOM     35  C   UNL A   1      35.509  29.406  28.629  1.00  0.00     0.010 A 
ATOM     36  C   UNL A   1      36.395  30.420  29.022  1.00  0.00    -0.014 A 
BRANCH  36  37
ATOM     37  C   UNL A   1      37.605  30.081  29.816  1.00  0.00     0.031 A 
ATOM     38  C   UNL A   1      38.638  29.142  29.257  1.00  0.00     0.074 A 
ATOM     39  C   UNL A   1      37.740  30.573  31.064  1.00  0.00     0.049 A 
ATOM     40  N   UNL A   1      39.725  28.678  29.818  1.00  0.00    -0.248 NA
ATOM     41  C   UNL A   1      38.400  28.635  27.897  1.00  0.00     0.031 C 
ATOM     42  C   UNL A   1      36.781  31.457  31.730  1.00  0.00     0.029 A 
ATOM     43  N   UNL A   1      38.729  30.393  31.998  1.00  0.00    -0.354 N 
ATOM     44  C   UNL A   1      40.292  27.812  28.887  1.00  0.00     0.074 A 
ATOM     45  C   UNL A   1      39.392  27.770  27.755  1.00  0.00     0.031 C 
ATOM     46  C   UNL A   1      37.240  31.760  32.953  1.00  0.00     0.029 A 
ATOM     47  C   UNL A   1      38.496  31.054  33.183  1.00  0.00     0.049 A 
ATOM     48  H   UNL A   1      39.529  29.843  31.837  1.00  0.00     0.167 HD
ATOM     49  C   UNL A   1      41.464  27.133  28.966  1.00  0.00     0.034 A 
ATOM     50  C   UNL A   1      39.203  31.076  34.330  1.00  0.00     0.034 A 
ATOM     51  C   UNL A   1      42.349  27.194  30.105  1.00  0.00     0.049 A 
ATOM     52  C   UNL A   1      40.490  30.293  34.405  1.00  0.00     0.074 A 
ATOM     53  C   UNL A   1      43.590  26.604  30.264  1.00  0.00     0.029 A 
ATOM     54  N   UNL A   1      42.080  27.872  31.289  1.00  0.00    -0.354 N 
ATOM     55  N   UNL A   1      41.047  29.531  33.493  1.00  0.00    -0.248 NA
ATOM     56  C   UNL A   1      41.247  30.385  35.659  1.00  0.00     0.031 C 
ATOM     57  C   UNL A   1      44.030  26.849  31.569  1.00  0.00     0.029 A 
ATOM     58  C   UNL A   1      43.110  27.675  32.197  1.00  0.00     0.049 A 
ATOM     59  H   UNL A   1      41.275  28.413  31.458  1.00  0.00     0.167 HD
ATOM     60  C   UNL A   1      42.236  29.073  34.055  1.00  0.00     0.074 A 
ATOM     61  C   UNL A   1      42.320  29.661  35.377  1.00  0.00     0.031 C 
ATOM     62  C   UNL A   1      43.176  28.249  33.522  1.00  0.00     0.034 A 
BRANCH  49  63
ATOM     63  C   UNL A   1      41.829  26.239  27.801  1.00  0.00     0.023 A 
ATOM     64  C   UNL A   1      41.463  24.882  27.761  1.00  0.00     0.031 A 
ATOM     65  C   UNL A   1      42.589  26.743  26.730  1.00  0.00     0.131 A 
ATOM     66  C   UNL A   1      41.932  24.058  26.727  1.00  0.00     0.055 A 
ATOM     67  C   UNL A   1      42.973  25.938  25.654  1.00  0.00     0.041 A 
ATOM     68  F   UNL A   1      42.989  28.024  26.718  1.00  0.00    -0.206 F 
ATOM     69  C   UNL A   1      42.661  24.582  25.659  1.00  0.00     0.022 A 
BRANCH  66  70
ATOM     70  S   UNL A   1      41.723  22.263  26.889  1.00  0.00     0.124 S 
ATOM     71  O   UNL A   1      40.310  22.162  27.250  1.00  0.00    -0.237 OA
ATOM     72  O   UNL A   1      42.079  21.783  25.560  1.00  0.00    -0.237 OA
ATOM     73  O   UNL A   1      42.656  21.904  27.955  1.00  0.00    -0.744 OA
ENDBRANCH  66  70
ENDBRANCH  49  63
BRANCH  50  74
ATOM     74  C   UNL A   1      38.701  31.845  35.504  1.00  0.00     0.023 A 
ATOM     75  C   UNL A   1      38.156  31.197  36.623  1.00  0.00     0.031 A 
ATOM     76  C   UNL A   1      38.747  33.252  35.515  1.00  0.00     0.131 A 
ATOM     77  C   UNL A   1      37.645  31.954  37.690  1.00  0.00     0.055 A 
ATOM     78  C   UNL A   1      38.288  33.998  36.601  1.00  0.00     0.041 A 
ATOM     79  F   UNL A   1      39.262  33.922  34.472  1.00  0.00    -0.206 F 
ATOM     80  C   UNL A   1      37.722  33.348  37.693  1.00  0.00     0.022 A 
BRANCH  77  81
ATOM     81  S   UNL A   1      36.808  31.091  39.048  1.00  0.00     0.124 S 
ATOM     82  O   UNL A   1      35.586  31.875  39.190  1.00  0.00    -0.237 OA
ATOM     83  O   UNL A   1      36.649  29.747  38.500  1.00  0.00    -0.237 OA
ATOM     84  O   UNL A   1      37.754  31.201  40.156  1.00  0.00    -0.744 OA
ENDBRANCH  77  81
ENDBRANCH  50  74
BRANCH  62  85
ATOM     85  C   UNL A   1      44.399  27.967  34.362  1.00  0.00     0.023 A 
ATOM     86  C   UNL A   1      44.461  26.875  35.246  1.00  0.00     0.031 A 
ATOM     87  C   UNL A   1      45.521  28.813  34.281  1.00  0.00     0.131 A 
ATOM     88  C   UNL A   1      45.594  26.690  36.053  1.00  0.00     0.055 A 
ATOM     89  C   UNL A   1      46.672  28.583  35.036  1.00  0.00     0.041 A 
ATOM     90  F   UNL A   1      45.518  29.876  33.461  1.00  0.00    -0.206 F 
ATOM     91  C   UNL A   1      46.708  27.525  35.938  1.00  0.00     0.022 A 
BRANCH  88  92
ATOM     92  S   UNL A   1      45.553  25.406  37.333  1.00  0.00     0.124 S 
ATOM     93  O   UNL A   1      44.907  24.300  36.631  1.00  0.00    -0.237 OA
ATOM     94  O   UNL A   1      46.967  25.226  37.641  1.00  0.00    -0.237 OA
ATOM     95  O   UNL A   1      44.758  26.010  38.401  1.00  0.00    -0.744 OA
ENDBRANCH  88  92
ENDBRANCH  62  85
ENDBRANCH  36  37
ENDBRANCH  28  31
ENDBRANCH  26  27
ENDBRANCH  25  26
ENDBRANCH  24  25
ENDBRANCH   1  24
TORSDOF 19
ENDMDL
MODEL 3
REMARK VINA RESULT:     -10.9      1.845      2.936
REMARK SMILES Cc1ccc([C@@H](C)[N@@H+]2CCO[C@H](CC(=O)NCCCCCCNC(=O)c3ccc(-c4c5nc(c(-c6cc(S(=O)(=O)[O-])ccc6F)c6ccc([nH]6)c(-c6cc(S(=O)(=O)[O-])ccc6F)c6nc(c(-c7cc(S(=O)(=O)[O-])ccc7F)c7ccc4[nH]7)C=C6)C=C5)cc3)C2)o1
REMARK SMILES IDX 19 1 18 2 17 3 16 4 14 5 15 6 13 8 12 9 8 10 9 11 89 12
REMARK SMILES IDX 10 14 11 15 6 16 7 17 5 18 1 19 2 20 3 21 90 22 4 23 20 24
REMARK SMILES IDX 21 25 22 26 23 27 24 28 25 30 26 31 27 32 88 33 28 34 87 35
REMARK SMILES IDX 29 36 30 37 31 38 81 39 32 40 86 41 80 42 82 43 33 44 85 45
REMARK SMILES IDX 79 46 78 47 34 49 66 50 46 51 65 52 47 53 50 54 64 55 83 56
REMARK SMILES IDX 48 57 49 58 63 60 84 61 51 62 35 63 36 64 44 65 37 66 43 67
REMARK SMILES IDX 45 68 42 69 38 70 39 71 40 72 41 73 67 74 68 75 76 76 69 77
REMARK SMILES IDX 75 78 77 79 74 80 70 81 71 82 72 83 73 84 52 85 53 86 61 87
REMARK SMILES IDX 54 88 60 89 62 90 59 91 55 92 56 93 57 94 58 95
REMARK H PARENT 16 7 8 13 23 29 82 48 50 59
REMARK Flexibility Score: inf
ROOT
ATOM      1  C   UNL A   1      33.958  30.351  27.371  1.00  0.00     0.002 C 
ENDROOT
BRANCH   1   2
ATOM      2  C   UNL A   1      34.541  28.990  26.994  1.00  0.00     0.021 C 
BRANCH   2   3
ATOM      3  C   UNL A   1      33.443  27.958  26.741  1.00  0.00     0.116 C 
BRANCH   3   4
ATOM      4  N   UNL A   1      33.480  27.518  25.368  1.00  0.00    -0.356 N 
ATOM      5  C   UNL A   1      33.865  26.312  24.870  1.00  0.00     0.222 C 
ATOM      6  O   UNL A   1      33.907  26.189  23.642  1.00  0.00    -0.275 OA
ATOM      7  H   UNL A   1      33.186  28.180  24.700  1.00  0.00     0.163 HD
BRANCH   5   8
ATOM      8  C   UNL A   1      34.043  25.110  25.769  1.00  0.00     0.138 C 
BRANCH   8   9
ATOM      9  C   UNL A   1      32.901  24.468  26.560  1.00  0.00     0.182 C 
ATOM     10  N   UNL A   1      32.498  22.085  25.691  1.00  0.00    -0.322 N 
ATOM     11  C   UNL A   1      31.076  22.382  25.674  1.00  0.00     0.291 C 
ATOM     12  C   UNL A   1      33.161  22.939  26.672  1.00  0.00     0.295 C 
ATOM     13  H   UNL A   1      32.671  21.147  26.053  1.00  0.00     0.348 HD
ATOM     14  C   UNL A   1      30.777  23.861  25.457  1.00  0.00     0.222 C 
ATOM     15  O   UNL A   1      31.562  24.808  26.192  1.00  0.00    -0.366 OA
BRANCH  10  16
ATOM     16  C   UNL A   1      33.133  21.670  24.427  1.00  0.00     0.248 C 
ATOM     17  C   UNL A   1      32.796  20.210  24.096  1.00  0.00     0.084 C 
BRANCH  16  18
ATOM     18  C   UNL A   1      34.603  21.942  24.203  1.00  0.00     0.161 A 
ATOM     19  C   UNL A   1      37.892  20.747  25.002  1.00  0.00     0.087 C 
ATOM     20  C   UNL A   1      36.759  21.474  24.385  1.00  0.00     0.101 A 
ATOM     21  C   UNL A   1      36.672  22.565  23.551  1.00  0.00     0.046 A 
ATOM     22  O   UNL A   1      35.507  21.048  24.716  1.00  0.00    -0.460 OA
ATOM     23  C   UNL A   1      35.289  22.868  23.435  1.00  0.00     0.052 A 
ENDBRANCH  16  18
ENDBRANCH  10  16
ENDBRANCH   8   9
ENDBRANCH   5   8
ENDBRANCH   3   4
ENDBRANCH   2   3
ENDBRANCH   1   2
BRANCH   1  24
ATOM     24  C   UNL A   1      32.479  30.505  26.993  1.00  0.00     0.002 C 
BRANCH  24  25
ATOM     25  C   UNL A   1      31.884  31.899  27.227  1.00  0.00     0.021 C 
BRANCH  25  26
ATOM     26  C   UNL A   1      32.756  33.065  26.767  1.00  0.00     0.116 C 
BRANCH  26  27
ATOM     27  N   UNL A   1      32.541  34.260  27.568  1.00  0.00    -0.352 N 
ATOM     28  C   UNL A   1      33.144  34.649  28.735  1.00  0.00     0.251 C 
ATOM     29  H   UNL A   1      31.863  34.882  27.218  1.00  0.00     0.163 HD
ATOM     30  O   UNL A   1      32.691  35.606  29.363  1.00  0.00    -0.269 OA
BRANCH  28  31
ATOM     31  C   UNL A   1      34.312  33.904  29.248  1.00  0.00     0.039 A 
ATOM     32  C   UNL A   1      35.593  34.358  28.929  1.00  0.00     0.014 A 
ATOM     33  C   UNL A   1      34.147  32.764  30.039  1.00  0.00     0.014 A 
ATOM     34  C   UNL A   1      36.709  33.704  29.454  1.00  0.00     0.010 A 
ATOM     35  C   UNL A   1      35.257  32.161  30.624  1.00  0.00     0.010 A 
ATOM     36  C   UNL A   1      36.550  32.621  30.335  1.00  0.00    -0.014 A 
BRANCH  36  37
ATOM     37  C   UNL A   1      37.727  31.965  30.963  1.00  0.00     0.031 A 
ATOM     38  C   UNL A   1      38.506  30.925  30.205  1.00  0.00     0.074 A 
ATOM     39  C   UNL A   1      38.055  32.264  32.235  1.00  0.00     0.049 A 
ATOM     40  N   UNL A   1      39.520  30.199  30.601  1.00  0.00    -0.248 NA
ATOM     41  C   UNL A   1      38.065  30.643  28.831  1.00  0.00     0.031 C 
ATOM     42  C   UNL A   1      37.347  33.224  33.085  1.00  0.00     0.029 A 
ATOM     43  N   UNL A   1      39.059  31.787  33.040  1.00  0.00    -0.354 N 
ATOM     44  C   UNL A   1      39.828  29.364  29.531  1.00  0.00     0.074 A 
ATOM     45  C   UNL A   1      38.851  29.632  28.498  1.00  0.00     0.031 C 
ATOM     46  C   UNL A   1      37.951  33.281  34.281  1.00  0.00     0.029 A 
ATOM     47  C   UNL A   1      39.057  32.329  34.305  1.00  0.00     0.049 A 
ATOM     48  H   UNL A   1      39.719  31.121  32.742  1.00  0.00     0.167 HD
ATOM     49  C   UNL A   1      40.845  28.472  29.418  1.00  0.00     0.034 A 
ATOM     50  C   UNL A   1      39.842  32.075  35.371  1.00  0.00     0.034 A 
ATOM     51  C   UNL A   1      41.811  28.224  30.461  1.00  0.00     0.049 A 
ATOM     52  C   UNL A   1      40.950  31.062  35.232  1.00  0.00     0.074 A 
ATOM     53  C   UNL A   1      42.918  27.396  30.430  1.00  0.00     0.029 A 
ATOM     54  N   UNL A   1      41.776  28.789  31.731  1.00  0.00    -0.354 N 
ATOM     55  N   UNL A   1      41.271  30.326  34.192  1.00  0.00    -0.248 NA
ATOM     56  C   UNL A   1      41.807  30.854  36.405  1.00  0.00     0.031 C 
ATOM     57  C   UNL A   1      43.500  27.391  31.702  1.00  0.00     0.029 A 
ATOM     58  C   UNL A   1      42.815  28.291  32.504  1.00  0.00     0.049 A 
ATOM     59  H   UNL A   1      41.111  29.446  32.038  1.00  0.00     0.167 HD
ATOM     60  C   UNL A   1      42.386  29.588  34.579  1.00  0.00     0.074 A 
ATOM     61  C   UNL A   1      42.689  29.981  35.940  1.00  0.00     0.031 C 
ATOM     62  C   UNL A   1      43.098  28.674  33.869  1.00  0.00     0.034 A 
BRANCH  49  63
ATOM     63  C   UNL A   1      40.932  27.676  28.134  1.00  0.00     0.023 A 
ATOM     64  C   UNL A   1      40.475  26.349  28.048  1.00  0.00     0.031 A 
ATOM     65  C   UNL A   1      41.517  28.242  26.986  1.00  0.00     0.131 A 
ATOM     66  C   UNL A   1      40.691  25.605  26.878  1.00  0.00     0.055 A 
ATOM     67  C   UNL A   1      41.644  27.525  25.794  1.00  0.00     0.041 A 
ATOM     68  F   UNL A   1      41.993  29.496  27.008  1.00  0.00    -0.206 F 
ATOM     69  C   UNL A   1      41.248  26.192  25.741  1.00  0.00     0.022 A 
BRANCH  66  70
ATOM     70  S   UNL A   1      40.395  23.816  26.924  1.00  0.00     0.124 S 
ATOM     71  O   UNL A   1      38.997  23.737  26.504  1.00  0.00    -0.237 OA
ATOM     72  O   UNL A   1      41.378  23.310  25.973  1.00  0.00    -0.237 OA
ATOM     73  O   UNL A   1      40.637  23.464  28.322  1.00  0.00    -0.744 OA
ENDBRANCH  66  70
ENDBRANCH  49  63
BRANCH  50  74
ATOM     74  C   UNL A   1      39.597  32.774  36.665  1.00  0.00     0.023 A 
ATOM     75  C   UNL A   1      38.738  32.235  37.635  1.00  0.00     0.031 A 
ATOM     76  C   UNL A   1      40.214  34.008  36.943  1.00  0.00     0.131 A 
ATOM     77  C   UNL A   1      38.490  32.945  38.821  1.00  0.00     0.055 A 
ATOM     78  C   UNL A   1      40.007  34.683  38.147  1.00  0.00     0.041 A 
ATOM     79  F   UNL A   1      41.049  34.566  36.052  1.00  0.00    -0.206 F 
ATOM     80  C   UNL A   1      39.130  34.157  39.090  1.00  0.00     0.022 A 
BRANCH  77  81
ATOM     81  S   UNL A   1      37.255  32.297  39.982  1.00  0.00     0.124 S 
ATOM     82  O   UNL A   1      36.915  33.489  40.750  1.00  0.00    -0.237 OA
ATOM     83  O   UNL A   1      36.223  31.799  39.077  1.00  0.00    -0.237 OA
ATOM     84  O   UNL A   1      37.986  31.267  40.716  1.00  0.00    -0.744 OA
ENDBRANCH  77  81
ENDBRANCH  50  74
BRANCH  62  85
ATOM     85  C   UNL A   1      44.304  28.065  34.546  1.00  0.00     0.023 A 
ATOM     86  C   UNL A   1      44.215  26.884  35.303  1.00  0.00     0.031 A 
ATOM     87  C   UNL A   1      45.562  28.684  34.436  1.00  0.00     0.131 A 
ATOM     88  C   UNL A   1      45.350  26.391  35.967  1.00  0.00     0.055 A 
ATOM     89  C   UNL A   1      46.701  28.151  35.040  1.00  0.00     0.041 A 
ATOM     90  F   UNL A   1      45.707  29.819  33.731  1.00  0.00    -0.206 F 
ATOM     91  C   UNL A   1      46.596  27.005  35.823  1.00  0.00     0.022 A 
BRANCH  88  92
ATOM     92  S   UNL A   1      45.154  24.995  37.108  1.00  0.00     0.124 S 
ATOM     93  O   UNL A   1      46.403  25.044  37.863  1.00  0.00    -0.237 OA
ATOM     94  O   UNL A   1      43.949  25.360  37.845  1.00  0.00    -0.237 OA
ATOM     95  O   UNL A   1      45.012  23.842  36.220  1.00  0.00    -0.744 OA
ENDBRANCH  88  92
ENDBRANCH  62  85
ENDBRANCH  36  37
ENDBRANCH  28  31
ENDBRANCH  26  27
ENDBRANCH  25  26
ENDBRANCH  24  25
ENDBRANCH   1  24
TORSDOF 19
ENDMDL
