MODEL 1
REMARK VINA RESULT:     -10.2      0.000      0.000
REMARK SMILES C=CCOC(=O)N[C@@H](Cc1ccccc1)C(=O)NCCCCCCNC(=O)c1ccc(-c2c3nc(c(-c4cc(S(=O)(=O)[O-])ccc4F)c4ccc([nH]4)c(-c4cc(S(=O)(=O)[O-])ccc4F)c4nc(c(-c5cc(S(=O)(=O)[O-])ccc5F)c5ccc2[nH]5)C=C4)C=C3)cc1
REMARK SMILES IDX 21 1 20 2 19 3 18 4 16 5 17 6 8 8 7 9 5 10 6 11 4 13 3 14
REMARK SMILES IDX 2 15 1 16 9 17 10 18 11 19 15 20 12 21 14 22 13 23 22 24
REMARK SMILES IDX 23 25 24 26 25 27 26 28 27 30 28 31 29 32 90 33 30 34 89 35
REMARK SMILES IDX 31 36 32 37 33 38 83 39 34 40 88 41 82 42 84 43 35 44 87 45
REMARK SMILES IDX 81 46 80 47 36 49 68 50 48 51 67 52 49 53 52 54 66 55 85 56
REMARK SMILES IDX 50 57 51 58 65 60 86 61 53 62 37 63 38 64 46 65 39 66 45 67
REMARK SMILES IDX 47 68 44 69 40 70 41 71 42 72 43 73 69 74 70 75 78 76 71 77
REMARK SMILES IDX 77 78 79 79 76 80 72 81 73 82 74 83 75 84 54 85 55 86 63 87
REMARK SMILES IDX 56 88 62 89 64 90 61 91 57 92 58 93 59 94 60 95
REMARK H PARENT 18 7 7 12 25 29 84 48 52 59
REMARK Flexibility Score: inf
ROOT
ATOM      1  C   UNL A   1      35.440  20.341  25.063  1.00  0.00     0.002 C 
ENDROOT
BRANCH   1   2
ATOM      2  C   UNL A   1      34.067  19.708  24.827  1.00  0.00     0.021 C 
BRANCH   2   3
ATOM      3  C   UNL A   1      32.904  20.492  25.416  1.00  0.00     0.116 C 
BRANCH   3   4
ATOM      4  N   UNL A   1      33.144  20.997  26.749  1.00  0.00    -0.354 N 
ATOM      5  C   UNL A   1      32.852  22.222  27.278  1.00  0.00     0.243 C 
ATOM      6  O   UNL A   1      32.771  22.286  28.512  1.00  0.00    -0.273 OA
ATOM      7  H   UNL A   1      33.581  20.366  27.367  1.00  0.00     0.163 HD
BRANCH   5   8
ATOM      8  C   UNL A   1      32.495  23.459  26.418  1.00  0.00     0.179 C 
BRANCH   8   9
ATOM      9  N   UNL A   1      31.285  24.173  26.824  1.00  0.00    -0.309 N 
ATOM     10  C   UNL A   1      30.383  24.807  26.029  1.00  0.00     0.408 C 
ATOM     11  O   UNL A   1      29.457  25.435  26.527  1.00  0.00    -0.225 OA
ATOM     12  H   UNL A   1      31.101  24.197  27.790  1.00  0.00     0.167 HD
BRANCH  10  13
ATOM     13  O   UNL A   1      30.650  24.706  24.705  1.00  0.00    -0.445 OA
BRANCH  13  14
ATOM     14  C   UNL A   1      30.285  25.853  23.928  1.00  0.00     0.262 C 
BRANCH  14  15
ATOM     15  C   UNL A   1      31.305  26.942  24.074  1.00  0.00     0.006 C 
ATOM     16  C   UNL A   1      31.060  28.114  24.674  1.00  0.00     0.007 C 
ENDBRANCH  14  15
ENDBRANCH  13  14
ENDBRANCH  10  13
ENDBRANCH   8   9
BRANCH   8  17
ATOM     17  C   UNL A   1      33.691  24.406  26.163  1.00  0.00     0.070 C 
BRANCH  17  18
ATOM     18  C   UNL A   1      34.756  23.943  25.194  1.00  0.00    -0.045 A 
ATOM     19  C   UNL A   1      34.429  23.563  23.883  1.00  0.00     0.004 A 
ATOM     20  C   UNL A   1      36.102  23.909  25.590  1.00  0.00     0.004 A 
ATOM     21  C   UNL A   1      35.432  23.230  22.970  1.00  0.00     0.000 A 
ATOM     22  C   UNL A   1      37.102  23.558  24.679  1.00  0.00     0.000 A 
ATOM     23  C   UNL A   1      36.768  23.234  23.366  1.00  0.00     0.000 A 
ENDBRANCH  17  18
ENDBRANCH   8  17
ENDBRANCH   5   8
ENDBRANCH   3   4
ENDBRANCH   2   3
ENDBRANCH   1   2
BRANCH   1  24
ATOM     24  C   UNL A   1      36.641  19.390  24.966  1.00  0.00     0.002 C 
BRANCH  24  25
ATOM     25  C   UNL A   1      37.985  20.045  24.637  1.00  0.00     0.021 C 
BRANCH  25  26
ATOM     26  C   UNL A   1      38.901  20.285  25.832  1.00  0.00     0.116 C 
BRANCH  26  27
ATOM     27  N   UNL A   1      39.956  19.292  25.925  1.00  0.00    -0.352 N 
ATOM     28  C   UNL A   1      41.306  19.462  26.105  1.00  0.00     0.251 C 
ATOM     29  H   UNL A   1      39.658  18.357  25.850  1.00  0.00     0.163 HD
ATOM     30  O   UNL A   1      42.060  18.503  25.963  1.00  0.00    -0.269 OA
BRANCH  28  31
ATOM     31  C   UNL A   1      41.849  20.797  26.437  1.00  0.00     0.039 A 
ATOM     32  C   UNL A   1      42.284  21.624  25.398  1.00  0.00     0.014 A 
ATOM     33  C   UNL A   1      41.939  21.233  27.762  1.00  0.00     0.014 A 
ATOM     34  C   UNL A   1      42.752  22.908  25.685  1.00  0.00     0.010 A 
ATOM     35  C   UNL A   1      42.329  22.541  28.039  1.00  0.00     0.010 A 
ATOM     36  C   UNL A   1      42.745  23.392  27.003  1.00  0.00    -0.014 A 
BRANCH  36  37
ATOM     37  C   UNL A   1      43.176  24.781  27.313  1.00  0.00     0.031 A 
ATOM     38  C   UNL A   1      42.204  25.759  27.917  1.00  0.00     0.074 A 
ATOM     39  C   UNL A   1      44.430  25.172  27.008  1.00  0.00     0.049 A 
ATOM     40  N   UNL A   1      42.374  27.024  28.204  1.00  0.00    -0.248 NA
ATOM     41  C   UNL A   1      40.854  25.253  28.209  1.00  0.00     0.031 C 
ATOM     42  C   UNL A   1      45.452  24.324  26.391  1.00  0.00     0.029 A 
ATOM     43  N   UNL A   1      45.060  26.381  27.170  1.00  0.00    -0.354 N 
ATOM     44  C   UNL A   1      41.154  27.467  28.704  1.00  0.00     0.074 A 
ATOM     45  C   UNL A   1      40.236  26.352  28.615  1.00  0.00     0.031 C 
ATOM     46  C   UNL A   1      46.587  25.028  26.258  1.00  0.00     0.029 A 
ATOM     47  C   UNL A   1      46.362  26.392  26.726  1.00  0.00     0.049 A 
ATOM     48  H   UNL A   1      44.620  27.167  27.569  1.00  0.00     0.167 HD
ATOM     49  C   UNL A   1      40.836  28.684  29.212  1.00  0.00     0.034 A 
ATOM     50  C   UNL A   1      47.268  27.390  26.685  1.00  0.00     0.034 A 
ATOM     51  C   UNL A   1      41.767  29.783  29.297  1.00  0.00     0.049 A 
ATOM     52  C   UNL A   1      46.876  28.748  27.211  1.00  0.00     0.074 A 
ATOM     53  C   UNL A   1      41.565  31.041  29.838  1.00  0.00     0.029 A 
ATOM     54  N   UNL A   1      43.071  29.764  28.818  1.00  0.00    -0.354 N 
ATOM     55  N   UNL A   1      45.732  29.136  27.727  1.00  0.00    -0.248 NA
ATOM     56  C   UNL A   1      47.898  29.800  27.158  1.00  0.00     0.031 C 
ATOM     57  C   UNL A   1      42.714  31.805  29.610  1.00  0.00     0.029 A 
ATOM     58  C   UNL A   1      43.670  30.999  29.014  1.00  0.00     0.049 A 
ATOM     59  H   UNL A   1      43.507  28.985  28.401  1.00  0.00     0.167 HD
ATOM     60  C   UNL A   1      45.913  30.468  28.090  1.00  0.00     0.074 A 
ATOM     61  C   UNL A   1      47.278  30.809  27.750  1.00  0.00     0.031 C 
ATOM     62  C   UNL A   1      45.030  31.331  28.658  1.00  0.00     0.034 A 
BRANCH  49  63
ATOM     63  C   UNL A   1      39.416  28.893  29.686  1.00  0.00     0.023 A 
ATOM     64  C   UNL A   1      38.446  29.504  28.871  1.00  0.00     0.031 A 
ATOM     65  C   UNL A   1      39.030  28.494  30.978  1.00  0.00     0.131 A 
ATOM     66  C   UNL A   1      37.167  29.768  29.382  1.00  0.00     0.055 A 
ATOM     67  C   UNL A   1      37.729  28.680  31.449  1.00  0.00     0.041 A 
ATOM     68  F   UNL A   1      39.916  27.927  31.812  1.00  0.00    -0.206 F 
ATOM     69  C   UNL A   1      36.792  29.335  30.655  1.00  0.00     0.022 A 
BRANCH  66  70
ATOM     70  S   UNL A   1      36.051  30.823  28.417  1.00  0.00     0.124 S 
ATOM     71  O   UNL A   1      35.012  31.130  29.398  1.00  0.00    -0.237 OA
ATOM     72  O   UNL A   1      36.917  31.933  28.035  1.00  0.00    -0.237 OA
ATOM     73  O   UNL A   1      35.625  29.957  27.319  1.00  0.00    -0.744 OA
ENDBRANCH  66  70
ENDBRANCH  49  63
BRANCH  50  74
ATOM     74  C   UNL A   1      48.626  27.157  26.112  1.00  0.00     0.023 A 
ATOM     75  C   UNL A   1      48.910  27.461  24.772  1.00  0.00     0.031 A 
ATOM     76  C   UNL A   1      49.648  26.578  26.886  1.00  0.00     0.131 A 
ATOM     77  C   UNL A   1      50.163  27.135  24.230  1.00  0.00     0.055 A 
ATOM     78  C   UNL A   1      50.915  26.314  26.360  1.00  0.00     0.041 A 
ATOM     79  F   UNL A   1      49.434  26.267  28.174  1.00  0.00    -0.206 F 
ATOM     80  C   UNL A   1      51.173  26.580  25.019  1.00  0.00     0.022 A 
BRANCH  77  81
ATOM     81  S   UNL A   1      50.423  27.355  22.448  1.00  0.00     0.124 S 
ATOM     82  O   UNL A   1      51.759  26.795  22.274  1.00  0.00    -0.237 OA
ATOM     83  O   UNL A   1      49.322  26.582  21.884  1.00  0.00    -0.237 OA
ATOM     84  O   UNL A   1      50.324  28.801  22.267  1.00  0.00    -0.744 OA
ENDBRANCH  77  81
ENDBRANCH  50  74
BRANCH  62  85
ATOM     85  C   UNL A   1      45.536  32.716  28.988  1.00  0.00     0.023 A 
ATOM     86  C   UNL A   1      46.178  33.001  30.207  1.00  0.00     0.031 A 
ATOM     87  C   UNL A   1      45.365  33.769  28.071  1.00  0.00     0.131 A 
ATOM     88  C   UNL A   1      46.570  34.316  30.499  1.00  0.00     0.055 A 
ATOM     89  C   UNL A   1      45.822  35.060  28.338  1.00  0.00     0.041 A 
ATOM     90  F   UNL A   1      44.754  33.558  26.895  1.00  0.00    -0.206 F 
ATOM     91  C   UNL A   1      46.416  35.342  29.564  1.00  0.00     0.022 A 
BRANCH  88  92
ATOM     92  S   UNL A   1      47.193  34.689  32.162  1.00  0.00     0.124 S 
ATOM     93  O   UNL A   1      46.093  34.232  33.005  1.00  0.00    -0.237 OA
ATOM     94  O   UNL A   1      48.415  33.896  32.224  1.00  0.00    -0.237 OA
ATOM     95  O   UNL A   1      47.394  36.137  32.135  1.00  0.00    -0.744 OA
ENDBRANCH  88  92
ENDBRANCH  62  85
ENDBRANCH  36  37
ENDBRANCH  28  31
ENDBRANCH  26  27
ENDBRANCH  25  26
ENDBRANCH  24  25
ENDBRANCH   1  24
TORSDOF 22
ENDMDL
MODEL 2
REMARK VINA RESULT:     -10.0      1.970      2.674
REMARK SMILES C=CCOC(=O)N[C@@H](Cc1ccccc1)C(=O)NCCCCCCNC(=O)c1ccc(-c2c3nc(c(-c4cc(S(=O)(=O)[O-])ccc4F)c4ccc([nH]4)c(-c4cc(S(=O)(=O)[O-])ccc4F)c4nc(c(-c5cc(S(=O)(=O)[O-])ccc5F)c5ccc2[nH]5)C=C4)C=C3)cc1
REMARK SMILES IDX 21 1 20 2 19 3 18 4 16 5 17 6 8 8 7 9 5 10 6 11 4 13 3 14
REMARK SMILES IDX 2 15 1 16 9 17 10 18 11 19 15 20 12 21 14 22 13 23 22 24
REMARK SMILES IDX 23 25 24 26 25 27 26 28 27 30 28 31 29 32 90 33 30 34 89 35
REMARK SMILES IDX 31 36 32 37 33 38 83 39 34 40 88 41 82 42 84 43 35 44 87 45
REMARK SMILES IDX 81 46 80 47 36 49 68 50 48 51 67 52 49 53 52 54 66 55 85 56
REMARK SMILES IDX 50 57 51 58 65 60 86 61 53 62 37 63 38 64 46 65 39 66 45 67
REMARK SMILES IDX 47 68 44 69 40 70 41 71 42 72 43 73 69 74 70 75 78 76 71 77
REMARK SMILES IDX 77 78 79 79 76 80 72 81 73 82 74 83 75 84 54 85 55 86 63 87
REMARK SMILES IDX 56 88 62 89 64 90 61 91 57 92 58 93 59 94 60 95
REMARK H PARENT 18 7 7 12 25 29 84 48 52 59
REMARK Flexibility Score: inf
ROOT
ATOM      1  C   UNL A   1      36.269  21.807  24.255  1.00  0.00     0.002 C 
ENDROOT
BRANCH   1   2
ATOM      2  C   UNL A   1      35.727  22.997  25.049  1.00  0.00     0.021 C 
BRANCH   2   3
ATOM      3  C   UNL A   1      35.002  24.036  24.207  1.00  0.00     0.116 C 
BRANCH   3   4
ATOM      4  N   UNL A   1      34.658  23.586  22.877  1.00  0.00    -0.354 N 
ATOM      5  C   UNL A   1      33.460  23.642  22.225  1.00  0.00     0.243 C 
ATOM      6  O   UNL A   1      33.499  23.581  20.989  1.00  0.00    -0.273 OA
ATOM      7  H   UNL A   1      35.396  23.183  22.365  1.00  0.00     0.163 HD
BRANCH   5   8
ATOM      8  C   UNL A   1      32.112  23.905  22.940  1.00  0.00     0.179 C 
BRANCH   8   9
ATOM      9  N   UNL A   1      31.302  24.981  22.370  1.00  0.00    -0.309 N 
ATOM     10  C   UNL A   1      31.575  26.313  22.352  1.00  0.00     0.408 C 
ATOM     11  O   UNL A   1      30.753  27.104  21.906  1.00  0.00    -0.225 OA
ATOM     12  H   UNL A   1      30.457  24.708  21.945  1.00  0.00     0.167 HD
BRANCH  10  13
ATOM     13  O   UNL A   1      32.768  26.637  22.902  1.00  0.00    -0.445 OA
BRANCH  13  14
ATOM     14  C   UNL A   1      32.687  27.388  24.119  1.00  0.00     0.262 C 
BRANCH  14  15
ATOM     15  C   UNL A   1      33.421  28.689  23.993  1.00  0.00     0.006 C 
ATOM     16  C   UNL A   1      34.219  28.993  22.960  1.00  0.00     0.007 C 
ENDBRANCH  14  15
ENDBRANCH  13  14
ENDBRANCH  10  13
ENDBRANCH   8   9
BRANCH   8  17
ATOM     17  C   UNL A   1      31.292  22.623  23.217  1.00  0.00     0.070 C 
BRANCH  17  18
ATOM     18  C   UNL A   1      31.999  21.476  23.904  1.00  0.00    -0.045 A 
ATOM     19  C   UNL A   1      32.418  21.577  25.240  1.00  0.00     0.004 A 
ATOM     20  C   UNL A   1      32.225  20.274  23.216  1.00  0.00     0.004 A 
ATOM     21  C   UNL A   1      32.982  20.478  25.892  1.00  0.00     0.000 A 
ATOM     22  C   UNL A   1      32.806  19.182  23.865  1.00  0.00     0.000 A 
ATOM     23  C   UNL A   1      33.170  19.279  25.207  1.00  0.00     0.000 A 
ENDBRANCH  17  18
ENDBRANCH   8  17
ENDBRANCH   5   8
ENDBRANCH   3   4
ENDBRANCH   2   3
ENDBRANCH   1   2
BRANCH   1  24
ATOM     24  C   UNL A   1      36.531  20.528  25.062  1.00  0.00     0.002 C 
BRANCH  24  25
ATOM     25  C   UNL A   1      37.902  19.879  24.858  1.00  0.00     0.021 C 
BRANCH  25  26
ATOM     26  C   UNL A   1      38.991  20.343  25.818  1.00  0.00     0.116 C 
BRANCH  26  27
ATOM     27  N   UNL A   1      40.044  19.355  25.975  1.00  0.00    -0.352 N 
ATOM     28  C   UNL A   1      41.390  19.534  26.178  1.00  0.00     0.251 C 
ATOM     29  H   UNL A   1      39.749  18.417  25.929  1.00  0.00     0.163 HD
ATOM     30  O   UNL A   1      42.147  18.571  26.092  1.00  0.00    -0.269 OA
BRANCH  28  31
ATOM     31  C   UNL A   1      41.924  20.882  26.471  1.00  0.00     0.039 A 
ATOM     32  C   UNL A   1      42.117  21.772  25.412  1.00  0.00     0.014 A 
ATOM     33  C   UNL A   1      42.243  21.267  27.775  1.00  0.00     0.014 A 
ATOM     34  C   UNL A   1      42.573  23.067  25.670  1.00  0.00     0.010 A 
ATOM     35  C   UNL A   1      42.618  22.582  28.041  1.00  0.00     0.010 A 
ATOM     36  C   UNL A   1      42.792  23.496  26.990  1.00  0.00    -0.014 A 
BRANCH  36  37
ATOM     37  C   UNL A   1      43.211  24.892  27.284  1.00  0.00     0.031 A 
ATOM     38  C   UNL A   1      42.258  25.842  27.957  1.00  0.00     0.074 A 
ATOM     39  C   UNL A   1      44.433  25.315  26.902  1.00  0.00     0.049 A 
ATOM     40  N   UNL A   1      42.417  27.109  28.244  1.00  0.00    -0.248 NA
ATOM     41  C   UNL A   1      40.942  25.303  28.331  1.00  0.00     0.031 C 
ATOM     42  C   UNL A   1      45.432  24.495  26.213  1.00  0.00     0.029 A 
ATOM     43  N   UNL A   1      45.045  26.536  27.034  1.00  0.00    -0.354 N 
ATOM     44  C   UNL A   1      41.222  27.520  28.825  1.00  0.00     0.074 A 
ATOM     45  C   UNL A   1      40.326  26.384  28.785  1.00  0.00     0.031 C 
ATOM     46  C   UNL A   1      46.540  25.226  26.014  1.00  0.00     0.029 A 
ATOM     47  C   UNL A   1      46.314  26.581  26.507  1.00  0.00     0.049 A 
ATOM     48  H   UNL A   1      44.614  27.309  27.466  1.00  0.00     0.167 HD
ATOM     49  C   UNL A   1      40.910  28.725  29.363  1.00  0.00     0.034 A 
ATOM     50  C   UNL A   1      47.193  27.600  26.416  1.00  0.00     0.034 A 
ATOM     51  C   UNL A   1      41.819  29.845  29.398  1.00  0.00     0.049 A 
ATOM     52  C   UNL A   1      46.805  28.945  26.979  1.00  0.00     0.074 A 
ATOM     53  C   UNL A   1      41.624  31.094  29.961  1.00  0.00     0.029 A 
ATOM     54  N   UNL A   1      43.089  29.860  28.835  1.00  0.00    -0.354 N 
ATOM     55  N   UNL A   1      45.688  29.302  27.570  1.00  0.00    -0.248 NA
ATOM     56  C   UNL A   1      47.797  30.021  26.869  1.00  0.00     0.031 C 
ATOM     57  C   UNL A   1      42.738  31.887  29.666  1.00  0.00     0.029 A 
ATOM     58  C   UNL A   1      43.672  31.107  29.003  1.00  0.00     0.049 A 
ATOM     59  H   UNL A   1      43.515  29.095  28.384  1.00  0.00     0.167 HD
ATOM     60  C   UNL A   1      45.861  30.636  27.933  1.00  0.00     0.074 A 
ATOM     61  C   UNL A   1      47.194  31.011  27.508  1.00  0.00     0.031 C 
ATOM     62  C   UNL A   1      44.997  31.474  28.563  1.00  0.00     0.034 A 
BRANCH  49  63
ATOM     63  C   UNL A   1      39.519  28.898  29.929  1.00  0.00     0.023 A 
ATOM     64  C   UNL A   1      38.488  29.503  29.188  1.00  0.00     0.031 A 
ATOM     65  C   UNL A   1      39.223  28.470  31.236  1.00  0.00     0.131 A 
ATOM     66  C   UNL A   1      37.238  29.733  29.783  1.00  0.00     0.055 A 
ATOM     67  C   UNL A   1      37.951  28.621  31.791  1.00  0.00     0.041 A 
ATOM     68  F   UNL A   1      40.170  27.907  32.002  1.00  0.00    -0.206 F 
ATOM     69  C   UNL A   1      36.954  29.270  31.069  1.00  0.00     0.022 A 
BRANCH  66  70
ATOM     70  S   UNL A   1      36.044  30.781  28.909  1.00  0.00     0.124 S 
ATOM     71  O   UNL A   1      35.338  31.414  30.021  1.00  0.00    -0.237 OA
ATOM     72  O   UNL A   1      36.907  31.653  28.121  1.00  0.00    -0.237 OA
ATOM     73  O   UNL A   1      35.250  29.826  28.139  1.00  0.00    -0.744 OA
ENDBRANCH  66  70
ENDBRANCH  49  63
BRANCH  50  74
ATOM     74  C   UNL A   1      48.517  27.403  25.756  1.00  0.00     0.023 A 
ATOM     75  C   UNL A   1      48.667  27.566  24.370  1.00  0.00     0.031 A 
ATOM     76  C   UNL A   1      49.642  26.998  26.495  1.00  0.00     0.131 A 
ATOM     77  C   UNL A   1      49.896  27.273  23.759  1.00  0.00     0.055 A 
ATOM     78  C   UNL A   1      50.880  26.769  25.892  1.00  0.00     0.041 A 
ATOM     79  F   UNL A   1      49.558  26.826  27.824  1.00  0.00    -0.206 F 
ATOM     80  C   UNL A   1      51.009  26.892  24.513  1.00  0.00     0.022 A 
BRANCH  77  81
ATOM     81  S   UNL A   1      49.994  27.299  21.948  1.00  0.00     0.124 S 
ATOM     82  O   UNL A   1      51.345  26.797  21.719  1.00  0.00    -0.237 OA
ATOM     83  O   UNL A   1      48.904  26.406  21.573  1.00  0.00    -0.237 OA
ATOM     84  O   UNL A   1      49.788  28.707  21.617  1.00  0.00    -0.744 OA
ENDBRANCH  77  81
ENDBRANCH  50  74
BRANCH  62  85
ATOM     85  C   UNL A   1      45.492  32.867  28.873  1.00  0.00     0.023 A 
ATOM     86  C   UNL A   1      45.381  33.918  27.944  1.00  0.00     0.031 A 
ATOM     87  C   UNL A   1      46.091  33.146  30.115  1.00  0.00     0.131 A 
ATOM     88  C   UNL A   1      45.915  35.179  28.249  1.00  0.00     0.055 A 
ATOM     89  C   UNL A   1      46.555  34.421  30.439  1.00  0.00     0.041 A 
ATOM     90  F   UNL A   1      46.229  32.181  31.038  1.00  0.00    -0.206 F 
ATOM     91  C   UNL A   1      46.482  35.443  29.498  1.00  0.00     0.022 A 
BRANCH  88  92
ATOM     92  S   UNL A   1      45.953  36.446  26.950  1.00  0.00     0.124 S 
ATOM     93  O   UNL A   1      44.582  36.945  26.976  1.00  0.00    -0.237 OA
ATOM     94  O   UNL A   1      46.974  37.365  27.439  1.00  0.00    -0.237 OA
ATOM     95  O   UNL A   1      46.317  35.695  25.750  1.00  0.00    -0.744 OA
ENDBRANCH  88  92
ENDBRANCH  62  85
ENDBRANCH  36  37
ENDBRANCH  28  31
ENDBRANCH  26  27
ENDBRANCH  25  26
ENDBRANCH  24  25
ENDBRANCH   1  24
TORSDOF 22
ENDMDL
MODEL 3
REMARK VINA RESULT:      -9.9      2.588      8.234
REMARK SMILES C=CCOC(=O)N[C@@H](Cc1ccccc1)C(=O)NCCCCCCNC(=O)c1ccc(-c2c3nc(c(-c4cc(S(=O)(=O)[O-])ccc4F)c4ccc([nH]4)c(-c4cc(S(=O)(=O)[O-])ccc4F)c4nc(c(-c5cc(S(=O)(=O)[O-])ccc5F)c5ccc2[nH]5)C=C4)C=C3)cc1
REMARK SMILES IDX 21 1 20 2 19 3 18 4 16 5 17 6 8 8 7 9 5 10 6 11 4 13 3 14
REMARK SMILES IDX 2 15 1 16 9 17 10 18 11 19 15 20 12 21 14 22 13 23 22 24
REMARK SMILES IDX 23 25 24 26 25 27 26 28 27 30 28 31 29 32 90 33 30 34 89 35
REMARK SMILES IDX 31 36 32 37 33 38 83 39 34 40 88 41 82 42 84 43 35 44 87 45
REMARK SMILES IDX 81 46 80 47 36 49 68 50 48 51 67 52 49 53 52 54 66 55 85 56
REMARK SMILES IDX 50 57 51 58 65 60 86 61 53 62 37 63 38 64 46 65 39 66 45 67
REMARK SMILES IDX 47 68 44 69 40 70 41 71 42 72 43 73 69 74 70 75 78 76 71 77
REMARK SMILES IDX 77 78 79 79 76 80 72 81 73 82 74 83 75 84 54 85 55 86 63 87
REMARK SMILES IDX 56 88 62 89 64 90 61 91 57 92 58 93 59 94 60 95
REMARK H PARENT 18 7 7 12 25 29 84 48 52 59
REMARK Flexibility Score: inf
ROOT
ATOM      1  C   UNL A   1      34.383  20.530  24.806  1.00  0.00     0.002 C 
ENDROOT
BRANCH   1   2
ATOM      2  C   UNL A   1      33.409  20.943  25.911  1.00  0.00     0.021 C 
BRANCH   2   3
ATOM      3  C   UNL A   1      32.174  21.679  25.418  1.00  0.00     0.116 C 
BRANCH   3   4
ATOM      4  N   UNL A   1      31.267  22.086  26.468  1.00  0.00    -0.354 N 
ATOM      5  C   UNL A   1      30.632  23.281  26.651  1.00  0.00     0.243 C 
ATOM      6  O   UNL A   1      29.618  23.265  27.359  1.00  0.00    -0.273 OA
ATOM      7  H   UNL A   1      31.079  21.402  27.151  1.00  0.00     0.163 HD
BRANCH   5   8
ATOM      8  C   UNL A   1      31.041  24.583  25.920  1.00  0.00     0.179 C 
BRANCH   8   9
ATOM      9  N   UNL A   1      29.933  25.365  25.373  1.00  0.00    -0.309 N 
ATOM     10  C   UNL A   1      29.679  25.657  24.069  1.00  0.00     0.408 C 
ATOM     11  O   UNL A   1      28.749  26.398  23.773  1.00  0.00    -0.225 OA
ATOM     12  H   UNL A   1      29.292  25.724  26.028  1.00  0.00     0.167 HD
BRANCH  10  13
ATOM     13  O   UNL A   1      30.557  25.103  23.201  1.00  0.00    -0.445 OA
BRANCH  13  14
ATOM     14  C   UNL A   1      31.516  26.013  22.650  1.00  0.00     0.262 C 
BRANCH  14  15
ATOM     15  C   UNL A   1      32.748  25.284  22.205  1.00  0.00     0.006 C 
ATOM     16  C   UNL A   1      33.603  24.688  23.047  1.00  0.00     0.007 C 
ENDBRANCH  14  15
ENDBRANCH  13  14
ENDBRANCH  10  13
ENDBRANCH   8   9
BRANCH   8  17
ATOM     17  C   UNL A   1      32.051  25.450  26.708  1.00  0.00     0.070 C 
BRANCH  17  18
ATOM     18  C   UNL A   1      32.405  26.805  26.137  1.00  0.00    -0.045 A 
ATOM     19  C   UNL A   1      33.677  27.057  25.600  1.00  0.00     0.004 A 
ATOM     20  C   UNL A   1      31.448  27.832  26.114  1.00  0.00     0.004 A 
ATOM     21  C   UNL A   1      33.959  28.281  24.989  1.00  0.00     0.000 A 
ATOM     22  C   UNL A   1      31.739  29.061  25.519  1.00  0.00     0.000 A 
ATOM     23  C   UNL A   1      32.989  29.280  24.943  1.00  0.00     0.000 A 
ENDBRANCH  17  18
ENDBRANCH   8  17
ENDBRANCH   5   8
ENDBRANCH   3   4
ENDBRANCH   2   3
ENDBRANCH   1   2
BRANCH   1  24
ATOM     24  C   UNL A   1      35.599  21.445  24.608  1.00  0.00     0.002 C 
BRANCH  24  25
ATOM     25  C   UNL A   1      35.638  22.700  25.484  1.00  0.00     0.021 C 
BRANCH  25  26
ATOM     26  C   UNL A   1      37.029  23.268  25.744  1.00  0.00     0.116 C 
BRANCH  26  27
ATOM     27  N   UNL A   1      38.007  22.228  26.009  1.00  0.00    -0.352 N 
ATOM     28  C   UNL A   1      39.305  22.336  26.440  1.00  0.00     0.251 C 
ATOM     29  H   UNL A   1      37.691  21.308  25.857  1.00  0.00     0.163 HD
ATOM     30  O   UNL A   1      40.034  21.347  26.420  1.00  0.00    -0.269 OA
BRANCH  28  31
ATOM     31  C   UNL A   1      39.830  23.641  26.899  1.00  0.00     0.039 A 
ATOM     32  C   UNL A   1      40.018  24.658  25.960  1.00  0.00     0.014 A 
ATOM     33  C   UNL A   1      40.144  23.862  28.242  1.00  0.00     0.014 A 
ATOM     34  C   UNL A   1      40.463  25.913  26.379  1.00  0.00     0.010 A 
ATOM     35  C   UNL A   1      40.510  25.137  28.670  1.00  0.00     0.010 A 
ATOM     36  C   UNL A   1      40.678  26.176  27.742  1.00  0.00    -0.014 A 
BRANCH  36  37
ATOM     37  C   UNL A   1      41.086  27.527  28.208  1.00  0.00     0.031 A 
ATOM     38  C   UNL A   1      42.543  27.902  28.262  1.00  0.00     0.074 A 
ATOM     39  C   UNL A   1      40.146  28.399  28.626  1.00  0.00     0.049 A 
ATOM     40  N   UNL A   1      43.098  29.006  28.692  1.00  0.00    -0.248 NA
ATOM     41  C   UNL A   1      43.503  26.889  27.798  1.00  0.00     0.031 C 
ATOM     42  C   UNL A   1      38.705  28.138  28.651  1.00  0.00     0.029 A 
ATOM     43  N   UNL A   1      40.257  29.678  29.112  1.00  0.00    -0.354 N 
ATOM     44  C   UNL A   1      44.470  28.820  28.556  1.00  0.00     0.074 A 
ATOM     45  C   UNL A   1      44.662  27.471  28.069  1.00  0.00     0.031 C 
ATOM     46  C   UNL A   1      38.067  29.233  29.095  1.00  0.00     0.029 A 
ATOM     47  C   UNL A   1      39.052  30.253  29.442  1.00  0.00     0.049 A 
ATOM     48  H   UNL A   1      41.121  30.141  29.216  1.00  0.00     0.167 HD
ATOM     49  C   UNL A   1      45.474  29.701  28.793  1.00  0.00     0.034 A 
ATOM     50  C   UNL A   1      38.770  31.459  29.976  1.00  0.00     0.034 A 
ATOM     51  C   UNL A   1      45.262  31.045  29.274  1.00  0.00     0.049 A 
ATOM     52  C   UNL A   1      39.908  32.403  30.276  1.00  0.00     0.074 A 
ATOM     53  C   UNL A   1      46.202  32.035  29.501  1.00  0.00     0.029 A 
ATOM     54  N   UNL A   1      44.029  31.585  29.616  1.00  0.00    -0.354 N 
ATOM     55  N   UNL A   1      41.197  32.228  30.094  1.00  0.00    -0.248 NA
ATOM     56  C   UNL A   1      39.552  33.709  30.845  1.00  0.00     0.031 C 
ATOM     57  C   UNL A   1      45.549  33.139  30.058  1.00  0.00     0.029 A 
ATOM     58  C   UNL A   1      44.189  32.878  30.090  1.00  0.00     0.049 A 
ATOM     59  H   UNL A   1      43.166  31.118  29.533  1.00  0.00     0.167 HD
ATOM     60  C   UNL A   1      41.800  33.418  30.496  1.00  0.00     0.074 A 
ATOM     61  C   UNL A   1      40.733  34.304  30.911  1.00  0.00     0.031 C 
ATOM     62  C   UNL A   1      43.118  33.749  30.515  1.00  0.00     0.034 A 
BRANCH  49  63
ATOM     63  C   UNL A   1      46.890  29.224  28.561  1.00  0.00     0.023 A 
ATOM     64  C   UNL A   1      47.396  29.010  27.266  1.00  0.00     0.031 A 
ATOM     65  C   UNL A   1      47.740  28.961  29.650  1.00  0.00     0.131 A 
ATOM     66  C   UNL A   1      48.681  28.475  27.096  1.00  0.00     0.055 A 
ATOM     67  C   UNL A   1      49.050  28.512  29.470  1.00  0.00     0.041 A 
ATOM     68  F   UNL A   1      47.307  29.122  30.910  1.00  0.00    -0.206 F 
ATOM     69  C   UNL A   1      49.522  28.251  28.188  1.00  0.00     0.022 A 
BRANCH  66  70
ATOM     70  S   UNL A   1      49.179  27.930  25.439  1.00  0.00     0.124 S 
ATOM     71  O   UNL A   1      48.021  28.326  24.639  1.00  0.00    -0.237 OA
ATOM     72  O   UNL A   1      50.402  28.689  25.211  1.00  0.00    -0.237 OA
ATOM     73  O   UNL A   1      49.357  26.488  25.592  1.00  0.00    -0.744 OA
ENDBRANCH  66  70
ENDBRANCH  49  63
BRANCH  50  74
ATOM     74  C   UNL A   1      37.360  31.842  30.280  1.00  0.00     0.023 A 
ATOM     75  C   UNL A   1      36.501  32.304  29.271  1.00  0.00     0.031 A 
ATOM     76  C   UNL A   1      36.866  31.801  31.596  1.00  0.00     0.131 A 
ATOM     77  C   UNL A   1      35.214  32.757  29.600  1.00  0.00     0.055 A 
ATOM     78  C   UNL A   1      35.563  32.193  31.910  1.00  0.00     0.041 A 
ATOM     79  F   UNL A   1      37.643  31.368  32.602  1.00  0.00    -0.206 F 
ATOM     80  C   UNL A   1      34.733  32.689  30.910  1.00  0.00     0.022 A 
BRANCH  77  81
ATOM     81  S   UNL A   1      34.209  33.534  28.306  1.00  0.00     0.124 S 
ATOM     82  O   UNL A   1      33.493  32.386  27.759  1.00  0.00    -0.237 OA
ATOM     83  O   UNL A   1      33.410  34.485  29.071  1.00  0.00    -0.237 OA
ATOM     84  O   UNL A   1      35.203  34.130  27.416  1.00  0.00    -0.744 OA
ENDBRANCH  77  81
ENDBRANCH  50  74
BRANCH  62  85
ATOM     85  C   UNL A   1      43.470  35.149  30.959  1.00  0.00     0.023 A 
ATOM     86  C   UNL A   1      43.581  35.491  32.318  1.00  0.00     0.031 A 
ATOM     87  C   UNL A   1      43.690  36.160  30.005  1.00  0.00     0.131 A 
ATOM     88  C   UNL A   1      43.844  36.820  32.685  1.00  0.00     0.055 A 
ATOM     89  C   UNL A   1      44.021  37.463  30.375  1.00  0.00     0.041 A 
ATOM     90  F   UNL A   1      43.591  35.893  28.692  1.00  0.00    -0.206 F 
ATOM     91  C   UNL A   1      44.086  37.803  31.723  1.00  0.00     0.022 A 
BRANCH  88  92
ATOM     92  S   UNL A   1      43.762  37.270  34.441  1.00  0.00     0.124 S 
ATOM     93  O   UNL A   1      43.836  35.966  35.091  1.00  0.00    -0.237 OA
ATOM     94  O   UNL A   1      44.933  38.126  34.599  1.00  0.00    -0.237 OA
ATOM     95  O   UNL A   1      42.474  37.952  34.561  1.00  0.00    -0.744 OA
ENDBRANCH  88  92
ENDBRANCH  62  85
ENDBRANCH  36  37
ENDBRANCH  28  31
ENDBRANCH  26  27
ENDBRANCH  25  26
ENDBRANCH  24  25
ENDBRANCH   1  24
TORSDOF 22
ENDMDL
