MODEL 1
REMARK VINA RESULT:     -11.0      0.000      0.000
REMARK SMILES CO[C@@H]1C[C@@H](C(=O)NCCCCCCNC(=O)c2ccc(-c3c4nc(c(-c5cc(S(=O)(=O)[O-])ccc5F)c5ccc([nH]5)c(-c5cc(S(=O)(=O)[O-])ccc5F)c5nc(c(-c6cc(S(=O)(=O)[O-])ccc6F)c6ccc3[nH]6)C=C5)C=C4)cc2)N(C(=O)c2nc(C(C)C)n[nH]2)C1
REMARK SMILES IDX 11 1 10 2 9 3 8 4 6 5 7 6 5 8 3 9 4 10 92 11 81 12 2 13 1 14
REMARK SMILES IDX 82 15 83 16 84 17 85 18 91 19 86 20 90 21 87 23 88 24 89 25
REMARK SMILES IDX 12 26 13 27 14 28 15 29 16 30 17 32 18 33 19 34 80 35 20 36
REMARK SMILES IDX 79 37 21 38 22 39 23 40 73 41 24 42 78 43 72 44 74 45 25 46
REMARK SMILES IDX 77 47 71 48 70 49 26 51 58 52 38 53 57 54 39 55 42 56 56 57
REMARK SMILES IDX 75 58 40 59 41 60 55 62 76 63 43 64 27 65 28 66 36 67 29 68
REMARK SMILES IDX 35 69 37 70 34 71 30 72 31 73 32 74 33 75 59 76 60 77 68 78
REMARK SMILES IDX 61 79 67 80 69 81 66 82 62 83 63 84 64 85 65 86 44 87 45 88
REMARK SMILES IDX 53 89 46 90 52 91 54 92 51 93 47 94 48 95 49 96 50 97
REMARK H PARENT 8 7 91 22 15 31 74 50 42 61
REMARK Flexibility Score: inf
ROOT
ATOM      1  C   UNL A   1      36.447  20.995  24.892  1.00  0.00     0.002 C 
ENDROOT
BRANCH   1   2
ATOM      2  C   UNL A   1      36.871  22.465  24.808  1.00  0.00     0.021 C 
BRANCH   2   3
ATOM      3  C   UNL A   1      36.087  23.383  25.739  1.00  0.00     0.116 C 
BRANCH   3   4
ATOM      4  N   UNL A   1      35.308  22.592  26.680  1.00  0.00    -0.354 N 
ATOM      5  C   UNL A   1      33.982  22.667  26.971  1.00  0.00     0.242 C 
ATOM      6  O   UNL A   1      33.537  22.047  27.942  1.00  0.00    -0.273 OA
ATOM      7  H   UNL A   1      35.812  21.906  27.174  1.00  0.00     0.163 HD
BRANCH   5   8
ATOM      8  C   UNL A   1      33.067  23.437  26.030  1.00  0.00     0.177 C 
ATOM      9  C   UNL A   1      30.887  24.427  25.898  1.00  0.00     0.139 C 
ATOM     10  C   UNL A   1      31.987  24.091  26.895  1.00  0.00     0.069 C 
ATOM     11  C   UNL A   1      31.017  23.325  24.827  1.00  0.00     0.153 C 
ATOM     12  N   UNL A   1      32.287  22.648  25.077  1.00  0.00    -0.321 N 
BRANCH   9  13
ATOM     13  O   UNL A   1      31.136  25.718  25.334  1.00  0.00    -0.380 OA
ATOM     14  C   UNL A   1      29.961  26.306  24.778  1.00  0.00     0.195 C 
ENDBRANCH   9  13
BRANCH  12  15
ATOM     15  C   UNL A   1      32.755  21.715  24.148  1.00  0.00     0.291 C 
ATOM     16  O   UNL A   1      33.049  22.088  23.010  1.00  0.00    -0.265 OA
BRANCH  15  17
ATOM     17  C   UNL A   1      32.794  20.310  24.514  1.00  0.00     0.214 A 
ATOM     18  N   UNL A   1      33.002  19.293  23.693  1.00  0.00    -0.207 NA
ATOM     19  N   UNL A   1      32.478  19.805  25.744  1.00  0.00    -0.255 N 
ATOM     20  C   UNL A   1      32.844  18.189  24.498  1.00  0.00     0.153 A 
ATOM     21  N   UNL A   1      32.542  18.465  25.772  1.00  0.00    -0.158 NA
ATOM     22  H   UNL A   1      32.232  20.360  26.520  1.00  0.00     0.192 HD
BRANCH  20  23
ATOM     23  C   UNL A   1      32.953  16.783  24.002  1.00  0.00     0.053 C 
ATOM     24  C   UNL A   1      34.212  16.600  23.155  1.00  0.00     0.016 C 
ATOM     25  C   UNL A   1      32.911  15.766  25.141  1.00  0.00     0.016 C 
ENDBRANCH  20  23
ENDBRANCH  15  17
ENDBRANCH  12  15
ENDBRANCH   5   8
ENDBRANCH   3   4
ENDBRANCH   2   3
ENDBRANCH   1   2
BRANCH   1  26
ATOM     26  C   UNL A   1      37.608  20.002  24.993  1.00  0.00     0.002 C 
BRANCH  26  27
ATOM     27  C   UNL A   1      38.952  20.627  25.373  1.00  0.00     0.021 C 
BRANCH  27  28
ATOM     28  C   UNL A   1      39.627  19.984  26.580  1.00  0.00     0.116 C 
BRANCH  28  29
ATOM     29  N   UNL A   1      40.787  19.194  26.197  1.00  0.00    -0.352 N 
ATOM     30  C   UNL A   1      42.068  19.611  25.940  1.00  0.00     0.251 C 
ATOM     31  H   UNL A   1      40.630  18.225  26.110  1.00  0.00     0.163 HD
ATOM     32  O   UNL A   1      42.871  18.836  25.424  1.00  0.00    -0.269 OA
BRANCH  30  33
ATOM     33  C   UNL A   1      42.464  20.997  26.263  1.00  0.00     0.039 A 
ATOM     34  C   UNL A   1      42.631  21.914  25.223  1.00  0.00     0.014 A 
ATOM     35  C   UNL A   1      42.656  21.394  27.590  1.00  0.00     0.014 A 
ATOM     36  C   UNL A   1      42.933  23.245  25.519  1.00  0.00     0.010 A 
ATOM     37  C   UNL A   1      42.878  22.737  27.886  1.00  0.00     0.010 A 
ATOM     38  C   UNL A   1      43.023  23.676  26.854  1.00  0.00    -0.014 A 
BRANCH  38  39
ATOM     39  C   UNL A   1      43.268  25.104  27.185  1.00  0.00     0.031 A 
ATOM     40  C   UNL A   1      44.620  25.715  26.939  1.00  0.00     0.074 A 
ATOM     41  C   UNL A   1      42.288  25.835  27.754  1.00  0.00     0.049 A 
ATOM     42  N   UNL A   1      45.047  26.920  27.219  1.00  0.00    -0.248 NA
ATOM     43  C   UNL A   1      45.634  24.848  26.320  1.00  0.00     0.031 C 
ATOM     44  C   UNL A   1      40.943  25.344  28.070  1.00  0.00     0.029 A 
ATOM     45  N   UNL A   1      42.267  27.142  28.172  1.00  0.00    -0.354 N 
ATOM     46  C   UNL A   1      46.379  26.953  26.820  1.00  0.00     0.074 A 
ATOM     47  C   UNL A   1      46.705  25.627  26.340  1.00  0.00     0.031 C 
ATOM     48  C   UNL A   1      40.222  26.345  28.597  1.00  0.00     0.029 A 
ATOM     49  C   UNL A   1      41.063  27.533  28.711  1.00  0.00     0.049 A 
ATOM     50  H   UNL A   1      43.042  27.744  28.093  1.00  0.00     0.167 HD
ATOM     51  C   UNL A   1      47.243  27.998  26.832  1.00  0.00     0.034 A 
ATOM     52  C   UNL A   1      40.682  28.710  29.248  1.00  0.00     0.034 A 
ATOM     53  C   UNL A   1      46.899  29.317  27.308  1.00  0.00     0.049 A 
ATOM     54  C   UNL A   1      41.676  29.844  29.293  1.00  0.00     0.074 A 
ATOM     55  C   UNL A   1      47.681  30.459  27.320  1.00  0.00     0.029 A 
ATOM     56  N   UNL A   1      45.676  29.669  27.867  1.00  0.00    -0.354 N 
ATOM     57  N   UNL A   1      42.919  29.871  28.870  1.00  0.00    -0.248 NA
ATOM     58  C   UNL A   1      41.212  31.107  29.879  1.00  0.00     0.031 C 
ATOM     59  C   UNL A   1      46.963  31.476  27.957  1.00  0.00     0.029 A 
ATOM     60  C   UNL A   1      45.699  30.999  28.260  1.00  0.00     0.049 A 
ATOM     61  H   UNL A   1      44.907  29.064  27.968  1.00  0.00     0.167 HD
ATOM     62  C   UNL A   1      43.372  31.166  29.107  1.00  0.00     0.074 A 
ATOM     63  C   UNL A   1      42.264  31.891  29.695  1.00  0.00     0.031 C 
ATOM     64  C   UNL A   1      44.590  31.710  28.855  1.00  0.00     0.034 A 
BRANCH  51  65
ATOM     65  C   UNL A   1      48.651  27.748  26.342  1.00  0.00     0.023 A 
ATOM     66  C   UNL A   1      49.000  27.888  24.987  1.00  0.00     0.031 A 
ATOM     67  C   UNL A   1      49.657  27.349  27.241  1.00  0.00     0.131 A 
ATOM     68  C   UNL A   1      50.295  27.561  24.559  1.00  0.00     0.055 A 
ATOM     69  C   UNL A   1      50.967  27.109  26.821  1.00  0.00     0.041 A 
ATOM     70  F   UNL A   1      49.381  27.174  28.542  1.00  0.00    -0.206 F 
ATOM     71  C   UNL A   1      51.289  27.201  25.471  1.00  0.00     0.022 A 
BRANCH  68  72
ATOM     72  S   UNL A   1      50.621  27.471  22.777  1.00  0.00     0.124 S 
ATOM     73  O   UNL A   1      51.911  26.786  22.749  1.00  0.00    -0.237 OA
ATOM     74  O   UNL A   1      49.481  26.705  22.286  1.00  0.00    -0.237 OA
ATOM     75  O   UNL A   1      50.659  28.872  22.364  1.00  0.00    -0.744 OA
ENDBRANCH  68  72
ENDBRANCH  51  65
BRANCH  52  76
ATOM     76  C   UNL A   1      39.305  28.884  29.797  1.00  0.00     0.023 A 
ATOM     77  C   UNL A   1      38.284  29.448  29.017  1.00  0.00     0.031 A 
ATOM     78  C   UNL A   1      39.003  28.537  31.126  1.00  0.00     0.131 A 
ATOM     79  C   UNL A   1      37.025  29.699  29.586  1.00  0.00     0.055 A 
ATOM     80  C   UNL A   1      37.732  28.731  31.669  1.00  0.00     0.041 A 
ATOM     81  F   UNL A   1      39.941  27.993  31.918  1.00  0.00    -0.206 F 
ATOM     82  C   UNL A   1      36.737  29.330  30.902  1.00  0.00     0.022 A 
BRANCH  79  83
ATOM     83  S   UNL A   1      35.799  30.612  28.610  1.00  0.00     0.124 S 
ATOM     84  O   UNL A   1      35.185  31.460  29.626  1.00  0.00    -0.237 OA
ATOM     85  O   UNL A   1      36.638  31.292  27.629  1.00  0.00    -0.237 OA
ATOM     86  O   UNL A   1      34.940  29.558  28.072  1.00  0.00    -0.744 OA
ENDBRANCH  79  83
ENDBRANCH  52  76
BRANCH  64  87
ATOM     87  C   UNL A   1      44.769  33.177  29.169  1.00  0.00     0.023 A 
ATOM     88  C   UNL A   1      44.258  34.184  28.332  1.00  0.00     0.031 A 
ATOM     89  C   UNL A   1      45.471  33.571  30.323  1.00  0.00     0.131 A 
ATOM     90  C   UNL A   1      44.508  35.533  28.628  1.00  0.00     0.055 A 
ATOM     91  C   UNL A   1      45.656  34.915  30.649  1.00  0.00     0.041 A 
ATOM     92  F   UNL A   1      45.985  32.653  31.158  1.00  0.00    -0.206 F 
ATOM     93  C   UNL A   1      45.185  35.905  29.792  1.00  0.00     0.022 A 
BRANCH  90  94
ATOM     94  S   UNL A   1      44.024  36.795  27.418  1.00  0.00     0.124 S 
ATOM     95  O   UNL A   1      43.203  36.024  26.489  1.00  0.00    -0.237 OA
ATOM     96  O   UNL A   1      43.312  37.764  28.245  1.00  0.00    -0.237 OA
ATOM     97  O   UNL A   1      45.301  37.261  26.878  1.00  0.00    -0.744 OA
ENDBRANCH  90  94
ENDBRANCH  64  87
ENDBRANCH  38  39
ENDBRANCH  30  33
ENDBRANCH  28  29
ENDBRANCH  27  28
ENDBRANCH  26  27
ENDBRANCH   1  26
TORSDOF 20
ENDMDL
MODEL 2
REMARK VINA RESULT:     -10.7      6.294     11.204
REMARK SMILES CO[C@@H]1C[C@@H](C(=O)NCCCCCCNC(=O)c2ccc(-c3c4nc(c(-c5cc(S(=O)(=O)[O-])ccc5F)c5ccc([nH]5)c(-c5cc(S(=O)(=O)[O-])ccc5F)c5nc(c(-c6cc(S(=O)(=O)[O-])ccc6F)c6ccc3[nH]6)C=C5)C=C4)cc2)N(C(=O)c2nc(C(C)C)n[nH]2)C1
REMARK SMILES IDX 11 1 10 2 9 3 8 4 6 5 7 6 5 8 3 9 4 10 92 11 81 12 2 13 1 14
REMARK SMILES IDX 82 15 83 16 84 17 85 18 91 19 86 20 90 21 87 23 88 24 89 25
REMARK SMILES IDX 12 26 13 27 14 28 15 29 16 30 17 32 18 33 19 34 80 35 20 36
REMARK SMILES IDX 79 37 21 38 22 39 23 40 73 41 24 42 78 43 72 44 74 45 25 46
REMARK SMILES IDX 77 47 71 48 70 49 26 51 58 52 38 53 57 54 39 55 42 56 56 57
REMARK SMILES IDX 75 58 40 59 41 60 55 62 76 63 43 64 27 65 28 66 36 67 29 68
REMARK SMILES IDX 35 69 37 70 34 71 30 72 31 73 32 74 33 75 59 76 60 77 68 78
REMARK SMILES IDX 61 79 67 80 69 81 66 82 62 83 63 84 64 85 65 86 44 87 45 88
REMARK SMILES IDX 53 89 46 90 52 91 54 92 51 93 47 94 48 95 49 96 50 97
REMARK H PARENT 8 7 91 22 15 31 74 50 42 61
REMARK Flexibility Score: inf
ROOT
ATOM      1  C   UNL A   1      35.078  31.326  28.496  1.00  0.00     0.002 C 
ENDROOT
BRANCH   1   2
ATOM      2  C   UNL A   1      35.374  30.062  27.684  1.00  0.00     0.021 C 
BRANCH   2   3
ATOM      3  C   UNL A   1      34.198  29.590  26.835  1.00  0.00     0.116 C 
BRANCH   3   4
ATOM      4  N   UNL A   1      33.230  28.892  27.667  1.00  0.00    -0.354 N 
ATOM      5  C   UNL A   1      32.166  28.134  27.291  1.00  0.00     0.242 C 
ATOM      6  O   UNL A   1      31.339  27.784  28.139  1.00  0.00    -0.273 OA
ATOM      7  H   UNL A   1      33.365  28.980  28.638  1.00  0.00     0.163 HD
BRANCH   5   8
ATOM      8  C   UNL A   1      32.078  27.657  25.848  1.00  0.00     0.177 C 
ATOM      9  C   UNL A   1      30.692  27.779  23.895  1.00  0.00     0.139 C 
ATOM     10  C   UNL A   1      31.076  28.570  25.137  1.00  0.00     0.069 C 
ATOM     11  C   UNL A   1      30.816  26.310  24.346  1.00  0.00     0.153 C 
ATOM     12  N   UNL A   1      31.515  26.324  25.629  1.00  0.00    -0.321 N 
BRANCH   9  13
ATOM     13  O   UNL A   1      31.617  28.070  22.843  1.00  0.00    -0.380 OA
ATOM     14  C   UNL A   1      32.062  26.895  22.168  1.00  0.00     0.195 C 
ENDBRANCH   9  13
BRANCH  12  15
ATOM     15  C   UNL A   1      31.928  25.114  26.193  1.00  0.00     0.291 C 
ATOM     16  O   UNL A   1      31.315  24.655  27.159  1.00  0.00    -0.265 OA
BRANCH  15  17
ATOM     17  C   UNL A   1      33.128  24.470  25.686  1.00  0.00     0.214 A 
ATOM     18  N   UNL A   1      34.045  23.847  26.408  1.00  0.00    -0.207 NA
ATOM     19  N   UNL A   1      33.573  24.535  24.395  1.00  0.00    -0.255 N 
ATOM     20  C   UNL A   1      35.009  23.510  25.486  1.00  0.00     0.153 A 
ATOM     21  N   UNL A   1      34.743  23.897  24.234  1.00  0.00    -0.158 NA
ATOM     22  H   UNL A   1      33.092  24.993  23.669  1.00  0.00     0.192 HD
BRANCH  20  23
ATOM     23  C   UNL A   1      36.279  22.807  25.840  1.00  0.00     0.053 C 
ATOM     24  C   UNL A   1      36.590  21.702  24.831  1.00  0.00     0.016 C 
ATOM     25  C   UNL A   1      37.456  23.773  25.968  1.00  0.00     0.016 C 
ENDBRANCH  20  23
ENDBRANCH  15  17
ENDBRANCH  12  15
ENDBRANCH   5   8
ENDBRANCH   3   4
ENDBRANCH   2   3
ENDBRANCH   1   2
BRANCH   1  26
ATOM     26  C   UNL A   1      35.801  32.583  28.004  1.00  0.00     0.002 C 
BRANCH  26  27
ATOM     27  C   UNL A   1      34.932  33.842  27.961  1.00  0.00     0.021 C 
BRANCH  27  28
ATOM     28  C   UNL A   1      33.507  33.642  28.464  1.00  0.00     0.116 C 
BRANCH  28  29
ATOM     29  N   UNL A   1      33.092  34.706  29.363  1.00  0.00    -0.352 N 
ATOM     30  C   UNL A   1      33.518  34.972  30.640  1.00  0.00     0.251 C 
ATOM     31  H   UNL A   1      32.411  35.321  29.007  1.00  0.00     0.163 HD
ATOM     32  O   UNL A   1      32.907  35.784  31.332  1.00  0.00    -0.269 OA
BRANCH  30  33
ATOM     33  C   UNL A   1      34.693  34.258  31.182  1.00  0.00     0.039 A 
ATOM     34  C   UNL A   1      34.506  33.029  31.817  1.00  0.00     0.014 A 
ATOM     35  C   UNL A   1      35.977  34.795  31.050  1.00  0.00     0.014 A 
ATOM     36  C   UNL A   1      35.615  32.310  32.268  1.00  0.00     0.010 A 
ATOM     37  C   UNL A   1      37.085  34.041  31.428  1.00  0.00     0.010 A 
ATOM     38  C   UNL A   1      36.917  32.792  32.044  1.00  0.00    -0.014 A 
BRANCH  38  39
ATOM     39  C   UNL A   1      38.108  32.002  32.450  1.00  0.00     0.031 A 
ATOM     40  C   UNL A   1      38.807  32.302  33.748  1.00  0.00     0.074 A 
ATOM     41  C   UNL A   1      38.591  31.051  31.625  1.00  0.00     0.049 A 
ATOM     42  N   UNL A   1      39.895  31.770  34.245  1.00  0.00    -0.248 NA
ATOM     43  C   UNL A   1      38.219  33.358  34.586  1.00  0.00     0.031 C 
ATOM     44  C   UNL A   1      38.018  30.691  30.325  1.00  0.00     0.029 A 
ATOM     45  N   UNL A   1      39.672  30.215  31.751  1.00  0.00    -0.354 N 
ATOM     46  C   UNL A   1      40.126  32.431  35.446  1.00  0.00     0.074 A 
ATOM     47  C   UNL A   1      39.102  33.447  35.569  1.00  0.00     0.031 C 
ATOM     48  C   UNL A   1      38.731  29.686  29.793  1.00  0.00     0.029 A 
ATOM     49  C   UNL A   1      39.844  29.366  30.682  1.00  0.00     0.049 A 
ATOM     50  H   UNL A   1      40.270  30.222  32.534  1.00  0.00     0.167 HD
ATOM     51  C   UNL A   1      41.090  32.198  36.372  1.00  0.00     0.034 A 
ATOM     52  C   UNL A   1      40.797  28.444  30.438  1.00  0.00     0.034 A 
ATOM     53  C   UNL A   1      42.099  31.174  36.236  1.00  0.00     0.049 A 
ATOM     54  C   UNL A   1      41.885  28.234  31.462  1.00  0.00     0.074 A 
ATOM     55  C   UNL A   1      43.091  30.820  37.135  1.00  0.00     0.029 A 
ATOM     56  N   UNL A   1      42.255  30.348  35.130  1.00  0.00    -0.354 N 
ATOM     57  N   UNL A   1      42.064  28.838  32.614  1.00  0.00    -0.248 NA
ATOM     58  C   UNL A   1      42.895  27.213  31.154  1.00  0.00     0.031 C 
ATOM     59  C   UNL A   1      43.892  29.841  36.540  1.00  0.00     0.029 A 
ATOM     60  C   UNL A   1      43.348  29.515  35.309  1.00  0.00     0.049 A 
ATOM     61  H   UNL A   1      41.673  30.354  34.336  1.00  0.00     0.167 HD
ATOM     62  C   UNL A   1      43.185  28.242  33.184  1.00  0.00     0.074 A 
ATOM     63  C   UNL A   1      43.630  27.223  32.255  1.00  0.00     0.031 C 
ATOM     64  C   UNL A   1      43.789  28.507  34.371  1.00  0.00     0.034 A 
BRANCH  51  65
ATOM     65  C   UNL A   1      41.113  33.083  37.596  1.00  0.00     0.023 A 
ATOM     66  C   UNL A   1      40.423  32.739  38.772  1.00  0.00     0.031 A 
ATOM     67  C   UNL A   1      41.823  34.297  37.583  1.00  0.00     0.131 A 
ATOM     68  C   UNL A   1      40.398  33.629  39.856  1.00  0.00     0.055 A 
ATOM     69  C   UNL A   1      41.865  35.138  38.697  1.00  0.00     0.041 A 
ATOM     70  F   UNL A   1      42.481  34.693  36.482  1.00  0.00    -0.206 F 
ATOM     71  C   UNL A   1      41.137  34.814  39.837  1.00  0.00     0.022 A 
BRANCH  68  72
ATOM     72  S   UNL A   1      39.265  33.288  41.231  1.00  0.00     0.124 S 
ATOM     73  O   UNL A   1      38.030  33.907  40.755  1.00  0.00    -0.237 OA
ATOM     74  O   UNL A   1      39.268  31.831  41.288  1.00  0.00    -0.237 OA
ATOM     75  O   UNL A   1      39.891  33.961  42.367  1.00  0.00    -0.744 OA
ENDBRANCH  68  72
ENDBRANCH  51  65
BRANCH  52  76
ATOM     76  C   UNL A   1      40.780  27.651  29.173  1.00  0.00     0.023 A 
ATOM     77  C   UNL A   1      41.691  27.923  28.140  1.00  0.00     0.031 A 
ATOM     78  C   UNL A   1      39.822  26.645  28.957  1.00  0.00     0.131 A 
ATOM     79  C   UNL A   1      41.590  27.237  26.919  1.00  0.00     0.055 A 
ATOM     80  C   UNL A   1      39.766  25.922  27.765  1.00  0.00     0.041 A 
ATOM     81  F   UNL A   1      38.927  26.342  29.912  1.00  0.00    -0.206 F 
ATOM     82  C   UNL A   1      40.644  26.228  26.729  1.00  0.00     0.022 A 
BRANCH  79  83
ATOM     83  S   UNL A   1      42.650  27.758  25.542  1.00  0.00     0.124 S 
ATOM     84  O   UNL A   1      41.929  28.920  25.037  1.00  0.00    -0.237 OA
ATOM     85  O   UNL A   1      43.914  28.030  26.218  1.00  0.00    -0.237 OA
ATOM     86  O   UNL A   1      42.656  26.593  24.659  1.00  0.00    -0.744 OA
ENDBRANCH  79  83
ENDBRANCH  52  76
BRANCH  64  87
ATOM     87  C   UNL A   1      44.968  27.643  34.753  1.00  0.00     0.023 A 
ATOM     88  C   UNL A   1      44.804  26.397  35.382  1.00  0.00     0.031 A 
ATOM     89  C   UNL A   1      46.279  28.082  34.491  1.00  0.00     0.131 A 
ATOM     90  C   UNL A   1      45.931  25.661  35.780  1.00  0.00     0.055 A 
ATOM     91  C   UNL A   1      47.394  27.314  34.826  1.00  0.00     0.041 A 
ATOM     92  F   UNL A   1      46.498  29.266  33.896  1.00  0.00    -0.206 F 
ATOM     93  C   UNL A   1      47.224  26.101  35.488  1.00  0.00     0.022 A 
BRANCH  90  94
ATOM     94  S   UNL A   1      45.686  24.166  36.778  1.00  0.00     0.124 S 
ATOM     95  O   UNL A   1      45.131  24.714  38.012  1.00  0.00    -0.237 OA
ATOM     96  O   UNL A   1      44.766  23.388  35.955  1.00  0.00    -0.237 OA
ATOM     97  O   UNL A   1      47.033  23.609  36.898  1.00  0.00    -0.744 OA
ENDBRANCH  90  94
ENDBRANCH  64  87
ENDBRANCH  38  39
ENDBRANCH  30  33
ENDBRANCH  28  29
ENDBRANCH  27  28
ENDBRANCH  26  27
ENDBRANCH   1  26
TORSDOF 20
ENDMDL
MODEL 3
REMARK VINA RESULT:     -10.6      2.052      2.387
REMARK SMILES CO[C@@H]1C[C@@H](C(=O)NCCCCCCNC(=O)c2ccc(-c3c4nc(c(-c5cc(S(=O)(=O)[O-])ccc5F)c5ccc([nH]5)c(-c5cc(S(=O)(=O)[O-])ccc5F)c5nc(c(-c6cc(S(=O)(=O)[O-])ccc6F)c6ccc3[nH]6)C=C5)C=C4)cc2)N(C(=O)c2nc(C(C)C)n[nH]2)C1
REMARK SMILES IDX 11 1 10 2 9 3 8 4 6 5 7 6 5 8 3 9 4 10 92 11 81 12 2 13 1 14
REMARK SMILES IDX 82 15 83 16 84 17 85 18 91 19 86 20 90 21 87 23 88 24 89 25
REMARK SMILES IDX 12 26 13 27 14 28 15 29 16 30 17 32 18 33 19 34 80 35 20 36
REMARK SMILES IDX 79 37 21 38 22 39 23 40 73 41 24 42 78 43 72 44 74 45 25 46
REMARK SMILES IDX 77 47 71 48 70 49 26 51 58 52 38 53 57 54 39 55 42 56 56 57
REMARK SMILES IDX 75 58 40 59 41 60 55 62 76 63 43 64 27 65 28 66 36 67 29 68
REMARK SMILES IDX 35 69 37 70 34 71 30 72 31 73 32 74 33 75 59 76 60 77 68 78
REMARK SMILES IDX 61 79 67 80 69 81 66 82 62 83 63 84 64 85 65 86 44 87 45 88
REMARK SMILES IDX 53 89 46 90 52 91 54 92 51 93 47 94 48 95 49 96 50 97
REMARK H PARENT 8 7 91 22 15 31 74 50 42 61
REMARK Flexibility Score: inf
ROOT
ATOM      1  C   UNL A   1      36.629  21.335  25.035  1.00  0.00     0.002 C 
ENDROOT
BRANCH   1   2
ATOM      2  C   UNL A   1      37.002  22.805  25.248  1.00  0.00     0.021 C 
BRANCH   2   3
ATOM      3  C   UNL A   1      35.966  23.590  26.046  1.00  0.00     0.116 C 
BRANCH   3   4
ATOM      4  N   UNL A   1      35.173  22.684  26.862  1.00  0.00    -0.354 N 
ATOM      5  C   UNL A   1      33.831  22.678  27.079  1.00  0.00     0.242 C 
ATOM      6  O   UNL A   1      33.361  21.953  27.961  1.00  0.00    -0.273 OA
ATOM      7  H   UNL A   1      35.679  21.974  27.320  1.00  0.00     0.163 HD
BRANCH   5   8
ATOM      8  C   UNL A   1      32.936  23.498  26.161  1.00  0.00     0.177 C 
ATOM      9  C   UNL A   1      30.668  24.225  25.883  1.00  0.00     0.139 C 
ATOM     10  C   UNL A   1      31.674  23.840  26.958  1.00  0.00     0.069 C 
ATOM     11  C   UNL A   1      31.086  23.371  24.669  1.00  0.00     0.153 C 
ATOM     12  N   UNL A   1      32.400  22.816  24.983  1.00  0.00    -0.321 N 
BRANCH   9  13
ATOM     13  O   UNL A   1      30.794  25.621  25.593  1.00  0.00    -0.380 OA
ATOM     14  C   UNL A   1      29.821  26.072  24.652  1.00  0.00     0.195 C 
ENDBRANCH   9  13
BRANCH  12  15
ATOM     15  C   UNL A   1      33.109  22.140  23.985  1.00  0.00     0.291 C 
ATOM     16  O   UNL A   1      33.846  22.776  23.229  1.00  0.00    -0.265 OA
BRANCH  15  17
ATOM     17  C   UNL A   1      32.888  20.716  23.802  1.00  0.00     0.214 A 
ATOM     18  N   UNL A   1      33.468  19.741  24.482  1.00  0.00    -0.207 NA
ATOM     19  N   UNL A   1      32.153  20.155  22.796  1.00  0.00    -0.255 N 
ATOM     20  C   UNL A   1      33.006  18.599  23.870  1.00  0.00     0.153 A 
ATOM     21  N   UNL A   1      32.178  18.813  22.842  1.00  0.00    -0.158 NA
ATOM     22  H   UNL A   1      31.662  20.673  22.118  1.00  0.00     0.192 HD
BRANCH  20  23
ATOM     23  C   UNL A   1      33.418  17.221  24.275  1.00  0.00     0.053 C 
ATOM     24  C   UNL A   1      34.930  17.144  24.488  1.00  0.00     0.016 C 
ATOM     25  C   UNL A   1      32.669  16.737  25.515  1.00  0.00     0.016 C 
ENDBRANCH  20  23
ENDBRANCH  15  17
ENDBRANCH  12  15
ENDBRANCH   5   8
ENDBRANCH   3   4
ENDBRANCH   2   3
ENDBRANCH   1   2
BRANCH   1  26
ATOM     26  C   UNL A   1      37.824  20.385  24.913  1.00  0.00     0.002 C 
BRANCH  26  27
ATOM     27  C   UNL A   1      39.161  20.982  25.356  1.00  0.00     0.021 C 
BRANCH  27  28
ATOM     28  C   UNL A   1      39.782  20.305  26.572  1.00  0.00     0.116 C 
BRANCH  28  29
ATOM     29  N   UNL A   1      40.867  19.410  26.202  1.00  0.00    -0.352 N 
ATOM     30  C   UNL A   1      42.178  19.710  25.929  1.00  0.00     0.251 C 
ATOM     31  H   UNL A   1      40.628  18.457  26.138  1.00  0.00     0.163 HD
ATOM     32  O   UNL A   1      42.909  18.858  25.427  1.00  0.00    -0.269 OA
BRANCH  30  33
ATOM     33  C   UNL A   1      42.693  21.065  26.218  1.00  0.00     0.039 A 
ATOM     34  C   UNL A   1      42.904  21.950  25.159  1.00  0.00     0.014 A 
ATOM     35  C   UNL A   1      42.954  21.464  27.532  1.00  0.00     0.014 A 
ATOM     36  C   UNL A   1      43.319  23.256  25.425  1.00  0.00     0.010 A 
ATOM     37  C   UNL A   1      43.291  22.788  27.800  1.00  0.00     0.010 A 
ATOM     38  C   UNL A   1      43.481  23.698  26.749  1.00  0.00    -0.014 A 
BRANCH  38  39
ATOM     39  C   UNL A   1      43.849  25.106  27.050  1.00  0.00     0.031 A 
ATOM     40  C   UNL A   1      45.258  25.583  26.825  1.00  0.00     0.074 A 
ATOM     41  C   UNL A   1      42.928  25.940  27.574  1.00  0.00     0.049 A 
ATOM     42  N   UNL A   1      45.788  26.751  27.085  1.00  0.00    -0.248 NA
ATOM     43  C   UNL A   1      46.202  24.610  26.256  1.00  0.00     0.031 C 
ATOM     44  C   UNL A   1      41.536  25.583  27.866  1.00  0.00     0.029 A 
ATOM     45  N   UNL A   1      43.018  27.254  27.957  1.00  0.00    -0.354 N 
ATOM     46  C   UNL A   1      47.127  26.650  26.721  1.00  0.00     0.074 A 
ATOM     47  C   UNL A   1      47.339  25.287  26.284  1.00  0.00     0.031 C 
ATOM     48  C   UNL A   1      40.898  26.661  28.348  1.00  0.00     0.029 A 
ATOM     49  C   UNL A   1      41.842  27.769  28.453  1.00  0.00     0.049 A 
ATOM     50  H   UNL A   1      43.847  27.780  27.884  1.00  0.00     0.167 HD
ATOM     51  C   UNL A   1      48.083  27.611  26.729  1.00  0.00     0.034 A 
ATOM     52  C   UNL A   1      41.560  28.990  28.950  1.00  0.00     0.034 A 
ATOM     53  C   UNL A   1      47.851  28.969  27.162  1.00  0.00     0.049 A 
ATOM     54  C   UNL A   1      42.653  30.029  28.992  1.00  0.00     0.074 A 
ATOM     55  C   UNL A   1      48.735  30.034  27.165  1.00  0.00     0.029 A 
ATOM     56  N   UNL A   1      46.653  29.448  27.679  1.00  0.00    -0.354 N 
ATOM     57  N   UNL A   1      43.903  29.930  28.602  1.00  0.00    -0.248 NA
ATOM     58  C   UNL A   1      42.294  31.346  29.533  1.00  0.00     0.031 C 
ATOM     59  C   UNL A   1      48.099  31.130  27.756  1.00  0.00     0.029 A 
ATOM     60  C   UNL A   1      46.789  30.780  28.038  1.00  0.00     0.049 A 
ATOM     61  H   UNL A   1      45.829  28.918  27.774  1.00  0.00     0.167 HD
ATOM     62  C   UNL A   1      44.468  31.185  28.817  1.00  0.00     0.074 A 
ATOM     63  C   UNL A   1      43.418  32.024  29.357  1.00  0.00     0.031 C 
ATOM     64  C   UNL A   1      45.737  31.607  28.585  1.00  0.00     0.034 A 
BRANCH  51  65
ATOM     65  C   UNL A   1      49.473  27.219  26.284  1.00  0.00     0.023 A 
ATOM     66  C   UNL A   1      50.496  26.940  27.207  1.00  0.00     0.031 A 
ATOM     67  C   UNL A   1      49.785  27.136  24.915  1.00  0.00     0.131 A 
ATOM     68  C   UNL A   1      51.795  26.665  26.753  1.00  0.00     0.055 A 
ATOM     69  C   UNL A   1      51.058  26.777  24.469  1.00  0.00     0.041 A 
ATOM     70  F   UNL A   1      48.858  27.414  23.984  1.00  0.00    -0.206 F 
ATOM     71  C   UNL A   1      52.076  26.553  25.390  1.00  0.00     0.022 A 
BRANCH  68  72
ATOM     72  S   UNL A   1      53.141  26.604  27.967  1.00  0.00     0.124 S 
ATOM     73  O   UNL A   1      53.965  25.520  27.437  1.00  0.00    -0.237 OA
ATOM     74  O   UNL A   1      53.710  27.943  27.875  1.00  0.00    -0.237 OA
ATOM     75  O   UNL A   1      52.458  26.298  29.222  1.00  0.00    -0.744 OA
ENDBRANCH  68  72
ENDBRANCH  51  65
BRANCH  52  76
ATOM     76  C   UNL A   1      40.192  29.306  29.458  1.00  0.00     0.023 A 
ATOM     77  C   UNL A   1      39.929  29.360  30.836  1.00  0.00     0.031 A 
ATOM     78  C   UNL A   1      39.116  29.506  28.574  1.00  0.00     0.131 A 
ATOM     79  C   UNL A   1      38.616  29.554  31.291  1.00  0.00     0.055 A 
ATOM     80  C   UNL A   1      37.822  29.761  29.032  1.00  0.00     0.041 A 
ATOM     81  F   UNL A   1      39.310  29.466  27.247  1.00  0.00    -0.206 F 
ATOM     82  C   UNL A   1      37.563  29.770  30.400  1.00  0.00     0.022 A 
BRANCH  79  83
ATOM     83  S   UNL A   1      38.285  29.416  33.070  1.00  0.00     0.124 S 
ATOM     84  O   UNL A   1      37.725  30.729  33.369  1.00  0.00    -0.237 OA
ATOM     85  O   UNL A   1      37.353  28.294  33.118  1.00  0.00    -0.237 OA
ATOM     86  O   UNL A   1      39.605  29.153  33.641  1.00  0.00    -0.744 OA
ENDBRANCH  79  83
ENDBRANCH  52  76
BRANCH  64  87
ATOM     87  C   UNL A   1      46.043  33.060  28.865  1.00  0.00     0.023 A 
ATOM     88  C   UNL A   1      45.949  34.045  27.868  1.00  0.00     0.031 A 
ATOM     89  C   UNL A   1      46.444  33.460  30.153  1.00  0.00     0.131 A 
ATOM     90  C   UNL A   1      46.310  35.370  28.158  1.00  0.00     0.055 A 
ATOM     91  C   UNL A   1      46.734  34.791  30.453  1.00  0.00     0.041 A 
ATOM     92  F   UNL A   1      46.556  32.561  31.145  1.00  0.00    -0.206 F 
ATOM     93  C   UNL A   1      46.681  35.753  29.449  1.00  0.00     0.022 A 
BRANCH  90  94
ATOM     94  S   UNL A   1      46.385  36.570  26.800  1.00  0.00     0.124 S 
ATOM     95  O   UNL A   1      47.740  37.096  26.935  1.00  0.00    -0.237 OA
ATOM     96  O   UNL A   1      46.140  35.733  25.630  1.00  0.00    -0.237 OA
ATOM     97  O   UNL A   1      45.317  37.517  27.118  1.00  0.00    -0.744 OA
ENDBRANCH  90  94
ENDBRANCH  64  87
ENDBRANCH  38  39
ENDBRANCH  30  33
ENDBRANCH  28  29
ENDBRANCH  27  28
ENDBRANCH  26  27
ENDBRANCH   1  26
TORSDOF 20
ENDMDL
