MODEL 1
REMARK VINA RESULT:     -11.7      0.000      0.000
REMARK SMILES O=C(NCCCCCCNC(=O)c1cccc(Nc2nc(-c3ccc(F)cc3F)cs2)c1)c1ccc(-c2c3nc(c(-c4cc(S(=O)(=O)[O-])ccc4F)c4ccc([nH]4)c(-c4cc(S(=O)(=O)[O-])ccc4F)c4nc(c(-c5cc(S(=O)(=O)[O-])ccc5F)c5ccc2[nH]5)C=C4)C=C3)cc1
REMARK SMILES IDX 6 1 5 2 4 3 3 4 1 5 2 6 33 8 34 9 95 10 35 11 94 12 36 13
REMARK SMILES IDX 37 14 38 15 88 16 39 17 93 18 87 19 89 20 40 21 92 22 86 23
REMARK SMILES IDX 85 24 41 26 73 27 53 28 72 29 54 30 57 31 71 32 90 33 55 34
REMARK SMILES IDX 56 35 70 37 91 38 58 39 42 40 43 41 51 42 44 43 50 44 52 45
REMARK SMILES IDX 49 46 45 47 46 48 47 49 48 50 74 51 75 52 83 53 76 54 82 55
REMARK SMILES IDX 84 56 81 57 77 58 78 59 79 60 80 61 59 62 60 63 68 64 61 65
REMARK SMILES IDX 67 66 69 67 66 68 62 69 63 70 64 71 65 72 7 73 8 74 9 75
REMARK SMILES IDX 10 76 11 77 12 79 13 80 14 81 32 82 15 83 17 84 16 85 18 86
REMARK SMILES IDX 19 88 20 89 31 90 21 91 30 92 22 93 23 94 28 95 24 96 27 97
REMARK SMILES IDX 29 98 25 99 26 100
REMARK H PARENT 3 7 89 25 57 36 10 78 18 87
REMARK Flexibility Score: inf
ROOT
ATOM      1  C   UNL A   1      40.394  22.129  27.612  1.00  0.00     0.002 C 
ENDROOT
BRANCH   1   2
ATOM      2  C   UNL A   1      40.820  20.664  27.501  1.00  0.00     0.021 C 
BRANCH   2   3
ATOM      3  C   UNL A   1      40.612  20.031  26.132  1.00  0.00     0.116 C 
BRANCH   3   4
ATOM      4  N   UNL A   1      41.796  19.346  25.642  1.00  0.00    -0.352 N 
ATOM      5  O   UNL A   1      43.894  19.167  24.830  1.00  0.00    -0.269 OA
ATOM      6  C   UNL A   1      43.044  19.862  25.381  1.00  0.00     0.251 C 
ATOM      7  H   UNL A   1      41.691  18.381  25.473  1.00  0.00     0.163 HD
BRANCH   6   8
ATOM      8  C   UNL A   1      43.351  21.263  25.750  1.00  0.00     0.039 A 
ATOM      9  C   UNL A   1      43.043  22.312  24.881  1.00  0.00     0.014 A 
ATOM     10  C   UNL A   1      43.950  21.528  26.985  1.00  0.00     0.014 A 
ATOM     11  C   UNL A   1      43.446  23.606  25.188  1.00  0.00     0.010 A 
ATOM     12  C   UNL A   1      44.281  22.843  27.328  1.00  0.00     0.010 A 
ATOM     13  C   UNL A   1      44.052  23.892  26.423  1.00  0.00    -0.014 A 
BRANCH  13  14
ATOM     14  C   UNL A   1      44.360  25.303  26.769  1.00  0.00     0.031 A 
ATOM     15  C   UNL A   1      43.317  26.207  27.368  1.00  0.00     0.074 A 
ATOM     16  C   UNL A   1      45.613  25.754  26.564  1.00  0.00     0.049 A 
ATOM     17  N   UNL A   1      43.427  27.456  27.742  1.00  0.00    -0.248 NA
ATOM     18  C   UNL A   1      41.975  25.639  27.562  1.00  0.00     0.031 C 
ATOM     19  C   UNL A   1      46.703  24.963  25.982  1.00  0.00     0.029 A 
ATOM     20  N   UNL A   1      46.193  26.965  26.834  1.00  0.00    -0.354 N 
ATOM     21  C   UNL A   1      42.172  27.830  28.209  1.00  0.00     0.074 A 
ATOM     22  C   UNL A   1      41.306  26.681  28.036  1.00  0.00     0.031 C 
ATOM     23  C   UNL A   1      47.825  25.694  25.981  1.00  0.00     0.029 A 
ATOM     24  C   UNL A   1      47.526  27.025  26.496  1.00  0.00     0.049 A 
ATOM     25  H   UNL A   1      45.704  27.721  27.232  1.00  0.00     0.167 HD
ATOM     26  C   UNL A   1      41.784  29.019  28.736  1.00  0.00     0.034 A 
ATOM     27  C   UNL A   1      48.405  28.041  26.568  1.00  0.00     0.034 A 
ATOM     28  C   UNL A   1      42.665  30.154  28.896  1.00  0.00     0.049 A 
ATOM     29  C   UNL A   1      47.937  29.360  27.120  1.00  0.00     0.074 A 
ATOM     30  C   UNL A   1      42.381  31.395  29.442  1.00  0.00     0.029 A 
ATOM     31  N   UNL A   1      43.996  30.194  28.501  1.00  0.00    -0.354 N 
ATOM     32  N   UNL A   1      46.748  29.689  27.573  1.00  0.00    -0.248 NA
ATOM     33  C   UNL A   1      48.926  30.441  27.174  1.00  0.00     0.031 C 
ATOM     34  C   UNL A   1      43.519  32.202  29.318  1.00  0.00     0.029 A 
ATOM     35  C   UNL A   1      44.537  31.445  28.762  1.00  0.00     0.049 A 
ATOM     36  H   UNL A   1      44.486  29.443  28.095  1.00  0.00     0.167 HD
ATOM     37  C   UNL A   1      46.854  31.015  27.980  1.00  0.00     0.074 A 
ATOM     38  C   UNL A   1      48.228  31.412  27.745  1.00  0.00     0.031 C 
ATOM     39  C   UNL A   1      45.903  31.833  28.498  1.00  0.00     0.034 A 
BRANCH  26  40
ATOM     40  C   UNL A   1      40.335  29.166  29.137  1.00  0.00     0.023 A 
ATOM     41  C   UNL A   1      39.930  29.144  30.483  1.00  0.00     0.031 A 
ATOM     42  C   UNL A   1      39.341  29.330  28.155  1.00  0.00     0.131 A 
ATOM     43  C   UNL A   1      38.566  29.225  30.807  1.00  0.00     0.055 A 
ATOM     44  C   UNL A   1      37.992  29.481  28.486  1.00  0.00     0.041 A 
ATOM     45  F   UNL A   1      39.663  29.340  26.852  1.00  0.00    -0.206 F 
ATOM     46  C   UNL A   1      37.597  29.417  29.819  1.00  0.00     0.022 A 
BRANCH  43  47
ATOM     47  S   UNL A   1      38.063  28.956  32.529  1.00  0.00     0.124 S 
ATOM     48  O   UNL A   1      36.650  29.328  32.488  1.00  0.00    -0.237 OA
ATOM     49  O   UNL A   1      38.344  27.538  32.722  1.00  0.00    -0.237 OA
ATOM     50  O   UNL A   1      38.918  29.870  33.284  1.00  0.00    -0.744 OA
ENDBRANCH  43  47
ENDBRANCH  26  40
BRANCH  27  51
ATOM     51  C   UNL A   1      49.800  27.866  26.074  1.00  0.00     0.023 A 
ATOM     52  C   UNL A   1      50.154  28.203  24.760  1.00  0.00     0.031 A 
ATOM     53  C   UNL A   1      50.796  27.326  26.909  1.00  0.00     0.131 A 
ATOM     54  C   UNL A   1      51.459  27.958  24.304  1.00  0.00     0.055 A 
ATOM     55  C   UNL A   1      52.106  27.138  26.468  1.00  0.00     0.041 A 
ATOM     56  F   UNL A   1      50.511  26.989  28.177  1.00  0.00    -0.206 F 
ATOM     57  C   UNL A   1      52.440  27.442  25.153  1.00  0.00     0.022 A 
BRANCH  54  58
ATOM     58  S   UNL A   1      51.832  28.244  22.552  1.00  0.00     0.124 S 
ATOM     59  O   UNL A   1      51.551  26.936  21.970  1.00  0.00    -0.237 OA
ATOM     60  O   UNL A   1      50.898  29.311  22.214  1.00  0.00    -0.237 OA
ATOM     61  O   UNL A   1      53.241  28.631  22.564  1.00  0.00    -0.744 OA
ENDBRANCH  54  58
ENDBRANCH  27  51
BRANCH  39  62
ATOM     62  C   UNL A   1      46.342  33.228  28.867  1.00  0.00     0.023 A 
ATOM     63  C   UNL A   1      46.317  34.278  27.932  1.00  0.00     0.031 A 
ATOM     64  C   UNL A   1      46.830  33.500  30.157  1.00  0.00     0.131 A 
ATOM     65  C   UNL A   1      46.832  35.535  28.280  1.00  0.00     0.055 A 
ATOM     66  C   UNL A   1      47.284  34.770  30.516  1.00  0.00     0.041 A 
ATOM     67  F   UNL A   1      46.879  32.534  31.087  1.00  0.00    -0.206 F 
ATOM     68  C   UNL A   1      47.302  35.792  29.571  1.00  0.00     0.022 A 
BRANCH  65  69
ATOM     69  S   UNL A   1      46.976  36.803  26.991  1.00  0.00     0.124 S 
ATOM     70  O   UNL A   1      46.672  36.044  25.783  1.00  0.00    -0.237 OA
ATOM     71  O   UNL A   1      45.973  37.780  27.400  1.00  0.00    -0.237 OA
ATOM     72  O   UNL A   1      48.363  37.254  27.107  1.00  0.00    -0.744 OA
ENDBRANCH  65  69
ENDBRANCH  39  62
ENDBRANCH  13  14
ENDBRANCH   6   8
ENDBRANCH   3   4
ENDBRANCH   2   3
ENDBRANCH   1   2
BRANCH   1  73
ATOM     73  C   UNL A   1      39.656  22.699  26.397  1.00  0.00     0.002 C 
BRANCH  73  74
ATOM     74  C   UNL A   1      38.608  23.777  26.695  1.00  0.00     0.021 C 
BRANCH  74  75
ATOM     75  C   UNL A   1      37.237  23.557  26.054  1.00  0.00     0.116 C 
BRANCH  75  76
ATOM     76  N   UNL A   1      37.310  23.559  24.602  1.00  0.00    -0.352 N 
ATOM     77  C   UNL A   1      36.475  22.963  23.694  1.00  0.00     0.251 C 
ATOM     78  H   UNL A   1      38.066  24.058  24.217  1.00  0.00     0.163 HD
ATOM     79  O   UNL A   1      36.779  22.920  22.505  1.00  0.00    -0.269 OA
BRANCH  77  80
ATOM     80  C   UNL A   1      35.207  22.360  24.145  1.00  0.00     0.041 A 
ATOM     81  C   UNL A   1      35.253  21.163  24.857  1.00  0.00     0.014 A 
ATOM     82  C   UNL A   1      33.978  22.946  23.813  1.00  0.00     0.040 A 
ATOM     83  C   UNL A   1      34.066  20.586  25.297  1.00  0.00     0.003 A 
ATOM     84  C   UNL A   1      32.772  22.362  24.227  1.00  0.00     0.041 A 
ATOM     85  C   UNL A   1      32.841  21.194  24.998  1.00  0.00     0.026 A 
BRANCH  84  86
ATOM     86  N   UNL A   1      31.562  22.979  23.862  1.00  0.00    -0.332 N 
ATOM     87  H   UNL A   1      30.981  22.463  23.257  1.00  0.00     0.169 HD
BRANCH  86  88
ATOM     88  C   UNL A   1      31.093  24.192  24.236  1.00  0.00     0.187 A 
ATOM     89  N   UNL A   1      30.663  25.158  23.451  1.00  0.00    -0.220 NA
ATOM     90  S   UNL A   1      31.023  24.563  25.926  1.00  0.00    -0.105 S 
ATOM     91  C   UNL A   1      30.197  26.217  24.203  1.00  0.00     0.086 A 
ATOM     92  C   UNL A   1      30.384  26.108  25.564  1.00  0.00     0.097 A 
BRANCH  91  93
ATOM     93  C   UNL A   1      29.537  27.353  23.597  1.00  0.00     0.037 A 
ATOM     94  C   UNL A   1      30.282  28.372  22.992  1.00  0.00     0.016 A 
ATOM     95  C   UNL A   1      28.141  27.453  23.640  1.00  0.00     0.135 A 
ATOM     96  C   UNL A   1      29.625  29.482  22.451  1.00  0.00     0.040 A 
ATOM     97  C   UNL A   1      27.484  28.556  23.105  1.00  0.00     0.079 A 
ATOM     98  F   UNL A   1      27.408  26.497  24.228  1.00  0.00    -0.206 F 
ATOM     99  C   UNL A   1      28.236  29.563  22.516  1.00  0.00     0.126 A 
ATOM    100  F   UNL A   1      27.619  30.637  22.007  1.00  0.00    -0.207 F 
ENDBRANCH  91  93
ENDBRANCH  86  88
ENDBRANCH  84  86
ENDBRANCH  77  80
ENDBRANCH  75  76
ENDBRANCH  74  75
ENDBRANCH  73  74
ENDBRANCH   1  73
TORSDOF 19
ENDMDL
MODEL 2
REMARK VINA RESULT:     -11.3      1.383      7.660
REMARK SMILES O=C(NCCCCCCNC(=O)c1cccc(Nc2nc(-c3ccc(F)cc3F)cs2)c1)c1ccc(-c2c3nc(c(-c4cc(S(=O)(=O)[O-])ccc4F)c4ccc([nH]4)c(-c4cc(S(=O)(=O)[O-])ccc4F)c4nc(c(-c5cc(S(=O)(=O)[O-])ccc5F)c5ccc2[nH]5)C=C4)C=C3)cc1
REMARK SMILES IDX 6 1 5 2 4 3 3 4 1 5 2 6 33 8 34 9 95 10 35 11 94 12 36 13
REMARK SMILES IDX 37 14 38 15 88 16 39 17 93 18 87 19 89 20 40 21 92 22 86 23
REMARK SMILES IDX 85 24 41 26 73 27 53 28 72 29 54 30 57 31 71 32 90 33 55 34
REMARK SMILES IDX 56 35 70 37 91 38 58 39 42 40 43 41 51 42 44 43 50 44 52 45
REMARK SMILES IDX 49 46 45 47 46 48 47 49 48 50 74 51 75 52 83 53 76 54 82 55
REMARK SMILES IDX 84 56 81 57 77 58 78 59 79 60 80 61 59 62 60 63 68 64 61 65
REMARK SMILES IDX 67 66 69 67 66 68 62 69 63 70 64 71 65 72 7 73 8 74 9 75
REMARK SMILES IDX 10 76 11 77 12 79 13 80 14 81 32 82 15 83 17 84 16 85 18 86
REMARK SMILES IDX 19 88 20 89 31 90 21 91 30 92 22 93 23 94 28 95 24 96 27 97
REMARK SMILES IDX 29 98 25 99 26 100
REMARK H PARENT 3 7 89 25 57 36 10 78 18 87
REMARK Flexibility Score: inf
ROOT
ATOM      1  C   UNL A   1      40.391  22.216  27.596  1.00  0.00     0.002 C 
ENDROOT
BRANCH   1   2
ATOM      2  C   UNL A   1      40.776  20.739  27.508  1.00  0.00     0.021 C 
BRANCH   2   3
ATOM      3  C   UNL A   1      40.623  20.110  26.130  1.00  0.00     0.116 C 
BRANCH   3   4
ATOM      4  N   UNL A   1      41.836  19.452  25.673  1.00  0.00    -0.352 N 
ATOM      5  O   UNL A   1      43.965  19.319  24.935  1.00  0.00    -0.269 OA
ATOM      6  C   UNL A   1      43.083  19.992  25.465  1.00  0.00     0.251 C 
ATOM      7  H   UNL A   1      41.754  18.488  25.487  1.00  0.00     0.163 HD
BRANCH   6   8
ATOM      8  C   UNL A   1      43.353  21.392  25.864  1.00  0.00     0.039 A 
ATOM      9  C   UNL A   1      43.062  22.448  24.997  1.00  0.00     0.014 A 
ATOM     10  C   UNL A   1      43.900  21.650  27.125  1.00  0.00     0.014 A 
ATOM     11  C   UNL A   1      43.433  23.745  25.338  1.00  0.00     0.010 A 
ATOM     12  C   UNL A   1      44.196  22.965  27.498  1.00  0.00     0.010 A 
ATOM     13  C   UNL A   1      43.985  24.022  26.598  1.00  0.00    -0.014 A 
BRANCH  13  14
ATOM     14  C   UNL A   1      44.256  25.433  26.976  1.00  0.00     0.031 A 
ATOM     15  C   UNL A   1      45.617  26.046  26.787  1.00  0.00     0.074 A 
ATOM     16  C   UNL A   1      43.241  26.171  27.466  1.00  0.00     0.049 A 
ATOM     17  N   UNL A   1      46.014  27.265  27.049  1.00  0.00    -0.248 NA
ATOM     18  C   UNL A   1      46.670  25.175  26.244  1.00  0.00     0.031 C 
ATOM     19  C   UNL A   1      41.880  25.675  27.698  1.00  0.00     0.029 A 
ATOM     20  N   UNL A   1      43.179  27.488  27.840  1.00  0.00    -0.354 N 
ATOM     21  C   UNL A   1      47.363  27.310  26.712  1.00  0.00     0.074 A 
ATOM     22  C   UNL A   1      47.722  25.982  26.259  1.00  0.00     0.031 C 
ATOM     23  C   UNL A   1      41.111  26.683  28.129  1.00  0.00     0.029 A 
ATOM     24  C   UNL A   1      41.932  27.880  28.272  1.00  0.00     0.049 A 
ATOM     25  H   UNL A   1      43.952  28.096  27.803  1.00  0.00     0.167 HD
ATOM     26  C   UNL A   1      48.216  28.365  26.772  1.00  0.00     0.034 A 
ATOM     27  C   UNL A   1      41.501  29.060  28.753  1.00  0.00     0.034 A 
ATOM     28  C   UNL A   1      47.836  29.682  27.230  1.00  0.00     0.049 A 
ATOM     29  C   UNL A   1      42.477  30.200  28.844  1.00  0.00     0.074 A 
ATOM     30  C   UNL A   1      48.613  30.827  27.305  1.00  0.00     0.029 A 
ATOM     31  N   UNL A   1      46.576  30.031  27.703  1.00  0.00    -0.354 N 
ATOM     32  N   UNL A   1      43.746  30.228  28.504  1.00  0.00    -0.248 NA
ATOM     33  C   UNL A   1      41.966  31.466  29.380  1.00  0.00     0.031 C 
ATOM     34  C   UNL A   1      47.843  31.845  27.882  1.00  0.00     0.029 A 
ATOM     35  C   UNL A   1      46.564  31.361  28.099  1.00  0.00     0.049 A 
ATOM     36  H   UNL A   1      45.804  29.423  27.749  1.00  0.00     0.167 HD
ATOM     37  C   UNL A   1      44.179  31.523  28.772  1.00  0.00     0.074 A 
ATOM     38  C   UNL A   1      43.029  32.248  29.274  1.00  0.00     0.031 C 
ATOM     39  C   UNL A   1      45.415  32.063  28.621  1.00  0.00     0.034 A 
BRANCH  26  40
ATOM     40  C   UNL A   1      49.652  28.125  26.372  1.00  0.00     0.023 A 
ATOM     41  C   UNL A   1      50.109  28.362  25.063  1.00  0.00     0.031 A 
ATOM     42  C   UNL A   1      50.581  27.650  27.316  1.00  0.00     0.131 A 
ATOM     43  C   UNL A   1      51.440  28.070  24.721  1.00  0.00     0.055 A 
ATOM     44  C   UNL A   1      51.920  27.427  26.987  1.00  0.00     0.041 A 
ATOM     45  F   UNL A   1      50.200  27.386  28.575  1.00  0.00    -0.206 F 
ATOM     46  C   UNL A   1      52.353  27.626  25.680  1.00  0.00     0.022 A 
BRANCH  43  47
ATOM     47  S   UNL A   1      51.930  28.162  22.976  1.00  0.00     0.124 S 
ATOM     48  O   UNL A   1      51.478  29.503  22.611  1.00  0.00    -0.237 OA
ATOM     49  O   UNL A   1      53.373  27.971  23.043  1.00  0.00    -0.237 OA
ATOM     50  O   UNL A   1      51.184  27.071  22.352  1.00  0.00    -0.744 OA
ENDBRANCH  43  47
ENDBRANCH  26  40
BRANCH  27  51
ATOM     51  C   UNL A   1      40.093  29.214  29.217  1.00  0.00     0.023 A 
ATOM     52  C   UNL A   1      39.764  29.142  30.578  1.00  0.00     0.031 A 
ATOM     53  C   UNL A   1      39.048  29.405  28.294  1.00  0.00     0.131 A 
ATOM     54  C   UNL A   1      38.420  29.219  30.977  1.00  0.00     0.055 A 
ATOM     55  C   UNL A   1      37.720  29.537  28.700  1.00  0.00     0.041 A 
ATOM     56  F   UNL A   1      39.308  29.483  26.979  1.00  0.00    -0.206 F 
ATOM     57  C   UNL A   1      37.399  29.431  30.049  1.00  0.00     0.022 A 
BRANCH  54  58
ATOM     58  S   UNL A   1      38.019  28.949  32.725  1.00  0.00     0.124 S 
ATOM     59  O   UNL A   1      39.037  29.750  33.393  1.00  0.00    -0.237 OA
ATOM     60  O   UNL A   1      36.652  29.451  32.802  1.00  0.00    -0.237 OA
ATOM     61  O   UNL A   1      38.160  27.503  32.885  1.00  0.00    -0.744 OA
ENDBRANCH  54  58
ENDBRANCH  27  51
BRANCH  39  62
ATOM     62  C   UNL A   1      45.562  33.521  28.983  1.00  0.00     0.023 A 
ATOM     63  C   UNL A   1      45.930  33.924  30.279  1.00  0.00     0.031 A 
ATOM     64  C   UNL A   1      45.289  34.518  28.030  1.00  0.00     0.131 A 
ATOM     65  C   UNL A   1      45.953  35.287  30.606  1.00  0.00     0.055 A 
ATOM     66  C   UNL A   1      45.374  35.875  28.345  1.00  0.00     0.041 A 
ATOM     67  F   UNL A   1      44.930  34.188  26.779  1.00  0.00    -0.206 F 
ATOM     68  C   UNL A   1      45.691  36.266  29.643  1.00  0.00     0.022 A 
BRANCH  65  69
ATOM     69  S   UNL A   1      46.228  35.763  32.334  1.00  0.00     0.124 S 
ATOM     70  O   UNL A   1      44.897  36.199  32.744  1.00  0.00    -0.237 OA
ATOM     71  O   UNL A   1      46.703  34.519  32.928  1.00  0.00    -0.237 OA
ATOM     72  O   UNL A   1      47.227  36.827  32.242  1.00  0.00    -0.744 OA
ENDBRANCH  65  69
ENDBRANCH  39  62
ENDBRANCH  13  14
ENDBRANCH   6   8
ENDBRANCH   3   4
ENDBRANCH   2   3
ENDBRANCH   1   2
BRANCH   1  73
ATOM     73  C   UNL A   1      39.623  22.773  26.394  1.00  0.00     0.002 C 
BRANCH  73  74
ATOM     74  C   UNL A   1      38.625  23.898  26.699  1.00  0.00     0.021 C 
BRANCH  74  75
ATOM     75  C   UNL A   1      37.223  23.706  26.122  1.00  0.00     0.116 C 
BRANCH  75  76
ATOM     76  N   UNL A   1      37.233  23.667  24.669  1.00  0.00    -0.352 N 
ATOM     77  C   UNL A   1      36.374  23.027  23.816  1.00  0.00     0.251 C 
ATOM     78  H   UNL A   1      37.961  24.171  24.238  1.00  0.00     0.163 HD
ATOM     79  O   UNL A   1      36.627  22.956  22.616  1.00  0.00    -0.269 OA
BRANCH  77  80
ATOM     80  C   UNL A   1      35.140  22.410  24.338  1.00  0.00     0.041 A 
ATOM     81  C   UNL A   1      35.199  21.103  24.818  1.00  0.00     0.014 A 
ATOM     82  C   UNL A   1      33.921  23.102  24.298  1.00  0.00     0.040 A 
ATOM     83  C   UNL A   1      34.046  20.511  25.322  1.00  0.00     0.003 A 
ATOM     84  C   UNL A   1      32.746  22.508  24.778  1.00  0.00     0.041 A 
ATOM     85  C   UNL A   1      32.837  21.217  25.317  1.00  0.00     0.026 A 
BRANCH  84  86
ATOM     86  N   UNL A   1      31.543  23.234  24.708  1.00  0.00    -0.332 N 
ATOM     87  H   UNL A   1      30.721  22.699  24.630  1.00  0.00     0.169 HD
BRANCH  86  88
ATOM     88  C   UNL A   1      31.373  24.577  24.733  1.00  0.00     0.187 A 
ATOM     89  N   UNL A   1      30.758  25.320  23.836  1.00  0.00    -0.220 NA
ATOM     90  S   UNL A   1      32.007  25.463  26.078  1.00  0.00    -0.105 S 
ATOM     91  C   UNL A   1      30.724  26.638  24.245  1.00  0.00     0.086 A 
ATOM     92  C   UNL A   1      31.421  26.919  25.400  1.00  0.00     0.097 A 
BRANCH  91  93
ATOM     93  C   UNL A   1      29.986  27.645  23.516  1.00  0.00     0.037 A 
ATOM     94  C   UNL A   1      30.655  28.675  22.844  1.00  0.00     0.016 A 
ATOM     95  C   UNL A   1      28.586  27.612  23.505  1.00  0.00     0.135 A 
ATOM     96  C   UNL A   1      29.919  29.662  22.182  1.00  0.00     0.040 A 
ATOM     97  C   UNL A   1      27.850  28.593  22.849  1.00  0.00     0.079 A 
ATOM     98  F   UNL A   1      27.923  26.645  24.155  1.00  0.00    -0.206 F 
ATOM     99  C   UNL A   1      28.527  29.613  22.195  1.00  0.00     0.126 A 
ATOM    100  F   UNL A   1      27.832  30.572  21.569  1.00  0.00    -0.207 F 
ENDBRANCH  91  93
ENDBRANCH  86  88
ENDBRANCH  84  86
ENDBRANCH  77  80
ENDBRANCH  75  76
ENDBRANCH  74  75
ENDBRANCH  73  74
ENDBRANCH   1  73
TORSDOF 19
ENDMDL
MODEL 3
REMARK VINA RESULT:     -11.1      5.312     10.995
REMARK SMILES O=C(NCCCCCCNC(=O)c1cccc(Nc2nc(-c3ccc(F)cc3F)cs2)c1)c1ccc(-c2c3nc(c(-c4cc(S(=O)(=O)[O-])ccc4F)c4ccc([nH]4)c(-c4cc(S(=O)(=O)[O-])ccc4F)c4nc(c(-c5cc(S(=O)(=O)[O-])ccc5F)c5ccc2[nH]5)C=C4)C=C3)cc1
REMARK SMILES IDX 6 1 5 2 4 3 3 4 1 5 2 6 33 8 34 9 95 10 35 11 94 12 36 13
REMARK SMILES IDX 37 14 38 15 88 16 39 17 93 18 87 19 89 20 40 21 92 22 86 23
REMARK SMILES IDX 85 24 41 26 73 27 53 28 72 29 54 30 57 31 71 32 90 33 55 34
REMARK SMILES IDX 56 35 70 37 91 38 58 39 42 40 43 41 51 42 44 43 50 44 52 45
REMARK SMILES IDX 49 46 45 47 46 48 47 49 48 50 74 51 75 52 83 53 76 54 82 55
REMARK SMILES IDX 84 56 81 57 77 58 78 59 79 60 80 61 59 62 60 63 68 64 61 65
REMARK SMILES IDX 67 66 69 67 66 68 62 69 63 70 64 71 65 72 7 73 8 74 9 75
REMARK SMILES IDX 10 76 11 77 12 79 13 80 14 81 32 82 15 83 17 84 16 85 18 86
REMARK SMILES IDX 19 88 20 89 31 90 21 91 30 92 22 93 23 94 28 95 24 96 27 97
REMARK SMILES IDX 29 98 25 99 26 100
REMARK H PARENT 3 7 89 25 57 36 10 78 18 87
REMARK Flexibility Score: inf
ROOT
ATOM      1  C   UNL A   1      42.664  22.719  26.349  1.00  0.00     0.002 C 
ENDROOT
BRANCH   1   2
ATOM      2  C   UNL A   1      42.114  21.462  27.024  1.00  0.00     0.021 C 
BRANCH   2   3
ATOM      3  C   UNL A   1      40.768  21.634  27.716  1.00  0.00     0.116 C 
BRANCH   3   4
ATOM      4  N   UNL A   1      39.664  21.755  26.779  1.00  0.00    -0.352 N 
ATOM      5  O   UNL A   1      37.959  22.779  25.713  1.00  0.00    -0.269 OA
ATOM      6  C   UNL A   1      38.963  22.880  26.413  1.00  0.00     0.251 C 
ATOM      7  H   UNL A   1      39.378  20.917  26.347  1.00  0.00     0.163 HD
BRANCH   6   8
ATOM      8  C   UNL A   1      39.414  24.210  26.883  1.00  0.00     0.039 A 
ATOM      9  C   UNL A   1      40.004  25.115  25.998  1.00  0.00     0.014 A 
ATOM     10  C   UNL A   1      39.237  24.557  28.226  1.00  0.00     0.014 A 
ATOM     11  C   UNL A   1      40.531  26.309  26.478  1.00  0.00     0.010 A 
ATOM     12  C   UNL A   1      39.694  25.795  28.690  1.00  0.00     0.010 A 
ATOM     13  C   UNL A   1      40.365  26.673  27.824  1.00  0.00    -0.014 A 
BRANCH  13  14
ATOM     14  C   UNL A   1      40.832  28.008  28.276  1.00  0.00     0.031 A 
ATOM     15  C   UNL A   1      42.288  28.384  28.235  1.00  0.00     0.074 A 
ATOM     16  C   UNL A   1      39.913  28.898  28.700  1.00  0.00     0.049 A 
ATOM     17  N   UNL A   1      42.858  29.511  28.576  1.00  0.00    -0.248 NA
ATOM     18  C   UNL A   1      43.227  27.358  27.757  1.00  0.00     0.031 C 
ATOM     19  C   UNL A   1      38.472  28.637  28.788  1.00  0.00     0.029 A 
ATOM     20  N   UNL A   1      40.037  30.198  29.115  1.00  0.00    -0.354 N 
ATOM     21  C   UNL A   1      44.221  29.333  28.365  1.00  0.00     0.074 A 
ATOM     22  C   UNL A   1      44.393  27.973  27.897  1.00  0.00     0.031 C 
ATOM     23  C   UNL A   1      37.846  29.753  29.185  1.00  0.00     0.029 A 
ATOM     24  C   UNL A   1      38.839  30.788  29.447  1.00  0.00     0.049 A 
ATOM     25  H   UNL A   1      40.902  30.667  29.171  1.00  0.00     0.167 HD
ATOM     26  C   UNL A   1      45.229  30.225  28.540  1.00  0.00     0.034 A 
ATOM     27  C   UNL A   1      38.568  32.014  29.929  1.00  0.00     0.034 A 
ATOM     28  C   UNL A   1      45.033  31.578  29.011  1.00  0.00     0.049 A 
ATOM     29  C   UNL A   1      39.709  32.968  30.151  1.00  0.00     0.074 A 
ATOM     30  C   UNL A   1      45.981  32.571  29.198  1.00  0.00     0.029 A 
ATOM     31  N   UNL A   1      43.811  32.126  29.380  1.00  0.00    -0.354 N 
ATOM     32  N   UNL A   1      40.991  32.787  29.928  1.00  0.00    -0.248 NA
ATOM     33  C   UNL A   1      39.369  34.291  30.684  1.00  0.00     0.031 C 
ATOM     34  C   UNL A   1      45.342  33.693  29.740  1.00  0.00     0.029 A 
ATOM     35  C   UNL A   1      43.984  33.430  29.822  1.00  0.00     0.049 A 
ATOM     36  H   UNL A   1      42.947  31.658  29.333  1.00  0.00     0.167 HD
ATOM     37  C   UNL A   1      41.608  33.983  30.282  1.00  0.00     0.074 A 
ATOM     38  C   UNL A   1      40.554  34.883  30.704  1.00  0.00     0.031 C 
ATOM     39  C   UNL A   1      42.926  34.307  30.264  1.00  0.00     0.034 A 
BRANCH  26  40
ATOM     40  C   UNL A   1      46.636  29.752  28.263  1.00  0.00     0.023 A 
ATOM     41  C   UNL A   1      47.478  29.283  29.286  1.00  0.00     0.031 A 
ATOM     42  C   UNL A   1      47.146  29.773  26.952  1.00  0.00     0.131 A 
ATOM     43  C   UNL A   1      48.799  28.908  28.992  1.00  0.00     0.055 A 
ATOM     44  C   UNL A   1      48.438  29.333  26.654  1.00  0.00     0.041 A 
ATOM     45  F   UNL A   1      46.398  30.229  25.935  1.00  0.00    -0.206 F 
ATOM     46  C   UNL A   1      49.277  28.908  27.680  1.00  0.00     0.022 A 
BRANCH  43  47
ATOM     47  S   UNL A   1      49.924  28.534  30.366  1.00  0.00     0.124 S 
ATOM     48  O   UNL A   1      50.668  29.786  30.490  1.00  0.00    -0.237 OA
ATOM     49  O   UNL A   1      49.004  28.229  31.454  1.00  0.00    -0.237 OA
ATOM     50  O   UNL A   1      50.705  27.401  29.873  1.00  0.00    -0.744 OA
ENDBRANCH  43  47
ENDBRANCH  26  40
BRANCH  27  51
ATOM     51  C   UNL A   1      37.168  32.396  30.270  1.00  0.00     0.023 A 
ATOM     52  C   UNL A   1      36.306  32.935  29.303  1.00  0.00     0.031 A 
ATOM     53  C   UNL A   1      36.683  32.255  31.583  1.00  0.00     0.131 A 
ATOM     54  C   UNL A   1      35.017  33.352  29.673  1.00  0.00     0.055 A 
ATOM     55  C   UNL A   1      35.382  32.618  31.932  1.00  0.00     0.041 A 
ATOM     56  F   UNL A   1      37.466  31.742  32.546  1.00  0.00    -0.206 F 
ATOM     57  C   UNL A   1      34.546  33.183  30.976  1.00  0.00     0.022 A 
BRANCH  54  58
ATOM     58  S   UNL A   1      33.996  34.202  28.439  1.00  0.00     0.124 S 
ATOM     59  O   UNL A   1      33.067  33.149  28.044  1.00  0.00    -0.237 OA
ATOM     60  O   UNL A   1      33.431  35.298  29.218  1.00  0.00    -0.237 OA
ATOM     61  O   UNL A   1      34.960  34.599  27.415  1.00  0.00    -0.744 OA
ENDBRANCH  54  58
ENDBRANCH  27  51
BRANCH  39  62
ATOM     62  C   UNL A   1      43.280  35.710  30.691  1.00  0.00     0.023 A 
ATOM     63  C   UNL A   1      43.398  36.755  29.756  1.00  0.00     0.031 A 
ATOM     64  C   UNL A   1      43.542  35.996  32.042  1.00  0.00     0.131 A 
ATOM     65  C   UNL A   1      43.832  38.021  30.176  1.00  0.00     0.055 A 
ATOM     66  C   UNL A   1      43.914  37.274  32.462  1.00  0.00     0.041 A 
ATOM     67  F   UNL A   1      43.447  35.035  32.974  1.00  0.00    -0.206 F 
ATOM     68  C   UNL A   1      44.076  38.291  31.525  1.00  0.00     0.022 A 
BRANCH  65  69
ATOM     69  S   UNL A   1      44.173  39.284  28.920  1.00  0.00     0.124 S 
ATOM     70  O   UNL A   1      43.294  40.372  29.337  1.00  0.00    -0.237 OA
ATOM     71  O   UNL A   1      45.602  39.517  29.091  1.00  0.00    -0.237 OA
ATOM     72  O   UNL A   1      43.797  38.631  27.666  1.00  0.00    -0.744 OA
ENDBRANCH  65  69
ENDBRANCH  39  62
ENDBRANCH  13  14
ENDBRANCH   6   8
ENDBRANCH   3   4
ENDBRANCH   2   3
ENDBRANCH   1   2
BRANCH   1  73
ATOM     73  C   UNL A   1      43.531  22.481  25.109  1.00  0.00     0.002 C 
BRANCH  73  74
ATOM     74  C   UNL A   1      44.704  21.510  25.288  1.00  0.00     0.021 C 
BRANCH  74  75
ATOM     75  C   UNL A   1      46.055  22.159  25.591  1.00  0.00     0.116 C 
BRANCH  75  76
ATOM     76  N   UNL A   1      46.247  23.389  24.840  1.00  0.00    -0.352 N 
ATOM     77  C   UNL A   1      46.440  24.663  25.303  1.00  0.00     0.251 C 
ATOM     78  H   UNL A   1      46.236  23.292  23.860  1.00  0.00     0.163 HD
ATOM     79  O   UNL A   1      46.414  25.616  24.529  1.00  0.00    -0.269 OA
BRANCH  77  80
ATOM     80  C   UNL A   1      46.671  24.897  26.741  1.00  0.00     0.041 A 
ATOM     81  C   UNL A   1      47.943  25.286  27.158  1.00  0.00     0.014 A 
ATOM     82  C   UNL A   1      45.650  24.676  27.675  1.00  0.00     0.040 A 
ATOM     83  C   UNL A   1      48.175  25.518  28.509  1.00  0.00     0.003 A 
ATOM     84  C   UNL A   1      45.877  24.881  29.044  1.00  0.00     0.041 A 
ATOM     85  C   UNL A   1      47.143  25.335  29.437  1.00  0.00     0.026 A 
BRANCH  84  86
ATOM     86  N   UNL A   1      44.827  24.636  29.947  1.00  0.00    -0.332 N 
ATOM     87  H   UNL A   1      44.317  23.807  29.800  1.00  0.00     0.169 HD
BRANCH  86  88
ATOM     88  C   UNL A   1      44.427  25.396  30.993  1.00  0.00     0.187 A 
ATOM     89  N   UNL A   1      43.855  26.581  30.946  1.00  0.00    -0.220 NA
ATOM     90  S   UNL A   1      44.663  24.782  32.595  1.00  0.00    -0.105 S 
ATOM     91  C   UNL A   1      43.527  27.008  32.217  1.00  0.00     0.086 A 
ATOM     92  C   UNL A   1      43.959  26.199  33.245  1.00  0.00     0.097 A 
BRANCH  91  93
ATOM     93  C   UNL A   1      42.762  28.214  32.444  1.00  0.00     0.037 A 
ATOM     94  C   UNL A   1      41.450  28.147  32.929  1.00  0.00     0.016 A 
ATOM     95  C   UNL A   1      43.323  29.462  32.147  1.00  0.00     0.135 A 
ATOM     96  C   UNL A   1      40.714  29.323  33.100  1.00  0.00     0.040 A 
ATOM     97  C   UNL A   1      42.594  30.635  32.314  1.00  0.00     0.079 A 
ATOM     98  F   UNL A   1      44.571  29.550  31.666  1.00  0.00    -0.206 F 
ATOM     99  C   UNL A   1      41.292  30.552  32.787  1.00  0.00     0.126 A 
ATOM    100  F   UNL A   1      40.573  31.672  32.942  1.00  0.00    -0.207 F 
ENDBRANCH  91  93
ENDBRANCH  86  88
ENDBRANCH  84  86
ENDBRANCH  77  80
ENDBRANCH  75  76
ENDBRANCH  74  75
ENDBRANCH  73  74
ENDBRANCH   1  73
TORSDOF 19
ENDMDL
