MODEL 1
REMARK VINA RESULT:     -14.7      0.000      0.000
REMARK SMILES Cc1ccc([C@@]23C[C@@H]4C[C@@H](C[C@@](C(=O)N5CCC(C(=O)NCCCCCCNC(=O)c6ccc(-c7c8nc(c(-c9cc(S(=O)(=O)[O-])ccc9F)c9ccc([nH]9)c(-c9cc(S(=O)(=O)[O-])ccc9F)c9nc(c(-c%10cc(S(=O)(=O)[O-])ccc%10F)c%10ccc7[nH]%10)C=C9)C=C8)cc6)CC5)(C4)C2)C3)cc1
REMARK SMILES IDX 25 1 24 2 23 3 22 4 21 5 19 6 20 7 18 9 13 10 14 11 15 12
REMARK SMILES IDX 16 13 95 14 17 15 94 16 12 17 6 18 7 19 97 20 98 21 8 22
REMARK SMILES IDX 10 23 9 24 96 25 11 26 5 27 1 28 2 29 3 30 100 31 4 32 99 33
REMARK SMILES IDX 26 34 27 35 28 36 29 37 30 39 31 40 32 41 93 42 33 43 92 44
REMARK SMILES IDX 34 45 35 46 36 47 86 48 37 49 91 50 85 51 87 52 38 53 90 54
REMARK SMILES IDX 84 55 83 56 39 58 71 59 51 60 70 61 52 62 55 63 69 64 88 65
REMARK SMILES IDX 53 66 54 67 68 69 89 70 56 71 40 72 41 73 49 74 42 75 48 76
REMARK SMILES IDX 50 77 47 78 43 79 44 80 45 81 46 82 72 83 73 84 81 85 74 86
REMARK SMILES IDX 80 87 82 88 79 89 75 90 76 91 77 92 78 93 57 94 58 95 66 96
REMARK SMILES IDX 59 97 65 98 67 99 64 100 60 101 61 102 62 103 63 104
REMARK H PARENT 21 8 28 38 87 57 55 68
REMARK Flexibility Score: inf
ROOT
ATOM      1  C   UNL A   1      31.841  30.324  26.720  1.00  0.00     0.002 C 
ENDROOT
BRANCH   1   2
ATOM      2  C   UNL A   1      31.644  29.995  25.231  1.00  0.00     0.002 C 
BRANCH   2   3
ATOM      3  C   UNL A   1      30.355  30.506  24.580  1.00  0.00     0.021 C 
BRANCH   3   4
ATOM      4  C   UNL A   1      29.985  29.844  23.257  1.00  0.00     0.116 C 
BRANCH   4   5
ATOM      5  N   UNL A   1      29.403  28.522  23.428  1.00  0.00    -0.356 N 
ATOM      6  C   UNL A   1      29.976  27.287  23.412  1.00  0.00     0.223 C 
ATOM      7  O   UNL A   1      29.286  26.308  23.707  1.00  0.00    -0.275 OA
ATOM      8  H   UNL A   1      28.431  28.519  23.582  1.00  0.00     0.163 HD
BRANCH   6   9
ATOM      9  C   UNL A   1      31.436  27.092  23.031  1.00  0.00     0.082 C 
ATOM     10  C   UNL A   1      33.642  23.763  22.663  1.00  0.00     0.228 C 
ATOM     11  O   UNL A   1      33.163  23.093  21.742  1.00  0.00    -0.274 OA
ATOM     12  N   UNL A   1      33.501  25.151  22.668  1.00  0.00    -0.342 N 
ATOM     13  C   UNL A   1      32.990  25.807  21.471  1.00  0.00     0.120 C 
ATOM     14  C   UNL A   1      33.625  26.071  23.799  1.00  0.00     0.120 C 
ATOM     15  C   UNL A   1      31.580  26.325  21.705  1.00  0.00     0.035 C 
ATOM     16  C   UNL A   1      32.244  26.547  24.221  1.00  0.00     0.035 C 
BRANCH  10  17
ATOM     17  C   UNL A   1      34.479  23.063  23.759  1.00  0.00     0.051 C 
ATOM     18  C   UNL A   1      34.735  20.793  24.956  1.00  0.00    -0.003 C 
ATOM     19  C   UNL A   1      36.247  20.880  24.586  1.00  0.00     0.015 C 
ATOM     20  C   UNL A   1      33.966  21.618  23.900  1.00  0.00     0.028 C 
ATOM     21  C   UNL A   1      34.515  21.492  26.322  1.00  0.00     0.015 C 
ATOM     22  C   UNL A   1      36.749  22.338  24.582  1.00  0.00    -0.009 C 
ATOM     23  C   UNL A   1      34.993  22.958  26.262  1.00  0.00    -0.009 C 
ATOM     24  C   UNL A   1      36.497  22.974  25.956  1.00  0.00     0.007 C 
ATOM     25  C   UNL A   1      35.998  23.144  23.513  1.00  0.00     0.020 C 
ATOM     26  C   UNL A   1      34.236  23.723  25.154  1.00  0.00     0.020 C 
BRANCH  18  27
ATOM     27  C   UNL A   1      34.246  19.332  24.987  1.00  0.00    -0.042 A 
ATOM     28  C   UNL A   1      32.943  15.200  25.307  1.00  0.00     0.044 C 
ATOM     29  C   UNL A   1      33.366  16.632  25.173  1.00  0.00    -0.051 A 
ATOM     30  C   UNL A   1      34.621  16.932  24.651  1.00  0.00     0.004 A 
ATOM     31  C   UNL A   1      32.540  17.682  25.579  1.00  0.00     0.004 A 
ATOM     32  C   UNL A   1      35.047  18.258  24.553  1.00  0.00     0.004 A 
ATOM     33  C   UNL A   1      32.971  19.012  25.483  1.00  0.00     0.004 A 
ENDBRANCH  18  27
ENDBRANCH  10  17
ENDBRANCH   6   9
ENDBRANCH   4   5
ENDBRANCH   3   4
ENDBRANCH   2   3
ENDBRANCH   1   2
BRANCH   1  34
ATOM     34  C   UNL A   1      33.012  31.247  27.058  1.00  0.00     0.021 C 
BRANCH  34  35
ATOM     35  C   UNL A   1      34.123  30.582  27.863  1.00  0.00     0.116 C 
BRANCH  35  36
ATOM     36  N   UNL A   1      34.798  31.464  28.804  1.00  0.00    -0.352 N 
ATOM     37  C   UNL A   1      35.970  31.238  29.519  1.00  0.00     0.251 C 
ATOM     38  H   UNL A   1      34.368  32.337  28.954  1.00  0.00     0.163 HD
ATOM     39  O   UNL A   1      36.383  32.026  30.336  1.00  0.00    -0.269 OA
BRANCH  37  40
ATOM     40  C   UNL A   1      36.781  30.045  29.158  1.00  0.00     0.039 A 
ATOM     41  C   UNL A   1      37.047  29.126  30.179  1.00  0.00     0.014 A 
ATOM     42  C   UNL A   1      37.448  29.958  27.940  1.00  0.00     0.014 A 
ATOM     43  C   UNL A   1      38.138  28.268  30.061  1.00  0.00     0.010 A 
ATOM     44  C   UNL A   1      38.584  29.170  27.856  1.00  0.00     0.010 A 
ATOM     45  C   UNL A   1      38.966  28.373  28.941  1.00  0.00    -0.014 A 
BRANCH  45  46
ATOM     46  C   UNL A   1      40.322  27.831  28.917  1.00  0.00     0.031 A 
ATOM     47  C   UNL A   1      40.608  26.453  28.470  1.00  0.00     0.074 A 
ATOM     48  C   UNL A   1      41.364  28.592  29.321  1.00  0.00     0.049 A 
ATOM     49  N   UNL A   1      41.565  25.728  28.950  1.00  0.00    -0.248 NA
ATOM     50  C   UNL A   1      39.818  25.769  27.454  1.00  0.00     0.031 C 
ATOM     51  C   UNL A   1      42.786  28.298  29.164  1.00  0.00     0.029 A 
ATOM     52  N   UNL A   1      41.335  29.681  30.179  1.00  0.00    -0.354 N 
ATOM     53  C   UNL A   1      41.716  24.645  28.118  1.00  0.00     0.074 A 
ATOM     54  C   UNL A   1      40.554  24.670  27.256  1.00  0.00     0.031 C 
ATOM     55  C   UNL A   1      43.478  29.002  30.073  1.00  0.00     0.029 A 
ATOM     56  C   UNL A   1      42.520  29.681  30.926  1.00  0.00     0.049 A 
ATOM     57  H   UNL A   1      40.608  30.340  30.250  1.00  0.00     0.167 HD
ATOM     58  C   UNL A   1      42.878  23.933  28.121  1.00  0.00     0.034 A 
ATOM     59  C   UNL A   1      42.509  29.653  32.290  1.00  0.00     0.034 A 
ATOM     60  C   UNL A   1      43.864  24.470  29.056  1.00  0.00     0.049 A 
ATOM     61  C   UNL A   1      43.232  28.463  32.879  1.00  0.00     0.074 A 
ATOM     62  C   UNL A   1      44.997  25.248  28.876  1.00  0.00     0.029 A 
ATOM     63  N   UNL A   1      43.628  24.435  30.425  1.00  0.00    -0.354 N 
ATOM     64  N   UNL A   1      43.583  27.410  32.196  1.00  0.00    -0.248 NA
ATOM     65  C   UNL A   1      43.584  28.348  34.291  1.00  0.00     0.031 C 
ATOM     66  C   UNL A   1      45.440  25.688  30.148  1.00  0.00     0.029 A 
ATOM     67  C   UNL A   1      44.583  25.170  31.102  1.00  0.00     0.049 A 
ATOM     68  H   UNL A   1      42.883  23.954  30.853  1.00  0.00     0.167 HD
ATOM     69  C   UNL A   1      44.160  26.482  33.030  1.00  0.00     0.074 A 
ATOM     70  C   UNL A   1      44.158  27.132  34.329  1.00  0.00     0.031 C 
ATOM     71  C   UNL A   1      44.568  25.263  32.557  1.00  0.00     0.034 A 
BRANCH  58  72
ATOM     72  C   UNL A   1      43.231  22.950  27.029  1.00  0.00     0.023 A 
ATOM     73  C   UNL A   1      42.695  21.645  27.063  1.00  0.00     0.031 A 
ATOM     74  C   UNL A   1      44.102  23.221  25.959  1.00  0.00     0.131 A 
ATOM     75  C   UNL A   1      43.114  20.655  26.157  1.00  0.00     0.055 A 
ATOM     76  C   UNL A   1      44.564  22.224  25.088  1.00  0.00     0.041 A 
ATOM     77  F   UNL A   1      44.516  24.470  25.699  1.00  0.00    -0.206 F 
ATOM     78  C   UNL A   1      44.083  20.927  25.197  1.00  0.00     0.022 A 
BRANCH  75  79
ATOM     79  S   UNL A   1      42.370  19.004  26.258  1.00  0.00     0.124 S 
ATOM     80  O   UNL A   1      43.237  18.218  25.386  1.00  0.00    -0.237 OA
ATOM     81  O   UNL A   1      42.455  18.714  27.684  1.00  0.00    -0.237 OA
ATOM     82  O   UNL A   1      41.014  19.211  25.751  1.00  0.00    -0.744 OA
ENDBRANCH  75  79
ENDBRANCH  58  72
BRANCH  59  83
ATOM     83  C   UNL A   1      41.319  30.327  32.883  1.00  0.00     0.023 A 
ATOM     84  C   UNL A   1      41.329  31.738  32.900  1.00  0.00     0.031 A 
ATOM     85  C   UNL A   1      40.088  29.676  33.032  1.00  0.00     0.131 A 
ATOM     86  C   UNL A   1      40.125  32.453  32.874  1.00  0.00     0.055 A 
ATOM     87  C   UNL A   1      38.889  30.399  33.088  1.00  0.00     0.041 A 
ATOM     88  F   UNL A   1      40.012  28.339  32.998  1.00  0.00    -0.206 F 
ATOM     89  C   UNL A   1      38.900  31.791  32.960  1.00  0.00     0.022 A 
BRANCH  86  90
ATOM     90  S   UNL A   1      40.173  34.214  32.421  1.00  0.00     0.124 S 
ATOM     91  O   UNL A   1      41.259  34.251  31.450  1.00  0.00    -0.237 OA
ATOM     92  O   UNL A   1      38.832  34.448  31.887  1.00  0.00    -0.237 OA
ATOM     93  O   UNL A   1      40.435  34.886  33.692  1.00  0.00    -0.744 OA
ENDBRANCH  86  90
ENDBRANCH  59  83
BRANCH  71  94
ATOM     94  C   UNL A   1      45.073  24.076  33.366  1.00  0.00     0.023 A 
ATOM     95  C   UNL A   1      46.381  23.952  33.856  1.00  0.00     0.031 A 
ATOM     96  C   UNL A   1      44.197  23.015  33.722  1.00  0.00     0.131 A 
ATOM     97  C   UNL A   1      46.788  22.820  34.592  1.00  0.00     0.055 A 
ATOM     98  C   UNL A   1      44.587  21.920  34.501  1.00  0.00     0.041 A 
ATOM     99  F   UNL A   1      42.912  22.995  33.340  1.00  0.00    -0.206 F 
ATOM    100  C   UNL A   1      45.896  21.810  34.933  1.00  0.00     0.022 A 
BRANCH  97 101
ATOM    101  S   UNL A   1      48.535  22.679  35.060  1.00  0.00     0.124 S 
ATOM    102  O   UNL A   1      49.171  23.617  34.139  1.00  0.00    -0.237 OA
ATOM    103  O   UNL A   1      48.516  23.083  36.462  1.00  0.00    -0.237 OA
ATOM    104  O   UNL A   1      48.844  21.270  34.823  1.00  0.00    -0.744 OA
ENDBRANCH  97 101
ENDBRANCH  71  94
ENDBRANCH  45  46
ENDBRANCH  37  40
ENDBRANCH  35  36
ENDBRANCH  34  35
ENDBRANCH   1  34
TORSDOF 18
ENDMDL
MODEL 2
REMARK VINA RESULT:     -13.4      3.050      4.123
REMARK SMILES Cc1ccc([C@@]23C[C@@H]4C[C@@H](C[C@@](C(=O)N5CCC(C(=O)NCCCCCCNC(=O)c6ccc(-c7c8nc(c(-c9cc(S(=O)(=O)[O-])ccc9F)c9ccc([nH]9)c(-c9cc(S(=O)(=O)[O-])ccc9F)c9nc(c(-c%10cc(S(=O)(=O)[O-])ccc%10F)c%10ccc7[nH]%10)C=C9)C=C8)cc6)CC5)(C4)C2)C3)cc1
REMARK SMILES IDX 25 1 24 2 23 3 22 4 21 5 19 6 20 7 18 9 13 10 14 11 15 12
REMARK SMILES IDX 16 13 95 14 17 15 94 16 12 17 6 18 7 19 97 20 98 21 8 22
REMARK SMILES IDX 10 23 9 24 96 25 11 26 5 27 1 28 2 29 3 30 100 31 4 32 99 33
REMARK SMILES IDX 26 34 27 35 28 36 29 37 30 39 31 40 32 41 93 42 33 43 92 44
REMARK SMILES IDX 34 45 35 46 36 47 86 48 37 49 91 50 85 51 87 52 38 53 90 54
REMARK SMILES IDX 84 55 83 56 39 58 71 59 51 60 70 61 52 62 55 63 69 64 88 65
REMARK SMILES IDX 53 66 54 67 68 69 89 70 56 71 40 72 41 73 49 74 42 75 48 76
REMARK SMILES IDX 50 77 47 78 43 79 44 80 45 81 46 82 72 83 73 84 81 85 74 86
REMARK SMILES IDX 80 87 82 88 79 89 75 90 76 91 77 92 78 93 57 94 58 95 66 96
REMARK SMILES IDX 59 97 65 98 67 99 64 100 60 101 61 102 62 103 63 104
REMARK H PARENT 21 8 28 38 87 57 55 68
REMARK Flexibility Score: inf
ROOT
ATOM      1  C   UNL A   1      33.661  30.360  26.674  1.00  0.00     0.002 C 
ENDROOT
BRANCH   1   2
ATOM      2  C   UNL A   1      32.144  30.122  26.731  1.00  0.00     0.002 C 
BRANCH   2   3
ATOM      3  C   UNL A   1      31.566  29.135  25.711  1.00  0.00     0.021 C 
BRANCH   3   4
ATOM      4  C   UNL A   1      32.297  29.074  24.374  1.00  0.00     0.116 C 
BRANCH   4   5
ATOM      5  N   UNL A   1      31.488  29.552  23.263  1.00  0.00    -0.356 N 
ATOM      6  C   UNL A   1      30.663  28.885  22.411  1.00  0.00     0.223 C 
ATOM      7  O   UNL A   1      29.979  29.534  21.616  1.00  0.00    -0.275 OA
ATOM      8  H   UNL A   1      31.547  30.521  23.100  1.00  0.00     0.163 HD
BRANCH   6   9
ATOM      9  C   UNL A   1      30.573  27.366  22.415  1.00  0.00     0.082 C 
ATOM     10  C   UNL A   1      31.889  24.656  25.064  1.00  0.00     0.228 C 
ATOM     11  O   UNL A   1      31.280  24.839  26.123  1.00  0.00    -0.274 OA
ATOM     12  N   UNL A   1      31.298  25.002  23.848  1.00  0.00    -0.342 N 
ATOM     13  C   UNL A   1      29.886  25.360  23.832  1.00  0.00     0.120 C 
ATOM     14  C   UNL A   1      31.949  25.242  22.560  1.00  0.00     0.120 C 
ATOM     15  C   UNL A   1      29.714  26.850  23.583  1.00  0.00     0.035 C 
ATOM     16  C   UNL A   1      31.968  26.735  22.271  1.00  0.00     0.035 C 
BRANCH  10  17
ATOM     17  C   UNL A   1      33.267  23.955  25.087  1.00  0.00     0.051 C 
ATOM     18  C   UNL A   1      34.337  21.613  24.950  1.00  0.00    -0.003 C 
ATOM     19  C   UNL A   1      35.234  22.197  23.816  1.00  0.00     0.015 C 
ATOM     20  C   UNL A   1      33.032  22.438  24.960  1.00  0.00     0.028 C 
ATOM     21  C   UNL A   1      35.035  21.856  26.312  1.00  0.00     0.015 C 
ATOM     22  C   UNL A   1      35.550  23.688  24.051  1.00  0.00    -0.009 C 
ATOM     23  C   UNL A   1      35.297  23.361  26.526  1.00  0.00    -0.009 C 
ATOM     24  C   UNL A   1      36.231  23.862  25.416  1.00  0.00     0.007 C 
ATOM     25  C   UNL A   1      34.250  24.504  24.035  1.00  0.00     0.020 C 
ATOM     26  C   UNL A   1      33.968  24.148  26.470  1.00  0.00     0.020 C 
BRANCH  18  27
ATOM     27  C   UNL A   1      34.049  20.116  24.725  1.00  0.00    -0.042 A 
ATOM     28  C   UNL A   1      33.202  15.874  24.334  1.00  0.00     0.044 C 
ATOM     29  C   UNL A   1      33.480  17.342  24.436  1.00  0.00    -0.051 A 
ATOM     30  C   UNL A   1      34.795  17.787  24.540  1.00  0.00     0.004 A 
ATOM     31  C   UNL A   1      32.450  18.286  24.450  1.00  0.00     0.004 A 
ATOM     32  C   UNL A   1      35.072  19.149  24.675  1.00  0.00     0.004 A 
ATOM     33  C   UNL A   1      32.731  19.652  24.587  1.00  0.00     0.004 A 
ENDBRANCH  18  27
ENDBRANCH  10  17
ENDBRANCH   6   9
ENDBRANCH   4   5
ENDBRANCH   3   4
ENDBRANCH   2   3
ENDBRANCH   1   2
BRANCH   1  34
ATOM     34  C   UNL A   1      34.333  30.748  27.992  1.00  0.00     0.021 C 
BRANCH  34  35
ATOM     35  C   UNL A   1      34.884  32.170  28.021  1.00  0.00     0.116 C 
BRANCH  35  36
ATOM     36  N   UNL A   1      34.065  33.119  28.759  1.00  0.00    -0.352 N 
ATOM     37  C   UNL A   1      34.341  33.747  29.970  1.00  0.00     0.251 C 
ATOM     38  H   UNL A   1      33.201  33.349  28.346  1.00  0.00     0.163 HD
ATOM     39  O   UNL A   1      33.535  34.458  30.520  1.00  0.00    -0.269 OA
BRANCH  37  40
ATOM     40  C   UNL A   1      35.719  33.621  30.516  1.00  0.00     0.039 A 
ATOM     41  C   UNL A   1      36.753  34.198  29.770  1.00  0.00     0.014 A 
ATOM     42  C   UNL A   1      36.006  32.772  31.581  1.00  0.00     0.014 A 
ATOM     43  C   UNL A   1      38.059  33.745  29.946  1.00  0.00     0.010 A 
ATOM     44  C   UNL A   1      37.286  32.257  31.697  1.00  0.00     0.010 A 
ATOM     45  C   UNL A   1      38.299  32.696  30.837  1.00  0.00    -0.014 A 
BRANCH  45  46
ATOM     46  C   UNL A   1      39.518  31.893  30.789  1.00  0.00     0.031 A 
ATOM     47  C   UNL A   1      39.558  30.566  30.143  1.00  0.00     0.074 A 
ATOM     48  C   UNL A   1      40.656  32.352  31.356  1.00  0.00     0.049 A 
ATOM     49  N   UNL A   1      40.311  29.594  30.545  1.00  0.00    -0.248 NA
ATOM     50  C   UNL A   1      38.729  30.217  28.996  1.00  0.00     0.031 C 
ATOM     51  C   UNL A   1      41.999  31.795  31.220  1.00  0.00     0.029 A 
ATOM     52  N   UNL A   1      40.778  33.286  32.374  1.00  0.00    -0.354 N 
ATOM     53  C   UNL A   1      40.308  28.638  29.559  1.00  0.00     0.074 A 
ATOM     54  C   UNL A   1      39.245  29.030  28.660  1.00  0.00     0.031 C 
ATOM     55  C   UNL A   1      42.745  32.199  32.260  1.00  0.00     0.029 A 
ATOM     56  C   UNL A   1      41.878  32.930  33.165  1.00  0.00     0.049 A 
ATOM     57  H   UNL A   1      40.193  34.064  32.516  1.00  0.00     0.167 HD
ATOM     58  C   UNL A   1      41.301  27.706  29.503  1.00  0.00     0.034 A 
ATOM     59  C   UNL A   1      41.756  32.706  34.505  1.00  0.00     0.034 A 
ATOM     60  C   UNL A   1      42.299  27.884  30.555  1.00  0.00     0.049 A 
ATOM     61  C   UNL A   1      42.180  31.319  34.931  1.00  0.00     0.074 A 
ATOM     62  C   UNL A   1      43.575  28.426  30.553  1.00  0.00     0.029 A 
ATOM     63  N   UNL A   1      41.955  27.699  31.889  1.00  0.00    -0.354 N 
ATOM     64  N   UNL A   1      42.366  30.326  34.106  1.00  0.00    -0.248 NA
ATOM     65  C   UNL A   1      42.391  30.928  36.321  1.00  0.00     0.031 C 
ATOM     66  C   UNL A   1      43.996  28.574  31.897  1.00  0.00     0.029 A 
ATOM     67  C   UNL A   1      42.982  28.112  32.717  1.00  0.00     0.049 A 
ATOM     68  H   UNL A   1      41.099  27.327  32.201  1.00  0.00     0.167 HD
ATOM     69  C   UNL A   1      42.681  29.187  34.808  1.00  0.00     0.074 A 
ATOM     70  C   UNL A   1      42.708  29.627  36.192  1.00  0.00     0.031 C 
ATOM     71  C   UNL A   1      42.874  27.992  34.166  1.00  0.00     0.034 A 
BRANCH  58  72
ATOM     72  C   UNL A   1      41.535  26.841  28.286  1.00  0.00     0.023 A 
ATOM     73  C   UNL A   1      42.772  26.904  27.611  1.00  0.00     0.031 A 
ATOM     74  C   UNL A   1      40.583  25.969  27.728  1.00  0.00     0.131 A 
ATOM     75  C   UNL A   1      42.979  26.235  26.392  1.00  0.00     0.055 A 
ATOM     76  C   UNL A   1      40.765  25.345  26.486  1.00  0.00     0.041 A 
ATOM     77  F   UNL A   1      39.450  25.667  28.381  1.00  0.00    -0.206 F 
ATOM     78  C   UNL A   1      41.963  25.492  25.801  1.00  0.00     0.022 A 
BRANCH  75  79
ATOM     79  S   UNL A   1      44.602  26.355  25.591  1.00  0.00     0.124 S 
ATOM     80  O   UNL A   1      45.518  26.189  26.716  1.00  0.00    -0.237 OA
ATOM     81  O   UNL A   1      44.554  25.259  24.631  1.00  0.00    -0.237 OA
ATOM     82  O   UNL A   1      44.590  27.692  25.001  1.00  0.00    -0.744 OA
ENDBRANCH  75  79
ENDBRANCH  58  72
BRANCH  59  83
ATOM     83  C   UNL A   1      40.681  33.519  35.143  1.00  0.00     0.023 A 
ATOM     84  C   UNL A   1      39.586  32.814  35.686  1.00  0.00     0.031 A 
ATOM     85  C   UNL A   1      40.895  34.835  35.572  1.00  0.00     0.131 A 
ATOM     86  C   UNL A   1      38.861  33.352  36.756  1.00  0.00     0.055 A 
ATOM     87  C   UNL A   1      40.113  35.401  36.588  1.00  0.00     0.041 A 
ATOM     88  F   UNL A   1      41.933  35.546  35.110  1.00  0.00    -0.206 F 
ATOM     89  C   UNL A   1      39.124  34.642  37.219  1.00  0.00     0.022 A 
BRANCH  86  90
ATOM     90  S   UNL A   1      37.793  32.243  37.725  1.00  0.00     0.124 S 
ATOM     91  O   UNL A   1      38.468  32.219  39.016  1.00  0.00    -0.237 OA
ATOM     92  O   UNL A   1      36.502  32.929  37.695  1.00  0.00    -0.237 OA
ATOM     93  O   UNL A   1      37.824  30.993  36.968  1.00  0.00    -0.744 OA
ENDBRANCH  86  90
ENDBRANCH  59  83
BRANCH  71  94
ATOM     94  C   UNL A   1      43.068  26.621  34.798  1.00  0.00     0.023 A 
ATOM     95  C   UNL A   1      44.314  26.085  35.155  1.00  0.00     0.031 A 
ATOM     96  C   UNL A   1      41.950  25.804  35.117  1.00  0.00     0.131 A 
ATOM     97  C   UNL A   1      44.426  24.801  35.731  1.00  0.00     0.055 A 
ATOM     98  C   UNL A   1      42.059  24.556  35.740  1.00  0.00     0.041 A 
ATOM     99  F   UNL A   1      40.692  26.183  34.850  1.00  0.00    -0.206 F 
ATOM    100  C   UNL A   1      43.306  24.039  36.041  1.00  0.00     0.022 A 
BRANCH  97 101
ATOM    101  S   UNL A   1      46.085  24.131  36.025  1.00  0.00     0.124 S 
ATOM    102  O   UNL A   1      46.838  25.333  36.375  1.00  0.00    -0.237 OA
ATOM    103  O   UNL A   1      45.853  23.190  37.116  1.00  0.00    -0.237 OA
ATOM    104  O   UNL A   1      46.446  23.524  34.746  1.00  0.00    -0.744 OA
ENDBRANCH  97 101
ENDBRANCH  71  94
ENDBRANCH  45  46
ENDBRANCH  37  40
ENDBRANCH  35  36
ENDBRANCH  34  35
ENDBRANCH   1  34
TORSDOF 18
ENDMDL
MODEL 3
REMARK VINA RESULT:     -13.2      2.257      3.182
REMARK SMILES Cc1ccc([C@@]23C[C@@H]4C[C@@H](C[C@@](C(=O)N5CCC(C(=O)NCCCCCCNC(=O)c6ccc(-c7c8nc(c(-c9cc(S(=O)(=O)[O-])ccc9F)c9ccc([nH]9)c(-c9cc(S(=O)(=O)[O-])ccc9F)c9nc(c(-c%10cc(S(=O)(=O)[O-])ccc%10F)c%10ccc7[nH]%10)C=C9)C=C8)cc6)CC5)(C4)C2)C3)cc1
REMARK SMILES IDX 25 1 24 2 23 3 22 4 21 5 19 6 20 7 18 9 13 10 14 11 15 12
REMARK SMILES IDX 16 13 95 14 17 15 94 16 12 17 6 18 7 19 97 20 98 21 8 22
REMARK SMILES IDX 10 23 9 24 96 25 11 26 5 27 1 28 2 29 3 30 100 31 4 32 99 33
REMARK SMILES IDX 26 34 27 35 28 36 29 37 30 39 31 40 32 41 93 42 33 43 92 44
REMARK SMILES IDX 34 45 35 46 36 47 86 48 37 49 91 50 85 51 87 52 38 53 90 54
REMARK SMILES IDX 84 55 83 56 39 58 71 59 51 60 70 61 52 62 55 63 69 64 88 65
REMARK SMILES IDX 53 66 54 67 68 69 89 70 56 71 40 72 41 73 49 74 42 75 48 76
REMARK SMILES IDX 50 77 47 78 43 79 44 80 45 81 46 82 72 83 73 84 81 85 74 86
REMARK SMILES IDX 80 87 82 88 79 89 75 90 76 91 77 92 78 93 57 94 58 95 66 96
REMARK SMILES IDX 59 97 65 98 67 99 64 100 60 101 61 102 62 103 63 104
REMARK H PARENT 21 8 28 38 87 57 55 68
REMARK Flexibility Score: inf
ROOT
ATOM      1  C   UNL A   1      33.354  30.477  26.797  1.00  0.00     0.002 C 
ENDROOT
BRANCH   1   2
ATOM      2  C   UNL A   1      32.008  29.738  26.875  1.00  0.00     0.002 C 
BRANCH   2   3
ATOM      3  C   UNL A   1      31.672  28.801  25.711  1.00  0.00     0.021 C 
BRANCH   3   4
ATOM      4  C   UNL A   1      32.447  29.056  24.422  1.00  0.00     0.116 C 
BRANCH   4   5
ATOM      5  N   UNL A   1      31.610  29.569  23.348  1.00  0.00    -0.356 N 
ATOM      6  C   UNL A   1      30.758  28.929  22.501  1.00  0.00     0.223 C 
ATOM      7  O   UNL A   1      30.056  29.604  21.743  1.00  0.00    -0.275 OA
ATOM      8  H   UNL A   1      31.669  30.541  23.211  1.00  0.00     0.163 HD
BRANCH   6   9
ATOM      9  C   UNL A   1      30.662  27.411  22.464  1.00  0.00     0.082 C 
ATOM     10  C   UNL A   1      31.933  24.627  25.056  1.00  0.00     0.228 C 
ATOM     11  O   UNL A   1      31.313  24.785  26.113  1.00  0.00    -0.274 OA
ATOM     12  N   UNL A   1      31.358  25.007  23.842  1.00  0.00    -0.342 N 
ATOM     13  C   UNL A   1      29.948  25.373  23.819  1.00  0.00     0.120 C 
ATOM     14  C   UNL A   1      32.026  25.278  22.569  1.00  0.00     0.120 C 
ATOM     15  C   UNL A   1      29.786  26.870  23.608  1.00  0.00     0.035 C 
ATOM     16  C   UNL A   1      32.055  26.777  22.319  1.00  0.00     0.035 C 
BRANCH  10  17
ATOM     17  C   UNL A   1      33.308  23.918  25.077  1.00  0.00     0.051 C 
ATOM     18  C   UNL A   1      34.364  21.567  24.976  1.00  0.00    -0.003 C 
ATOM     19  C   UNL A   1      35.250  22.123  23.819  1.00  0.00     0.015 C 
ATOM     20  C   UNL A   1      33.063  22.401  24.985  1.00  0.00     0.028 C 
ATOM     21  C   UNL A   1      35.080  21.835  26.324  1.00  0.00     0.015 C 
ATOM     22  C   UNL A   1      35.576  23.617  24.019  1.00  0.00    -0.009 C 
ATOM     23  C   UNL A   1      35.352  23.344  26.503  1.00  0.00    -0.009 C 
ATOM     24  C   UNL A   1      36.276  23.815  25.371  1.00  0.00     0.007 C 
ATOM     25  C   UNL A   1      34.281  24.439  24.002  1.00  0.00     0.020 C 
ATOM     26  C   UNL A   1      34.027  24.137  26.446  1.00  0.00     0.020 C 
BRANCH  18  27
ATOM     27  C   UNL A   1      34.064  20.069  24.787  1.00  0.00    -0.042 A 
ATOM     28  C   UNL A   1      33.215  15.818  24.498  1.00  0.00     0.044 C 
ATOM     29  C   UNL A   1      33.490  17.289  24.566  1.00  0.00    -0.051 A 
ATOM     30  C   UNL A   1      34.804  17.746  24.518  1.00  0.00     0.004 A 
ATOM     31  C   UNL A   1      32.460  18.224  24.699  1.00  0.00     0.004 A 
ATOM     32  C   UNL A   1      35.083  19.110  24.618  1.00  0.00     0.004 A 
ATOM     33  C   UNL A   1      32.743  19.593  24.803  1.00  0.00     0.004 A 
ENDBRANCH  18  27
ENDBRANCH  10  17
ENDBRANCH   6   9
ENDBRANCH   4   5
ENDBRANCH   3   4
ENDBRANCH   2   3
ENDBRANCH   1   2
BRANCH   1  34
ATOM     34  C   UNL A   1      34.514  29.850  27.569  1.00  0.00     0.021 C 
BRANCH  34  35
ATOM     35  C   UNL A   1      35.279  30.826  28.456  1.00  0.00     0.116 C 
BRANCH  35  36
ATOM     36  N   UNL A   1      34.469  31.901  29.010  1.00  0.00    -0.352 N 
ATOM     37  C   UNL A   1      34.742  32.720  30.101  1.00  0.00     0.251 C 
ATOM     38  H   UNL A   1      33.615  32.071  28.551  1.00  0.00     0.163 HD
ATOM     39  O   UNL A   1      33.942  33.527  30.510  1.00  0.00    -0.269 OA
BRANCH  37  40
ATOM     40  C   UNL A   1      36.110  32.666  30.682  1.00  0.00     0.039 A 
ATOM     41  C   UNL A   1      37.106  33.400  30.028  1.00  0.00     0.014 A 
ATOM     42  C   UNL A   1      36.444  31.751  31.675  1.00  0.00     0.014 A 
ATOM     43  C   UNL A   1      38.443  33.049  30.208  1.00  0.00     0.010 A 
ATOM     44  C   UNL A   1      37.763  31.342  31.789  1.00  0.00     0.010 A 
ATOM     45  C   UNL A   1      38.754  31.947  31.009  1.00  0.00    -0.014 A 
BRANCH  45  46
ATOM     46  C   UNL A   1      40.042  31.264  30.932  1.00  0.00     0.031 A 
ATOM     47  C   UNL A   1      40.234  30.042  30.125  1.00  0.00     0.074 A 
ATOM     48  C   UNL A   1      41.105  31.738  31.620  1.00  0.00     0.049 A 
ATOM     49  N   UNL A   1      41.053  29.093  30.445  1.00  0.00    -0.248 NA
ATOM     50  C   UNL A   1      39.497  29.780  28.895  1.00  0.00     0.031 C 
ATOM     51  C   UNL A   1      42.498  31.319  31.495  1.00  0.00     0.029 A 
ATOM     52  N   UNL A   1      41.091  32.535  32.755  1.00  0.00    -0.354 N 
ATOM     53  C   UNL A   1      41.185  28.279  29.346  1.00  0.00     0.074 A 
ATOM     54  C   UNL A   1      40.135  28.695  28.442  1.00  0.00     0.031 C 
ATOM     55  C   UNL A   1      43.153  31.643  32.620  1.00  0.00     0.029 A 
ATOM     56  C   UNL A   1      42.180  32.172  33.558  1.00  0.00     0.049 A 
ATOM     57  H   UNL A   1      40.432  33.236  32.960  1.00  0.00     0.167 HD
ATOM     58  C   UNL A   1      42.261  27.450  29.230  1.00  0.00     0.034 A 
ATOM     59  C   UNL A   1      42.014  31.763  34.849  1.00  0.00     0.034 A 
ATOM     60  C   UNL A   1      43.186  27.569  30.355  1.00  0.00     0.049 A 
ATOM     61  C   UNL A   1      42.542  30.372  35.118  1.00  0.00     0.074 A 
ATOM     62  C   UNL A   1      44.406  28.213  30.498  1.00  0.00     0.029 A 
ATOM     63  N   UNL A   1      42.797  27.182  31.631  1.00  0.00    -0.354 N 
ATOM     64  N   UNL A   1      42.858  29.517  34.186  1.00  0.00    -0.248 NA
ATOM     65  C   UNL A   1      42.721  29.820  36.457  1.00  0.00     0.031 C 
ATOM     66  C   UNL A   1      44.746  28.216  31.873  1.00  0.00     0.029 A 
ATOM     67  C   UNL A   1      43.741  27.566  32.565  1.00  0.00     0.049 A 
ATOM     68  H   UNL A   1      41.964  26.700  31.841  1.00  0.00     0.167 HD
ATOM     69  C   UNL A   1      43.242  28.326  34.754  1.00  0.00     0.074 A 
ATOM     70  C   UNL A   1      43.161  28.578  36.182  1.00  0.00     0.031 C 
ATOM     71  C   UNL A   1      43.573  27.246  33.978  1.00  0.00     0.034 A 
BRANCH  58  72
ATOM     72  C   UNL A   1      42.631  26.777  27.929  1.00  0.00     0.023 A 
ATOM     73  C   UNL A   1      42.387  25.398  27.761  1.00  0.00     0.031 A 
ATOM     74  C   UNL A   1      43.249  27.421  26.842  1.00  0.00     0.131 A 
ATOM     75  C   UNL A   1      42.851  24.702  26.631  1.00  0.00     0.055 A 
ATOM     76  C   UNL A   1      43.762  26.722  25.741  1.00  0.00     0.041 A 
ATOM     77  F   UNL A   1      43.352  28.758  26.793  1.00  0.00    -0.206 F 
ATOM     78  C   UNL A   1      43.581  25.350  25.640  1.00  0.00     0.022 A 
BRANCH  75  79
ATOM     79  S   UNL A   1      42.486  22.931  26.482  1.00  0.00     0.124 S 
ATOM     80  O   UNL A   1      42.586  22.712  25.042  1.00  0.00    -0.237 OA
ATOM     81  O   UNL A   1      43.534  22.330  27.300  1.00  0.00    -0.237 OA
ATOM     82  O   UNL A   1      41.135  22.816  27.029  1.00  0.00    -0.744 OA
ENDBRANCH  75  79
ENDBRANCH  58  72
BRANCH  59  83
ATOM     83  C   UNL A   1      40.840  32.391  35.520  1.00  0.00     0.023 A 
ATOM     84  C   UNL A   1      41.049  33.650  36.123  1.00  0.00     0.031 A 
ATOM     85  C   UNL A   1      39.523  32.009  35.234  1.00  0.00     0.131 A 
ATOM     86  C   UNL A   1      39.990  34.556  36.251  1.00  0.00     0.055 A 
ATOM     87  C   UNL A   1      38.453  32.890  35.440  1.00  0.00     0.041 A 
ATOM     88  F   UNL A   1      39.264  30.837  34.639  1.00  0.00    -0.206 F 
ATOM     89  C   UNL A   1      38.690  34.186  35.904  1.00  0.00     0.022 A 
BRANCH  86  90
ATOM     90  S   UNL A   1      40.378  36.302  36.580  1.00  0.00     0.124 S 
ATOM     91  O   UNL A   1      39.911  36.954  35.363  1.00  0.00    -0.237 OA
ATOM     92  O   UNL A   1      39.606  36.583  37.789  1.00  0.00    -0.237 OA
ATOM     93  O   UNL A   1      41.825  36.298  36.783  1.00  0.00    -0.744 OA
ENDBRANCH  86  90
ENDBRANCH  59  83
BRANCH  71  94
ATOM     94  C   UNL A   1      43.862  25.825  34.440  1.00  0.00     0.023 A 
ATOM     95  C   UNL A   1      45.144  25.262  34.512  1.00  0.00     0.031 A 
ATOM     96  C   UNL A   1      42.810  24.980  34.887  1.00  0.00     0.131 A 
ATOM     97  C   UNL A   1      45.342  23.933  34.941  1.00  0.00     0.055 A 
ATOM     98  C   UNL A   1      43.014  23.682  35.367  1.00  0.00     0.041 A 
ATOM     99  F   UNL A   1      41.530  25.379  34.892  1.00  0.00    -0.206 F 
ATOM    100  C   UNL A   1      44.288  23.143  35.385  1.00  0.00     0.022 A 
BRANCH  97 101
ATOM    101  S   UNL A   1      47.018  23.243  34.864  1.00  0.00     0.124 S 
ATOM    102  O   UNL A   1      46.762  21.878  34.410  1.00  0.00    -0.237 OA
ATOM    103  O   UNL A   1      47.672  24.120  33.897  1.00  0.00    -0.237 OA
ATOM    104  O   UNL A   1      47.504  23.359  36.237  1.00  0.00    -0.744 OA
ENDBRANCH  97 101
ENDBRANCH  71  94
ENDBRANCH  45  46
ENDBRANCH  37  40
ENDBRANCH  35  36
ENDBRANCH  34  35
ENDBRANCH   1  34
TORSDOF 18
ENDMDL
