MODEL 1
REMARK VINA RESULT:      -9.6      0.000      0.000
REMARK SMILES CCCCCCC(=O)N1CCCC[C@H]1C(=O)NCCCCCCNC(=O)c1ccc(-c2c3nc(c(-c4cc(S(=O)(=O)[O-])ccc4F)c4ccc([nH]4)c(-c4cc(S(=O)(=O)[O-])ccc4F)c4nc(c(-c5cc(S(=O)(=O)[O-])ccc5F)c5ccc2[nH]5)C=C4)C=C3)cc1
REMARK SMILES IDX 19 1 18 2 17 3 15 4 16 5 14 7 9 8 10 9 11 10 13 11 12 12
REMARK SMILES IDX 7 13 8 14 6 15 5 16 4 17 3 18 2 19 1 20 20 21 21 22 22 23
REMARK SMILES IDX 23 24 24 25 25 26 26 28 27 29 28 30 89 31 29 32 88 33 30 34
REMARK SMILES IDX 31 35 32 36 82 37 33 38 87 39 81 40 83 41 34 42 86 43 80 44
REMARK SMILES IDX 79 45 35 47 67 48 47 49 66 50 48 51 51 52 65 53 84 54 49 55
REMARK SMILES IDX 50 56 64 58 85 59 52 60 36 61 37 62 45 63 38 64 44 65 46 66
REMARK SMILES IDX 43 67 39 68 40 69 41 70 42 71 68 72 69 73 77 74 70 75 76 76
REMARK SMILES IDX 78 77 75 78 71 79 72 80 73 81 74 82 53 83 54 84 62 85 55 86
REMARK SMILES IDX 61 87 63 88 60 89 56 90 57 91 58 92 59 93
REMARK H PARENT 17 6 24 27 83 46 51 57
REMARK Flexibility Score: inf
ROOT
ATOM      1  C   UNL A   1      35.455  30.369  27.593  1.00  0.00     0.021 C 
ENDROOT
BRANCH   1   2
ATOM      2  C   UNL A   1      34.813  29.000  27.381  1.00  0.00     0.116 C 
BRANCH   2   3
ATOM      3  N   UNL A   1      33.411  28.970  27.765  1.00  0.00    -0.354 N 
ATOM      4  C   UNL A   1      32.407  28.122  27.382  1.00  0.00     0.242 C 
ATOM      5  O   UNL A   1      31.331  28.220  27.976  1.00  0.00    -0.273 OA
ATOM      6  H   UNL A   1      33.141  29.672  28.401  1.00  0.00     0.163 HD
BRANCH   4   7
ATOM      7  C   UNL A   1      32.629  27.132  26.211  1.00  0.00     0.174 C 
ATOM      8  N   UNL A   1      31.701  25.987  26.215  1.00  0.00    -0.331 N 
ATOM      9  C   UNL A   1      30.333  26.223  25.770  1.00  0.00     0.120 C 
ATOM     10  C   UNL A   1      30.276  26.931  24.426  1.00  0.00     0.022 C 
ATOM     11  C   UNL A   1      32.567  27.859  24.856  1.00  0.00     0.035 C 
ATOM     12  C   UNL A   1      31.135  28.191  24.437  1.00  0.00     0.004 C 
BRANCH   8  13
ATOM     13  C   UNL A   1      32.067  24.695  26.545  1.00  0.00     0.223 C 
ATOM     14  O   UNL A   1      31.420  24.028  27.355  1.00  0.00    -0.275 OA
BRANCH  13  15
ATOM     15  C   UNL A   1      33.429  24.217  26.068  1.00  0.00     0.100 C 
BRANCH  15  16
ATOM     16  C   UNL A   1      33.778  24.388  24.593  1.00  0.00     0.010 C 
BRANCH  16  17
ATOM     17  C   UNL A   1      35.180  23.935  24.169  1.00  0.00     0.001 C 
BRANCH  17  18
ATOM     18  C   UNL A   1      35.493  22.439  24.320  1.00  0.00    -0.000 C 
BRANCH  18  19
ATOM     19  C   UNL A   1      36.925  22.055  23.949  1.00  0.00    -0.003 C 
ATOM     20  C   UNL A   1      37.790  21.704  25.150  1.00  0.00     0.004 C 
ENDBRANCH  18  19
ENDBRANCH  17  18
ENDBRANCH  16  17
ENDBRANCH  15  16
ENDBRANCH  13  15
ENDBRANCH   8  13
ENDBRANCH   4   7
ENDBRANCH   2   3
ENDBRANCH   1   2
BRANCH   1  21
ATOM     21  C   UNL A   1      34.623  31.361  28.417  1.00  0.00     0.002 C 
BRANCH  21  22
ATOM     22  C   UNL A   1      34.954  32.843  28.220  1.00  0.00     0.002 C 
BRANCH  22  23
ATOM     23  C   UNL A   1      33.761  33.802  28.203  1.00  0.00     0.021 C 
BRANCH  23  24
ATOM     24  C   UNL A   1      34.010  35.180  28.812  1.00  0.00     0.116 C 
BRANCH  24  25
ATOM     25  N   UNL A   1      33.132  35.476  29.930  1.00  0.00    -0.352 N 
ATOM     26  C   UNL A   1      33.253  35.119  31.253  1.00  0.00     0.251 C 
ATOM     27  H   UNL A   1      32.333  36.008  29.709  1.00  0.00     0.163 HD
ATOM     28  O   UNL A   1      32.337  35.362  32.030  1.00  0.00    -0.269 OA
BRANCH  26  29
ATOM     29  C   UNL A   1      34.465  34.409  31.729  1.00  0.00     0.039 A 
ATOM     30  C   UNL A   1      34.361  33.056  32.061  1.00  0.00     0.014 A 
ATOM     31  C   UNL A   1      35.693  35.065  31.857  1.00  0.00     0.014 A 
ATOM     32  C   UNL A   1      35.498  32.346  32.457  1.00  0.00     0.010 A 
ATOM     33  C   UNL A   1      36.839  34.340  32.189  1.00  0.00     0.010 A 
ATOM     34  C   UNL A   1      36.754  32.972  32.490  1.00  0.00    -0.014 A 
BRANCH  34  35
ATOM     35  C   UNL A   1      37.983  32.204  32.829  1.00  0.00     0.031 A 
ATOM     36  C   UNL A   1      38.734  32.490  34.102  1.00  0.00     0.074 A 
ATOM     37  C   UNL A   1      38.450  31.283  31.962  1.00  0.00     0.049 A 
ATOM     38  N   UNL A   1      39.844  31.957  34.546  1.00  0.00    -0.248 NA
ATOM     39  C   UNL A   1      38.178  33.532  34.977  1.00  0.00     0.031 C 
ATOM     40  C   UNL A   1      37.837  30.950  30.673  1.00  0.00     0.029 A 
ATOM     41  N   UNL A   1      39.549  30.462  32.026  1.00  0.00    -0.354 N 
ATOM     42  C   UNL A   1      40.125  32.604  35.744  1.00  0.00     0.074 A 
ATOM     43  C   UNL A   1      39.099  33.608  35.927  1.00  0.00     0.031 C 
ATOM     44  C   UNL A   1      38.553  29.981  30.082  1.00  0.00     0.029 A 
ATOM     45  C   UNL A   1      39.698  29.649  30.925  1.00  0.00     0.049 A 
ATOM     46  H   UNL A   1      40.171  30.455  32.789  1.00  0.00     0.167 HD
ATOM     47  C   UNL A   1      41.133  32.367  36.621  1.00  0.00     0.034 A 
ATOM     48  C   UNL A   1      40.652  28.745  30.624  1.00  0.00     0.034 A 
ATOM     49  C   UNL A   1      42.141  31.351  36.433  1.00  0.00     0.049 A 
ATOM     50  C   UNL A   1      41.764  28.503  31.614  1.00  0.00     0.074 A 
ATOM     51  C   UNL A   1      43.169  30.987  37.286  1.00  0.00     0.029 A 
ATOM     52  N   UNL A   1      42.255  30.540  35.311  1.00  0.00    -0.354 N 
ATOM     53  N   UNL A   1      41.979  29.082  32.772  1.00  0.00    -0.248 NA
ATOM     54  C   UNL A   1      42.750  27.474  31.263  1.00  0.00     0.031 C 
ATOM     55  C   UNL A   1      43.939  30.004  36.656  1.00  0.00     0.029 A 
ATOM     56  C   UNL A   1      43.351  29.698  35.439  1.00  0.00     0.049 A 
ATOM     57  H   UNL A   1      41.646  30.557  34.538  1.00  0.00     0.167 HD
ATOM     58  C   UNL A   1      43.111  28.465  33.299  1.00  0.00     0.074 A 
ATOM     59  C   UNL A   1      43.517  27.457  32.342  1.00  0.00     0.031 C 
ATOM     60  C   UNL A   1      43.753  28.706  34.471  1.00  0.00     0.034 A 
BRANCH  47  61
ATOM     61  C   UNL A   1      41.207  33.240  37.852  1.00  0.00     0.023 A 
ATOM     62  C   UNL A   1      40.536  32.901  39.040  1.00  0.00     0.031 A 
ATOM     63  C   UNL A   1      41.949  34.434  37.834  1.00  0.00     0.131 A 
ATOM     64  C   UNL A   1      40.563  33.777  40.135  1.00  0.00     0.055 A 
ATOM     65  C   UNL A   1      42.037  35.264  38.955  1.00  0.00     0.041 A 
ATOM     66  F   UNL A   1      42.595  34.821  36.723  1.00  0.00    -0.206 F 
ATOM     67  C   UNL A   1      41.330  34.944  40.110  1.00  0.00     0.022 A 
BRANCH  64  68
ATOM     68  S   UNL A   1      39.477  33.434  41.547  1.00  0.00     0.124 S 
ATOM     69  O   UNL A   1      38.161  33.721  40.981  1.00  0.00    -0.237 OA
ATOM     70  O   UNL A   1      39.760  32.032  41.830  1.00  0.00    -0.237 OA
ATOM     71  O   UNL A   1      39.929  34.381  42.564  1.00  0.00    -0.744 OA
ENDBRANCH  64  68
ENDBRANCH  47  61
BRANCH  48  72
ATOM     72  C   UNL A   1      40.612  28.003  29.331  1.00  0.00     0.023 A 
ATOM     73  C   UNL A   1      41.488  28.328  28.283  1.00  0.00     0.031 A 
ATOM     74  C   UNL A   1      39.662  26.991  29.107  1.00  0.00     0.131 A 
ATOM     75  C   UNL A   1      41.362  27.685  27.041  1.00  0.00     0.055 A 
ATOM     76  C   UNL A   1      39.577  26.316  27.888  1.00  0.00     0.041 A 
ATOM     77  F   UNL A   1      38.805  26.636  30.079  1.00  0.00    -0.206 F 
ATOM     78  C   UNL A   1      40.420  26.673  26.841  1.00  0.00     0.022 A 
BRANCH  75  79
ATOM     79  S   UNL A   1      42.388  28.258  25.659  1.00  0.00     0.124 S 
ATOM     80  O   UNL A   1      42.533  27.039  24.872  1.00  0.00    -0.237 OA
ATOM     81  O   UNL A   1      41.552  29.303  25.077  1.00  0.00    -0.237 OA
ATOM     82  O   UNL A   1      43.606  28.730  26.313  1.00  0.00    -0.744 OA
ENDBRANCH  75  79
ENDBRANCH  48  72
BRANCH  60  83
ATOM     83  C   UNL A   1      44.940  27.830  34.792  1.00  0.00     0.023 A 
ATOM     84  C   UNL A   1      44.794  26.599  35.455  1.00  0.00     0.031 A 
ATOM     85  C   UNL A   1      46.239  28.247  34.448  1.00  0.00     0.131 A 
ATOM     86  C   UNL A   1      45.930  25.856  35.808  1.00  0.00     0.055 A 
ATOM     87  C   UNL A   1      47.362  27.474  34.748  1.00  0.00     0.041 A 
ATOM     88  F   UNL A   1      46.437  29.415  33.816  1.00  0.00    -0.206 F 
ATOM     89  C   UNL A   1      47.212  26.278  35.445  1.00  0.00     0.022 A 
BRANCH  86  90
ATOM     90  S   UNL A   1      45.719  24.378  36.837  1.00  0.00     0.124 S 
ATOM     91  O   UNL A   1      45.292  23.384  35.857  1.00  0.00    -0.237 OA
ATOM     92  O   UNL A   1      47.056  24.191  37.392  1.00  0.00    -0.237 OA
ATOM     93  O   UNL A   1      44.697  24.774  37.803  1.00  0.00    -0.744 OA
ENDBRANCH  86  90
ENDBRANCH  60  83
ENDBRANCH  34  35
ENDBRANCH  26  29
ENDBRANCH  24  25
ENDBRANCH  23  24
ENDBRANCH  22  23
ENDBRANCH  21  22
ENDBRANCH   1  21
TORSDOF 22
ENDMDL
MODEL 2
REMARK VINA RESULT:      -9.2      1.842      2.163
REMARK SMILES CCCCCCC(=O)N1CCCC[C@H]1C(=O)NCCCCCCNC(=O)c1ccc(-c2c3nc(c(-c4cc(S(=O)(=O)[O-])ccc4F)c4ccc([nH]4)c(-c4cc(S(=O)(=O)[O-])ccc4F)c4nc(c(-c5cc(S(=O)(=O)[O-])ccc5F)c5ccc2[nH]5)C=C4)C=C3)cc1
REMARK SMILES IDX 19 1 18 2 17 3 15 4 16 5 14 7 9 8 10 9 11 10 13 11 12 12
REMARK SMILES IDX 7 13 8 14 6 15 5 16 4 17 3 18 2 19 1 20 20 21 21 22 22 23
REMARK SMILES IDX 23 24 24 25 25 26 26 28 27 29 28 30 89 31 29 32 88 33 30 34
REMARK SMILES IDX 31 35 32 36 82 37 33 38 87 39 81 40 83 41 34 42 86 43 80 44
REMARK SMILES IDX 79 45 35 47 67 48 47 49 66 50 48 51 51 52 65 53 84 54 49 55
REMARK SMILES IDX 50 56 64 58 85 59 52 60 36 61 37 62 45 63 38 64 44 65 46 66
REMARK SMILES IDX 43 67 39 68 40 69 41 70 42 71 68 72 69 73 77 74 70 75 76 76
REMARK SMILES IDX 78 77 75 78 71 79 72 80 73 81 74 82 53 83 54 84 62 85 55 86
REMARK SMILES IDX 61 87 63 88 60 89 56 90 57 91 58 92 59 93
REMARK H PARENT 17 6 24 27 83 46 51 57
REMARK Flexibility Score: inf
ROOT
ATOM      1  C   UNL A   1      35.460  30.413  27.575  1.00  0.00     0.021 C 
ENDROOT
BRANCH   1   2
ATOM      2  C   UNL A   1      34.829  29.032  27.420  1.00  0.00     0.116 C 
BRANCH   2   3
ATOM      3  N   UNL A   1      33.416  29.017  27.762  1.00  0.00    -0.354 N 
ATOM      4  C   UNL A   1      32.415  28.181  27.349  1.00  0.00     0.242 C 
ATOM      5  O   UNL A   1      31.322  28.289  27.911  1.00  0.00    -0.273 OA
ATOM      6  H   UNL A   1      33.135  29.720  28.391  1.00  0.00     0.163 HD
BRANCH   4   7
ATOM      7  C   UNL A   1      32.660  27.190  26.183  1.00  0.00     0.174 C 
ATOM      8  N   UNL A   1      31.706  26.067  26.144  1.00  0.00    -0.331 N 
ATOM      9  C   UNL A   1      30.362  26.338  25.645  1.00  0.00     0.120 C 
ATOM     10  C   UNL A   1      30.376  27.052  24.304  1.00  0.00     0.022 C 
ATOM     11  C   UNL A   1      32.670  27.924  24.830  1.00  0.00     0.035 C 
ATOM     12  C   UNL A   1      31.265  28.291  24.355  1.00  0.00     0.004 C 
BRANCH   8  13
ATOM     13  C   UNL A   1      32.026  24.766  26.482  1.00  0.00     0.223 C 
ATOM     14  O   UNL A   1      31.325  24.107  27.252  1.00  0.00    -0.275 OA
BRANCH  13  15
ATOM     15  C   UNL A   1      33.402  24.262  26.073  1.00  0.00     0.100 C 
BRANCH  15  16
ATOM     16  C   UNL A   1      33.904  24.594  24.672  1.00  0.00     0.010 C 
BRANCH  16  17
ATOM     17  C   UNL A   1      35.299  24.073  24.308  1.00  0.00     0.001 C 
BRANCH  17  18
ATOM     18  C   UNL A   1      35.488  22.549  24.319  1.00  0.00    -0.000 C 
BRANCH  18  19
ATOM     19  C   UNL A   1      36.874  22.082  23.877  1.00  0.00    -0.003 C 
ATOM     20  C   UNL A   1      37.727  21.549  25.017  1.00  0.00     0.004 C 
ENDBRANCH  18  19
ENDBRANCH  17  18
ENDBRANCH  16  17
ENDBRANCH  15  16
ENDBRANCH  13  15
ENDBRANCH   8  13
ENDBRANCH   4   7
ENDBRANCH   2   3
ENDBRANCH   1   2
BRANCH   1  21
ATOM     21  C   UNL A   1      34.620  31.432  28.358  1.00  0.00     0.002 C 
BRANCH  21  22
ATOM     22  C   UNL A   1      34.895  32.907  28.053  1.00  0.00     0.002 C 
BRANCH  22  23
ATOM     23  C   UNL A   1      33.673  33.827  28.028  1.00  0.00     0.021 C 
BRANCH  23  24
ATOM     24  C   UNL A   1      33.877  35.218  28.624  1.00  0.00     0.116 C 
BRANCH  24  25
ATOM     25  N   UNL A   1      33.005  35.488  29.752  1.00  0.00    -0.352 N 
ATOM     26  C   UNL A   1      33.137  35.109  31.068  1.00  0.00     0.251 C 
ATOM     27  H   UNL A   1      32.201  36.019  29.546  1.00  0.00     0.163 HD
ATOM     28  O   UNL A   1      32.225  35.333  31.856  1.00  0.00    -0.269 OA
BRANCH  26  29
ATOM     29  C   UNL A   1      34.358  34.401  31.523  1.00  0.00     0.039 A 
ATOM     30  C   UNL A   1      34.271  33.036  31.808  1.00  0.00     0.014 A 
ATOM     31  C   UNL A   1      35.576  35.069  31.679  1.00  0.00     0.014 A 
ATOM     32  C   UNL A   1      35.417  32.328  32.183  1.00  0.00     0.010 A 
ATOM     33  C   UNL A   1      36.731  34.348  31.990  1.00  0.00     0.010 A 
ATOM     34  C   UNL A   1      36.664  32.970  32.243  1.00  0.00    -0.014 A 
BRANCH  34  35
ATOM     35  C   UNL A   1      37.903  32.207  32.560  1.00  0.00     0.031 A 
ATOM     36  C   UNL A   1      38.623  32.431  33.863  1.00  0.00     0.074 A 
ATOM     37  C   UNL A   1      38.405  31.350  31.649  1.00  0.00     0.049 A 
ATOM     38  N   UNL A   1      39.735  31.895  34.296  1.00  0.00    -0.248 NA
ATOM     39  C   UNL A   1      38.028  33.407  34.788  1.00  0.00     0.031 C 
ATOM     40  C   UNL A   1      37.823  31.084  30.331  1.00  0.00     0.029 A 
ATOM     41  N   UNL A   1      39.520  30.549  31.685  1.00  0.00    -0.354 N 
ATOM     42  C   UNL A   1      39.981  32.473  35.536  1.00  0.00     0.074 A 
ATOM     43  C   UNL A   1      38.930  33.443  35.758  1.00  0.00     0.031 C 
ATOM     44  C   UNL A   1      38.571  30.166  29.696  1.00  0.00     0.029 A 
ATOM     45  C   UNL A   1      39.707  29.808  30.541  1.00  0.00     0.049 A 
ATOM     46  H   UNL A   1      40.127  30.508  32.459  1.00  0.00     0.167 HD
ATOM     47  C   UNL A   1      40.977  32.204  36.417  1.00  0.00     0.034 A 
ATOM     48  C   UNL A   1      40.685  28.943  30.205  1.00  0.00     0.034 A 
ATOM     49  C   UNL A   1      42.009  31.222  36.189  1.00  0.00     0.049 A 
ATOM     50  C   UNL A   1      41.784  28.663  31.201  1.00  0.00     0.074 A 
ATOM     51  C   UNL A   1      43.028  30.827  37.039  1.00  0.00     0.029 A 
ATOM     52  N   UNL A   1      42.161  30.482  35.022  1.00  0.00    -0.354 N 
ATOM     53  N   UNL A   1      41.964  29.176  32.396  1.00  0.00    -0.248 NA
ATOM     54  C   UNL A   1      42.798  27.678  30.808  1.00  0.00     0.031 C 
ATOM     55  C   UNL A   1      43.831  29.900  36.366  1.00  0.00     0.029 A 
ATOM     56  C   UNL A   1      43.272  29.657  35.122  1.00  0.00     0.049 A 
ATOM     57  H   UNL A   1      41.567  30.534  34.240  1.00  0.00     0.167 HD
ATOM     58  C   UNL A   1      43.099  28.550  32.908  1.00  0.00     0.074 A 
ATOM     59  C   UNL A   1      43.545  27.611  31.900  1.00  0.00     0.031 C 
ATOM     60  C   UNL A   1      43.714  28.733  34.104  1.00  0.00     0.034 A 
BRANCH  47  61
ATOM     61  C   UNL A   1      41.009  33.002  37.700  1.00  0.00     0.023 A 
ATOM     62  C   UNL A   1      40.262  32.619  38.827  1.00  0.00     0.031 A 
ATOM     63  C   UNL A   1      41.788  34.170  37.792  1.00  0.00     0.131 A 
ATOM     64  C   UNL A   1      40.256  33.430  39.972  1.00  0.00     0.055 A 
ATOM     65  C   UNL A   1      41.838  34.930  38.963  1.00  0.00     0.041 A 
ATOM     66  F   UNL A   1      42.506  34.597  36.743  1.00  0.00    -0.206 F 
ATOM     67  C   UNL A   1      41.058  34.570  40.057  1.00  0.00     0.022 A 
BRANCH  64  68
ATOM     68  S   UNL A   1      39.082  33.044  41.301  1.00  0.00     0.124 S 
ATOM     69  O   UNL A   1      39.903  33.263  42.490  1.00  0.00    -0.237 OA
ATOM     70  O   UNL A   1      38.016  34.012  41.073  1.00  0.00    -0.237 OA
ATOM     71  O   UNL A   1      38.726  31.650  41.048  1.00  0.00    -0.744 OA
ENDBRANCH  64  68
ENDBRANCH  47  61
BRANCH  48  72
ATOM     72  C   UNL A   1      40.686  28.279  28.869  1.00  0.00     0.023 A 
ATOM     73  C   UNL A   1      40.101  27.016  28.688  1.00  0.00     0.031 A 
ATOM     74  C   UNL A   1      41.317  28.879  27.765  1.00  0.00     0.131 A 
ATOM     75  C   UNL A   1      40.206  26.368  27.447  1.00  0.00     0.055 A 
ATOM     76  C   UNL A   1      41.370  28.254  26.518  1.00  0.00     0.041 A 
ATOM     77  F   UNL A   1      41.885  30.090  27.882  1.00  0.00    -0.206 F 
ATOM     78  C   UNL A   1      40.826  26.984  26.357  1.00  0.00     0.022 A 
BRANCH  75  79
ATOM     79  S   UNL A   1      39.600  24.664  27.304  1.00  0.00     0.124 S 
ATOM     80  O   UNL A   1      40.844  23.920  27.140  1.00  0.00    -0.237 OA
ATOM     81  O   UNL A   1      38.905  24.483  28.573  1.00  0.00    -0.237 OA
ATOM     82  O   UNL A   1      38.739  24.708  26.125  1.00  0.00    -0.744 OA
ENDBRANCH  75  79
ENDBRANCH  48  72
BRANCH  60  83
ATOM     83  C   UNL A   1      44.913  27.863  34.395  1.00  0.00     0.023 A 
ATOM     84  C   UNL A   1      46.206  28.224  33.980  1.00  0.00     0.031 A 
ATOM     85  C   UNL A   1      44.753  26.644  35.078  1.00  0.00     0.131 A 
ATOM     86  C   UNL A   1      47.280  27.348  34.197  1.00  0.00     0.055 A 
ATOM     87  C   UNL A   1      45.834  25.805  35.346  1.00  0.00     0.041 A 
ATOM     88  F   UNL A   1      43.539  26.249  35.496  1.00  0.00    -0.206 F 
ATOM     89  C   UNL A   1      47.105  26.148  34.892  1.00  0.00     0.022 A 
BRANCH  86  90
ATOM     90  S   UNL A   1      48.893  27.751  33.473  1.00  0.00     0.124 S 
ATOM     91  O   UNL A   1      49.438  28.691  34.448  1.00  0.00    -0.237 OA
ATOM     92  O   UNL A   1      49.544  26.445  33.416  1.00  0.00    -0.237 OA
ATOM     93  O   UNL A   1      48.553  28.330  32.176  1.00  0.00    -0.744 OA
ENDBRANCH  86  90
ENDBRANCH  60  83
ENDBRANCH  34  35
ENDBRANCH  26  29
ENDBRANCH  24  25
ENDBRANCH  23  24
ENDBRANCH  22  23
ENDBRANCH  21  22
ENDBRANCH   1  21
TORSDOF 22
ENDMDL
MODEL 3
REMARK VINA RESULT:      -9.1      1.421      7.896
REMARK SMILES CCCCCCC(=O)N1CCCC[C@H]1C(=O)NCCCCCCNC(=O)c1ccc(-c2c3nc(c(-c4cc(S(=O)(=O)[O-])ccc4F)c4ccc([nH]4)c(-c4cc(S(=O)(=O)[O-])ccc4F)c4nc(c(-c5cc(S(=O)(=O)[O-])ccc5F)c5ccc2[nH]5)C=C4)C=C3)cc1
REMARK SMILES IDX 19 1 18 2 17 3 15 4 16 5 14 7 9 8 10 9 11 10 13 11 12 12
REMARK SMILES IDX 7 13 8 14 6 15 5 16 4 17 3 18 2 19 1 20 20 21 21 22 22 23
REMARK SMILES IDX 23 24 24 25 25 26 26 28 27 29 28 30 89 31 29 32 88 33 30 34
REMARK SMILES IDX 31 35 32 36 82 37 33 38 87 39 81 40 83 41 34 42 86 43 80 44
REMARK SMILES IDX 79 45 35 47 67 48 47 49 66 50 48 51 51 52 65 53 84 54 49 55
REMARK SMILES IDX 50 56 64 58 85 59 52 60 36 61 37 62 45 63 38 64 44 65 46 66
REMARK SMILES IDX 43 67 39 68 40 69 41 70 42 71 68 72 69 73 77 74 70 75 76 76
REMARK SMILES IDX 78 77 75 78 71 79 72 80 73 81 74 82 53 83 54 84 62 85 55 86
REMARK SMILES IDX 61 87 63 88 60 89 56 90 57 91 58 92 59 93
REMARK H PARENT 17 6 24 27 83 46 51 57
REMARK Flexibility Score: inf
ROOT
ATOM      1  C   UNL A   1      35.643  30.687  27.616  1.00  0.00     0.021 C 
ENDROOT
BRANCH   1   2
ATOM      2  C   UNL A   1      35.280  29.204  27.648  1.00  0.00     0.116 C 
BRANCH   2   3
ATOM      3  N   UNL A   1      33.872  28.975  27.927  1.00  0.00    -0.354 N 
ATOM      4  C   UNL A   1      32.878  28.493  27.120  1.00  0.00     0.242 C 
ATOM      5  O   UNL A   1      31.791  28.250  27.650  1.00  0.00    -0.273 OA
ATOM      6  H   UNL A   1      33.589  29.203  28.842  1.00  0.00     0.163 HD
BRANCH   4   7
ATOM      7  C   UNL A   1      33.123  28.325  25.599  1.00  0.00     0.174 C 
ATOM      8  N   UNL A   1      32.531  27.100  25.032  1.00  0.00    -0.331 N 
ATOM      9  C   UNL A   1      31.090  27.084  24.812  1.00  0.00     0.120 C 
ATOM     10  C   UNL A   1      30.610  28.299  24.035  1.00  0.00     0.022 C 
ATOM     11  C   UNL A   1      32.631  29.560  24.822  1.00  0.00     0.035 C 
ATOM     12  C   UNL A   1      31.111  29.589  24.676  1.00  0.00     0.004 C 
BRANCH   8  13
ATOM     13  C   UNL A   1      33.265  25.999  24.631  1.00  0.00     0.223 C 
ATOM     14  O   UNL A   1      33.165  25.535  23.493  1.00  0.00    -0.275 OA
BRANCH  13  15
ATOM     15  C   UNL A   1      34.006  25.229  25.713  1.00  0.00     0.100 C 
BRANCH  15  16
ATOM     16  C   UNL A   1      33.480  23.852  26.106  1.00  0.00     0.010 C 
BRANCH  16  17
ATOM     17  C   UNL A   1      33.704  22.723  25.092  1.00  0.00     0.001 C 
BRANCH  17  18
ATOM     18  C   UNL A   1      32.879  21.444  25.295  1.00  0.00    -0.000 C 
BRANCH  18  19
ATOM     19  C   UNL A   1      33.643  20.151  25.015  1.00  0.00    -0.003 C 
ATOM     20  C   UNL A   1      32.772  18.906  25.075  1.00  0.00     0.004 C 
ENDBRANCH  18  19
ENDBRANCH  17  18
ENDBRANCH  16  17
ENDBRANCH  15  16
ENDBRANCH  13  15
ENDBRANCH   8  13
ENDBRANCH   4   7
ENDBRANCH   2   3
ENDBRANCH   1   2
BRANCH   1  21
ATOM     21  C   UNL A   1      34.830  31.580  28.563  1.00  0.00     0.002 C 
BRANCH  21  22
ATOM     22  C   UNL A   1      35.120  33.081  28.487  1.00  0.00     0.002 C 
BRANCH  22  23
ATOM     23  C   UNL A   1      33.919  33.985  28.197  1.00  0.00     0.021 C 
BRANCH  23  24
ATOM     24  C   UNL A   1      33.997  35.397  28.774  1.00  0.00     0.116 C 
BRANCH  24  25
ATOM     25  N   UNL A   1      32.980  35.660  29.776  1.00  0.00    -0.352 N 
ATOM     26  C   UNL A   1      32.967  35.333  31.112  1.00  0.00     0.251 C 
ATOM     27  H   UNL A   1      32.185  36.142  29.452  1.00  0.00     0.163 HD
ATOM     28  O   UNL A   1      31.954  35.537  31.772  1.00  0.00    -0.269 OA
BRANCH  26  29
ATOM     29  C   UNL A   1      34.152  34.703  31.740  1.00  0.00     0.039 A 
ATOM     30  C   UNL A   1      34.091  33.348  32.075  1.00  0.00     0.014 A 
ATOM     31  C   UNL A   1      35.314  35.435  32.008  1.00  0.00     0.014 A 
ATOM     32  C   UNL A   1      35.213  32.712  32.615  1.00  0.00     0.010 A 
ATOM     33  C   UNL A   1      36.452  34.784  32.487  1.00  0.00     0.010 A 
ATOM     34  C   UNL A   1      36.414  33.415  32.793  1.00  0.00    -0.014 A 
BRANCH  34  35
ATOM     35  C   UNL A   1      37.638  32.726  33.288  1.00  0.00     0.031 A 
ATOM     36  C   UNL A   1      38.244  31.593  32.503  1.00  0.00     0.074 A 
ATOM     37  C   UNL A   1      38.171  33.090  34.471  1.00  0.00     0.049 A 
ATOM     38  N   UNL A   1      39.279  30.846  32.795  1.00  0.00    -0.248 NA
ATOM     39  C   UNL A   1      37.584  31.236  31.240  1.00  0.00     0.031 C 
ATOM     40  C   UNL A   1      37.645  34.141  35.346  1.00  0.00     0.029 A 
ATOM     41  N   UNL A   1      39.267  32.614  35.149  1.00  0.00    -0.354 N 
ATOM     42  C   UNL A   1      39.388  29.925  31.758  1.00  0.00     0.074 A 
ATOM     43  C   UNL A   1      38.279  30.173  30.862  1.00  0.00     0.031 C 
ATOM     44  C   UNL A   1      38.431  34.246  36.430  1.00  0.00     0.029 A 
ATOM     45  C   UNL A   1      39.492  33.247  36.350  1.00  0.00     0.049 A 
ATOM     46  H   UNL A   1      39.839  31.890  34.806  1.00  0.00     0.167 HD
ATOM     47  C   UNL A   1      40.337  28.976  31.562  1.00  0.00     0.034 A 
ATOM     48  C   UNL A   1      40.440  33.041  37.287  1.00  0.00     0.034 A 
ATOM     49  C   UNL A   1      41.447  28.751  32.456  1.00  0.00     0.049 A 
ATOM     50  C   UNL A   1      41.483  31.977  37.046  1.00  0.00     0.074 A 
ATOM     51  C   UNL A   1      42.497  27.859  32.321  1.00  0.00     0.029 A 
ATOM     52  N   UNL A   1      41.649  29.417  33.659  1.00  0.00    -0.354 N 
ATOM     53  N   UNL A   1      41.605  31.157  36.029  1.00  0.00    -0.248 NA
ATOM     54  C   UNL A   1      42.522  31.825  38.071  1.00  0.00     0.031 C 
ATOM     55  C   UNL A   1      43.296  27.940  33.466  1.00  0.00     0.029 A 
ATOM     56  C   UNL A   1      42.790  28.936  34.285  1.00  0.00     0.049 A 
ATOM     57  H   UNL A   1      41.069  30.129  34.014  1.00  0.00     0.167 HD
ATOM     58  C   UNL A   1      42.754  30.411  36.281  1.00  0.00     0.074 A 
ATOM     59  C   UNL A   1      43.295  30.894  37.534  1.00  0.00     0.031 C 
ATOM     60  C   UNL A   1      43.313  29.419  35.542  1.00  0.00     0.034 A 
BRANCH  47  61
ATOM     61  C   UNL A   1      40.201  28.095  30.342  1.00  0.00     0.023 A 
ATOM     62  C   UNL A   1      41.009  28.275  29.206  1.00  0.00     0.031 A 
ATOM     63  C   UNL A   1      39.241  27.067  30.310  1.00  0.00     0.131 A 
ATOM     64  C   UNL A   1      40.798  27.489  28.063  1.00  0.00     0.055 A 
ATOM     65  C   UNL A   1      39.090  26.236  29.197  1.00  0.00     0.041 A 
ATOM     66  F   UNL A   1      38.427  26.860  31.356  1.00  0.00    -0.206 F 
ATOM     67  C   UNL A   1      39.861  26.453  28.060  1.00  0.00     0.022 A 
BRANCH  64  68
ATOM     68  S   UNL A   1      41.677  27.924  26.537  1.00  0.00     0.124 S 
ATOM     69  O   UNL A   1      41.188  29.280  26.294  1.00  0.00    -0.237 OA
ATOM     70  O   UNL A   1      43.075  27.809  26.933  1.00  0.00    -0.237 OA
ATOM     71  O   UNL A   1      41.214  26.923  25.579  1.00  0.00    -0.744 OA
ENDBRANCH  64  68
ENDBRANCH  47  61
BRANCH  48  72
ATOM     72  C   UNL A   1      40.454  33.846  38.542  1.00  0.00     0.023 A 
ATOM     73  C   UNL A   1      39.588  33.544  39.605  1.00  0.00     0.031 A 
ATOM     74  C   UNL A   1      41.300  34.961  38.677  1.00  0.00     0.131 A 
ATOM     75  C   UNL A   1      39.547  34.378  40.734  1.00  0.00     0.055 A 
ATOM     76  C   UNL A   1      41.294  35.756  39.824  1.00  0.00     0.041 A 
ATOM     77  F   UNL A   1      42.153  35.290  37.693  1.00  0.00    -0.206 F 
ATOM     78  C   UNL A   1      40.404  35.476  40.855  1.00  0.00     0.022 A 
BRANCH  75  79
ATOM     79  S   UNL A   1      38.290  34.063  42.002  1.00  0.00     0.124 S 
ATOM     80  O   UNL A   1      39.092  33.501  43.083  1.00  0.00    -0.237 OA
ATOM     81  O   UNL A   1      37.749  35.398  42.229  1.00  0.00    -0.237 OA
ATOM     82  O   UNL A   1      37.377  33.126  41.349  1.00  0.00    -0.744 OA
ENDBRANCH  75  79
ENDBRANCH  48  72
BRANCH  60  83
ATOM     83  C   UNL A   1      44.600  28.824  36.059  1.00  0.00     0.023 A 
ATOM     84  C   UNL A   1      44.607  27.792  37.014  1.00  0.00     0.031 A 
ATOM     85  C   UNL A   1      45.838  29.315  35.606  1.00  0.00     0.131 A 
ATOM     86  C   UNL A   1      45.826  27.326  37.530  1.00  0.00     0.055 A 
ATOM     87  C   UNL A   1      47.048  28.805  36.077  1.00  0.00     0.041 A 
ATOM     88  F   UNL A   1      45.890  30.302  34.696  1.00  0.00    -0.206 F 
ATOM     89  C   UNL A   1      47.046  27.815  37.056  1.00  0.00     0.022 A 
BRANCH  86  90
ATOM     90  S   UNL A   1      45.794  26.140  38.902  1.00  0.00     0.124 S 
ATOM     91  O   UNL A   1      45.540  24.881  38.209  1.00  0.00    -0.237 OA
ATOM     92  O   UNL A   1      47.127  26.293  39.477  1.00  0.00    -0.237 OA
ATOM     93  O   UNL A   1      44.698  26.617  39.743  1.00  0.00    -0.744 OA
ENDBRANCH  86  90
ENDBRANCH  60  83
ENDBRANCH  34  35
ENDBRANCH  26  29
ENDBRANCH  24  25
ENDBRANCH  23  24
ENDBRANCH  22  23
ENDBRANCH  21  22
ENDBRANCH   1  21
TORSDOF 22
ENDMDL
