MODEL 1
REMARK VINA RESULT:     -11.0      0.000      0.000
REMARK SMILES COC(=O)C1CCN(C(=O)N[C@@H]2C=C[C@H](C(=O)NCCCCCCNC(=O)c3ccc(-c4c5nc(c(-c6cc(S(=O)(=O)[O-])ccc6F)c6ccc([nH]6)c(-c6cc(S(=O)(=O)[O-])ccc6F)c6nc(c(-c7cc(S(=O)(=O)[O-])ccc7F)c7ccc4[nH]7)C=C6)C=C5)cc3)C2)CC1
REMARK SMILES IDX 21 1 20 2 19 3 18 4 16 5 17 6 15 8 12 9 13 10 91 11 14 12
REMARK SMILES IDX 11 13 5 14 6 15 93 16 7 17 92 18 8 19 9 20 10 21 3 23 4 24
REMARK SMILES IDX 2 25 1 26 22 27 23 28 24 29 25 30 26 31 27 33 28 34 29 35
REMARK SMILES IDX 90 36 30 37 89 38 31 39 32 40 33 41 83 42 34 43 88 44 82 45
REMARK SMILES IDX 84 46 35 47 87 48 81 49 80 50 36 52 68 53 48 54 67 55 49 56
REMARK SMILES IDX 52 57 66 58 85 59 50 60 51 61 65 63 86 64 53 65 37 66 38 67
REMARK SMILES IDX 46 68 39 69 45 70 47 71 44 72 40 73 41 74 42 75 43 76 69 77
REMARK SMILES IDX 70 78 78 79 71 80 77 81 79 82 76 83 72 84 73 85 74 86 75 87
REMARK SMILES IDX 54 88 55 89 63 90 56 91 62 92 64 93 61 94 57 95 58 96 59 97
REMARK SMILES IDX 60 98
REMARK H PARENT 18 7 11 22 25 32 84 51 52 62
REMARK Flexibility Score: inf
ROOT
ATOM      1  C   UNL A   1      35.685  20.502  25.148  1.00  0.00     0.002 C 
ENDROOT
BRANCH   1   2
ATOM      2  C   UNL A   1      34.481  19.690  24.672  1.00  0.00     0.021 C 
BRANCH   2   3
ATOM      3  C   UNL A   1      33.303  19.690  25.639  1.00  0.00     0.116 C 
BRANCH   3   4
ATOM      4  N   UNL A   1      33.412  20.711  26.659  1.00  0.00    -0.356 N 
ATOM      5  C   UNL A   1      32.684  21.838  26.877  1.00  0.00     0.227 C 
ATOM      6  O   UNL A   1      33.021  22.544  27.836  1.00  0.00    -0.274 OA
ATOM      7  H   UNL A   1      34.140  20.565  27.306  1.00  0.00     0.163 HD
BRANCH   5   8
ATOM      8  C   UNL A   1      31.466  22.245  26.031  1.00  0.00     0.103 C 
ATOM      9  C   UNL A   1      31.227  24.291  24.620  1.00  0.00     0.107 C 
ATOM     10  C   UNL A   1      30.418  24.332  25.879  1.00  0.00    -0.006 C 
ATOM     11  C   UNL A   1      31.793  22.846  24.652  1.00  0.00     0.047 C 
ATOM     12  C   UNL A   1      30.549  23.244  26.644  1.00  0.00    -0.016 C 
BRANCH   9  13
ATOM     13  N   UNL A   1      32.316  25.252  24.652  1.00  0.00    -0.332 N 
ATOM     14  C   UNL A   1      30.083  29.441  23.632  1.00  0.00     0.102 C 
ATOM     15  C   UNL A   1      31.600  29.563  23.854  1.00  0.00     0.037 C 
ATOM     16  C   UNL A   1      29.598  27.975  23.618  1.00  0.00     0.037 C 
ATOM     17  C   UNL A   1      32.388  28.552  23.027  1.00  0.00     0.122 C 
ATOM     18  C   UNL A   1      30.534  27.014  22.878  1.00  0.00     0.122 C 
ATOM     19  N   UNL A   1      31.898  27.208  23.339  1.00  0.00    -0.325 N 
ATOM     20  C   UNL A   1      32.670  26.437  24.146  1.00  0.00     0.317 C 
ATOM     21  O   UNL A   1      33.793  26.803  24.519  1.00  0.00    -0.249 OA
ATOM     22  H   UNL A   1      33.031  24.920  25.242  1.00  0.00     0.165 HD
BRANCH  14  23
ATOM     23  C   UNL A   1      29.613  30.222  22.415  1.00  0.00     0.308 C 
ATOM     24  O   UNL A   1      29.705  29.836  21.256  1.00  0.00    -0.252 OA
BRANCH  23  25
ATOM     25  O   UNL A   1      28.980  31.355  22.823  1.00  0.00    -0.469 OA
ATOM     26  C   UNL A   1      27.763  31.193  23.556  1.00  0.00     0.282 C 
ENDBRANCH  23  25
ENDBRANCH  14  23
ENDBRANCH   9  13
ENDBRANCH   5   8
ENDBRANCH   3   4
ENDBRANCH   2   3
ENDBRANCH   1   2
BRANCH   1  27
ATOM     27  C   UNL A   1      35.975  21.767  24.333  1.00  0.00     0.002 C 
BRANCH  27  28
ATOM     28  C   UNL A   1      35.759  23.090  25.076  1.00  0.00     0.021 C 
BRANCH  28  29
ATOM     29  C   UNL A   1      36.975  23.606  25.838  1.00  0.00     0.116 C 
BRANCH  29  30
ATOM     30  N   UNL A   1      37.987  22.576  26.003  1.00  0.00    -0.352 N 
ATOM     31  C   UNL A   1      39.312  22.686  26.337  1.00  0.00     0.251 C 
ATOM     32  H   UNL A   1      37.673  21.655  25.852  1.00  0.00     0.163 HD
ATOM     33  O   UNL A   1      40.052  21.716  26.189  1.00  0.00    -0.269 OA
BRANCH  31  34
ATOM     34  C   UNL A   1      39.853  23.962  26.856  1.00  0.00     0.039 A 
ATOM     35  C   UNL A   1      39.991  25.035  25.973  1.00  0.00     0.014 A 
ATOM     36  C   UNL A   1      40.254  24.095  28.188  1.00  0.00     0.014 A 
ATOM     37  C   UNL A   1      40.480  26.255  26.441  1.00  0.00     0.010 A 
ATOM     38  C   UNL A   1      40.669  25.336  28.670  1.00  0.00     0.010 A 
ATOM     39  C   UNL A   1      40.788  26.429  27.801  1.00  0.00    -0.014 A 
BRANCH  39  40
ATOM     40  C   UNL A   1      41.202  27.764  28.311  1.00  0.00     0.031 A 
ATOM     41  C   UNL A   1      42.649  28.176  28.314  1.00  0.00     0.074 A 
ATOM     42  C   UNL A   1      40.260  28.595  28.798  1.00  0.00     0.049 A 
ATOM     43  N   UNL A   1      43.184  29.308  28.696  1.00  0.00    -0.248 NA
ATOM     44  C   UNL A   1      43.624  27.177  27.855  1.00  0.00     0.031 C 
ATOM     45  C   UNL A   1      38.833  28.278  28.903  1.00  0.00     0.029 A 
ATOM     46  N   UNL A   1      40.351  29.873  29.288  1.00  0.00    -0.354 N 
ATOM     47  C   UNL A   1      44.556  29.159  28.526  1.00  0.00     0.074 A 
ATOM     48  C   UNL A   1      44.773  27.802  28.069  1.00  0.00     0.031 C 
ATOM     49  C   UNL A   1      38.178  29.348  29.382  1.00  0.00     0.029 A 
ATOM     50  C   UNL A   1      39.141  30.407  29.665  1.00  0.00     0.049 A 
ATOM     51  H   UNL A   1      41.203  30.361  29.363  1.00  0.00     0.167 HD
ATOM     52  C   UNL A   1      45.540  30.075  28.714  1.00  0.00     0.034 A 
ATOM     53  C   UNL A   1      38.837  31.613  30.186  1.00  0.00     0.034 A 
ATOM     54  C   UNL A   1      45.300  31.425  29.173  1.00  0.00     0.049 A 
ATOM     55  C   UNL A   1      39.947  32.609  30.391  1.00  0.00     0.074 A 
ATOM     56  C   UNL A   1      46.210  32.454  29.337  1.00  0.00     0.029 A 
ATOM     57  N   UNL A   1      44.062  31.930  29.557  1.00  0.00    -0.354 N 
ATOM     58  N   UNL A   1      41.232  32.478  30.154  1.00  0.00    -0.248 NA
ATOM     59  C   UNL A   1      39.560  33.922  30.920  1.00  0.00     0.031 C 
ATOM     60  C   UNL A   1      45.543  33.547  29.901  1.00  0.00     0.029 A 
ATOM     61  C   UNL A   1      44.196  33.239  30.001  1.00  0.00     0.049 A 
ATOM     62  H   UNL A   1      43.214  31.431  29.520  1.00  0.00     0.167 HD
ATOM     63  C   UNL A   1      41.805  33.703  30.486  1.00  0.00     0.074 A 
ATOM     64  C   UNL A   1      40.717  34.565  30.904  1.00  0.00     0.031 C 
ATOM     65  C   UNL A   1      43.110  34.080  30.452  1.00  0.00     0.034 A 
BRANCH  52  66
ATOM     66  C   UNL A   1      46.964  29.635  28.458  1.00  0.00     0.023 A 
ATOM     67  C   UNL A   1      47.762  29.070  29.470  1.00  0.00     0.031 A 
ATOM     68  C   UNL A   1      47.543  29.801  27.186  1.00  0.00     0.131 A 
ATOM     69  C   UNL A   1      49.109  28.766  29.216  1.00  0.00     0.055 A 
ATOM     70  C   UNL A   1      48.858  29.415  26.916  1.00  0.00     0.041 A 
ATOM     71  F   UNL A   1      46.843  30.355  26.184  1.00  0.00    -0.206 F 
ATOM     72  C   UNL A   1      49.655  28.909  27.939  1.00  0.00     0.022 A 
BRANCH  69  73
ATOM     73  S   UNL A   1      50.180  28.334  30.615  1.00  0.00     0.124 S 
ATOM     74  O   UNL A   1      49.775  26.956  30.880  1.00  0.00    -0.237 OA
ATOM     75  O   UNL A   1      51.515  28.512  30.057  1.00  0.00    -0.237 OA
ATOM     76  O   UNL A   1      49.800  29.296  31.647  1.00  0.00    -0.744 OA
ENDBRANCH  69  73
ENDBRANCH  52  66
BRANCH  53  77
ATOM     77  C   UNL A   1      37.429  31.938  30.559  1.00  0.00     0.023 A 
ATOM     78  C   UNL A   1      36.552  32.543  29.645  1.00  0.00     0.031 A 
ATOM     79  C   UNL A   1      36.950  31.675  31.855  1.00  0.00     0.131 A 
ATOM     80  C   UNL A   1      35.259  32.907  30.053  1.00  0.00     0.055 A 
ATOM     81  C   UNL A   1      35.644  31.984  32.237  1.00  0.00     0.041 A 
ATOM     82  F   UNL A   1      37.746  31.096  32.769  1.00  0.00    -0.206 F 
ATOM     83  C   UNL A   1      34.794  32.616  31.337  1.00  0.00     0.022 A 
BRANCH  80  84
ATOM     84  S   UNL A   1      34.218  33.851  28.905  1.00  0.00     0.124 S 
ATOM     85  O   UNL A   1      33.729  32.802  28.017  1.00  0.00    -0.237 OA
ATOM     86  O   UNL A   1      33.233  34.442  29.805  1.00  0.00    -0.237 OA
ATOM     87  O   UNL A   1      35.152  34.798  28.299  1.00  0.00    -0.744 OA
ENDBRANCH  80  84
ENDBRANCH  53  77
BRANCH  65  88
ATOM     88  C   UNL A   1      43.414  35.503  30.865  1.00  0.00     0.023 A 
ATOM     89  C   UNL A   1      43.457  36.549  29.924  1.00  0.00     0.031 A 
ATOM     90  C   UNL A   1      43.721  35.809  32.202  1.00  0.00     0.131 A 
ATOM     91  C   UNL A   1      43.890  37.824  30.315  1.00  0.00     0.055 A 
ATOM     92  C   UNL A   1      44.069  37.102  32.601  1.00  0.00     0.041 A 
ATOM     93  F   UNL A   1      43.702  34.855  33.146  1.00  0.00    -0.206 F 
ATOM     94  C   UNL A   1      44.178  38.113  31.650  1.00  0.00     0.022 A 
BRANCH  91  95
ATOM     95  S   UNL A   1      44.222  39.058  29.026  1.00  0.00     0.124 S 
ATOM     96  O   UNL A   1      42.888  39.591  28.768  1.00  0.00    -0.237 OA
ATOM     97  O   UNL A   1      45.152  39.962  29.693  1.00  0.00    -0.237 OA
ATOM     98  O   UNL A   1      44.796  38.269  27.937  1.00  0.00    -0.744 OA
ENDBRANCH  91  95
ENDBRANCH  65  88
ENDBRANCH  39  40
ENDBRANCH  31  34
ENDBRANCH  29  30
ENDBRANCH  28  29
ENDBRANCH  27  28
ENDBRANCH   1  27
TORSDOF 19
ENDMDL
MODEL 2
REMARK VINA RESULT:     -10.9      2.511      5.235
REMARK SMILES COC(=O)C1CCN(C(=O)N[C@@H]2C=C[C@H](C(=O)NCCCCCCNC(=O)c3ccc(-c4c5nc(c(-c6cc(S(=O)(=O)[O-])ccc6F)c6ccc([nH]6)c(-c6cc(S(=O)(=O)[O-])ccc6F)c6nc(c(-c7cc(S(=O)(=O)[O-])ccc7F)c7ccc4[nH]7)C=C6)C=C5)cc3)C2)CC1
REMARK SMILES IDX 21 1 20 2 19 3 18 4 16 5 17 6 15 8 12 9 13 10 91 11 14 12
REMARK SMILES IDX 11 13 5 14 6 15 93 16 7 17 92 18 8 19 9 20 10 21 3 23 4 24
REMARK SMILES IDX 2 25 1 26 22 27 23 28 24 29 25 30 26 31 27 33 28 34 29 35
REMARK SMILES IDX 90 36 30 37 89 38 31 39 32 40 33 41 83 42 34 43 88 44 82 45
REMARK SMILES IDX 84 46 35 47 87 48 81 49 80 50 36 52 68 53 48 54 67 55 49 56
REMARK SMILES IDX 52 57 66 58 85 59 50 60 51 61 65 63 86 64 53 65 37 66 38 67
REMARK SMILES IDX 46 68 39 69 45 70 47 71 44 72 40 73 41 74 42 75 43 76 69 77
REMARK SMILES IDX 70 78 78 79 71 80 77 81 79 82 76 83 72 84 73 85 74 86 75 87
REMARK SMILES IDX 54 88 55 89 63 90 56 91 62 92 64 93 61 94 57 95 58 96 59 97
REMARK SMILES IDX 60 98
REMARK H PARENT 18 7 11 22 25 32 84 51 52 62
REMARK Flexibility Score: inf
ROOT
ATOM      1  C   UNL A   1      34.483  23.518  22.720  1.00  0.00     0.002 C 
ENDROOT
BRANCH   1   2
ATOM      2  C   UNL A   1      33.512  24.698  22.709  1.00  0.00     0.021 C 
BRANCH   2   3
ATOM      3  C   UNL A   1      32.153  24.399  23.327  1.00  0.00     0.116 C 
BRANCH   3   4
ATOM      4  N   UNL A   1      31.608  25.521  24.063  1.00  0.00    -0.356 N 
ATOM      5  C   UNL A   1      31.254  25.647  25.369  1.00  0.00     0.227 C 
ATOM      6  O   UNL A   1      30.794  26.740  25.720  1.00  0.00    -0.274 OA
ATOM      7  H   UNL A   1      31.469  26.333  23.523  1.00  0.00     0.163 HD
BRANCH   5   8
ATOM      8  C   UNL A   1      31.430  24.531  26.413  1.00  0.00     0.103 C 
ATOM      9  C   UNL A   1      31.885  22.115  25.975  1.00  0.00     0.107 C 
ATOM     10  C   UNL A   1      30.489  22.388  26.441  1.00  0.00    -0.006 C 
ATOM     11  C   UNL A   1      32.545  23.514  26.109  1.00  0.00     0.047 C 
ATOM     12  C   UNL A   1      30.235  23.681  26.667  1.00  0.00    -0.016 C 
BRANCH   9  13
ATOM     13  N   UNL A   1      31.911  21.684  24.587  1.00  0.00    -0.332 N 
ATOM     14  C   UNL A   1      32.493  16.879  24.967  1.00  0.00     0.102 C 
ATOM     15  C   UNL A   1      32.415  17.401  23.522  1.00  0.00     0.037 C 
ATOM     16  C   UNL A   1      32.533  18.015  26.011  1.00  0.00     0.037 C 
ATOM     17  C   UNL A   1      33.366  18.569  23.279  1.00  0.00     0.122 C 
ATOM     18  C   UNL A   1      33.410  19.206  25.606  1.00  0.00     0.122 C 
ATOM     19  N   UNL A   1      33.076  19.621  24.254  1.00  0.00    -0.325 N 
ATOM     20  C   UNL A   1      32.388  20.705  23.813  1.00  0.00     0.317 C 
ATOM     21  O   UNL A   1      32.110  20.859  22.617  1.00  0.00    -0.249 OA
ATOM     22  H   UNL A   1      31.411  22.327  24.034  1.00  0.00     0.165 HD
BRANCH  14  23
ATOM     23  C   UNL A   1      33.617  15.872  25.157  1.00  0.00     0.308 C 
ATOM     24  O   UNL A   1      33.458  14.689  25.433  1.00  0.00    -0.252 OA
BRANCH  23  25
ATOM     25  O   UNL A   1      34.807  16.461  24.863  1.00  0.00    -0.469 OA
ATOM     26  C   UNL A   1      35.966  15.959  25.533  1.00  0.00     0.282 C 
ENDBRANCH  23  25
ENDBRANCH  14  23
ENDBRANCH   9  13
ENDBRANCH   5   8
ENDBRANCH   3   4
ENDBRANCH   2   3
ENDBRANCH   1   2
BRANCH   1  27
ATOM     27  C   UNL A   1      35.390  23.438  23.952  1.00  0.00     0.002 C 
BRANCH  27  28
ATOM     28  C   UNL A   1      35.844  22.027  24.342  1.00  0.00     0.021 C 
BRANCH  28  29
ATOM     29  C   UNL A   1      36.398  21.898  25.758  1.00  0.00     0.116 C 
BRANCH  29  30
ATOM     30  N   UNL A   1      37.440  20.887  25.841  1.00  0.00    -0.352 N 
ATOM     31  C   UNL A   1      38.789  21.026  26.040  1.00  0.00     0.251 C 
ATOM     32  H   UNL A   1      37.129  19.959  25.740  1.00  0.00     0.163 HD
ATOM     33  O   UNL A   1      39.528  20.066  25.838  1.00  0.00    -0.269 OA
BRANCH  31  34
ATOM     34  C   UNL A   1      39.355  22.321  26.479  1.00  0.00     0.039 A 
ATOM     35  C   UNL A   1      40.411  22.312  27.393  1.00  0.00     0.014 A 
ATOM     36  C   UNL A   1      38.832  23.536  26.024  1.00  0.00     0.014 A 
ATOM     37  C   UNL A   1      40.974  23.519  27.809  1.00  0.00     0.010 A 
ATOM     38  C   UNL A   1      39.447  24.735  26.380  1.00  0.00     0.010 A 
ATOM     39  C   UNL A   1      40.524  24.740  27.278  1.00  0.00    -0.014 A 
BRANCH  39  40
ATOM     40  C   UNL A   1      41.204  26.012  27.642  1.00  0.00     0.031 A 
ATOM     41  C   UNL A   1      42.619  26.283  27.210  1.00  0.00     0.074 A 
ATOM     42  C   UNL A   1      40.539  26.914  28.390  1.00  0.00     0.049 A 
ATOM     43  N   UNL A   1      43.356  27.346  27.414  1.00  0.00    -0.248 NA
ATOM     44  C   UNL A   1      43.307  25.209  26.478  1.00  0.00     0.031 C 
ATOM     45  C   UNL A   1      39.184  26.733  28.918  1.00  0.00     0.029 A 
ATOM     46  N   UNL A   1      40.901  28.162  28.830  1.00  0.00    -0.354 N 
ATOM     47  C   UNL A   1      44.592  27.071  26.840  1.00  0.00     0.074 A 
ATOM     48  C   UNL A   1      44.525  25.714  26.338  1.00  0.00     0.031 C 
ATOM     49  C   UNL A   1      38.814  27.845  29.572  1.00  0.00     0.029 A 
ATOM     50  C   UNL A   1      39.919  28.798  29.554  1.00  0.00     0.049 A 
ATOM     51  H   UNL A   1      41.781  28.564  28.646  1.00  0.00     0.167 HD
ATOM     52  C   UNL A   1      45.674  27.882  26.725  1.00  0.00     0.034 A 
ATOM     53  C   UNL A   1      39.908  30.010  30.142  1.00  0.00     0.034 A 
ATOM     54  C   UNL A   1      45.719  29.234  27.235  1.00  0.00     0.049 A 
ATOM     55  C   UNL A   1      41.123  30.889  30.006  1.00  0.00     0.074 A 
ATOM     56  C   UNL A   1      46.736  30.166  27.119  1.00  0.00     0.029 A 
ATOM     57  N   UNL A   1      44.711  29.843  27.974  1.00  0.00    -0.354 N 
ATOM     58  N   UNL A   1      42.259  30.643  29.393  1.00  0.00    -0.248 NA
ATOM     59  C   UNL A   1      41.046  32.216  30.627  1.00  0.00     0.031 C 
ATOM     60  C   UNL A   1      46.382  31.299  27.858  1.00  0.00     0.029 A 
ATOM     61  C   UNL A   1      45.103  31.120  28.357  1.00  0.00     0.049 A 
ATOM     62  H   UNL A   1      43.845  29.430  28.193  1.00  0.00     0.167 HD
ATOM     63  C   UNL A   1      43.025  31.795  29.538  1.00  0.00     0.074 A 
ATOM     64  C   UNL A   1      42.205  32.745  30.264  1.00  0.00     0.031 C 
ATOM     65  C   UNL A   1      44.291  32.047  29.114  1.00  0.00     0.034 A 
BRANCH  52  66
ATOM     66  C   UNL A   1      46.905  27.315  26.053  1.00  0.00     0.023 A 
ATOM     67  C   UNL A   1      47.898  26.628  26.774  1.00  0.00     0.031 A 
ATOM     68  C   UNL A   1      47.101  27.482  24.668  1.00  0.00     0.131 A 
ATOM     69  C   UNL A   1      49.071  26.205  26.129  1.00  0.00     0.055 A 
ATOM     70  C   UNL A   1      48.229  26.980  24.016  1.00  0.00     0.041 A 
ATOM     71  F   UNL A   1      46.202  28.148  23.927  1.00  0.00    -0.206 F 
ATOM     72  C   UNL A   1      49.231  26.352  24.749  1.00  0.00     0.022 A 
BRANCH  69  73
ATOM     73  S   UNL A   1      50.450  25.605  27.142  1.00  0.00     0.124 S 
ATOM     74  O   UNL A   1      51.523  25.514  26.155  1.00  0.00    -0.237 OA
ATOM     75  O   UNL A   1      50.588  26.657  28.142  1.00  0.00    -0.237 OA
ATOM     76  O   UNL A   1      49.970  24.321  27.648  1.00  0.00    -0.744 OA
ENDBRANCH  69  73
ENDBRANCH  52  66
BRANCH  53  77
ATOM     77  C   UNL A   1      38.716  30.458  30.922  1.00  0.00     0.023 A 
ATOM     78  C   UNL A   1      37.642  31.115  30.301  1.00  0.00     0.031 A 
ATOM     79  C   UNL A   1      38.652  30.261  32.313  1.00  0.00     0.131 A 
ATOM     80  C   UNL A   1      36.573  31.592  31.075  1.00  0.00     0.055 A 
ATOM     81  C   UNL A   1      37.558  30.683  33.069  1.00  0.00     0.041 A 
ATOM     82  F   UNL A   1      39.652  29.636  32.958  1.00  0.00    -0.206 F 
ATOM     83  C   UNL A   1      36.515  31.365  32.452  1.00  0.00     0.022 A 
BRANCH  80  84
ATOM     84  S   UNL A   1      35.295  32.595  30.269  1.00  0.00     0.124 S 
ATOM     85  O   UNL A   1      34.313  32.740  31.337  1.00  0.00    -0.237 OA
ATOM     86  O   UNL A   1      36.036  33.800  29.911  1.00  0.00    -0.237 OA
ATOM     87  O   UNL A   1      34.873  31.767  29.141  1.00  0.00    -0.744 OA
ENDBRANCH  80  84
ENDBRANCH  53  77
BRANCH  65  88
ATOM     88  C   UNL A   1      44.847  33.420  29.418  1.00  0.00     0.023 A 
ATOM     89  C   UNL A   1      44.593  34.519  28.576  1.00  0.00     0.031 A 
ATOM     90  C   UNL A   1      45.686  33.623  30.527  1.00  0.00     0.131 A 
ATOM     91  C   UNL A   1      45.246  35.740  28.802  1.00  0.00     0.055 A 
ATOM     92  C   UNL A   1      46.266  34.865  30.796  1.00  0.00     0.041 A 
ATOM     93  F   UNL A   1      45.970  32.614  31.366  1.00  0.00    -0.206 F 
ATOM     94  C   UNL A   1      46.065  35.926  29.917  1.00  0.00     0.022 A 
BRANCH  91  95
ATOM     95  S   UNL A   1      45.132  37.030  27.532  1.00  0.00     0.124 S 
ATOM     96  O   UNL A   1      45.136  38.247  28.337  1.00  0.00    -0.237 OA
ATOM     97  O   UNL A   1      46.330  36.789  26.735  1.00  0.00    -0.237 OA
ATOM     98  O   UNL A   1      43.868  36.737  26.858  1.00  0.00    -0.744 OA
ENDBRANCH  91  95
ENDBRANCH  65  88
ENDBRANCH  39  40
ENDBRANCH  31  34
ENDBRANCH  29  30
ENDBRANCH  28  29
ENDBRANCH  27  28
ENDBRANCH   1  27
TORSDOF 19
ENDMDL
MODEL 3
REMARK VINA RESULT:     -10.8      3.636      8.412
REMARK SMILES COC(=O)C1CCN(C(=O)N[C@@H]2C=C[C@H](C(=O)NCCCCCCNC(=O)c3ccc(-c4c5nc(c(-c6cc(S(=O)(=O)[O-])ccc6F)c6ccc([nH]6)c(-c6cc(S(=O)(=O)[O-])ccc6F)c6nc(c(-c7cc(S(=O)(=O)[O-])ccc7F)c7ccc4[nH]7)C=C6)C=C5)cc3)C2)CC1
REMARK SMILES IDX 21 1 20 2 19 3 18 4 16 5 17 6 15 8 12 9 13 10 91 11 14 12
REMARK SMILES IDX 11 13 5 14 6 15 93 16 7 17 92 18 8 19 9 20 10 21 3 23 4 24
REMARK SMILES IDX 2 25 1 26 22 27 23 28 24 29 25 30 26 31 27 33 28 34 29 35
REMARK SMILES IDX 90 36 30 37 89 38 31 39 32 40 33 41 83 42 34 43 88 44 82 45
REMARK SMILES IDX 84 46 35 47 87 48 81 49 80 50 36 52 68 53 48 54 67 55 49 56
REMARK SMILES IDX 52 57 66 58 85 59 50 60 51 61 65 63 86 64 53 65 37 66 38 67
REMARK SMILES IDX 46 68 39 69 45 70 47 71 44 72 40 73 41 74 42 75 43 76 69 77
REMARK SMILES IDX 70 78 78 79 71 80 77 81 79 82 76 83 72 84 73 85 74 86 75 87
REMARK SMILES IDX 54 88 55 89 63 90 56 91 62 92 64 93 61 94 57 95 58 96 59 97
REMARK SMILES IDX 60 98
REMARK H PARENT 18 7 11 22 25 32 84 51 52 62
REMARK Flexibility Score: inf
ROOT
ATOM      1  C   UNL A   1      37.736  22.173  25.587  1.00  0.00     0.002 C 
ENDROOT
BRANCH   1   2
ATOM      2  C   UNL A   1      37.086  21.158  24.646  1.00  0.00     0.021 C 
BRANCH   2   3
ATOM      3  C   UNL A   1      35.718  20.667  25.102  1.00  0.00     0.116 C 
BRANCH   3   4
ATOM      4  N   UNL A   1      35.494  19.268  24.805  1.00  0.00    -0.356 N 
ATOM      5  C   UNL A   1      34.344  18.565  24.627  1.00  0.00     0.227 C 
ATOM      6  O   UNL A   1      34.459  17.355  24.395  1.00  0.00    -0.274 OA
ATOM      7  H   UNL A   1      36.316  18.733  24.718  1.00  0.00     0.163 HD
BRANCH   5   8
ATOM      8  C   UNL A   1      32.942  19.197  24.664  1.00  0.00     0.103 C 
ATOM      9  C   UNL A   1      32.277  21.439  23.791  1.00  0.00     0.107 C 
ATOM     10  C   UNL A   1      32.329  21.368  25.285  1.00  0.00    -0.006 C 
ATOM     11  C   UNL A   1      32.530  19.960  23.392  1.00  0.00     0.047 C 
ATOM     12  C   UNL A   1      32.695  20.173  25.759  1.00  0.00    -0.016 C 
BRANCH   9  13
ATOM     13  N   UNL A   1      33.331  22.286  23.258  1.00  0.00    -0.332 N 
ATOM     14  C   UNL A   1      32.365  26.598  25.269  1.00  0.00     0.102 C 
ATOM     15  C   UNL A   1      33.590  26.586  24.338  1.00  0.00     0.037 C 
ATOM     16  C   UNL A   1      31.588  25.264  25.249  1.00  0.00     0.037 C 
ATOM     17  C   UNL A   1      33.281  25.954  22.985  1.00  0.00     0.122 C 
ATOM     18  C   UNL A   1      31.453  24.640  23.855  1.00  0.00     0.122 C 
ATOM     19  N   UNL A   1      32.753  24.607  23.207  1.00  0.00    -0.325 N 
ATOM     20  C   UNL A   1      33.590  23.564  22.971  1.00  0.00     0.317 C 
ATOM     21  O   UNL A   1      34.716  23.730  22.484  1.00  0.00    -0.249 OA
ATOM     22  H   UNL A   1      34.115  21.733  23.034  1.00  0.00     0.165 HD
BRANCH  14  23
ATOM     23  C   UNL A   1      31.467  27.801  25.025  1.00  0.00     0.308 C 
ATOM     24  O   UNL A   1      30.639  27.886  24.127  1.00  0.00    -0.252 OA
BRANCH  23  25
ATOM     25  O   UNL A   1      31.649  28.710  26.021  1.00  0.00    -0.469 OA
ATOM     26  C   UNL A   1      32.498  29.824  25.737  1.00  0.00     0.282 C 
ENDBRANCH  23  25
ENDBRANCH  14  23
ENDBRANCH   9  13
ENDBRANCH   5   8
ENDBRANCH   3   4
ENDBRANCH   2   3
ENDBRANCH   1   2
BRANCH   1  27
ATOM     27  C   UNL A   1      39.145  21.804  26.062  1.00  0.00     0.002 C 
BRANCH  27  28
ATOM     28  C   UNL A   1      39.677  20.458  25.557  1.00  0.00     0.021 C 
BRANCH  28  29
ATOM     29  C   UNL A   1      40.247  19.545  26.638  1.00  0.00     0.116 C 
BRANCH  29  30
ATOM     30  N   UNL A   1      41.478  18.903  26.209  1.00  0.00    -0.352 N 
ATOM     31  C   UNL A   1      42.674  19.453  25.827  1.00  0.00     0.251 C 
ATOM     32  H   UNL A   1      41.450  17.919  26.191  1.00  0.00     0.163 HD
ATOM     33  O   UNL A   1      43.511  18.745  25.271  1.00  0.00    -0.269 OA
BRANCH  31  34
ATOM     34  C   UNL A   1      42.952  20.887  26.065  1.00  0.00     0.039 A 
ATOM     35  C   UNL A   1      43.065  21.334  27.384  1.00  0.00     0.014 A 
ATOM     36  C   UNL A   1      43.066  21.793  25.007  1.00  0.00     0.014 A 
ATOM     37  C   UNL A   1      43.345  22.677  27.636  1.00  0.00     0.010 A 
ATOM     38  C   UNL A   1      43.422  23.117  25.258  1.00  0.00     0.010 A 
ATOM     39  C   UNL A   1      43.564  23.574  26.576  1.00  0.00    -0.014 A 
BRANCH  39  40
ATOM     40  C   UNL A   1      43.971  24.977  26.853  1.00  0.00     0.031 A 
ATOM     41  C   UNL A   1      42.998  25.965  27.434  1.00  0.00     0.074 A 
ATOM     42  C   UNL A   1      45.227  25.361  26.551  1.00  0.00     0.049 A 
ATOM     43  N   UNL A   1      43.189  27.218  27.764  1.00  0.00    -0.248 NA
ATOM     44  C   UNL A   1      41.622  25.494  27.647  1.00  0.00     0.031 C 
ATOM     45  C   UNL A   1      46.240  24.506  25.927  1.00  0.00     0.029 A 
ATOM     46  N   UNL A   1      45.872  26.559  26.731  1.00  0.00    -0.354 N 
ATOM     47  C   UNL A   1      41.962  27.686  28.220  1.00  0.00     0.074 A 
ATOM     48  C   UNL A   1      41.018  26.599  28.061  1.00  0.00     0.031 C 
ATOM     49  C   UNL A   1      47.389  25.192  25.818  1.00  0.00     0.029 A 
ATOM     50  C   UNL A   1      47.183  26.547  26.316  1.00  0.00     0.049 A 
ATOM     51  H   UNL A   1      45.437  27.351  27.121  1.00  0.00     0.167 HD
ATOM     52  C   UNL A   1      41.657  28.901  28.741  1.00  0.00     0.034 A 
ATOM     53  C   UNL A   1      48.117  27.519  26.329  1.00  0.00     0.034 A 
ATOM     54  C   UNL A   1      42.617  29.972  28.889  1.00  0.00     0.049 A 
ATOM     55  C   UNL A   1      47.752  28.862  26.906  1.00  0.00     0.074 A 
ATOM     56  C   UNL A   1      42.435  31.219  29.461  1.00  0.00     0.029 A 
ATOM     57  N   UNL A   1      43.935  29.932  28.447  1.00  0.00    -0.354 N 
ATOM     58  N   UNL A   1      46.605  29.265  27.404  1.00  0.00    -0.248 NA
ATOM     59  C   UNL A   1      48.815  29.873  26.937  1.00  0.00     0.031 C 
ATOM     60  C   UNL A   1      43.609  31.960  29.287  1.00  0.00     0.029 A 
ATOM     61  C   UNL A   1      44.560  31.147  28.692  1.00  0.00     0.049 A 
ATOM     62  H   UNL A   1      44.362  29.154  28.021  1.00  0.00     0.167 HD
ATOM     63  C   UNL A   1      46.816  30.574  27.828  1.00  0.00     0.074 A 
ATOM     64  C   UNL A   1      48.209  30.873  27.558  1.00  0.00     0.031 C 
ATOM     65  C   UNL A   1      45.940  31.450  28.385  1.00  0.00     0.034 A 
BRANCH  52  66
ATOM     66  C   UNL A   1      40.223  29.145  29.154  1.00  0.00     0.023 A 
ATOM     67  C   UNL A   1      39.824  29.132  30.503  1.00  0.00     0.031 A 
ATOM     68  C   UNL A   1      39.231  29.375  28.182  1.00  0.00     0.131 A 
ATOM     69  C   UNL A   1      38.466  29.264  30.836  1.00  0.00     0.055 A 
ATOM     70  C   UNL A   1      37.896  29.594  28.526  1.00  0.00     0.041 A 
ATOM     71  F   UNL A   1      39.542  29.377  26.876  1.00  0.00    -0.206 F 
ATOM     72  C   UNL A   1      37.503  29.523  29.859  1.00  0.00     0.022 A 
BRANCH  69  73
ATOM     73  S   UNL A   1      37.956  28.935  32.546  1.00  0.00     0.124 S 
ATOM     74  O   UNL A   1      36.584  29.435  32.545  1.00  0.00    -0.237 OA
ATOM     75  O   UNL A   1      38.110  27.489  32.647  1.00  0.00    -0.237 OA
ATOM     76  O   UNL A   1      38.897  29.721  33.341  1.00  0.00    -0.744 OA
ENDBRANCH  69  73
ENDBRANCH  52  66
BRANCH  53  77
ATOM     77  C   UNL A   1      49.477  27.265  25.769  1.00  0.00     0.023 A 
ATOM     78  C   UNL A   1      49.785  27.567  24.433  1.00  0.00     0.031 A 
ATOM     79  C   UNL A   1      50.483  26.682  26.560  1.00  0.00     0.131 A 
ATOM     80  C   UNL A   1      51.049  27.243  23.916  1.00  0.00     0.055 A 
ATOM     81  C   UNL A   1      51.758  26.418  26.059  1.00  0.00     0.041 A 
ATOM     82  F   UNL A   1      50.243  26.373  27.846  1.00  0.00    -0.206 F 
ATOM     83  C   UNL A   1      52.043  26.687  24.724  1.00  0.00     0.022 A 
BRANCH  80  84
ATOM     84  S   UNL A   1      51.351  27.478  22.143  1.00  0.00     0.124 S 
ATOM     85  O   UNL A   1      50.124  26.946  21.560  1.00  0.00    -0.237 OA
ATOM     86  O   UNL A   1      51.529  28.924  22.054  1.00  0.00    -0.237 OA
ATOM     87  O   UNL A   1      52.554  26.687  21.895  1.00  0.00    -0.744 OA
ENDBRANCH  80  84
ENDBRANCH  53  77
BRANCH  65  88
ATOM     88  C   UNL A   1      46.486  32.811  28.755  1.00  0.00     0.023 A 
ATOM     89  C   UNL A   1      46.460  33.885  27.846  1.00  0.00     0.031 A 
ATOM     90  C   UNL A   1      47.090  33.024  30.005  1.00  0.00     0.131 A 
ATOM     91  C   UNL A   1      47.110  35.087  28.164  1.00  0.00     0.055 A 
ATOM     92  C   UNL A   1      47.661  34.251  30.349  1.00  0.00     0.041 A 
ATOM     93  F   UNL A   1      47.151  32.038  30.914  1.00  0.00    -0.206 F 
ATOM     94  C   UNL A   1      47.693  35.284  29.417  1.00  0.00     0.022 A 
BRANCH  91  95
ATOM     95  S   UNL A   1      47.317  36.330  26.858  1.00  0.00     0.124 S 
ATOM     96  O   UNL A   1      47.182  35.523  25.650  1.00  0.00    -0.237 OA
ATOM     97  O   UNL A   1      46.223  37.255  27.132  1.00  0.00    -0.237 OA
ATOM     98  O   UNL A   1      48.657  36.862  27.102  1.00  0.00    -0.744 OA
ENDBRANCH  91  95
ENDBRANCH  65  88
ENDBRANCH  39  40
ENDBRANCH  31  34
ENDBRANCH  29  30
ENDBRANCH  28  29
ENDBRANCH  27  28
ENDBRANCH   1  27
TORSDOF 19
ENDMDL
