MODEL 1
REMARK VINA RESULT:     -12.1      0.000      0.000
REMARK SMILES Cc1c([C@H](C)NC(=O)c2cnn(CC(=O)NCCCCCCNC(=O)c3ccc(-c4c5nc(c(-c6cc(S(=O)(=O)[O-])ccc6F)c6ccc([nH]6)c(-c6cc(S(=O)(=O)[O-])ccc6F)c6nc(c(-c7cc(S(=O)(=O)[O-])ccc7F)c7ccc4[nH]7)C=C6)C=C5)cc3)c2)cnn1C
REMARK SMILES IDX 19 1 18 2 17 3 16 4 14 5 15 6 13 8 12 9 9 10 10 11 89 12
REMARK SMILES IDX 11 13 7 14 6 15 8 17 4 18 5 19 3 20 1 21 2 22 92 23 90 24
REMARK SMILES IDX 91 25 93 26 20 27 21 28 22 29 23 30 24 31 25 33 26 34 27 35
REMARK SMILES IDX 88 36 28 37 87 38 29 39 30 40 31 41 81 42 32 43 86 44 80 45
REMARK SMILES IDX 82 46 33 47 85 48 79 49 78 50 34 52 66 53 46 54 65 55 47 56
REMARK SMILES IDX 50 57 64 58 83 59 48 60 49 61 63 63 84 64 51 65 35 66 36 67
REMARK SMILES IDX 44 68 37 69 43 70 45 71 42 72 38 73 39 74 40 75 41 76 67 77
REMARK SMILES IDX 68 78 76 79 69 80 75 81 77 82 74 83 70 84 71 85 72 86 73 87
REMARK SMILES IDX 52 88 53 89 61 90 54 91 60 92 62 93 59 94 55 95 56 96 57 97
REMARK SMILES IDX 58 98
REMARK H PARENT 16 7 6 16 23 32 82 51 50 62
REMARK Flexibility Score: inf
ROOT
ATOM      1  C   UNL A   1      32.766  29.247  25.028  1.00  0.00     0.002 C 
ENDROOT
BRANCH   1   2
ATOM      2  C   UNL A   1      32.872  28.992  23.519  1.00  0.00     0.021 C 
BRANCH   2   3
ATOM      3  C   UNL A   1      33.560  27.678  23.144  1.00  0.00     0.116 C 
BRANCH   3   4
ATOM      4  N   UNL A   1      32.993  27.080  21.949  1.00  0.00    -0.354 N 
ATOM      5  C   UNL A   1      31.759  26.527  21.738  1.00  0.00     0.241 C 
ATOM      6  O   UNL A   1      31.500  26.139  20.593  1.00  0.00    -0.273 OA
ATOM      7  H   UNL A   1      33.591  27.068  21.167  1.00  0.00     0.163 HD
BRANCH   5   8
ATOM      8  C   UNL A   1      30.696  26.523  22.817  1.00  0.00     0.243 C 
BRANCH   8   9
ATOM      9  N   UNL A   1      30.762  25.360  23.675  1.00  0.00    -0.262 N 
ATOM     10  C   UNL A   1      31.412  24.007  25.286  1.00  0.00     0.077 A 
ATOM     11  C   UNL A   1      30.958  23.326  24.131  1.00  0.00     0.149 A 
ATOM     12  C   UNL A   1      31.151  25.331  24.983  1.00  0.00     0.123 A 
ATOM     13  N   UNL A   1      30.529  24.144  23.170  1.00  0.00    -0.180 NA
BRANCH  10  14
ATOM     14  C   UNL A   1      31.981  23.557  26.548  1.00  0.00     0.254 C 
ATOM     15  N   UNL A   1      33.223  22.980  26.587  1.00  0.00    -0.345 N 
ATOM     16  H   UNL A   1      33.483  22.592  27.453  1.00  0.00     0.164 HD
ATOM     17  O   UNL A   1      31.377  23.714  27.609  1.00  0.00    -0.269 OA
BRANCH  15  18
ATOM     18  C   UNL A   1      34.201  22.862  25.531  1.00  0.00     0.113 C 
ATOM     19  C   UNL A   1      35.354  23.841  25.759  1.00  0.00     0.036 C 
BRANCH  18  20
ATOM     20  C   UNL A   1      34.619  21.433  25.340  1.00  0.00     0.015 A 
ATOM     21  C   UNL A   1      32.584  20.002  24.381  1.00  0.00     0.067 C 
ATOM     22  C   UNL A   1      33.963  20.296  24.854  1.00  0.00     0.040 A 
ATOM     23  N   UNL A   1      34.935  19.329  24.749  1.00  0.00    -0.273 N 
ATOM     24  C   UNL A   1      35.965  21.010  25.464  1.00  0.00     0.141 A 
ATOM     25  N   UNL A   1      36.165  19.804  24.949  1.00  0.00    -0.181 NA
ATOM     26  C   UNL A   1      34.770  17.949  24.352  1.00  0.00     0.174 C 
ENDBRANCH  18  20
ENDBRANCH  15  18
ENDBRANCH  10  14
ENDBRANCH   8   9
ENDBRANCH   5   8
ENDBRANCH   3   4
ENDBRANCH   2   3
ENDBRANCH   1   2
BRANCH   1  27
ATOM     27  C   UNL A   1      33.892  28.654  25.891  1.00  0.00     0.002 C 
BRANCH  27  28
ATOM     28  C   UNL A   1      34.062  29.249  27.296  1.00  0.00     0.021 C 
BRANCH  28  29
ATOM     29  C   UNL A   1      35.509  29.497  27.693  1.00  0.00     0.116 C 
BRANCH  29  30
ATOM     30  N   UNL A   1      35.651  29.873  29.099  1.00  0.00    -0.352 N 
ATOM     31  C   UNL A   1      36.621  29.463  30.003  1.00  0.00     0.251 C 
ATOM     32  H   UNL A   1      34.973  30.495  29.449  1.00  0.00     0.163 HD
ATOM     33  O   UNL A   1      36.411  29.509  31.199  1.00  0.00    -0.269 OA
BRANCH  31  34
ATOM     34  C   UNL A   1      37.912  28.975  29.469  1.00  0.00     0.039 A 
ATOM     35  C   UNL A   1      38.574  29.619  28.420  1.00  0.00     0.014 A 
ATOM     36  C   UNL A   1      38.466  27.848  30.066  1.00  0.00     0.014 A 
ATOM     37  C   UNL A   1      39.840  29.164  28.042  1.00  0.00     0.010 A 
ATOM     38  C   UNL A   1      39.767  27.509  29.810  1.00  0.00     0.010 A 
ATOM     39  C   UNL A   1      40.442  28.117  28.760  1.00  0.00    -0.014 A 
BRANCH  39  40
ATOM     40  C   UNL A   1      41.825  27.702  28.526  1.00  0.00     0.031 A 
ATOM     41  C   UNL A   1      41.961  26.436  27.765  1.00  0.00     0.074 A 
ATOM     42  C   UNL A   1      42.886  28.504  28.777  1.00  0.00     0.049 A 
ATOM     43  N   UNL A   1      42.372  25.296  28.209  1.00  0.00    -0.248 NA
ATOM     44  C   UNL A   1      41.417  26.376  26.399  1.00  0.00     0.031 C 
ATOM     45  C   UNL A   1      42.872  29.865  29.313  1.00  0.00     0.029 A 
ATOM     46  N   UNL A   1      44.214  28.295  28.541  1.00  0.00    -0.354 N 
ATOM     47  C   UNL A   1      42.382  24.437  27.115  1.00  0.00     0.074 A 
ATOM     48  C   UNL A   1      41.584  25.084  26.110  1.00  0.00     0.031 C 
ATOM     49  C   UNL A   1      44.104  30.407  29.217  1.00  0.00     0.029 A 
ATOM     50  C   UNL A   1      45.039  29.419  28.702  1.00  0.00     0.049 A 
ATOM     51  H   UNL A   1      44.570  27.415  28.276  1.00  0.00     0.167 HD
ATOM     52  C   UNL A   1      43.254  23.391  27.058  1.00  0.00     0.034 A 
ATOM     53  C   UNL A   1      46.381  29.524  28.444  1.00  0.00     0.034 A 
ATOM     54  C   UNL A   1      43.820  23.127  28.367  1.00  0.00     0.049 A 
ATOM     55  C   UNL A   1      46.900  28.133  28.496  1.00  0.00     0.074 A 
ATOM     56  C   UNL A   1      43.292  22.791  29.600  1.00  0.00     0.029 A 
ATOM     57  N   UNL A   1      45.085  23.608  28.635  1.00  0.00    -0.354 N 
ATOM     58  N   UNL A   1      46.953  27.452  29.608  1.00  0.00    -0.248 NA
ATOM     59  C   UNL A   1      46.865  27.324  27.283  1.00  0.00     0.031 C 
ATOM     60  C   UNL A   1      44.037  23.563  30.543  1.00  0.00     0.029 A 
ATOM     61  C   UNL A   1      45.032  24.255  29.848  1.00  0.00     0.049 A 
ATOM     62  H   UNL A   1      45.879  23.508  28.063  1.00  0.00     0.167 HD
ATOM     63  C   UNL A   1      46.503  26.184  29.273  1.00  0.00     0.074 A 
ATOM     64  C   UNL A   1      46.574  26.129  27.812  1.00  0.00     0.031 C 
ATOM     65  C   UNL A   1      45.834  25.414  30.182  1.00  0.00     0.034 A 
BRANCH  52  66
ATOM     66  C   UNL A   1      43.889  22.856  25.788  1.00  0.00     0.023 A 
ATOM     67  C   UNL A   1      43.979  21.455  25.666  1.00  0.00     0.031 A 
ATOM     68  C   UNL A   1      44.645  23.595  24.851  1.00  0.00     0.131 A 
ATOM     69  C   UNL A   1      44.872  20.860  24.757  1.00  0.00     0.055 A 
ATOM     70  C   UNL A   1      45.482  22.998  23.903  1.00  0.00     0.041 A 
ATOM     71  F   UNL A   1      44.695  24.931  24.843  1.00  0.00    -0.206 F 
ATOM     72  C   UNL A   1      45.629  21.623  23.876  1.00  0.00     0.022 A 
BRANCH  69  73
ATOM     73  S   UNL A   1      45.164  19.078  24.889  1.00  0.00     0.124 S 
ATOM     74  O   UNL A   1      45.474  18.731  23.506  1.00  0.00    -0.237 OA
ATOM     75  O   UNL A   1      46.275  19.027  25.833  1.00  0.00    -0.237 OA
ATOM     76  O   UNL A   1      43.892  18.565  25.392  1.00  0.00    -0.744 OA
ENDBRANCH  69  73
ENDBRANCH  52  66
BRANCH  53  77
ATOM     77  C   UNL A   1      47.223  30.699  28.026  1.00  0.00     0.023 A 
ATOM     78  C   UNL A   1      46.774  31.758  27.185  1.00  0.00     0.031 A 
ATOM     79  C   UNL A   1      48.468  30.917  28.637  1.00  0.00     0.131 A 
ATOM     80  C   UNL A   1      47.506  32.979  27.100  1.00  0.00     0.055 A 
ATOM     81  C   UNL A   1      49.162  32.123  28.553  1.00  0.00     0.041 A 
ATOM     82  F   UNL A   1      49.054  29.983  29.389  1.00  0.00    -0.206 F 
ATOM     83  C   UNL A   1      48.648  33.190  27.861  1.00  0.00     0.022 A 
BRANCH  80  84
ATOM     84  S   UNL A   1      47.079  34.322  25.943  1.00  0.00     0.124 S 
ATOM     85  O   UNL A   1      48.280  34.396  25.118  1.00  0.00    -0.237 OA
ATOM     86  O   UNL A   1      45.870  33.834  25.293  1.00  0.00    -0.237 OA
ATOM     87  O   UNL A   1      46.873  35.477  26.821  1.00  0.00    -0.744 OA
ENDBRANCH  80  84
ENDBRANCH  53  77
BRANCH  65  88
ATOM     88  C   UNL A   1      45.765  25.930  31.607  1.00  0.00     0.023 A 
ATOM     89  C   UNL A   1      46.823  25.839  32.546  1.00  0.00     0.031 A 
ATOM     90  C   UNL A   1      44.608  26.619  31.999  1.00  0.00     0.131 A 
ATOM     91  C   UNL A   1      46.685  26.403  33.830  1.00  0.00     0.055 A 
ATOM     92  C   UNL A   1      44.482  27.193  33.264  1.00  0.00     0.041 A 
ATOM     93  F   UNL A   1      43.586  26.771  31.141  1.00  0.00    -0.206 F 
ATOM     94  C   UNL A   1      45.516  27.081  34.187  1.00  0.00     0.022 A 
BRANCH  91  95
ATOM     95  S   UNL A   1      48.024  26.255  35.061  1.00  0.00     0.124 S 
ATOM     96  O   UNL A   1      48.238  24.816  35.161  1.00  0.00    -0.237 OA
ATOM     97  O   UNL A   1      49.106  27.020  34.449  1.00  0.00    -0.237 OA
ATOM     98  O   UNL A   1      47.451  26.870  36.261  1.00  0.00    -0.744 OA
ENDBRANCH  91  95
ENDBRANCH  65  88
ENDBRANCH  39  40
ENDBRANCH  31  34
ENDBRANCH  29  30
ENDBRANCH  28  29
ENDBRANCH  27  28
ENDBRANCH   1  27
TORSDOF 20
ENDMDL
MODEL 2
REMARK VINA RESULT:     -11.9      1.724      2.204
REMARK SMILES Cc1c([C@H](C)NC(=O)c2cnn(CC(=O)NCCCCCCNC(=O)c3ccc(-c4c5nc(c(-c6cc(S(=O)(=O)[O-])ccc6F)c6ccc([nH]6)c(-c6cc(S(=O)(=O)[O-])ccc6F)c6nc(c(-c7cc(S(=O)(=O)[O-])ccc7F)c7ccc4[nH]7)C=C6)C=C5)cc3)c2)cnn1C
REMARK SMILES IDX 19 1 18 2 17 3 16 4 14 5 15 6 13 8 12 9 9 10 10 11 89 12
REMARK SMILES IDX 11 13 7 14 6 15 8 17 4 18 5 19 3 20 1 21 2 22 92 23 90 24
REMARK SMILES IDX 91 25 93 26 20 27 21 28 22 29 23 30 24 31 25 33 26 34 27 35
REMARK SMILES IDX 88 36 28 37 87 38 29 39 30 40 31 41 81 42 32 43 86 44 80 45
REMARK SMILES IDX 82 46 33 47 85 48 79 49 78 50 34 52 66 53 46 54 65 55 47 56
REMARK SMILES IDX 50 57 64 58 83 59 48 60 49 61 63 63 84 64 51 65 35 66 36 67
REMARK SMILES IDX 44 68 37 69 43 70 45 71 42 72 38 73 39 74 40 75 41 76 67 77
REMARK SMILES IDX 68 78 76 79 69 80 75 81 77 82 74 83 70 84 71 85 72 86 73 87
REMARK SMILES IDX 52 88 53 89 61 90 54 91 60 92 62 93 59 94 55 95 56 96 57 97
REMARK SMILES IDX 58 98
REMARK H PARENT 16 7 6 16 23 32 82 51 50 62
REMARK Flexibility Score: inf
ROOT
ATOM      1  C   UNL A   1      32.304  29.663  25.189  1.00  0.00     0.002 C 
ENDROOT
BRANCH   1   2
ATOM      2  C   UNL A   1      32.024  29.045  23.813  1.00  0.00     0.021 C 
BRANCH   2   3
ATOM      3  C   UNL A   1      32.062  27.516  23.784  1.00  0.00     0.116 C 
BRANCH   3   4
ATOM      4  N   UNL A   1      30.738  26.933  23.662  1.00  0.00    -0.354 N 
ATOM      5  C   UNL A   1      29.959  26.307  24.596  1.00  0.00     0.241 C 
ATOM      6  O   UNL A   1      28.828  25.953  24.245  1.00  0.00    -0.273 OA
ATOM      7  H   UNL A   1      30.338  26.999  22.765  1.00  0.00     0.163 HD
BRANCH   5   8
ATOM      8  C   UNL A   1      30.398  26.180  26.040  1.00  0.00     0.243 C 
BRANCH   8   9
ATOM      9  N   UNL A   1      31.240  25.028  26.279  1.00  0.00    -0.262 N 
ATOM     10  C   UNL A   1      32.747  23.457  25.948  1.00  0.00     0.077 A 
ATOM     11  C   UNL A   1      31.666  23.035  26.760  1.00  0.00     0.149 A 
ATOM     12  C   UNL A   1      32.481  24.802  25.759  1.00  0.00     0.123 A 
ATOM     13  N   UNL A   1      30.773  23.997  26.991  1.00  0.00    -0.180 NA
BRANCH  10  14
ATOM     14  C   UNL A   1      33.919  22.776  25.416  1.00  0.00     0.254 C 
ATOM     15  N   UNL A   1      33.781  21.670  24.620  1.00  0.00    -0.345 N 
ATOM     16  H   UNL A   1      34.616  21.196  24.404  1.00  0.00     0.164 HD
ATOM     17  O   UNL A   1      35.054  23.195  25.643  1.00  0.00    -0.269 OA
BRANCH  15  18
ATOM     18  C   UNL A   1      32.579  21.104  24.054  1.00  0.00     0.113 C 
ATOM     19  C   UNL A   1      32.140  21.900  22.824  1.00  0.00     0.036 C 
BRANCH  18  20
ATOM     20  C   UNL A   1      32.732  19.629  23.825  1.00  0.00     0.015 A 
ATOM     21  C   UNL A   1      32.999  18.361  26.156  1.00  0.00     0.067 C 
ATOM     22  C   UNL A   1      32.878  18.532  24.684  1.00  0.00     0.040 A 
ATOM     23  N   UNL A   1      32.782  17.422  23.879  1.00  0.00    -0.273 N 
ATOM     24  C   UNL A   1      32.543  19.031  22.556  1.00  0.00     0.141 A 
ATOM     25  N   UNL A   1      32.409  17.714  22.632  1.00  0.00    -0.181 NA
ATOM     26  C   UNL A   1      32.926  16.036  24.263  1.00  0.00     0.174 C 
ENDBRANCH  18  20
ENDBRANCH  15  18
ENDBRANCH  10  14
ENDBRANCH   8   9
ENDBRANCH   5   8
ENDBRANCH   3   4
ENDBRANCH   2   3
ENDBRANCH   1   2
BRANCH   1  27
ATOM     27  C   UNL A   1      33.525  29.109  25.939  1.00  0.00     0.002 C 
BRANCH  27  28
ATOM     28  C   UNL A   1      33.937  29.852  27.218  1.00  0.00     0.021 C 
BRANCH  28  29
ATOM     29  C   UNL A   1      35.303  29.451  27.755  1.00  0.00     0.116 C 
BRANCH  29  30
ATOM     30  N   UNL A   1      35.519  29.895  29.132  1.00  0.00    -0.352 N 
ATOM     31  C   UNL A   1      36.536  29.528  30.002  1.00  0.00     0.251 C 
ATOM     32  H   UNL A   1      34.860  30.534  29.486  1.00  0.00     0.163 HD
ATOM     33  O   UNL A   1      36.390  29.633  31.204  1.00  0.00    -0.269 OA
BRANCH  31  34
ATOM     34  C   UNL A   1      37.797  29.013  29.425  1.00  0.00     0.039 A 
ATOM     35  C   UNL A   1      38.335  29.522  28.239  1.00  0.00     0.014 A 
ATOM     36  C   UNL A   1      38.453  28.004  30.120  1.00  0.00     0.014 A 
ATOM     37  C   UNL A   1      39.583  29.060  27.814  1.00  0.00     0.010 A 
ATOM     38  C   UNL A   1      39.742  27.675  29.795  1.00  0.00     0.010 A 
ATOM     39  C   UNL A   1      40.294  28.148  28.612  1.00  0.00    -0.014 A 
BRANCH  39  40
ATOM     40  C   UNL A   1      41.669  27.752  28.312  1.00  0.00     0.031 A 
ATOM     41  C   UNL A   1      41.790  26.439  27.631  1.00  0.00     0.074 A 
ATOM     42  C   UNL A   1      42.722  28.594  28.434  1.00  0.00     0.049 A 
ATOM     43  N   UNL A   1      42.263  25.344  28.121  1.00  0.00    -0.248 NA
ATOM     44  C   UNL A   1      41.157  26.272  26.313  1.00  0.00     0.031 C 
ATOM     45  C   UNL A   1      42.705  29.989  28.876  1.00  0.00     0.029 A 
ATOM     46  N   UNL A   1      44.036  28.401  28.121  1.00  0.00    -0.354 N 
ATOM     47  C   UNL A   1      42.224  24.411  27.091  1.00  0.00     0.074 A 
ATOM     48  C   UNL A   1      41.342  24.967  26.101  1.00  0.00     0.031 C 
ATOM     49  C   UNL A   1      43.912  30.552  28.659  1.00  0.00     0.029 A 
ATOM     50  C   UNL A   1      44.837  29.554  28.149  1.00  0.00     0.049 A 
ATOM     51  H   UNL A   1      44.399  27.514  27.892  1.00  0.00     0.167 HD
ATOM     52  C   UNL A   1      43.120  23.385  27.044  1.00  0.00     0.034 A 
ATOM     53  C   UNL A   1      46.156  29.672  27.792  1.00  0.00     0.034 A 
ATOM     54  C   UNL A   1      43.780  23.226  28.326  1.00  0.00     0.049 A 
ATOM     55  C   UNL A   1      46.717  28.301  27.902  1.00  0.00     0.074 A 
ATOM     56  C   UNL A   1      43.346  22.964  29.613  1.00  0.00     0.029 A 
ATOM     57  N   UNL A   1      45.046  23.755  28.473  1.00  0.00    -0.354 N 
ATOM     58  N   UNL A   1      46.863  27.701  29.051  1.00  0.00    -0.248 NA
ATOM     59  C   UNL A   1      46.623  27.410  26.752  1.00  0.00     0.031 C 
ATOM     60  C   UNL A   1      44.131  23.818  30.447  1.00  0.00     0.029 A 
ATOM     61  C   UNL A   1      45.055  24.483  29.640  1.00  0.00     0.049 A 
ATOM     62  H   UNL A   1      45.802  23.635  27.855  1.00  0.00     0.167 HD
ATOM     63  C   UNL A   1      46.429  26.402  28.835  1.00  0.00     0.074 A 
ATOM     64  C   UNL A   1      46.403  26.248  27.380  1.00  0.00     0.031 C 
ATOM     65  C   UNL A   1      45.845  25.681  29.839  1.00  0.00     0.034 A 
BRANCH  52  66
ATOM     66  C   UNL A   1      43.684  22.778  25.773  1.00  0.00     0.023 A 
ATOM     67  C   UNL A   1      43.764  21.372  25.723  1.00  0.00     0.031 A 
ATOM     68  C   UNL A   1      44.388  23.461  24.757  1.00  0.00     0.131 A 
ATOM     69  C   UNL A   1      44.605  20.724  24.800  1.00  0.00     0.055 A 
ATOM     70  C   UNL A   1      45.171  22.809  23.798  1.00  0.00     0.041 A 
ATOM     71  F   UNL A   1      44.440  24.795  24.672  1.00  0.00    -0.206 F 
ATOM     72  C   UNL A   1      45.314  21.434  23.839  1.00  0.00     0.022 A 
BRANCH  69  73
ATOM     73  S   UNL A   1      44.900  18.950  25.013  1.00  0.00     0.124 S 
ATOM     74  O   UNL A   1      44.926  18.491  23.629  1.00  0.00    -0.237 OA
ATOM     75  O   UNL A   1      46.176  18.944  25.721  1.00  0.00    -0.237 OA
ATOM     76  O   UNL A   1      43.749  18.509  25.797  1.00  0.00    -0.744 OA
ENDBRANCH  69  73
ENDBRANCH  52  66
BRANCH  53  77
ATOM     77  C   UNL A   1      46.934  30.835  27.238  1.00  0.00     0.023 A 
ATOM     78  C   UNL A   1      46.352  32.051  26.775  1.00  0.00     0.031 A 
ATOM     79  C   UNL A   1      48.333  30.855  27.351  1.00  0.00     0.131 A 
ATOM     80  C   UNL A   1      47.157  33.212  26.574  1.00  0.00     0.055 A 
ATOM     81  C   UNL A   1      49.101  32.004  27.163  1.00  0.00     0.041 A 
ATOM     82  F   UNL A   1      49.025  29.767  27.697  1.00  0.00    -0.206 F 
ATOM     83  C   UNL A   1      48.515  33.206  26.862  1.00  0.00     0.022 A 
BRANCH  80  84
ATOM     84  S   UNL A   1      46.517  34.757  25.848  1.00  0.00     0.124 S 
ATOM     85  O   UNL A   1      45.653  34.251  24.786  1.00  0.00    -0.237 OA
ATOM     86  O   UNL A   1      45.856  35.409  26.971  1.00  0.00    -0.237 OA
ATOM     87  O   UNL A   1      47.726  35.438  25.375  1.00  0.00    -0.744 OA
ENDBRANCH  80  84
ENDBRANCH  53  77
BRANCH  65  88
ATOM     88  C   UNL A   1      45.857  26.293  31.226  1.00  0.00     0.023 A 
ATOM     89  C   UNL A   1      44.784  27.027  31.790  1.00  0.00     0.031 A 
ATOM     90  C   UNL A   1      46.972  26.048  32.041  1.00  0.00     0.131 A 
ATOM     91  C   UNL A   1      44.866  27.506  33.112  1.00  0.00     0.055 A 
ATOM     92  C   UNL A   1      47.043  26.507  33.356  1.00  0.00     0.041 A 
ATOM     93  F   UNL A   1      48.006  25.328  31.576  1.00  0.00    -0.206 F 
ATOM     94  C   UNL A   1      45.994  27.245  33.894  1.00  0.00     0.022 A 
BRANCH  91  95
ATOM     95  S   UNL A   1      43.507  28.488  33.834  1.00  0.00     0.124 S 
ATOM     96  O   UNL A   1      43.401  29.634  32.939  1.00  0.00    -0.237 OA
ATOM     97  O   UNL A   1      42.387  27.551  33.806  1.00  0.00    -0.237 OA
ATOM     98  O   UNL A   1      43.996  28.807  35.177  1.00  0.00    -0.744 OA
ENDBRANCH  91  95
ENDBRANCH  65  88
ENDBRANCH  39  40
ENDBRANCH  31  34
ENDBRANCH  29  30
ENDBRANCH  28  29
ENDBRANCH  27  28
ENDBRANCH   1  27
TORSDOF 20
ENDMDL
MODEL 3
REMARK VINA RESULT:     -11.7      2.898      8.379
REMARK SMILES Cc1c([C@H](C)NC(=O)c2cnn(CC(=O)NCCCCCCNC(=O)c3ccc(-c4c5nc(c(-c6cc(S(=O)(=O)[O-])ccc6F)c6ccc([nH]6)c(-c6cc(S(=O)(=O)[O-])ccc6F)c6nc(c(-c7cc(S(=O)(=O)[O-])ccc7F)c7ccc4[nH]7)C=C6)C=C5)cc3)c2)cnn1C
REMARK SMILES IDX 19 1 18 2 17 3 16 4 14 5 15 6 13 8 12 9 9 10 10 11 89 12
REMARK SMILES IDX 11 13 7 14 6 15 8 17 4 18 5 19 3 20 1 21 2 22 92 23 90 24
REMARK SMILES IDX 91 25 93 26 20 27 21 28 22 29 23 30 24 31 25 33 26 34 27 35
REMARK SMILES IDX 88 36 28 37 87 38 29 39 30 40 31 41 81 42 32 43 86 44 80 45
REMARK SMILES IDX 82 46 33 47 85 48 79 49 78 50 34 52 66 53 46 54 65 55 47 56
REMARK SMILES IDX 50 57 64 58 83 59 48 60 49 61 63 63 84 64 51 65 35 66 36 67
REMARK SMILES IDX 44 68 37 69 43 70 45 71 42 72 38 73 39 74 40 75 41 76 67 77
REMARK SMILES IDX 68 78 76 79 69 80 75 81 77 82 74 83 70 84 71 85 72 86 73 87
REMARK SMILES IDX 52 88 53 89 61 90 54 91 60 92 62 93 59 94 55 95 56 96 57 97
REMARK SMILES IDX 58 98
REMARK H PARENT 16 7 6 16 23 32 82 51 50 62
REMARK Flexibility Score: inf
ROOT
ATOM      1  C   UNL A   1      40.835  20.958  26.817  1.00  0.00     0.002 C 
ENDROOT
BRANCH   1   2
ATOM      2  C   UNL A   1      39.769  20.246  25.975  1.00  0.00     0.021 C 
BRANCH   2   3
ATOM      3  C   UNL A   1      38.652  21.157  25.463  1.00  0.00     0.116 C 
BRANCH   3   4
ATOM      4  N   UNL A   1      38.884  22.552  25.790  1.00  0.00    -0.354 N 
ATOM      5  C   UNL A   1      37.997  23.544  26.110  1.00  0.00     0.241 C 
ATOM      6  O   UNL A   1      38.465  24.647  26.412  1.00  0.00    -0.273 OA
ATOM      7  H   UNL A   1      39.828  22.829  25.778  1.00  0.00     0.163 HD
BRANCH   5   8
ATOM      8  C   UNL A   1      36.513  23.271  26.237  1.00  0.00     0.243 C 
BRANCH   8   9
ATOM      9  N   UNL A   1      35.806  23.380  24.979  1.00  0.00    -0.262 N 
ATOM     10  C   UNL A   1      34.218  23.165  23.468  1.00  0.00     0.077 A 
ATOM     11  C   UNL A   1      35.523  23.157  22.917  1.00  0.00     0.149 A 
ATOM     12  C   UNL A   1      34.453  23.434  24.805  1.00  0.00     0.123 A 
ATOM     13  N   UNL A   1      36.482  23.324  23.827  1.00  0.00    -0.180 NA
BRANCH  10  14
ATOM     14  C   UNL A   1      32.892  22.997  22.892  1.00  0.00     0.254 C 
ATOM     15  N   UNL A   1      32.330  23.991  22.135  1.00  0.00    -0.345 N 
ATOM     16  H   UNL A   1      31.388  23.853  21.887  1.00  0.00     0.164 HD
ATOM     17  O   UNL A   1      32.262  21.951  23.044  1.00  0.00    -0.269 OA
BRANCH  15  18
ATOM     18  C   UNL A   1      32.931  25.212  21.652  1.00  0.00     0.113 C 
ATOM     19  C   UNL A   1      32.499  25.487  20.211  1.00  0.00     0.036 C 
BRANCH  18  20
ATOM     20  C   UNL A   1      32.690  26.346  22.606  1.00  0.00     0.015 A 
ATOM     21  C   UNL A   1      30.353  26.021  23.847  1.00  0.00     0.067 C 
ATOM     22  C   UNL A   1      31.656  26.647  23.501  1.00  0.00     0.040 A 
ATOM     23  N   UNL A   1      32.104  27.725  24.227  1.00  0.00    -0.273 N 
ATOM     24  C   UNL A   1      33.685  27.304  22.917  1.00  0.00     0.141 A 
ATOM     25  N   UNL A   1      33.386  28.011  23.998  1.00  0.00    -0.181 NA
ATOM     26  C   UNL A   1      31.391  28.464  25.244  1.00  0.00     0.174 C 
ENDBRANCH  18  20
ENDBRANCH  15  18
ENDBRANCH  10  14
ENDBRANCH   8   9
ENDBRANCH   5   8
ENDBRANCH   3   4
ENDBRANCH   2   3
ENDBRANCH   1   2
BRANCH   1  27
ATOM     27  C   UNL A   1      42.085  20.132  27.159  1.00  0.00     0.002 C 
BRANCH  27  28
ATOM     28  C   UNL A   1      42.435  18.990  26.194  1.00  0.00     0.021 C 
BRANCH  28  29
ATOM     29  C   UNL A   1      43.910  18.620  26.180  1.00  0.00     0.116 C 
BRANCH  29  30
ATOM     30  N   UNL A   1      44.485  18.642  24.836  1.00  0.00    -0.352 N 
ATOM     31  C   UNL A   1      44.611  19.723  23.975  1.00  0.00     0.251 C 
ATOM     32  H   UNL A   1      44.825  17.782  24.500  1.00  0.00     0.163 HD
ATOM     33  O   UNL A   1      44.720  19.549  22.776  1.00  0.00    -0.269 OA
BRANCH  31  34
ATOM     34  C   UNL A   1      44.614  21.083  24.556  1.00  0.00     0.039 A 
ATOM     35  C   UNL A   1      43.620  22.020  24.262  1.00  0.00     0.014 A 
ATOM     36  C   UNL A   1      45.644  21.401  25.435  1.00  0.00     0.014 A 
ATOM     37  C   UNL A   1      43.630  23.246  24.932  1.00  0.00     0.010 A 
ATOM     38  C   UNL A   1      45.560  22.527  26.208  1.00  0.00     0.010 A 
ATOM     39  C   UNL A   1      44.596  23.485  25.924  1.00  0.00    -0.014 A 
BRANCH  39  40
ATOM     40  C   UNL A   1      44.565  24.674  26.775  1.00  0.00     0.031 A 
ATOM     41  C   UNL A   1      45.693  25.611  26.554  1.00  0.00     0.074 A 
ATOM     42  C   UNL A   1      43.495  25.008  27.535  1.00  0.00     0.049 A 
ATOM     43  N   UNL A   1      46.677  25.854  27.352  1.00  0.00    -0.248 NA
ATOM     44  C   UNL A   1      45.846  26.224  25.225  1.00  0.00     0.031 C 
ATOM     45  C   UNL A   1      42.228  24.287  27.662  1.00  0.00     0.029 A 
ATOM     46  N   UNL A   1      43.285  26.111  28.310  1.00  0.00    -0.354 N 
ATOM     47  C   UNL A   1      47.440  26.841  26.737  1.00  0.00     0.074 A 
ATOM     48  C   UNL A   1      47.013  26.857  25.364  1.00  0.00     0.031 C 
ATOM     49  C   UNL A   1      41.338  25.043  28.338  1.00  0.00     0.029 A 
ATOM     50  C   UNL A   1      41.974  26.271  28.787  1.00  0.00     0.049 A 
ATOM     51  H   UNL A   1      44.003  26.751  28.522  1.00  0.00     0.167 HD
ATOM     52  C   UNL A   1      48.172  27.720  27.477  1.00  0.00     0.034 A 
ATOM     53  C   UNL A   1      41.459  27.322  29.501  1.00  0.00     0.034 A 
ATOM     54  C   UNL A   1      48.318  27.242  28.839  1.00  0.00     0.049 A 
ATOM     55  C   UNL A   1      42.632  27.974  30.140  1.00  0.00     0.074 A 
ATOM     56  C   UNL A   1      48.857  26.105  29.413  1.00  0.00     0.029 A 
ATOM     57  N   UNL A   1      47.494  27.778  29.806  1.00  0.00    -0.354 N 
ATOM     58  N   UNL A   1      43.319  27.394  31.085  1.00  0.00    -0.248 NA
ATOM     59  C   UNL A   1      43.353  29.002  29.400  1.00  0.00     0.031 C 
ATOM     60  C   UNL A   1      47.944  25.749  30.452  1.00  0.00     0.029 A 
ATOM     61  C   UNL A   1      46.953  26.731  30.514  1.00  0.00     0.049 A 
ATOM     62  H   UNL A   1      47.323  28.735  29.960  1.00  0.00     0.167 HD
ATOM     63  C   UNL A   1      44.646  27.642  30.767  1.00  0.00     0.074 A 
ATOM     64  C   UNL A   1      44.605  28.730  29.789  1.00  0.00     0.031 C 
ATOM     65  C   UNL A   1      45.625  26.745  31.093  1.00  0.00     0.034 A 
BRANCH  52  66
ATOM     66  C   UNL A   1      48.429  29.169  27.106  1.00  0.00     0.023 A 
ATOM     67  C   UNL A   1      49.772  29.596  27.112  1.00  0.00     0.031 A 
ATOM     68  C   UNL A   1      47.466  30.199  27.027  1.00  0.00     0.131 A 
ATOM     69  C   UNL A   1      50.100  30.961  27.174  1.00  0.00     0.055 A 
ATOM     70  C   UNL A   1      47.800  31.557  27.022  1.00  0.00     0.041 A 
ATOM     71  F   UNL A   1      46.149  29.972  27.039  1.00  0.00    -0.206 F 
ATOM     72  C   UNL A   1      49.122  31.948  27.134  1.00  0.00     0.022 A 
BRANCH  69  73
ATOM     73  S   UNL A   1      51.822  31.412  27.506  1.00  0.00     0.124 S 
ATOM     74  O   UNL A   1      51.727  32.863  27.621  1.00  0.00    -0.237 OA
ATOM     75  O   UNL A   1      52.088  30.681  28.741  1.00  0.00    -0.237 OA
ATOM     76  O   UNL A   1      52.532  30.923  26.326  1.00  0.00    -0.744 OA
ENDBRANCH  69  73
ENDBRANCH  52  66
BRANCH  53  77
ATOM     77  C   UNL A   1      40.067  27.888  29.570  1.00  0.00     0.023 A 
ATOM     78  C   UNL A   1      39.426  28.318  30.767  1.00  0.00     0.031 A 
ATOM     79  C   UNL A   1      39.392  28.223  28.385  1.00  0.00     0.131 A 
ATOM     80  C   UNL A   1      38.256  29.132  30.714  1.00  0.00     0.055 A 
ATOM     81  C   UNL A   1      38.256  29.032  28.353  1.00  0.00     0.041 A 
ATOM     82  F   UNL A   1      39.829  27.821  27.190  1.00  0.00    -0.206 F 
ATOM     83  C   UNL A   1      37.733  29.564  29.503  1.00  0.00     0.022 A 
BRANCH  80  84
ATOM     84  S   UNL A   1      37.297  29.602  32.192  1.00  0.00     0.124 S 
ATOM     85  O   UNL A   1      37.323  28.366  32.968  1.00  0.00    -0.237 OA
ATOM     86  O   UNL A   1      38.045  30.728  32.735  1.00  0.00    -0.237 OA
ATOM     87  O   UNL A   1      35.981  29.951  31.649  1.00  0.00    -0.744 OA
ENDBRANCH  80  84
ENDBRANCH  53  77
BRANCH  65  88
ATOM     88  C   UNL A   1      45.223  25.571  31.964  1.00  0.00     0.023 A 
ATOM     89  C   UNL A   1      45.156  25.606  33.379  1.00  0.00     0.031 A 
ATOM     90  C   UNL A   1      44.809  24.393  31.325  1.00  0.00     0.131 A 
ATOM     91  C   UNL A   1      44.713  24.479  34.099  1.00  0.00     0.055 A 
ATOM     92  C   UNL A   1      44.353  23.285  32.040  1.00  0.00     0.041 A 
ATOM     93  F   UNL A   1      44.814  24.311  29.985  1.00  0.00    -0.206 F 
ATOM     94  C   UNL A   1      44.311  23.321  33.430  1.00  0.00     0.022 A 
BRANCH  91  95
ATOM     95  S   UNL A   1      44.664  24.499  35.924  1.00  0.00     0.124 S 
ATOM     96  O   UNL A   1      43.312  24.956  36.224  1.00  0.00    -0.237 OA
ATOM     97  O   UNL A   1      44.959  23.110  36.266  1.00  0.00    -0.237 OA
ATOM     98  O   UNL A   1      45.721  25.448  36.282  1.00  0.00    -0.744 OA
ENDBRANCH  91  95
ENDBRANCH  65  88
ENDBRANCH  39  40
ENDBRANCH  31  34
ENDBRANCH  29  30
ENDBRANCH  28  29
ENDBRANCH  27  28
ENDBRANCH   1  27
TORSDOF 20
ENDMDL
