MODEL 1
REMARK VINA RESULT:     -11.9      0.000      0.000
REMARK SMILES Cc1ccc(C(=O)N[C@@H]2C=C[C@H](C(=O)NCCCCCCNC(=O)c3ccc(-c4c5nc(c(-c6cc(S(=O)(=O)[O-])ccc6F)c6ccc([nH]6)c(-c6cc(S(=O)(=O)[O-])ccc6F)c6nc(c(-c7cc(S(=O)(=O)[O-])ccc7F)c7ccc4[nH]7)C=C6)C=C5)cc3)C2)c(F)c1
REMARK SMILES IDX 19 1 18 2 17 3 16 4 15 5 13 6 14 7 12 9 9 10 10 11 88 12
REMARK SMILES IDX 11 13 8 14 6 15 7 16 5 18 1 19 2 20 3 21 91 22 4 23 89 24
REMARK SMILES IDX 90 25 20 26 21 27 22 28 23 29 24 31 25 32 26 33 87 34 27 35
REMARK SMILES IDX 86 36 28 37 29 38 30 39 80 40 31 41 85 42 79 43 81 44 32 45
REMARK SMILES IDX 84 46 78 47 77 48 33 50 65 51 45 52 64 53 46 54 49 55 63 56
REMARK SMILES IDX 82 57 47 58 48 59 62 61 83 62 50 63 34 64 35 65 43 66 36 67
REMARK SMILES IDX 42 68 44 69 41 70 37 71 38 72 39 73 40 74 66 75 67 76 75 77
REMARK SMILES IDX 68 78 74 79 76 80 73 81 69 82 70 83 71 84 72 85 51 86 52 87
REMARK SMILES IDX 60 88 53 89 59 90 61 91 58 92 54 93 55 94 56 95 57 96
REMARK H PARENT 15 8 8 17 22 30 81 49 49 60
REMARK Flexibility Score: inf
ROOT
ATOM      1  C   UNL A   1      35.185  22.525  23.677  1.00  0.00     0.002 C 
ENDROOT
BRANCH   1   2
ATOM      2  C   UNL A   1      34.834  23.707  22.769  1.00  0.00     0.002 C 
BRANCH   2   3
ATOM      3  C   UNL A   1      33.396  23.729  22.237  1.00  0.00     0.021 C 
BRANCH   3   4
ATOM      4  C   UNL A   1      32.877  25.097  21.793  1.00  0.00     0.116 C 
BRANCH   4   5
ATOM      5  N   UNL A   1      31.508  25.340  22.210  1.00  0.00    -0.356 N 
ATOM      6  C   UNL A   1      31.044  26.120  23.236  1.00  0.00     0.227 C 
ATOM      7  O   UNL A   1      29.830  26.294  23.333  1.00  0.00    -0.274 OA
ATOM      8  H   UNL A   1      30.815  24.880  21.682  1.00  0.00     0.163 HD
BRANCH   6   9
ATOM      9  C   UNL A   1      32.056  26.677  24.239  1.00  0.00     0.103 C 
ATOM     10  C   UNL A   1      31.957  25.666  26.499  1.00  0.00     0.106 C 
ATOM     11  C   UNL A   1      31.429  27.069  26.473  1.00  0.00    -0.006 C 
ATOM     12  C   UNL A   1      32.587  25.531  25.104  1.00  0.00     0.047 C 
ATOM     13  C   UNL A   1      31.468  27.608  25.250  1.00  0.00    -0.016 C 
BRANCH  10  14
ATOM     14  N   UNL A   1      30.852  24.793  26.859  1.00  0.00    -0.346 N 
ATOM     15  C   UNL A   1      30.745  23.428  26.987  1.00  0.00     0.254 C 
ATOM     16  O   UNL A   1      29.809  22.953  27.626  1.00  0.00    -0.269 OA
ATOM     17  H   UNL A   1      30.015  25.274  27.050  1.00  0.00     0.164 HD
BRANCH  15  18
ATOM     18  C   UNL A   1      31.675  22.531  26.282  1.00  0.00     0.075 A 
ATOM     19  C   UNL A   1      33.886  19.137  24.864  1.00  0.00     0.044 C 
ATOM     20  C   UNL A   1      33.184  20.389  25.302  1.00  0.00    -0.048 A 
ATOM     21  C   UNL A   1      32.154  20.943  24.527  1.00  0.00     0.004 A 
ATOM     22  C   UNL A   1      33.549  21.016  26.498  1.00  0.00     0.043 A 
ATOM     23  C   UNL A   1      31.414  22.031  25.004  1.00  0.00     0.017 A 
ATOM     24  C   UNL A   1      32.789  22.074  26.988  1.00  0.00     0.136 A 
ATOM     25  F   UNL A   1      33.116  22.584  28.184  1.00  0.00    -0.206 F 
ENDBRANCH  15  18
ENDBRANCH  10  14
ENDBRANCH   6   9
ENDBRANCH   4   5
ENDBRANCH   3   4
ENDBRANCH   2   3
ENDBRANCH   1   2
BRANCH   1  26
ATOM     26  C   UNL A   1      36.658  22.422  24.080  1.00  0.00     0.021 C 
BRANCH  26  27
ATOM     27  C   UNL A   1      36.907  22.142  25.560  1.00  0.00     0.116 C 
BRANCH  27  28
ATOM     28  N   UNL A   1      38.002  21.210  25.773  1.00  0.00    -0.352 N 
ATOM     29  C   UNL A   1      39.290  21.451  26.190  1.00  0.00     0.251 C 
ATOM     30  H   UNL A   1      37.790  20.266  25.591  1.00  0.00     0.163 HD
ATOM     31  O   UNL A   1      40.124  20.556  26.127  1.00  0.00    -0.269 OA
BRANCH  29  32
ATOM     32  C   UNL A   1      39.671  22.794  26.683  1.00  0.00     0.039 A 
ATOM     33  C   UNL A   1      40.607  22.891  27.715  1.00  0.00     0.014 A 
ATOM     34  C   UNL A   1      39.117  23.951  26.130  1.00  0.00     0.014 A 
ATOM     35  C   UNL A   1      41.047  24.148  28.135  1.00  0.00     0.010 A 
ATOM     36  C   UNL A   1      39.608  25.203  26.500  1.00  0.00     0.010 A 
ATOM     37  C   UNL A   1      40.589  25.314  27.497  1.00  0.00    -0.014 A 
BRANCH  37  38
ATOM     38  C   UNL A   1      41.163  26.646  27.832  1.00  0.00     0.031 A 
ATOM     39  C   UNL A   1      42.592  26.971  27.494  1.00  0.00     0.074 A 
ATOM     40  C   UNL A   1      40.405  27.539  28.499  1.00  0.00     0.049 A 
ATOM     41  N   UNL A   1      43.278  28.053  27.765  1.00  0.00    -0.248 NA
ATOM     42  C   UNL A   1      43.356  25.937  26.782  1.00  0.00     0.031 C 
ATOM     43  C   UNL A   1      39.017  27.323  28.916  1.00  0.00     0.029 A 
ATOM     44  N   UNL A   1      40.690  28.804  28.953  1.00  0.00    -0.354 N 
ATOM     45  C   UNL A   1      44.555  27.830  27.262  1.00  0.00     0.074 A 
ATOM     46  C   UNL A   1      44.562  26.487  26.721  1.00  0.00     0.031 C 
ATOM     47  C   UNL A   1      38.566  28.423  29.539  1.00  0.00     0.029 A 
ATOM     48  C   UNL A   1      39.644  29.401  29.621  1.00  0.00     0.049 A 
ATOM     49  H   UNL A   1      41.561  29.242  28.814  1.00  0.00     0.167 HD
ATOM     50  C   UNL A   1      45.617  28.674  27.241  1.00  0.00     0.034 A 
ATOM     51  C   UNL A   1      39.567  30.592  30.248  1.00  0.00     0.034 A 
ATOM     52  C   UNL A   1      45.591  30.012  27.782  1.00  0.00     0.049 A 
ATOM     53  C   UNL A   1      40.776  31.494  30.248  1.00  0.00     0.074 A 
ATOM     54  C   UNL A   1      46.589  30.971  27.751  1.00  0.00     0.029 A 
ATOM     55  N   UNL A   1      44.523  30.576  28.468  1.00  0.00    -0.354 N 
ATOM     56  N   UNL A   1      41.956  31.292  29.708  1.00  0.00    -0.248 NA
ATOM     57  C   UNL A   1      40.642  32.784  30.935  1.00  0.00     0.031 C 
ATOM     58  C   UNL A   1      46.157  32.077  28.490  1.00  0.00     0.029 A 
ATOM     59  C   UNL A   1      44.857  31.849  28.907  1.00  0.00     0.049 A 
ATOM     60  H   UNL A   1      43.655  30.136  28.620  1.00  0.00     0.167 HD
ATOM     61  C   UNL A   1      42.696  32.442  29.973  1.00  0.00     0.074 A 
ATOM     62  C   UNL A   1      41.819  33.340  30.695  1.00  0.00     0.031 C 
ATOM     63  C   UNL A   1      43.982  32.729  29.648  1.00  0.00     0.034 A 
BRANCH  50  64
ATOM     64  C   UNL A   1      46.907  28.165  26.640  1.00  0.00     0.023 A 
ATOM     65  C   UNL A   1      47.141  28.190  25.254  1.00  0.00     0.031 A 
ATOM     66  C   UNL A   1      47.920  27.649  27.468  1.00  0.00     0.131 A 
ATOM     67  C   UNL A   1      48.328  27.650  24.734  1.00  0.00     0.055 A 
ATOM     68  C   UNL A   1      49.133  27.189  26.950  1.00  0.00     0.041 A 
ATOM     69  F   UNL A   1      47.747  27.578  28.797  1.00  0.00    -0.206 F 
ATOM     70  C   UNL A   1      49.337  27.175  25.574  1.00  0.00     0.022 A 
BRANCH  67  71
ATOM     71  S   UNL A   1      48.475  27.453  22.937  1.00  0.00     0.124 S 
ATOM     72  O   UNL A   1      47.314  28.201  22.462  1.00  0.00    -0.237 OA
ATOM     73  O   UNL A   1      49.777  28.051  22.660  1.00  0.00    -0.237 OA
ATOM     74  O   UNL A   1      48.397  26.007  22.743  1.00  0.00    -0.744 OA
ENDBRANCH  67  71
ENDBRANCH  50  64
BRANCH  51  75
ATOM     75  C   UNL A   1      38.318  30.994  30.960  1.00  0.00     0.023 A 
ATOM     76  C   UNL A   1      37.274  31.647  30.284  1.00  0.00     0.031 A 
ATOM     77  C   UNL A   1      38.172  30.780  32.343  1.00  0.00     0.131 A 
ATOM     78  C   UNL A   1      36.158  32.108  30.999  1.00  0.00     0.055 A 
ATOM     79  C   UNL A   1      37.030  31.183  33.038  1.00  0.00     0.041 A 
ATOM     80  F   UNL A   1      39.138  30.162  33.041  1.00  0.00    -0.206 F 
ATOM     81  C   UNL A   1      36.020  31.866  32.368  1.00  0.00     0.022 A 
BRANCH  78  82
ATOM     82  S   UNL A   1      34.931  33.126  30.132  1.00  0.00     0.124 S 
ATOM     83  O   UNL A   1      34.028  33.489  31.219  1.00  0.00    -0.237 OA
ATOM     84  O   UNL A   1      35.758  34.203  29.598  1.00  0.00    -0.237 OA
ATOM     85  O   UNL A   1      34.375  32.214  29.135  1.00  0.00    -0.744 OA
ENDBRANCH  78  82
ENDBRANCH  51  75
BRANCH  63  86
ATOM     86  C   UNL A   1      44.506  34.086  30.056  1.00  0.00     0.023 A 
ATOM     87  C   UNL A   1      44.312  35.223  29.252  1.00  0.00     0.031 A 
ATOM     88  C   UNL A   1      45.219  34.241  31.258  1.00  0.00     0.131 A 
ATOM     89  C   UNL A   1      44.877  36.451  29.629  1.00  0.00     0.055 A 
ATOM     90  C   UNL A   1      45.718  35.480  31.662  1.00  0.00     0.041 A 
ATOM     91  F   UNL A   1      45.440  33.190  32.064  1.00  0.00    -0.206 F 
ATOM     92  C   UNL A   1      45.560  36.591  30.839  1.00  0.00     0.022 A 
BRANCH  89  93
ATOM     93  S   UNL A   1      44.792  37.840  28.467  1.00  0.00     0.124 S 
ATOM     94  O   UNL A   1      45.754  37.438  27.445  1.00  0.00    -0.237 OA
ATOM     95  O   UNL A   1      43.390  37.825  28.062  1.00  0.00    -0.237 OA
ATOM     96  O   UNL A   1      45.191  38.990  29.276  1.00  0.00    -0.744 OA
ENDBRANCH  89  93
ENDBRANCH  63  86
ENDBRANCH  37  38
ENDBRANCH  29  32
ENDBRANCH  27  28
ENDBRANCH  26  27
ENDBRANCH   1  26
TORSDOF 18
ENDMDL
MODEL 2
REMARK VINA RESULT:     -11.7      5.519      8.326
REMARK SMILES Cc1ccc(C(=O)N[C@@H]2C=C[C@H](C(=O)NCCCCCCNC(=O)c3ccc(-c4c5nc(c(-c6cc(S(=O)(=O)[O-])ccc6F)c6ccc([nH]6)c(-c6cc(S(=O)(=O)[O-])ccc6F)c6nc(c(-c7cc(S(=O)(=O)[O-])ccc7F)c7ccc4[nH]7)C=C6)C=C5)cc3)C2)c(F)c1
REMARK SMILES IDX 19 1 18 2 17 3 16 4 15 5 13 6 14 7 12 9 9 10 10 11 88 12
REMARK SMILES IDX 11 13 8 14 6 15 7 16 5 18 1 19 2 20 3 21 91 22 4 23 89 24
REMARK SMILES IDX 90 25 20 26 21 27 22 28 23 29 24 31 25 32 26 33 87 34 27 35
REMARK SMILES IDX 86 36 28 37 29 38 30 39 80 40 31 41 85 42 79 43 81 44 32 45
REMARK SMILES IDX 84 46 78 47 77 48 33 50 65 51 45 52 64 53 46 54 49 55 63 56
REMARK SMILES IDX 82 57 47 58 48 59 62 61 83 62 50 63 34 64 35 65 43 66 36 67
REMARK SMILES IDX 42 68 44 69 41 70 37 71 38 72 39 73 40 74 66 75 67 76 75 77
REMARK SMILES IDX 68 78 74 79 76 80 73 81 69 82 70 83 71 84 72 85 51 86 52 87
REMARK SMILES IDX 60 88 53 89 59 90 61 91 58 92 54 93 55 94 56 95 57 96
REMARK H PARENT 15 8 8 17 22 30 81 49 49 60
REMARK Flexibility Score: inf
ROOT
ATOM      1  C   UNL A   1      31.806  30.056  27.038  1.00  0.00     0.002 C 
ENDROOT
BRANCH   1   2
ATOM      2  C   UNL A   1      31.688  29.130  25.824  1.00  0.00     0.002 C 
BRANCH   2   3
ATOM      3  C   UNL A   1      32.805  29.259  24.782  1.00  0.00     0.021 C 
BRANCH   3   4
ATOM      4  C   UNL A   1      33.758  28.066  24.684  1.00  0.00     0.116 C 
BRANCH   4   5
ATOM      5  N   UNL A   1      33.303  27.062  23.739  1.00  0.00    -0.356 N 
ATOM      6  C   UNL A   1      32.477  25.991  23.949  1.00  0.00     0.227 C 
ATOM      7  O   UNL A   1      32.110  25.337  22.973  1.00  0.00    -0.274 OA
ATOM      8  H   UNL A   1      33.635  27.166  22.817  1.00  0.00     0.163 HD
BRANCH   6   9
ATOM      9  C   UNL A   1      32.109  25.629  25.389  1.00  0.00     0.103 C 
ATOM     10  C   UNL A   1      31.894  23.201  25.838  1.00  0.00     0.106 C 
ATOM     11  C   UNL A   1      30.570  23.904  25.830  1.00  0.00    -0.006 C 
ATOM     12  C   UNL A   1      32.885  24.376  25.805  1.00  0.00     0.047 C 
ATOM     13  C   UNL A   1      30.685  25.211  25.572  1.00  0.00    -0.016 C 
BRANCH  10  14
ATOM     14  N   UNL A   1      31.890  22.254  24.736  1.00  0.00    -0.346 N 
ATOM     15  C   UNL A   1      32.846  21.401  24.236  1.00  0.00     0.254 C 
ATOM     16  O   UNL A   1      32.502  20.462  23.521  1.00  0.00    -0.269 OA
ATOM     17  H   UNL A   1      31.034  22.215  24.252  1.00  0.00     0.164 HD
BRANCH  15  18
ATOM     18  C   UNL A   1      34.277  21.658  24.460  1.00  0.00     0.075 A 
ATOM     19  C   UNL A   1      38.056  23.336  25.610  1.00  0.00     0.044 C 
ATOM     20  C   UNL A   1      36.792  22.673  25.149  1.00  0.00    -0.048 A 
ATOM     21  C   UNL A   1      36.235  21.608  25.873  1.00  0.00     0.004 A 
ATOM     22  C   UNL A   1      36.149  23.115  23.988  1.00  0.00     0.043 A 
ATOM     23  C   UNL A   1      34.988  21.081  25.516  1.00  0.00     0.017 A 
ATOM     24  C   UNL A   1      34.894  22.617  23.655  1.00  0.00     0.136 A 
ATOM     25  F   UNL A   1      34.272  23.138  22.588  1.00  0.00    -0.206 F 
ENDBRANCH  15  18
ENDBRANCH  10  14
ENDBRANCH   6   9
ENDBRANCH   4   5
ENDBRANCH   3   4
ENDBRANCH   2   3
ENDBRANCH   1   2
BRANCH   1  26
ATOM     26  C   UNL A   1      31.829  31.553  26.722  1.00  0.00     0.021 C 
BRANCH  26  27
ATOM     27  C   UNL A   1      33.021  32.317  27.293  1.00  0.00     0.116 C 
BRANCH  27  28
ATOM     28  N   UNL A   1      32.699  33.700  27.600  1.00  0.00    -0.352 N 
ATOM     29  C   UNL A   1      33.210  34.525  28.575  1.00  0.00     0.251 C 
ATOM     30  H   UNL A   1      32.011  34.109  27.024  1.00  0.00     0.163 HD
ATOM     31  O   UNL A   1      32.674  35.604  28.798  1.00  0.00    -0.269 OA
BRANCH  29  32
ATOM     32  C   UNL A   1      34.382  34.095  29.370  1.00  0.00     0.039 A 
ATOM     33  C   UNL A   1      34.174  33.311  30.507  1.00  0.00     0.014 A 
ATOM     34  C   UNL A   1      35.680  34.453  28.996  1.00  0.00     0.014 A 
ATOM     35  C   UNL A   1      35.269  32.819  31.220  1.00  0.00     0.010 A 
ATOM     36  C   UNL A   1      36.774  33.905  29.667  1.00  0.00     0.010 A 
ATOM     37  C   UNL A   1      36.579  33.070  30.777  1.00  0.00    -0.014 A 
BRANCH  37  38
ATOM     38  C   UNL A   1      37.747  32.428  31.440  1.00  0.00     0.031 A 
ATOM     39  C   UNL A   1      38.459  31.275  30.788  1.00  0.00     0.074 A 
ATOM     40  C   UNL A   1      38.124  32.851  32.664  1.00  0.00     0.049 A 
ATOM     41  N   UNL A   1      39.452  30.554  31.244  1.00  0.00    -0.248 NA
ATOM     42  C   UNL A   1      37.977  30.863  29.461  1.00  0.00     0.031 C 
ATOM     43  C   UNL A   1      37.486  33.935  33.414  1.00  0.00     0.029 A 
ATOM     44  N   UNL A   1      39.126  32.421  33.498  1.00  0.00    -0.354 N 
ATOM     45  C   UNL A   1      39.712  29.600  30.265  1.00  0.00     0.074 A 
ATOM     46  C   UNL A   1      38.733  29.801  29.217  1.00  0.00     0.031 C 
ATOM     47  C   UNL A   1      38.125  34.100  34.582  1.00  0.00     0.029 A 
ATOM     48  C   UNL A   1      39.181  33.100  34.695  1.00  0.00     0.049 A 
ATOM     49  H   UNL A   1      39.747  31.694  33.263  1.00  0.00     0.167 HD
ATOM     50  C   UNL A   1      40.685  28.656  30.239  1.00  0.00     0.034 A 
ATOM     51  C   UNL A   1      39.975  32.926  35.770  1.00  0.00     0.034 A 
ATOM     52  C   UNL A   1      41.656  28.473  31.292  1.00  0.00     0.049 A 
ATOM     53  C   UNL A   1      41.021  31.840  35.733  1.00  0.00     0.074 A 
ATOM     54  C   UNL A   1      42.724  27.593  31.333  1.00  0.00     0.029 A 
ATOM     55  N   UNL A   1      41.669  29.166  32.496  1.00  0.00    -0.354 N 
ATOM     56  N   UNL A   1      41.295  30.991  34.769  1.00  0.00    -0.248 NA
ATOM     57  C   UNL A   1      41.869  31.694  36.922  1.00  0.00     0.031 C 
ATOM     58  C   UNL A   1      43.327  27.693  32.591  1.00  0.00     0.029 A 
ATOM     59  C   UNL A   1      42.694  28.697  33.304  1.00  0.00     0.049 A 
ATOM     60  H   UNL A   1      41.042  29.884  32.739  1.00  0.00     0.167 HD
ATOM     61  C   UNL A   1      42.362  30.225  35.231  1.00  0.00     0.074 A 
ATOM     62  C   UNL A   1      42.697  30.732  36.545  1.00  0.00     0.031 C 
ATOM     63  C   UNL A   1      43.006  29.195  34.625  1.00  0.00     0.034 A 
BRANCH  50  64
ATOM     64  C   UNL A   1      40.732  27.728  29.047  1.00  0.00     0.023 A 
ATOM     65  C   UNL A   1      41.671  27.892  28.014  1.00  0.00     0.031 A 
ATOM     66  C   UNL A   1      39.823  26.659  28.945  1.00  0.00     0.131 A 
ATOM     67  C   UNL A   1      41.638  27.044  26.896  1.00  0.00     0.055 A 
ATOM     68  C   UNL A   1      39.848  25.769  27.869  1.00  0.00     0.041 A 
ATOM     69  F   UNL A   1      38.888  26.464  29.888  1.00  0.00    -0.206 F 
ATOM     70  C   UNL A   1      40.751  25.967  26.829  1.00  0.00     0.022 A 
BRANCH  67  71
ATOM     71  S   UNL A   1      42.679  27.452  25.468  1.00  0.00     0.124 S 
ATOM     72  O   UNL A   1      43.959  27.742  26.110  1.00  0.00    -0.237 OA
ATOM     73  O   UNL A   1      42.624  26.228  24.677  1.00  0.00    -0.237 OA
ATOM     74  O   UNL A   1      42.012  28.610  24.877  1.00  0.00    -0.744 OA
ENDBRANCH  67  71
ENDBRANCH  50  64
BRANCH  51  75
ATOM     75  C   UNL A   1      39.797  33.770  36.988  1.00  0.00     0.023 A 
ATOM     76  C   UNL A   1      40.641  34.862  37.246  1.00  0.00     0.031 A 
ATOM     77  C   UNL A   1      38.811  33.462  37.944  1.00  0.00     0.131 A 
ATOM     78  C   UNL A   1      40.518  35.573  38.450  1.00  0.00     0.055 A 
ATOM     79  C   UNL A   1      38.652  34.211  39.111  1.00  0.00     0.041 A 
ATOM     80  F   UNL A   1      37.977  32.427  37.752  1.00  0.00    -0.206 F 
ATOM     81  C   UNL A   1      39.519  35.266  39.377  1.00  0.00     0.022 A 
BRANCH  78  82
ATOM     82  S   UNL A   1      41.756  36.841  38.840  1.00  0.00     0.124 S 
ATOM     83  O   UNL A   1      40.924  37.910  39.379  1.00  0.00    -0.237 OA
ATOM     84  O   UNL A   1      42.609  36.145  39.798  1.00  0.00    -0.237 OA
ATOM     85  O   UNL A   1      42.375  37.122  37.546  1.00  0.00    -0.744 OA
ENDBRANCH  78  82
ENDBRANCH  51  75
BRANCH  63  86
ATOM     86  C   UNL A   1      44.157  28.568  35.376  1.00  0.00     0.023 A 
ATOM     87  C   UNL A   1      43.960  27.497  36.265  1.00  0.00     0.031 A 
ATOM     88  C   UNL A   1      45.465  29.057  35.210  1.00  0.00     0.131 A 
ATOM     89  C   UNL A   1      45.043  26.989  36.999  1.00  0.00     0.055 A 
ATOM     90  C   UNL A   1      46.549  28.501  35.891  1.00  0.00     0.041 A 
ATOM     91  F   UNL A   1      45.713  30.082  34.378  1.00  0.00    -0.206 F 
ATOM     92  C   UNL A   1      46.339  27.471  36.802  1.00  0.00     0.022 A 
BRANCH  89  93
ATOM     93  S   UNL A   1      44.717  25.759  38.290  1.00  0.00     0.124 S 
ATOM     94  O   UNL A   1      43.850  24.813  37.595  1.00  0.00    -0.237 OA
ATOM     95  O   UNL A   1      46.057  25.278  38.610  1.00  0.00    -0.237 OA
ATOM     96  O   UNL A   1      44.069  26.534  39.347  1.00  0.00    -0.744 OA
ENDBRANCH  89  93
ENDBRANCH  63  86
ENDBRANCH  37  38
ENDBRANCH  29  32
ENDBRANCH  27  28
ENDBRANCH  26  27
ENDBRANCH   1  26
TORSDOF 18
ENDMDL
MODEL 3
REMARK VINA RESULT:     -11.5      4.776      9.315
REMARK SMILES Cc1ccc(C(=O)N[C@@H]2C=C[C@H](C(=O)NCCCCCCNC(=O)c3ccc(-c4c5nc(c(-c6cc(S(=O)(=O)[O-])ccc6F)c6ccc([nH]6)c(-c6cc(S(=O)(=O)[O-])ccc6F)c6nc(c(-c7cc(S(=O)(=O)[O-])ccc7F)c7ccc4[nH]7)C=C6)C=C5)cc3)C2)c(F)c1
REMARK SMILES IDX 19 1 18 2 17 3 16 4 15 5 13 6 14 7 12 9 9 10 10 11 88 12
REMARK SMILES IDX 11 13 8 14 6 15 7 16 5 18 1 19 2 20 3 21 91 22 4 23 89 24
REMARK SMILES IDX 90 25 20 26 21 27 22 28 23 29 24 31 25 32 26 33 87 34 27 35
REMARK SMILES IDX 86 36 28 37 29 38 30 39 80 40 31 41 85 42 79 43 81 44 32 45
REMARK SMILES IDX 84 46 78 47 77 48 33 50 65 51 45 52 64 53 46 54 49 55 63 56
REMARK SMILES IDX 82 57 47 58 48 59 62 61 83 62 50 63 34 64 35 65 43 66 36 67
REMARK SMILES IDX 42 68 44 69 41 70 37 71 38 72 39 73 40 74 66 75 67 76 75 77
REMARK SMILES IDX 68 78 74 79 76 80 73 81 69 82 70 83 71 84 72 85 51 86 52 87
REMARK SMILES IDX 60 88 53 89 59 90 61 91 58 92 54 93 55 94 56 95 57 96
REMARK H PARENT 15 8 8 17 22 30 81 49 49 60
REMARK Flexibility Score: inf
ROOT
ATOM      1  C   UNL A   1      31.909  28.953  25.642  1.00  0.00     0.002 C 
ENDROOT
BRANCH   1   2
ATOM      2  C   UNL A   1      31.089  27.937  24.842  1.00  0.00     0.002 C 
BRANCH   2   3
ATOM      3  C   UNL A   1      30.983  28.209  23.337  1.00  0.00     0.021 C 
BRANCH   3   4
ATOM      4  C   UNL A   1      31.140  26.986  22.432  1.00  0.00     0.116 C 
BRANCH   4   5
ATOM      5  N   UNL A   1      30.756  25.750  23.089  1.00  0.00    -0.356 N 
ATOM      6  C   UNL A   1      31.550  24.731  23.543  1.00  0.00     0.227 C 
ATOM      7  O   UNL A   1      31.026  23.829  24.195  1.00  0.00    -0.274 OA
ATOM      8  H   UNL A   1      29.789  25.626  23.228  1.00  0.00     0.163 HD
BRANCH   6   9
ATOM      9  C   UNL A   1      33.032  24.740  23.160  1.00  0.00     0.103 C 
ATOM     10  C   UNL A   1      34.490  23.326  24.579  1.00  0.00     0.106 C 
ATOM     11  C   UNL A   1      34.694  24.790  24.825  1.00  0.00    -0.006 C 
ATOM     12  C   UNL A   1      33.600  23.328  23.325  1.00  0.00     0.047 C 
ATOM     13  C   UNL A   1      33.895  25.553  24.070  1.00  0.00    -0.016 C 
BRANCH  10  14
ATOM     14  N   UNL A   1      33.972  22.747  25.808  1.00  0.00    -0.346 N 
ATOM     15  C   UNL A   1      33.866  21.452  26.258  1.00  0.00     0.254 C 
ATOM     16  O   UNL A   1      33.709  21.241  27.458  1.00  0.00    -0.269 OA
ATOM     17  H   UNL A   1      33.628  23.414  26.444  1.00  0.00     0.164 HD
BRANCH  15  18
ATOM     18  C   UNL A   1      33.837  20.326  25.310  1.00  0.00     0.075 A 
ATOM     19  C   UNL A   1      33.894  16.443  23.485  1.00  0.00     0.044 C 
ATOM     20  C   UNL A   1      33.877  17.844  24.020  1.00  0.00    -0.048 A 
ATOM     21  C   UNL A   1      32.665  18.526  24.206  1.00  0.00     0.004 A 
ATOM     22  C   UNL A   1      35.076  18.486  24.345  1.00  0.00     0.043 A 
ATOM     23  C   UNL A   1      32.644  19.780  24.829  1.00  0.00     0.017 A 
ATOM     24  C   UNL A   1      35.052  19.715  24.996  1.00  0.00     0.136 A 
ATOM     25  F   UNL A   1      36.221  20.250  25.375  1.00  0.00    -0.206 F 
ENDBRANCH  15  18
ENDBRANCH  10  14
ENDBRANCH   6   9
ENDBRANCH   4   5
ENDBRANCH   3   4
ENDBRANCH   2   3
ENDBRANCH   1   2
BRANCH   1  26
ATOM     26  C   UNL A   1      33.022  28.360  26.510  1.00  0.00     0.021 C 
BRANCH  26  27
ATOM     27  C   UNL A   1      34.276  29.221  26.631  1.00  0.00     0.116 C 
BRANCH  27  28
ATOM     28  N   UNL A   1      33.976  30.592  27.008  1.00  0.00    -0.352 N 
ATOM     29  C   UNL A   1      34.586  31.400  27.939  1.00  0.00     0.251 C 
ATOM     30  H   UNL A   1      33.221  31.004  26.526  1.00  0.00     0.163 HD
ATOM     31  O   UNL A   1      34.067  32.465  28.250  1.00  0.00    -0.269 OA
BRANCH  29  32
ATOM     32  C   UNL A   1      35.847  30.968  28.582  1.00  0.00     0.039 A 
ATOM     33  C   UNL A   1      35.809  29.917  29.501  1.00  0.00     0.014 A 
ATOM     34  C   UNL A   1      37.063  31.586  28.278  1.00  0.00     0.014 A 
ATOM     35  C   UNL A   1      36.997  29.434  30.052  1.00  0.00     0.010 A 
ATOM     36  C   UNL A   1      38.255  31.059  28.774  1.00  0.00     0.010 A 
ATOM     37  C   UNL A   1      38.236  29.968  29.655  1.00  0.00    -0.014 A 
BRANCH  37  38
ATOM     38  C   UNL A   1      39.514  29.362  30.119  1.00  0.00     0.031 A 
ATOM     39  C   UNL A   1      40.274  29.964  31.268  1.00  0.00     0.074 A 
ATOM     40  C   UNL A   1      40.018  28.302  29.456  1.00  0.00     0.049 A 
ATOM     41  N   UNL A   1      41.432  29.612  31.767  1.00  0.00    -0.248 NA
ATOM     42  C   UNL A   1      39.666  31.129  31.927  1.00  0.00     0.031 C 
ATOM     43  C   UNL A   1      39.391  27.654  28.301  1.00  0.00     0.029 A 
ATOM     44  N   UNL A   1      41.173  27.583  29.647  1.00  0.00    -0.354 N 
ATOM     45  C   UNL A   1      41.695  30.512  32.794  1.00  0.00     0.074 A 
ATOM     46  C   UNL A   1      40.601  31.461  32.808  1.00  0.00     0.031 C 
ATOM     47  C   UNL A   1      40.153  26.623  27.905  1.00  0.00     0.029 A 
ATOM     48  C   UNL A   1      41.352  26.568  28.734  1.00  0.00     0.049 A 
ATOM     49  H   UNL A   1      41.814  27.778  30.369  1.00  0.00     0.167 HD
ATOM     50  C   UNL A   1      42.744  30.534  33.654  1.00  0.00     0.034 A 
ATOM     51  C   UNL A   1      42.372  25.703  28.569  1.00  0.00     0.034 A 
ATOM     52  C   UNL A   1      43.824  29.577  33.628  1.00  0.00     0.049 A 
ATOM     53  C   UNL A   1      43.548  25.777  29.511  1.00  0.00     0.074 A 
ATOM     54  C   UNL A   1      44.898  29.469  34.496  1.00  0.00     0.029 A 
ATOM     55  N   UNL A   1      43.982  28.575  32.680  1.00  0.00    -0.354 N 
ATOM     56  N   UNL A   1      43.747  26.595  30.520  1.00  0.00    -0.248 NA
ATOM     57  C   UNL A   1      44.631  24.809  29.299  1.00  0.00     0.031 C 
ATOM     58  C   UNL A   1      45.745  28.462  34.023  1.00  0.00     0.029 A 
ATOM     59  C   UNL A   1      45.159  27.879  32.912  1.00  0.00     0.049 A 
ATOM     60  H   UNL A   1      43.350  28.386  31.949  1.00  0.00     0.167 HD
ATOM     61  C   UNL A   1      44.969  26.222  31.074  1.00  0.00     0.074 A 
ATOM     62  C   UNL A   1      45.445  25.092  30.305  1.00  0.00     0.031 C 
ATOM     63  C   UNL A   1      45.637  26.766  32.123  1.00  0.00     0.034 A 
BRANCH  50  64
ATOM     64  C   UNL A   1      42.791  31.646  34.677  1.00  0.00     0.023 A 
ATOM     65  C   UNL A   1      42.058  31.584  35.875  1.00  0.00     0.031 A 
ATOM     66  C   UNL A   1      43.584  32.785  34.450  1.00  0.00     0.131 A 
ATOM     67  C   UNL A   1      42.082  32.667  36.767  1.00  0.00     0.055 A 
ATOM     68  C   UNL A   1      43.668  33.823  35.380  1.00  0.00     0.041 A 
ATOM     69  F   UNL A   1      44.289  32.912  33.314  1.00  0.00    -0.206 F 
ATOM     70  C   UNL A   1      42.903  33.773  36.542  1.00  0.00     0.022 A 
BRANCH  67  71
ATOM     71  S   UNL A   1      40.921  32.668  38.160  1.00  0.00     0.124 S 
ATOM     72  O   UNL A   1      41.692  31.972  39.188  1.00  0.00    -0.237 OA
ATOM     73  O   UNL A   1      40.697  34.091  38.384  1.00  0.00    -0.237 OA
ATOM     74  O   UNL A   1      39.770  31.926  37.648  1.00  0.00    -0.744 OA
ENDBRANCH  67  71
ENDBRANCH  50  64
BRANCH  51  75
ATOM     75  C   UNL A   1      42.355  24.715  27.451  1.00  0.00     0.023 A 
ATOM     76  C   UNL A   1      41.595  23.537  27.533  1.00  0.00     0.031 A 
ATOM     77  C   UNL A   1      43.144  24.908  26.302  1.00  0.00     0.131 A 
ATOM     78  C   UNL A   1      41.679  22.576  26.514  1.00  0.00     0.055 A 
ATOM     79  C   UNL A   1      43.175  23.978  25.261  1.00  0.00     0.041 A 
ATOM     80  F   UNL A   1      43.893  26.015  26.169  1.00  0.00    -0.206 F 
ATOM     81  C   UNL A   1      42.451  22.796  25.370  1.00  0.00     0.022 A 
BRANCH  78  82
ATOM     82  S   UNL A   1      40.848  20.981  26.752  1.00  0.00     0.124 S 
ATOM     83  O   UNL A   1      41.773  20.065  26.094  1.00  0.00    -0.237 OA
ATOM     84  O   UNL A   1      40.780  20.891  28.206  1.00  0.00    -0.237 OA
ATOM     85  O   UNL A   1      39.564  21.163  26.079  1.00  0.00    -0.744 OA
ENDBRANCH  78  82
ENDBRANCH  51  75
BRANCH  63  86
ATOM     86  C   UNL A   1      46.947  26.122  32.510  1.00  0.00     0.023 A 
ATOM     87  C   UNL A   1      47.006  25.078  33.451  1.00  0.00     0.031 A 
ATOM     88  C   UNL A   1      48.154  26.564  31.940  1.00  0.00     0.131 A 
ATOM     89  C   UNL A   1      48.249  24.555  33.839  1.00  0.00     0.055 A 
ATOM     90  C   UNL A   1      49.381  25.991  32.278  1.00  0.00     0.041 A 
ATOM     91  F   UNL A   1      48.161  27.561  31.040  1.00  0.00    -0.206 F 
ATOM     92  C   UNL A   1      49.434  24.991  33.243  1.00  0.00     0.022 A 
BRANCH  89  93
ATOM     93  S   UNL A   1      48.302  23.366  35.207  1.00  0.00     0.124 S 
ATOM     94  O   UNL A   1      49.582  22.702  34.981  1.00  0.00    -0.237 OA
ATOM     95  O   UNL A   1      48.234  24.234  36.379  1.00  0.00    -0.237 OA
ATOM     96  O   UNL A   1      47.122  22.533  34.985  1.00  0.00    -0.744 OA
ENDBRANCH  89  93
ENDBRANCH  63  86
ENDBRANCH  37  38
ENDBRANCH  29  32
ENDBRANCH  27  28
ENDBRANCH  26  27
ENDBRANCH   1  26
TORSDOF 18
ENDMDL
