MODEL 1
REMARK VINA RESULT:     -10.9      0.000      0.000
REMARK SMILES C#CC[C@]1(C(=O)NCCCCCCNC(=O)c2ccc(-c3c4nc(c(-c5cc(S(=O)(=O)[O-])ccc5F)c5ccc([nH]5)c(-c5cc(S(=O)(=O)[O-])ccc5F)c5nc(c(-c6cc(S(=O)(=O)[O-])ccc6F)c6ccc3[nH]6)C=C5)C=C4)cc2)CC[C@@H](C)C1
REMARK SMILES IDX 11 1 10 2 9 3 8 4 7 5 5 6 6 7 4 9 80 10 84 11 81 12 82 13
REMARK SMILES IDX 83 14 3 15 2 16 1 17 12 18 13 19 14 20 15 21 16 23 17 24
REMARK SMILES IDX 18 25 79 26 19 27 78 28 20 29 21 30 22 31 72 32 23 33 77 34
REMARK SMILES IDX 71 35 73 36 24 37 76 38 70 39 69 40 25 42 57 43 37 44 56 45
REMARK SMILES IDX 38 46 41 47 55 48 74 49 39 50 40 51 54 53 75 54 42 55 26 56
REMARK SMILES IDX 27 57 35 58 28 59 34 60 36 61 33 62 29 63 30 64 31 65 32 66
REMARK SMILES IDX 58 67 59 68 67 69 60 70 66 71 68 72 65 73 61 74 62 75 63 76
REMARK SMILES IDX 64 77 43 78 44 79 52 80 45 81 51 82 53 83 50 84 46 85 47 86
REMARK SMILES IDX 48 87 49 88
REMARK H PARENT 7 8 14 22 73 41 41 52
REMARK Flexibility Score: inf
ROOT
ATOM      1  C   UNL A   1      34.672  21.930  24.416  1.00  0.00     0.002 C 
ENDROOT
BRANCH   1   2
ATOM      2  C   UNL A   1      35.267  23.248  23.897  1.00  0.00     0.002 C 
BRANCH   2   3
ATOM      3  C   UNL A   1      34.297  24.426  23.853  1.00  0.00     0.021 C 
BRANCH   3   4
ATOM      4  C   UNL A   1      34.324  25.292  25.101  1.00  0.00     0.116 C 
BRANCH   4   5
ATOM      5  N   UNL A   1      33.356  24.900  26.097  1.00  0.00    -0.356 N 
ATOM      6  C   UNL A   1      32.068  25.257  26.315  1.00  0.00     0.227 C 
ATOM      7  O   UNL A   1      31.456  24.506  27.090  1.00  0.00    -0.274 OA
ATOM      8  H   UNL A   1      33.700  24.245  26.747  1.00  0.00     0.163 HD
BRANCH   6   9
ATOM      9  C   UNL A   1      31.323  26.473  25.693  1.00  0.00     0.060 C 
ATOM     10  C   UNL A   1      31.908  27.203  24.472  1.00  0.00     0.018 C 
ATOM     11  C   UNL A   1      29.963  25.984  25.136  1.00  0.00     0.021 C 
ATOM     12  C   UNL A   1      31.343  26.523  23.213  1.00  0.00     0.004 C 
ATOM     13  C   UNL A   1      30.208  25.606  23.670  1.00  0.00    -0.013 C 
ATOM     14  C   UNL A   1      30.501  24.118  23.476  1.00  0.00     0.007 C 
BRANCH   9  15
ATOM     15  C   UNL A   1      31.105  27.408  26.934  1.00  0.00     0.106 C 
BRANCH  15  16
ATOM     16  C   UNL A   1      31.995  28.581  27.039  1.00  0.00    -0.106 C 
ATOM     17  C   UNL A   1      32.667  29.564  27.166  1.00  0.00     0.004 C 
ENDBRANCH  15  16
ENDBRANCH   9  15
ENDBRANCH   6   9
ENDBRANCH   4   5
ENDBRANCH   3   4
ENDBRANCH   2   3
ENDBRANCH   1   2
BRANCH   1  18
ATOM     18  C   UNL A   1      35.675  20.948  25.030  1.00  0.00     0.021 C 
BRANCH  18  19
ATOM     19  C   UNL A   1      37.126  21.422  25.002  1.00  0.00     0.116 C 
BRANCH  19  20
ATOM     20  N   UNL A   1      38.048  20.351  25.349  1.00  0.00    -0.352 N 
ATOM     21  C   UNL A   1      39.304  20.422  25.896  1.00  0.00     0.251 C 
ATOM     22  H   UNL A   1      37.721  19.441  25.166  1.00  0.00     0.163 HD
ATOM     23  O   UNL A   1      40.030  19.433  25.890  1.00  0.00    -0.269 OA
BRANCH  21  24
ATOM     24  C   UNL A   1      39.777  21.698  26.468  1.00  0.00     0.039 A 
ATOM     25  C   UNL A   1      40.739  21.672  27.478  1.00  0.00     0.014 A 
ATOM     26  C   UNL A   1      39.284  22.917  25.992  1.00  0.00     0.014 A 
ATOM     27  C   UNL A   1      41.271  22.871  27.953  1.00  0.00     0.010 A 
ATOM     28  C   UNL A   1      39.865  24.109  26.416  1.00  0.00     0.010 A 
ATOM     29  C   UNL A   1      40.877  24.095  27.388  1.00  0.00    -0.014 A 
BRANCH  29  30
ATOM     30  C   UNL A   1      41.558  25.365  27.752  1.00  0.00     0.031 A 
ATOM     31  C   UNL A   1      40.794  26.471  28.426  1.00  0.00     0.074 A 
ATOM     32  C   UNL A   1      42.847  25.544  27.394  1.00  0.00     0.049 A 
ATOM     33  N   UNL A   1      41.189  27.681  28.722  1.00  0.00    -0.248 NA
ATOM     34  C   UNL A   1      39.399  26.185  28.799  1.00  0.00     0.031 C 
ATOM     35  C   UNL A   1      43.678  24.549  26.710  1.00  0.00     0.029 A 
ATOM     36  N   UNL A   1      43.681  26.626  27.532  1.00  0.00    -0.354 N 
ATOM     37  C   UNL A   1      40.091  28.310  29.298  1.00  0.00     0.074 A 
ATOM     38  C   UNL A   1      39.003  27.355  29.282  1.00  0.00     0.031 C 
ATOM     39  C   UNL A   1      44.900  25.060  26.501  1.00  0.00     0.029 A 
ATOM     40  C   UNL A   1      44.927  26.441  26.970  1.00  0.00     0.049 A 
ATOM     41  H   UNL A   1      43.416  27.456  27.991  1.00  0.00     0.167 HD
ATOM     42  C   UNL A   1      40.007  29.567  29.796  1.00  0.00     0.034 A 
ATOM     43  C   UNL A   1      45.956  27.297  26.812  1.00  0.00     0.034 A 
ATOM     44  C   UNL A   1      41.110  30.497  29.813  1.00  0.00     0.049 A 
ATOM     45  C   UNL A   1      45.811  28.708  27.330  1.00  0.00     0.074 A 
ATOM     46  C   UNL A   1      41.153  31.761  30.374  1.00  0.00     0.029 A 
ATOM     47  N   UNL A   1      42.347  30.281  29.223  1.00  0.00    -0.354 N 
ATOM     48  N   UNL A   1      44.792  29.255  27.953  1.00  0.00    -0.248 NA
ATOM     49  C   UNL A   1      46.947  29.617  27.128  1.00  0.00     0.031 C 
ATOM     50  C   UNL A   1      42.374  32.348  30.034  1.00  0.00     0.029 A 
ATOM     51  C   UNL A   1      43.134  31.414  29.349  1.00  0.00     0.049 A 
ATOM     52  H   UNL A   1      42.625  29.447  28.781  1.00  0.00     0.167 HD
ATOM     53  C   UNL A   1      45.178  30.563  28.234  1.00  0.00     0.074 A 
ATOM     54  C   UNL A   1      46.530  30.714  27.741  1.00  0.00     0.031 C 
ATOM     55  C   UNL A   1      44.479  31.553  28.843  1.00  0.00     0.034 A 
BRANCH  42  56
ATOM     56  C   UNL A   1      38.678  30.041  30.325  1.00  0.00     0.023 A 
ATOM     57  C   UNL A   1      37.798  30.816  29.552  1.00  0.00     0.031 A 
ATOM     58  C   UNL A   1      38.263  29.660  31.615  1.00  0.00     0.131 A 
ATOM     59  C   UNL A   1      36.563  31.214  30.089  1.00  0.00     0.055 A 
ATOM     60  C   UNL A   1      37.005  29.997  32.115  1.00  0.00     0.041 A 
ATOM     61  F   UNL A   1      39.074  28.941  32.408  1.00  0.00    -0.206 F 
ATOM     62  C   UNL A   1      36.149  30.784  31.352  1.00  0.00     0.022 A 
BRANCH  59  63
ATOM     63  S   UNL A   1      35.544  32.387  29.155  1.00  0.00     0.124 S 
ATOM     64  O   UNL A   1      36.295  33.629  29.322  1.00  0.00    -0.237 OA
ATOM     65  O   UNL A   1      35.550  31.812  27.813  1.00  0.00    -0.237 OA
ATOM     66  O   UNL A   1      34.256  32.349  29.844  1.00  0.00    -0.744 OA
ENDBRANCH  59  63
ENDBRANCH  42  56
BRANCH  43  67
ATOM     67  C   UNL A   1      47.192  26.884  26.078  1.00  0.00     0.023 A 
ATOM     68  C   UNL A   1      48.226  26.195  26.730  1.00  0.00     0.031 A 
ATOM     69  C   UNL A   1      47.397  27.255  24.736  1.00  0.00     0.131 A 
ATOM     70  C   UNL A   1      49.443  25.970  26.069  1.00  0.00     0.055 A 
ATOM     71  C   UNL A   1      48.579  26.955  24.057  1.00  0.00     0.041 A 
ATOM     72  F   UNL A   1      46.447  27.922  24.060  1.00  0.00    -0.206 F 
ATOM     73  C   UNL A   1      49.620  26.328  24.731  1.00  0.00     0.022 A 
BRANCH  70  74
ATOM     74  S   UNL A   1      50.848  25.344  27.032  1.00  0.00     0.124 S 
ATOM     75  O   UNL A   1      50.211  24.307  27.838  1.00  0.00    -0.237 OA
ATOM     76  O   UNL A   1      51.750  24.878  25.984  1.00  0.00    -0.237 OA
ATOM     77  O   UNL A   1      51.303  26.518  27.770  1.00  0.00    -0.744 OA
ENDBRANCH  70  74
ENDBRANCH  43  67
BRANCH  55  78
ATOM     78  C   UNL A   1      45.175  32.878  29.035  1.00  0.00     0.023 A 
ATOM     79  C   UNL A   1      45.037  33.923  28.105  1.00  0.00     0.031 A 
ATOM     80  C   UNL A   1      45.968  33.104  30.173  1.00  0.00     0.131 A 
ATOM     81  C   UNL A   1      45.717  35.133  28.310  1.00  0.00     0.055 A 
ATOM     82  C   UNL A   1      46.587  34.333  30.406  1.00  0.00     0.041 A 
ATOM     83  F   UNL A   1      46.140  32.137  31.089  1.00  0.00    -0.206 F 
ATOM     84  C   UNL A   1      46.470  35.353  29.466  1.00  0.00     0.022 A 
BRANCH  81  85
ATOM     85  S   UNL A   1      45.667  36.391  27.005  1.00  0.00     0.124 S 
ATOM     86  O   UNL A   1      44.232  36.583  26.825  1.00  0.00    -0.237 OA
ATOM     87  O   UNL A   1      46.387  37.505  27.616  1.00  0.00    -0.237 OA
ATOM     88  O   UNL A   1      46.354  35.750  25.886  1.00  0.00    -0.744 OA
ENDBRANCH  81  85
ENDBRANCH  55  78
ENDBRANCH  29  30
ENDBRANCH  21  24
ENDBRANCH  19  20
ENDBRANCH  18  19
ENDBRANCH   1  18
TORSDOF 18
ENDMDL
MODEL 2
REMARK VINA RESULT:     -10.9      5.035     10.319
REMARK SMILES C#CC[C@]1(C(=O)NCCCCCCNC(=O)c2ccc(-c3c4nc(c(-c5cc(S(=O)(=O)[O-])ccc5F)c5ccc([nH]5)c(-c5cc(S(=O)(=O)[O-])ccc5F)c5nc(c(-c6cc(S(=O)(=O)[O-])ccc6F)c6ccc3[nH]6)C=C5)C=C4)cc2)CC[C@@H](C)C1
REMARK SMILES IDX 11 1 10 2 9 3 8 4 7 5 5 6 6 7 4 9 80 10 84 11 81 12 82 13
REMARK SMILES IDX 83 14 3 15 2 16 1 17 12 18 13 19 14 20 15 21 16 23 17 24
REMARK SMILES IDX 18 25 79 26 19 27 78 28 20 29 21 30 22 31 72 32 23 33 77 34
REMARK SMILES IDX 71 35 73 36 24 37 76 38 70 39 69 40 25 42 57 43 37 44 56 45
REMARK SMILES IDX 38 46 41 47 55 48 74 49 39 50 40 51 54 53 75 54 42 55 26 56
REMARK SMILES IDX 27 57 35 58 28 59 34 60 36 61 33 62 29 63 30 64 31 65 32 66
REMARK SMILES IDX 58 67 59 68 67 69 60 70 66 71 68 72 65 73 61 74 62 75 63 76
REMARK SMILES IDX 64 77 43 78 44 79 52 80 45 81 51 82 53 83 50 84 46 85 47 86
REMARK SMILES IDX 48 87 49 88
REMARK H PARENT 7 8 14 22 73 41 41 52
REMARK Flexibility Score: inf
ROOT
ATOM      1  C   UNL A   1      33.917  28.400  25.458  1.00  0.00     0.002 C 
ENDROOT
BRANCH   1   2
ATOM      2  C   UNL A   1      33.647  26.948  25.882  1.00  0.00     0.002 C 
BRANCH   2   3
ATOM      3  C   UNL A   1      33.017  26.065  24.808  1.00  0.00     0.021 C 
BRANCH   3   4
ATOM      4  C   UNL A   1      32.085  24.998  25.356  1.00  0.00     0.116 C 
BRANCH   4   5
ATOM      5  N   UNL A   1      32.692  24.162  26.363  1.00  0.00    -0.356 N 
ATOM      6  C   UNL A   1      33.445  23.039  26.291  1.00  0.00     0.227 C 
ATOM      7  O   UNL A   1      34.034  22.752  27.345  1.00  0.00    -0.274 OA
ATOM      8  H   UNL A   1      32.527  24.469  27.284  1.00  0.00     0.163 HD
BRANCH   6   9
ATOM      9  C   UNL A   1      33.630  22.122  25.048  1.00  0.00     0.060 C 
ATOM     10  C   UNL A   1      33.520  22.705  23.628  1.00  0.00     0.018 C 
ATOM     11  C   UNL A   1      35.081  21.581  25.046  1.00  0.00     0.021 C 
ATOM     12  C   UNL A   1      34.928  23.154  23.204  1.00  0.00     0.004 C 
ATOM     13  C   UNL A   1      35.910  22.574  24.222  1.00  0.00    -0.013 C 
ATOM     14  C   UNL A   1      36.606  23.632  25.080  1.00  0.00     0.007 C 
BRANCH   9  15
ATOM     15  C   UNL A   1      32.611  20.963  25.327  1.00  0.00     0.106 C 
BRANCH  15  16
ATOM     16  C   UNL A   1      32.620  19.835  24.374  1.00  0.00    -0.106 C 
ATOM     17  C   UNL A   1      32.563  18.898  23.629  1.00  0.00     0.004 C 
ENDBRANCH  15  16
ENDBRANCH   9  15
ENDBRANCH   6   9
ENDBRANCH   4   5
ENDBRANCH   3   4
ENDBRANCH   2   3
ENDBRANCH   1   2
BRANCH   1  18
ATOM     18  C   UNL A   1      32.692  29.319  25.430  1.00  0.00     0.021 C 
BRANCH  18  19
ATOM     19  C   UNL A   1      32.281  29.871  26.792  1.00  0.00     0.116 C 
BRANCH  19  20
ATOM     20  N   UNL A   1      32.211  31.324  26.784  1.00  0.00    -0.352 N 
ATOM     21  C   UNL A   1      33.052  32.243  27.360  1.00  0.00     0.251 C 
ATOM     22  H   UNL A   1      31.449  31.705  26.292  1.00  0.00     0.163 HD
ATOM     23  O   UNL A   1      32.701  33.414  27.460  1.00  0.00    -0.269 OA
BRANCH  21  24
ATOM     24  C   UNL A   1      34.364  31.805  27.875  1.00  0.00     0.039 A 
ATOM     25  C   UNL A   1      35.410  32.728  27.936  1.00  0.00     0.014 A 
ATOM     26  C   UNL A   1      34.554  30.491  28.315  1.00  0.00     0.014 A 
ATOM     27  C   UNL A   1      36.622  32.356  28.517  1.00  0.00     0.010 A 
ATOM     28  C   UNL A   1      35.739  30.143  28.956  1.00  0.00     0.010 A 
ATOM     29  C   UNL A   1      36.777  31.078  29.080  1.00  0.00    -0.014 A 
BRANCH  29  30
ATOM     30  C   UNL A   1      37.992  30.723  29.859  1.00  0.00     0.031 A 
ATOM     31  C   UNL A   1      38.957  29.697  29.336  1.00  0.00     0.074 A 
ATOM     32  C   UNL A   1      38.171  31.272  31.080  1.00  0.00     0.049 A 
ATOM     33  N   UNL A   1      40.009  29.184  29.919  1.00  0.00    -0.248 NA
ATOM     34  C   UNL A   1      38.697  29.164  27.989  1.00  0.00     0.031 C 
ATOM     35  C   UNL A   1      37.282  32.258  31.700  1.00  0.00     0.029 A 
ATOM     36  N   UNL A   1      39.144  31.068  32.028  1.00  0.00    -0.354 N 
ATOM     37  C   UNL A   1      40.527  28.255  29.024  1.00  0.00     0.074 A 
ATOM     38  C   UNL A   1      39.654  28.253  27.869  1.00  0.00     0.031 C 
ATOM     39  C   UNL A   1      37.755  32.581  32.913  1.00  0.00     0.029 A 
ATOM     40  C   UNL A   1      38.940  31.778  33.192  1.00  0.00     0.049 A 
ATOM     41  H   UNL A   1      39.915  30.472  31.889  1.00  0.00     0.167 HD
ATOM     42  C   UNL A   1      41.631  27.483  29.158  1.00  0.00     0.034 A 
ATOM     43  C   UNL A   1      39.606  31.754  34.364  1.00  0.00     0.034 A 
ATOM     44  C   UNL A   1      42.492  27.511  30.315  1.00  0.00     0.049 A 
ATOM     45  C   UNL A   1      40.801  30.841  34.500  1.00  0.00     0.074 A 
ATOM     46  C   UNL A   1      43.682  26.832  30.511  1.00  0.00     0.029 A 
ATOM     47  N   UNL A   1      42.247  28.228  31.477  1.00  0.00    -0.354 N 
ATOM     48  N   UNL A   1      41.326  30.035  33.606  1.00  0.00    -0.248 NA
ATOM     49  C   UNL A   1      41.493  30.831  35.796  1.00  0.00     0.031 C 
ATOM     50  C   UNL A   1      44.101  27.055  31.825  1.00  0.00     0.029 A 
ATOM     51  C   UNL A   1      43.228  27.955  32.417  1.00  0.00     0.049 A 
ATOM     52  H   UNL A   1      41.489  28.841  31.614  1.00  0.00     0.167 HD
ATOM     53  C   UNL A   1      42.422  29.443  34.228  1.00  0.00     0.074 A 
ATOM     54  C   UNL A   1      42.500  30.004  35.560  1.00  0.00     0.031 C 
ATOM     55  C   UNL A   1      43.287  28.516  33.745  1.00  0.00     0.034 A 
BRANCH  42  56
ATOM     56  C   UNL A   1      41.959  26.504  28.059  1.00  0.00     0.023 A 
ATOM     57  C   UNL A   1      41.400  25.217  28.012  1.00  0.00     0.031 A 
ATOM     58  C   UNL A   1      42.810  26.894  27.008  1.00  0.00     0.131 A 
ATOM     59  C   UNL A   1      41.727  24.353  26.954  1.00  0.00     0.055 A 
ATOM     60  C   UNL A   1      43.072  26.058  25.923  1.00  0.00     0.041 A 
ATOM     61  F   UNL A   1      43.393  28.104  27.016  1.00  0.00    -0.206 F 
ATOM     62  C   UNL A   1      42.533  24.776  25.894  1.00  0.00     0.022 A 
BRANCH  59  63
ATOM     63  S   UNL A   1      41.163  22.632  27.029  1.00  0.00     0.124 S 
ATOM     64  O   UNL A   1      41.695  22.091  25.781  1.00  0.00    -0.237 OA
ATOM     65  O   UNL A   1      41.792  22.147  28.254  1.00  0.00    -0.237 OA
ATOM     66  O   UNL A   1      39.707  22.748  27.079  1.00  0.00    -0.744 OA
ENDBRANCH  59  63
ENDBRANCH  42  56
BRANCH  43  67
ATOM     67  C   UNL A   1      39.134  32.561  35.531  1.00  0.00     0.023 A 
ATOM     68  C   UNL A   1      39.553  33.889  35.711  1.00  0.00     0.031 A 
ATOM     69  C   UNL A   1      38.331  31.986  36.534  1.00  0.00     0.131 A 
ATOM     70  C   UNL A   1      39.236  34.568  36.898  1.00  0.00     0.055 A 
ATOM     71  C   UNL A   1      37.950  32.695  37.674  1.00  0.00     0.041 A 
ATOM     72  F   UNL A   1      37.904  30.718  36.422  1.00  0.00    -0.206 F 
ATOM     73  C   UNL A   1      38.422  33.987  37.872  1.00  0.00     0.022 A 
BRANCH  70  74
ATOM     74  S   UNL A   1      40.036  36.165  37.220  1.00  0.00     0.124 S 
ATOM     75  O   UNL A   1      39.944  36.807  35.913  1.00  0.00    -0.237 OA
ATOM     76  O   UNL A   1      39.188  36.721  38.269  1.00  0.00    -0.237 OA
ATOM     77  O   UNL A   1      41.383  35.791  37.639  1.00  0.00    -0.744 OA
ENDBRANCH  70  74
ENDBRANCH  43  67
BRANCH  55  78
ATOM     78  C   UNL A   1      44.408  28.072  34.652  1.00  0.00     0.023 A 
ATOM     79  C   UNL A   1      44.207  27.107  35.653  1.00  0.00     0.031 A 
ATOM     80  C   UNL A   1      45.699  28.608  34.499  1.00  0.00     0.131 A 
ATOM     81  C   UNL A   1      45.270  26.736  36.489  1.00  0.00     0.055 A 
ATOM     82  C   UNL A   1      46.769  28.186  35.288  1.00  0.00     0.041 A 
ATOM     83  F   UNL A   1      45.945  29.540  33.564  1.00  0.00    -0.206 F 
ATOM     84  C   UNL A   1      46.555  27.251  36.297  1.00  0.00     0.022 A 
BRANCH  81  85
ATOM     85  S   UNL A   1      44.935  25.627  37.885  1.00  0.00     0.124 S 
ATOM     86  O   UNL A   1      43.914  26.366  38.620  1.00  0.00    -0.237 OA
ATOM     87  O   UNL A   1      44.484  24.410  37.217  1.00  0.00    -0.237 OA
ATOM     88  O   UNL A   1      46.229  25.522  38.556  1.00  0.00    -0.744 OA
ENDBRANCH  81  85
ENDBRANCH  55  78
ENDBRANCH  29  30
ENDBRANCH  21  24
ENDBRANCH  19  20
ENDBRANCH  18  19
ENDBRANCH   1  18
TORSDOF 18
ENDMDL
MODEL 3
REMARK VINA RESULT:     -10.7      5.168     10.270
REMARK SMILES C#CC[C@]1(C(=O)NCCCCCCNC(=O)c2ccc(-c3c4nc(c(-c5cc(S(=O)(=O)[O-])ccc5F)c5ccc([nH]5)c(-c5cc(S(=O)(=O)[O-])ccc5F)c5nc(c(-c6cc(S(=O)(=O)[O-])ccc6F)c6ccc3[nH]6)C=C5)C=C4)cc2)CC[C@@H](C)C1
REMARK SMILES IDX 11 1 10 2 9 3 8 4 7 5 5 6 6 7 4 9 80 10 84 11 81 12 82 13
REMARK SMILES IDX 83 14 3 15 2 16 1 17 12 18 13 19 14 20 15 21 16 23 17 24
REMARK SMILES IDX 18 25 79 26 19 27 78 28 20 29 21 30 22 31 72 32 23 33 77 34
REMARK SMILES IDX 71 35 73 36 24 37 76 38 70 39 69 40 25 42 57 43 37 44 56 45
REMARK SMILES IDX 38 46 41 47 55 48 74 49 39 50 40 51 54 53 75 54 42 55 26 56
REMARK SMILES IDX 27 57 35 58 28 59 34 60 36 61 33 62 29 63 30 64 31 65 32 66
REMARK SMILES IDX 58 67 59 68 67 69 60 70 66 71 68 72 65 73 61 74 62 75 63 76
REMARK SMILES IDX 64 77 43 78 44 79 52 80 45 81 51 82 53 83 50 84 46 85 47 86
REMARK SMILES IDX 48 87 49 88
REMARK H PARENT 7 8 14 22 73 41 41 52
REMARK Flexibility Score: inf
ROOT
ATOM      1  C   UNL A   1      31.938  28.133  27.379  1.00  0.00     0.002 C 
ENDROOT
BRANCH   1   2
ATOM      2  C   UNL A   1      32.042  26.951  26.404  1.00  0.00     0.002 C 
BRANCH   2   3
ATOM      3  C   UNL A   1      33.389  26.807  25.698  1.00  0.00     0.021 C 
BRANCH   3   4
ATOM      4  C   UNL A   1      33.962  25.401  25.746  1.00  0.00     0.116 C 
BRANCH   4   5
ATOM      5  N   UNL A   1      34.406  24.915  24.463  1.00  0.00    -0.356 N 
ATOM      6  C   UNL A   1      35.020  23.770  24.078  1.00  0.00     0.227 C 
ATOM      7  O   UNL A   1      34.995  23.565  22.855  1.00  0.00    -0.274 OA
ATOM      8  H   UNL A   1      34.229  25.537  23.720  1.00  0.00     0.163 HD
BRANCH   6   9
ATOM      9  C   UNL A   1      35.717  22.733  25.005  1.00  0.00     0.060 C 
ATOM     10  C   UNL A   1      35.283  22.586  26.474  1.00  0.00     0.018 C 
ATOM     11  C   UNL A   1      35.431  21.313  24.457  1.00  0.00     0.021 C 
ATOM     12  C   UNL A   1      34.174  21.522  26.523  1.00  0.00     0.004 C 
ATOM     13  C   UNL A   1      34.158  20.828  25.161  1.00  0.00    -0.013 C 
ATOM     14  C   UNL A   1      32.888  21.089  24.350  1.00  0.00     0.007 C 
BRANCH   9  15
ATOM     15  C   UNL A   1      37.235  23.093  24.836  1.00  0.00     0.106 C 
BRANCH  15  16
ATOM     16  C   UNL A   1      37.848  23.888  25.917  1.00  0.00    -0.106 C 
ATOM     17  C   UNL A   1      38.292  24.582  26.788  1.00  0.00     0.004 C 
ENDBRANCH  15  16
ENDBRANCH   9  15
ENDBRANCH   6   9
ENDBRANCH   4   5
ENDBRANCH   3   4
ENDBRANCH   2   3
ENDBRANCH   1   2
BRANCH   1  18
ATOM     18  C   UNL A   1      31.621  29.490  26.740  1.00  0.00     0.021 C 
BRANCH  18  19
ATOM     19  C   UNL A   1      32.848  30.305  26.340  1.00  0.00     0.116 C 
BRANCH  19  20
ATOM     20  N   UNL A   1      32.725  31.696  26.746  1.00  0.00    -0.352 N 
ATOM     21  C   UNL A   1      33.504  32.428  27.606  1.00  0.00     0.251 C 
ATOM     22  H   UNL A   1      31.971  32.185  26.345  1.00  0.00     0.163 HD
ATOM     23  O   UNL A   1      33.106  33.512  28.020  1.00  0.00    -0.269 OA
BRANCH  21  24
ATOM     24  C   UNL A   1      34.808  31.890  28.043  1.00  0.00     0.039 A 
ATOM     25  C   UNL A   1      35.933  32.713  27.984  1.00  0.00     0.014 A 
ATOM     26  C   UNL A   1      34.912  30.582  28.527  1.00  0.00     0.014 A 
ATOM     27  C   UNL A   1      37.149  32.253  28.491  1.00  0.00     0.010 A 
ATOM     28  C   UNL A   1      36.107  30.150  29.094  1.00  0.00     0.010 A 
ATOM     29  C   UNL A   1      37.232  30.989  29.099  1.00  0.00    -0.014 A 
BRANCH  29  30
ATOM     30  C   UNL A   1      38.467  30.553  29.802  1.00  0.00     0.031 A 
ATOM     31  C   UNL A   1      39.346  29.491  29.205  1.00  0.00     0.074 A 
ATOM     32  C   UNL A   1      38.740  31.062  31.022  1.00  0.00     0.049 A 
ATOM     33  N   UNL A   1      40.399  28.910  29.718  1.00  0.00    -0.248 NA
ATOM     34  C   UNL A   1      38.986  29.005  27.862  1.00  0.00     0.031 C 
ATOM     35  C   UNL A   1      37.939  32.077  31.711  1.00  0.00     0.029 A 
ATOM     36  N   UNL A   1      39.751  30.785  31.910  1.00  0.00    -0.354 N 
ATOM     37  C   UNL A   1      40.818  27.978  28.776  1.00  0.00     0.074 A 
ATOM     38  C   UNL A   1      39.886  28.049  27.670  1.00  0.00     0.031 C 
ATOM     39  C   UNL A   1      38.493  32.346  32.903  1.00  0.00     0.029 A 
ATOM     40  C   UNL A   1      39.648  31.476  33.099  1.00  0.00     0.049 A 
ATOM     41  H   UNL A   1      40.480  30.154  31.716  1.00  0.00     0.167 HD
ATOM     42  C   UNL A   1      41.885  27.146  28.832  1.00  0.00     0.034 A 
ATOM     43  C   UNL A   1      40.374  31.390  34.232  1.00  0.00     0.034 A 
ATOM     44  C   UNL A   1      42.808  27.102  29.940  1.00  0.00     0.049 A 
ATOM     45  C   UNL A   1      41.524  30.413  34.282  1.00  0.00     0.074 A 
ATOM     46  C   UNL A   1      43.970  26.358  30.055  1.00  0.00     0.029 A 
ATOM     47  N   UNL A   1      42.665  27.802  31.129  1.00  0.00    -0.354 N 
ATOM     48  N   UNL A   1      41.958  29.603  33.343  1.00  0.00    -0.248 NA
ATOM     49  C   UNL A   1      42.284  30.336  35.537  1.00  0.00     0.031 C 
ATOM     50  C   UNL A   1      44.470  26.528  31.348  1.00  0.00     0.029 A 
ATOM     51  C   UNL A   1      43.679  27.456  32.007  1.00  0.00     0.049 A 
ATOM     52  H   UNL A   1      41.949  28.450  31.320  1.00  0.00     0.167 HD
ATOM     53  C   UNL A   1      43.053  28.940  33.891  1.00  0.00     0.074 A 
ATOM     54  C   UNL A   1      43.232  29.464  35.228  1.00  0.00     0.031 C 
ATOM     55  C   UNL A   1      43.840  27.981  33.341  1.00  0.00     0.034 A 
BRANCH  42  56
ATOM     56  C   UNL A   1      42.101  26.179  27.696  1.00  0.00     0.023 A 
ATOM     57  C   UNL A   1      41.792  24.814  27.806  1.00  0.00     0.031 A 
ATOM     58  C   UNL A   1      42.578  26.651  26.458  1.00  0.00     0.131 A 
ATOM     59  C   UNL A   1      41.995  23.962  26.709  1.00  0.00     0.055 A 
ATOM     60  C   UNL A   1      42.709  25.813  25.351  1.00  0.00     0.041 A 
ATOM     61  F   UNL A   1      42.914  27.942  26.304  1.00  0.00    -0.206 F 
ATOM     62  C   UNL A   1      42.422  24.457  25.474  1.00  0.00     0.022 A 
BRANCH  59  63
ATOM     63  S   UNL A   1      41.791  22.176  26.944  1.00  0.00     0.124 S 
ATOM     64  O   UNL A   1      40.357  22.073  27.201  1.00  0.00    -0.237 OA
ATOM     65  O   UNL A   1      42.252  21.634  25.669  1.00  0.00    -0.237 OA
ATOM     66  O   UNL A   1      42.646  21.880  28.092  1.00  0.00    -0.744 OA
ENDBRANCH  59  63
ENDBRANCH  42  56
BRANCH  43  67
ATOM     67  C   UNL A   1      40.010  32.192  35.439  1.00  0.00     0.023 A 
ATOM     68  C   UNL A   1      39.172  31.665  36.435  1.00  0.00     0.031 A 
ATOM     69  C   UNL A   1      40.419  33.532  35.571  1.00  0.00     0.131 A 
ATOM     70  C   UNL A   1      38.708  32.492  37.469  1.00  0.00     0.055 A 
ATOM     71  C   UNL A   1      40.019  34.327  36.647  1.00  0.00     0.041 A 
ATOM     72  F   UNL A   1      41.215  34.096  34.647  1.00  0.00    -0.206 F 
ATOM     73  C   UNL A   1      39.140  33.814  37.593  1.00  0.00     0.022 A 
BRANCH  70  74
ATOM     74  S   UNL A   1      37.404  31.859  38.562  1.00  0.00     0.124 S 
ATOM     75  O   UNL A   1      37.141  30.549  37.977  1.00  0.00    -0.237 OA
ATOM     76  O   UNL A   1      38.070  31.861  39.860  1.00  0.00    -0.237 OA
ATOM     77  O   UNL A   1      36.330  32.838  38.410  1.00  0.00    -0.744 OA
ENDBRANCH  70  74
ENDBRANCH  43  67
BRANCH  55  78
ATOM     78  C   UNL A   1      44.983  27.459  34.175  1.00  0.00     0.023 A 
ATOM     79  C   UNL A   1      44.838  26.328  34.996  1.00  0.00     0.031 A 
ATOM     80  C   UNL A   1      46.239  28.089  34.132  1.00  0.00     0.131 A 
ATOM     81  C   UNL A   1      45.920  25.885  35.772  1.00  0.00     0.055 A 
ATOM     82  C   UNL A   1      47.330  27.604  34.852  1.00  0.00     0.041 A 
ATOM     83  F   UNL A   1      46.431  29.178  33.370  1.00  0.00    -0.206 F 
ATOM     84  C   UNL A   1      47.172  26.501  35.687  1.00  0.00     0.022 A 
BRANCH  81  85
ATOM     85  S   UNL A   1      45.650  24.539  36.956  1.00  0.00     0.124 S 
ATOM     86  O   UNL A   1      46.624  24.851  37.997  1.00  0.00    -0.237 OA
ATOM     87  O   UNL A   1      44.248  24.719  37.322  1.00  0.00    -0.237 OA
ATOM     88  O   UNL A   1      45.936  23.336  36.178  1.00  0.00    -0.744 OA
ENDBRANCH  81  85
ENDBRANCH  55  78
ENDBRANCH  29  30
ENDBRANCH  21  24
ENDBRANCH  19  20
ENDBRANCH  18  19
ENDBRANCH   1  18
TORSDOF 18
ENDMDL
