MODEL 1
REMARK VINA RESULT:     -12.8      0.000      0.000
REMARK SMILES COc1ccc([C@@H]2[NH2+][C@H](C(=O)NCCCCCCNC(=O)c3ccc(-c4c5nc(c(-c6cc(S(=O)(=O)[O-])ccc6F)c6ccc([nH]6)c(-c6cc(S(=O)(=O)[O-])ccc6F)c6nc(c(-c7cc(S(=O)(=O)[O-])ccc7F)c7ccc4[nH]7)C=C6)C=C5)cc3)CS2)cc1Cn1nc(C)c(Br)c1C
REMARK SMILES IDX 15 1 14 2 13 3 12 4 10 5 11 6 9 8 7 9 8 10 86 11 85 14 6 15
REMARK SMILES IDX 3 16 4 17 88 18 5 19 87 20 2 21 1 22 89 23 90 24 91 25 96 26
REMARK SMILES IDX 92 27 94 28 97 29 93 30 95 31 16 32 17 33 18 34 19 35 20 36
REMARK SMILES IDX 21 38 22 39 23 40 84 41 24 42 83 43 25 44 26 45 27 46 77 47
REMARK SMILES IDX 28 48 82 49 76 50 78 51 29 52 81 53 75 54 74 55 30 57 62 58
REMARK SMILES IDX 42 59 61 60 43 61 46 62 60 63 79 64 44 65 45 66 59 68 80 69
REMARK SMILES IDX 47 70 31 71 32 72 40 73 33 74 39 75 41 76 38 77 34 78 35 79
REMARK SMILES IDX 36 80 37 81 63 82 64 83 72 84 65 85 71 86 73 87 70 88 66 89
REMARK SMILES IDX 67 90 68 91 69 92 48 93 49 94 57 95 50 96 56 97 58 98 55 99
REMARK SMILES IDX 51 100 52 101 53 102 54 103
REMARK H PARENT 12 7 8 12 8 13 19 37 78 56 46 67
REMARK Flexibility Score: inf
ROOT
ATOM      1  C   UNL A   1      34.003  24.336  22.734  1.00  0.00     0.002 C 
ENDROOT
BRANCH   1   2
ATOM      2  C   UNL A   1      33.090  25.395  21.867  1.00  0.00     0.021 C 
BRANCH   2   3
ATOM      3  C   UNL A   1      32.730  26.885  22.153  1.00  0.00     0.116 C 
BRANCH   3   4
ATOM      4  N   UNL A   1      31.471  27.449  21.706  1.00  0.00    -0.351 N 
ATOM      5  C   UNL A   1      30.555  28.167  22.443  1.00  0.00     0.279 C 
ATOM      6  O   UNL A   1      29.763  28.861  21.785  1.00  0.00    -0.268 OA
ATOM      7  H   UNL A   1      31.243  27.302  20.759  1.00  0.00     0.163 HD
BRANCH   5   8
ATOM      8  C   UNL A   1      30.458  28.247  24.007  1.00  0.00     0.283 C 
ATOM      9  C   UNL A   1      31.006  26.827  25.923  1.00  0.00     0.274 C 
ATOM     10  N   UNL A   1      30.170  26.968  24.706  1.00  0.00    -0.321 N 
ATOM     11  S   UNL A   1      31.613  28.462  26.362  1.00  0.00    -0.088 SA
ATOM     12  H   UNL A   1      29.186  26.947  24.973  1.00  0.00     0.348 HD
ATOM     13  H   UNL A   1      30.385  26.197  24.073  1.00  0.00     0.348 HD
ATOM     14  C   UNL A   1      31.635  28.972  24.634  1.00  0.00     0.151 C 
BRANCH   9  15
ATOM     15  C   UNL A   1      32.059  25.771  25.602  1.00  0.00     0.021 A 
ATOM     16  C   UNL A   1      33.875  23.789  26.328  1.00  0.00     0.123 A 
ATOM     17  C   UNL A   1      34.300  25.120  26.212  1.00  0.00     0.047 A 
ATOM     18  C   UNL A   1      32.541  23.361  25.868  1.00  0.00     0.016 A 
ATOM     19  C   UNL A   1      33.393  26.107  25.858  1.00  0.00     0.015 A 
ATOM     20  C   UNL A   1      31.714  24.418  25.438  1.00  0.00     0.020 A 
BRANCH  16  21
ATOM     21  O   UNL A   1      34.774  22.945  26.892  1.00  0.00    -0.496 OA
ATOM     22  C   UNL A   1      34.710  21.719  27.671  1.00  0.00     0.278 C 
ENDBRANCH  16  21
BRANCH  18  23
ATOM     23  C   UNL A   1      31.711  21.976  25.819  1.00  0.00     0.184 C 
BRANCH  23  24
ATOM     24  N   UNL A   1      32.133  20.722  25.062  1.00  0.00    -0.264 N 
ATOM     25  N   UNL A   1      32.831  19.753  25.726  1.00  0.00    -0.177 NA
ATOM     26  C   UNL A   1      32.261  20.430  23.700  1.00  0.00     0.050 A 
ATOM     27  C   UNL A   1      32.765  18.664  24.943  1.00  0.00     0.074 A 
ATOM     28  C   UNL A   1      32.408  19.055  23.651  1.00  0.00     0.061 A 
ATOM     29  C   UNL A   1      32.307  21.369  22.566  1.00  0.00     0.067 C 
ATOM     30  C   UNL A   1      33.080  17.309  25.488  1.00  0.00     0.070 C 
ATOM     31  Br  UNL A   1      32.343  17.926  22.156  1.00  0.00    -0.047 Br
ENDBRANCH  23  24
ENDBRANCH  18  23
ENDBRANCH   9  15
ENDBRANCH   5   8
ENDBRANCH   3   4
ENDBRANCH   2   3
ENDBRANCH   1   2
BRANCH   1  32
ATOM     32  C   UNL A   1      35.395  23.345  22.772  1.00  0.00     0.002 C 
BRANCH  32  33
ATOM     33  C   UNL A   1      36.716  22.876  23.617  1.00  0.00     0.021 C 
BRANCH  33  34
ATOM     34  C   UNL A   1      37.219  21.594  24.340  1.00  0.00     0.116 C 
BRANCH  34  35
ATOM     35  N   UNL A   1      37.637  21.600  25.719  1.00  0.00    -0.352 N 
ATOM     36  C   UNL A   1      38.956  21.620  26.091  1.00  0.00     0.251 C 
ATOM     37  H   UNL A   1      36.947  21.589  26.422  1.00  0.00     0.163 HD
ATOM     38  O   UNL A   1      39.814  20.866  25.644  1.00  0.00    -0.269 OA
BRANCH  36  39
ATOM     39  C   UNL A   1      39.298  22.832  26.885  1.00  0.00     0.039 A 
ATOM     40  C   UNL A   1      40.441  22.734  27.686  1.00  0.00     0.014 A 
ATOM     41  C   UNL A   1      38.760  24.084  26.560  1.00  0.00     0.014 A 
ATOM     42  C   UNL A   1      41.124  23.888  28.054  1.00  0.00     0.010 A 
ATOM     43  C   UNL A   1      39.483  25.229  26.864  1.00  0.00     0.010 A 
ATOM     44  C   UNL A   1      40.684  25.133  27.584  1.00  0.00    -0.014 A 
BRANCH  44  45
ATOM     45  C   UNL A   1      41.478  26.359  27.815  1.00  0.00     0.031 A 
ATOM     46  C   UNL A   1      40.858  27.479  28.593  1.00  0.00     0.074 A 
ATOM     47  C   UNL A   1      42.690  26.476  27.238  1.00  0.00     0.049 A 
ATOM     48  N   UNL A   1      41.312  28.681  28.820  1.00  0.00    -0.248 NA
ATOM     49  C   UNL A   1      39.517  27.225  29.142  1.00  0.00     0.031 C 
ATOM     50  C   UNL A   1      43.331  25.453  26.404  1.00  0.00     0.029 A 
ATOM     51  N   UNL A   1      43.595  27.503  27.247  1.00  0.00    -0.354 N 
ATOM     52  C   UNL A   1      40.303  29.333  29.519  1.00  0.00     0.074 A 
ATOM     53  C   UNL A   1      39.187  28.420  29.605  1.00  0.00     0.031 C 
ATOM     54  C   UNL A   1      44.537  25.894  26.010  1.00  0.00     0.029 A 
ATOM     55  C   UNL A   1      44.738  27.242  26.525  1.00  0.00     0.049 A 
ATOM     56  H   UNL A   1      43.443  28.349  27.727  1.00  0.00     0.167 HD
ATOM     57  C   UNL A   1      40.329  30.573  30.065  1.00  0.00     0.034 A 
ATOM     58  C   UNL A   1      45.821  28.016  26.309  1.00  0.00     0.034 A 
ATOM     59  C   UNL A   1      41.478  31.439  29.968  1.00  0.00     0.049 A 
ATOM     60  C   UNL A   1      45.838  29.384  26.945  1.00  0.00     0.074 A 
ATOM     61  C   UNL A   1      41.667  32.691  30.519  1.00  0.00     0.029 A 
ATOM     62  N   UNL A   1      42.639  31.131  29.265  1.00  0.00    -0.354 N 
ATOM     63  N   UNL A   1      44.904  29.969  27.663  1.00  0.00    -0.248 NA
ATOM     64  C   UNL A   1      47.050  30.186  26.760  1.00  0.00     0.031 C 
ATOM     65  C   UNL A   1      42.917  33.164  30.101  1.00  0.00     0.029 A 
ATOM     66  C   UNL A   1      43.539  32.178  29.349  1.00  0.00     0.049 A 
ATOM     67  H   UNL A   1      42.797  30.289  28.779  1.00  0.00     0.167 HD
ATOM     68  C   UNL A   1      45.428  31.200  28.038  1.00  0.00     0.074 A 
ATOM     69  C   UNL A   1      46.768  31.260  27.483  1.00  0.00     0.031 C 
ATOM     70  C   UNL A   1      44.864  32.197  28.770  1.00  0.00     0.034 A 
BRANCH  57  71
ATOM     71  C   UNL A   1      39.083  31.042  30.777  1.00  0.00     0.023 A 
ATOM     72  C   UNL A   1      38.019  31.648  30.082  1.00  0.00     0.031 A 
ATOM     73  C   UNL A   1      38.978  30.945  32.176  1.00  0.00     0.131 A 
ATOM     74  C   UNL A   1      36.951  32.218  30.789  1.00  0.00     0.055 A 
ATOM     75  C   UNL A   1      37.866  31.433  32.866  1.00  0.00     0.041 A 
ATOM     76  F   UNL A   1      39.968  30.402  32.900  1.00  0.00    -0.206 F 
ATOM     77  C   UNL A   1      36.852  32.091  32.176  1.00  0.00     0.022 A 
BRANCH  74  78
ATOM     78  S   UNL A   1      35.779  33.269  29.886  1.00  0.00     0.124 S 
ATOM     79  O   UNL A   1      35.155  34.015  30.977  1.00  0.00    -0.237 OA
ATOM     80  O   UNL A   1      36.654  34.036  29.008  1.00  0.00    -0.237 OA
ATOM     81  O   UNL A   1      34.903  32.311  29.215  1.00  0.00    -0.744 OA
ENDBRANCH  74  78
ENDBRANCH  57  71
BRANCH  58  82
ATOM     82  C   UNL A   1      46.964  27.523  25.486  1.00  0.00     0.023 A 
ATOM     83  C   UNL A   1      47.109  27.912  24.144  1.00  0.00     0.031 A 
ATOM     84  C   UNL A   1      47.921  26.641  26.017  1.00  0.00     0.131 A 
ATOM     85  C   UNL A   1      48.156  27.389  23.367  1.00  0.00     0.055 A 
ATOM     86  C   UNL A   1      48.992  26.162  25.256  1.00  0.00     0.041 A 
ATOM     87  F   UNL A   1      47.840  26.239  27.296  1.00  0.00    -0.206 F 
ATOM     88  C   UNL A   1      49.106  26.527  23.918  1.00  0.00     0.022 A 
BRANCH  85  89
ATOM     89  S   UNL A   1      48.213  27.790  21.599  1.00  0.00     0.124 S 
ATOM     90  O   UNL A   1      48.394  26.473  21.000  1.00  0.00    -0.237 OA
ATOM     91  O   UNL A   1      46.912  28.418  21.390  1.00  0.00    -0.237 OA
ATOM     92  O   UNL A   1      49.360  28.689  21.490  1.00  0.00    -0.744 OA
ENDBRANCH  85  89
ENDBRANCH  58  82
BRANCH  70  93
ATOM     93  C   UNL A   1      45.719  33.408  29.027  1.00  0.00     0.023 A 
ATOM     94  C   UNL A   1      45.649  34.543  28.202  1.00  0.00     0.031 A 
ATOM     95  C   UNL A   1      46.616  33.425  30.109  1.00  0.00     0.131 A 
ATOM     96  C   UNL A   1      46.507  35.626  28.435  1.00  0.00     0.055 A 
ATOM     97  C   UNL A   1      47.418  34.532  30.377  1.00  0.00     0.041 A 
ATOM     98  F   UNL A   1      46.720  32.364  30.926  1.00  0.00    -0.206 F 
ATOM     99  C   UNL A   1      47.377  35.636  29.530  1.00  0.00     0.022 A 
BRANCH  96 100
ATOM    100  S   UNL A   1      46.540  36.978  27.230  1.00  0.00     0.124 S 
ATOM    101  O   UNL A   1      47.228  38.029  27.973  1.00  0.00    -0.237 OA
ATOM    102  O   UNL A   1      47.286  36.390  26.122  1.00  0.00    -0.237 OA
ATOM    103  O   UNL A   1      45.126  37.231  26.961  1.00  0.00    -0.744 OA
ENDBRANCH  96 100
ENDBRANCH  70  93
ENDBRANCH  44  45
ENDBRANCH  36  39
ENDBRANCH  34  35
ENDBRANCH  33  34
ENDBRANCH  32  33
ENDBRANCH   1  32
TORSDOF 20
ENDMDL
MODEL 2
REMARK VINA RESULT:     -12.3      1.506      7.352
REMARK SMILES COc1ccc([C@@H]2[NH2+][C@H](C(=O)NCCCCCCNC(=O)c3ccc(-c4c5nc(c(-c6cc(S(=O)(=O)[O-])ccc6F)c6ccc([nH]6)c(-c6cc(S(=O)(=O)[O-])ccc6F)c6nc(c(-c7cc(S(=O)(=O)[O-])ccc7F)c7ccc4[nH]7)C=C6)C=C5)cc3)CS2)cc1Cn1nc(C)c(Br)c1C
REMARK SMILES IDX 15 1 14 2 13 3 12 4 10 5 11 6 9 8 7 9 8 10 86 11 85 14 6 15
REMARK SMILES IDX 3 16 4 17 88 18 5 19 87 20 2 21 1 22 89 23 90 24 91 25 96 26
REMARK SMILES IDX 92 27 94 28 97 29 93 30 95 31 16 32 17 33 18 34 19 35 20 36
REMARK SMILES IDX 21 38 22 39 23 40 84 41 24 42 83 43 25 44 26 45 27 46 77 47
REMARK SMILES IDX 28 48 82 49 76 50 78 51 29 52 81 53 75 54 74 55 30 57 62 58
REMARK SMILES IDX 42 59 61 60 43 61 46 62 60 63 79 64 44 65 45 66 59 68 80 69
REMARK SMILES IDX 47 70 31 71 32 72 40 73 33 74 39 75 41 76 38 77 34 78 35 79
REMARK SMILES IDX 36 80 37 81 63 82 64 83 72 84 65 85 71 86 73 87 70 88 66 89
REMARK SMILES IDX 67 90 68 91 69 92 48 93 49 94 57 95 50 96 56 97 58 98 55 99
REMARK SMILES IDX 51 100 52 101 53 102 54 103
REMARK H PARENT 12 7 8 12 8 13 19 37 78 56 46 67
REMARK Flexibility Score: inf
ROOT
ATOM      1  C   UNL A   1      34.072  24.448  22.243  1.00  0.00     0.002 C 
ENDROOT
BRANCH   1   2
ATOM      2  C   UNL A   1      33.145  25.805  22.306  1.00  0.00     0.021 C 
BRANCH   2   3
ATOM      3  C   UNL A   1      31.610  25.989  22.097  1.00  0.00     0.116 C 
BRANCH   3   4
ATOM      4  N   UNL A   1      31.059  27.265  21.682  1.00  0.00    -0.351 N 
ATOM      5  C   UNL A   1      30.780  28.362  22.467  1.00  0.00     0.279 C 
ATOM      6  O   UNL A   1      30.681  29.442  21.862  1.00  0.00    -0.268 OA
ATOM      7  H   UNL A   1      30.861  27.358  20.723  1.00  0.00     0.163 HD
BRANCH   5   8
ATOM      8  C   UNL A   1      30.644  28.395  24.029  1.00  0.00     0.283 C 
ATOM      9  C   UNL A   1      31.097  26.897  25.910  1.00  0.00     0.274 C 
ATOM     10  N   UNL A   1      30.298  27.104  24.678  1.00  0.00    -0.321 N 
ATOM     11  S   UNL A   1      31.743  28.497  26.418  1.00  0.00    -0.088 SA
ATOM     12  H   UNL A   1      29.307  27.106  24.919  1.00  0.00     0.348 HD
ATOM     13  H   UNL A   1      30.506  26.348  24.026  1.00  0.00     0.348 HD
ATOM     14  C   UNL A   1      31.826  29.061  24.709  1.00  0.00     0.151 C 
BRANCH   9  15
ATOM     15  C   UNL A   1      32.124  25.819  25.582  1.00  0.00     0.021 A 
ATOM     16  C   UNL A   1      33.890  23.787  26.292  1.00  0.00     0.123 A 
ATOM     17  C   UNL A   1      34.348  25.108  26.190  1.00  0.00     0.047 A 
ATOM     18  C   UNL A   1      32.547  23.396  25.825  1.00  0.00     0.016 A 
ATOM     19  C   UNL A   1      33.466  26.120  25.844  1.00  0.00     0.015 A 
ATOM     20  C   UNL A   1      31.746  24.476  25.404  1.00  0.00     0.020 A 
BRANCH  16  21
ATOM     21  O   UNL A   1      34.766  22.915  26.850  1.00  0.00    -0.496 OA
ATOM     22  C   UNL A   1      34.671  21.688  27.623  1.00  0.00     0.278 C 
ENDBRANCH  16  21
BRANCH  18  23
ATOM     23  C   UNL A   1      31.684  22.031  25.761  1.00  0.00     0.184 C 
BRANCH  23  24
ATOM     24  N   UNL A   1      32.093  20.763  25.021  1.00  0.00    -0.264 N 
ATOM     25  N   UNL A   1      32.802  19.807  25.692  1.00  0.00    -0.177 NA
ATOM     26  C   UNL A   1      32.198  20.446  23.663  1.00  0.00     0.050 A 
ATOM     27  C   UNL A   1      32.723  18.703  24.931  1.00  0.00     0.074 A 
ATOM     28  C   UNL A   1      32.345  19.070  23.638  1.00  0.00     0.061 A 
ATOM     29  C   UNL A   1      32.225  21.363  22.511  1.00  0.00     0.067 C 
ATOM     30  C   UNL A   1      33.048  17.359  25.496  1.00  0.00     0.070 C 
ATOM     31  Br  UNL A   1      32.255  17.913  22.166  1.00  0.00    -0.047 Br
ENDBRANCH  23  24
ENDBRANCH  18  23
ENDBRANCH   9  15
ENDBRANCH   5   8
ENDBRANCH   3   4
ENDBRANCH   2   3
ENDBRANCH   1   2
BRANCH   1  32
ATOM     32  C   UNL A   1      35.063  23.351  23.102  1.00  0.00     0.002 C 
BRANCH  32  33
ATOM     33  C   UNL A   1      36.545  23.048  23.725  1.00  0.00     0.021 C 
BRANCH  33  34
ATOM     34  C   UNL A   1      37.289  21.854  24.386  1.00  0.00     0.116 C 
BRANCH  34  35
ATOM     35  N   UNL A   1      37.658  21.851  25.780  1.00  0.00    -0.352 N 
ATOM     36  C   UNL A   1      38.964  21.851  26.197  1.00  0.00     0.251 C 
ATOM     37  H   UNL A   1      36.944  21.850  26.458  1.00  0.00     0.163 HD
ATOM     38  O   UNL A   1      39.825  21.084  25.779  1.00  0.00    -0.269 OA
BRANCH  36  39
ATOM     39  C   UNL A   1      39.297  23.055  27.005  1.00  0.00     0.039 A 
ATOM     40  C   UNL A   1      40.508  23.007  27.702  1.00  0.00     0.014 A 
ATOM     41  C   UNL A   1      38.654  24.280  26.775  1.00  0.00     0.014 A 
ATOM     42  C   UNL A   1      41.147  24.192  28.055  1.00  0.00     0.010 A 
ATOM     43  C   UNL A   1      39.328  25.459  27.061  1.00  0.00     0.010 A 
ATOM     44  C   UNL A   1      40.590  25.419  27.672  1.00  0.00    -0.014 A 
BRANCH  44  45
ATOM     45  C   UNL A   1      41.322  26.687  27.881  1.00  0.00     0.031 A 
ATOM     46  C   UNL A   1      42.727  26.797  27.373  1.00  0.00     0.074 A 
ATOM     47  C   UNL A   1      40.747  27.666  28.606  1.00  0.00     0.049 A 
ATOM     48  N   UNL A   1      43.596  27.755  27.540  1.00  0.00    -0.248 NA
ATOM     49  C   UNL A   1      43.239  25.640  26.622  1.00  0.00     0.031 C 
ATOM     50  C   UNL A   1      39.405  27.604  29.196  1.00  0.00     0.029 A 
ATOM     51  N   UNL A   1      41.213  28.897  28.985  1.00  0.00    -0.354 N 
ATOM     52  C   UNL A   1      44.764  27.308  26.933  1.00  0.00     0.074 A 
ATOM     53  C   UNL A   1      44.513  25.962  26.470  1.00  0.00     0.031 C 
ATOM     54  C   UNL A   1      39.148  28.757  29.835  1.00  0.00     0.029 A 
ATOM     55  C   UNL A   1      40.316  29.623  29.736  1.00  0.00     0.049 A 
ATOM     56  H   UNL A   1      42.106  29.232  28.742  1.00  0.00     0.167 HD
ATOM     57  C   UNL A   1      45.927  27.980  26.756  1.00  0.00     0.034 A 
ATOM     58  C   UNL A   1      40.437  30.850  30.282  1.00  0.00     0.034 A 
ATOM     59  C   UNL A   1      46.119  29.331  27.220  1.00  0.00     0.049 A 
ATOM     60  C   UNL A   1      41.732  31.589  30.052  1.00  0.00     0.074 A 
ATOM     61  C   UNL A   1      47.218  30.154  27.060  1.00  0.00     0.029 A 
ATOM     62  N   UNL A   1      45.177  30.057  27.943  1.00  0.00    -0.354 N 
ATOM     63  N   UNL A   1      42.811  31.184  29.418  1.00  0.00    -0.248 NA
ATOM     64  C   UNL A   1      41.823  32.949  30.591  1.00  0.00     0.031 C 
ATOM     65  C   UNL A   1      46.963  31.353  27.736  1.00  0.00     0.029 A 
ATOM     66  C   UNL A   1      45.676  31.309  28.256  1.00  0.00     0.049 A 
ATOM     67  H   UNL A   1      44.283  29.728  28.194  1.00  0.00     0.167 HD
ATOM     68  C   UNL A   1      43.700  32.250  29.460  1.00  0.00     0.074 A 
ATOM     69  C   UNL A   1      43.020  33.322  30.162  1.00  0.00     0.031 C 
ATOM     70  C   UNL A   1      44.964  32.345  28.969  1.00  0.00     0.034 A 
BRANCH  57  71
ATOM     71  C   UNL A   1      47.050  27.250  26.058  1.00  0.00     0.023 A 
ATOM     72  C   UNL A   1      48.019  26.527  26.779  1.00  0.00     0.031 A 
ATOM     73  C   UNL A   1      47.197  27.327  24.663  1.00  0.00     0.131 A 
ATOM     74  C   UNL A   1      49.137  25.997  26.119  1.00  0.00     0.055 A 
ATOM     75  C   UNL A   1      48.265  26.718  24.000  1.00  0.00     0.041 A 
ATOM     76  F   UNL A   1      46.322  28.023  23.920  1.00  0.00    -0.206 F 
ATOM     77  C   UNL A   1      49.254  26.064  24.729  1.00  0.00     0.022 A 
BRANCH  74  78
ATOM     78  S   UNL A   1      50.514  25.368  27.118  1.00  0.00     0.124 S 
ATOM     79  O   UNL A   1      50.864  26.546  27.909  1.00  0.00    -0.237 OA
ATOM     80  O   UNL A   1      49.897  24.268  27.849  1.00  0.00    -0.237 OA
ATOM     81  O   UNL A   1      51.511  24.976  26.123  1.00  0.00    -0.744 OA
ENDBRANCH  74  78
ENDBRANCH  57  71
BRANCH  58  82
ATOM     82  C   UNL A   1      39.320  31.454  31.066  1.00  0.00     0.023 A 
ATOM     83  C   UNL A   1      38.220  32.043  30.422  1.00  0.00     0.031 A 
ATOM     84  C   UNL A   1      39.340  31.472  32.472  1.00  0.00     0.131 A 
ATOM     85  C   UNL A   1      37.209  32.662  31.175  1.00  0.00     0.055 A 
ATOM     86  C   UNL A   1      38.307  32.043  33.221  1.00  0.00     0.041 A 
ATOM     87  F   UNL A   1      40.361  30.917  33.145  1.00  0.00    -0.206 F 
ATOM     88  C   UNL A   1      37.239  32.654  32.571  1.00  0.00     0.022 A 
BRANCH  85  89
ATOM     89  S   UNL A   1      35.891  33.550  30.302  1.00  0.00     0.124 S 
ATOM     90  O   UNL A   1      35.363  34.411  31.354  1.00  0.00    -0.237 OA
ATOM     91  O   UNL A   1      36.633  34.219  29.237  1.00  0.00    -0.237 OA
ATOM     92  O   UNL A   1      34.996  32.483  29.860  1.00  0.00    -0.744 OA
ENDBRANCH  85  89
ENDBRANCH  58  82
BRANCH  70  93
ATOM     93  C   UNL A   1      45.659  33.667  29.156  1.00  0.00     0.023 A 
ATOM     94  C   UNL A   1      45.644  34.651  28.154  1.00  0.00     0.031 A 
ATOM     95  C   UNL A   1      46.347  33.941  30.351  1.00  0.00     0.131 A 
ATOM     96  C   UNL A   1      46.357  35.843  28.340  1.00  0.00     0.055 A 
ATOM     97  C   UNL A   1      46.997  35.156  30.557  1.00  0.00     0.041 A 
ATOM     98  F   UNL A   1      46.391  33.032  31.338  1.00  0.00    -0.206 F 
ATOM     99  C   UNL A   1      47.017  36.110  29.543  1.00  0.00     0.022 A 
BRANCH  96 100
ATOM    100  S   UNL A   1      46.492  36.995  26.949  1.00  0.00     0.124 S 
ATOM    101  O   UNL A   1      45.319  37.840  27.141  1.00  0.00    -0.237 OA
ATOM    102  O   UNL A   1      47.783  37.632  27.195  1.00  0.00    -0.237 OA
ATOM    103  O   UNL A   1      46.445  36.123  25.777  1.00  0.00    -0.744 OA
ENDBRANCH  96 100
ENDBRANCH  70  93
ENDBRANCH  44  45
ENDBRANCH  36  39
ENDBRANCH  34  35
ENDBRANCH  33  34
ENDBRANCH  32  33
ENDBRANCH   1  32
TORSDOF 20
ENDMDL
MODEL 3
REMARK VINA RESULT:     -12.1      2.014      8.335
REMARK SMILES COc1ccc([C@@H]2[NH2+][C@H](C(=O)NCCCCCCNC(=O)c3ccc(-c4c5nc(c(-c6cc(S(=O)(=O)[O-])ccc6F)c6ccc([nH]6)c(-c6cc(S(=O)(=O)[O-])ccc6F)c6nc(c(-c7cc(S(=O)(=O)[O-])ccc7F)c7ccc4[nH]7)C=C6)C=C5)cc3)CS2)cc1Cn1nc(C)c(Br)c1C
REMARK SMILES IDX 15 1 14 2 13 3 12 4 10 5 11 6 9 8 7 9 8 10 86 11 85 14 6 15
REMARK SMILES IDX 3 16 4 17 88 18 5 19 87 20 2 21 1 22 89 23 90 24 91 25 96 26
REMARK SMILES IDX 92 27 94 28 97 29 93 30 95 31 16 32 17 33 18 34 19 35 20 36
REMARK SMILES IDX 21 38 22 39 23 40 84 41 24 42 83 43 25 44 26 45 27 46 77 47
REMARK SMILES IDX 28 48 82 49 76 50 78 51 29 52 81 53 75 54 74 55 30 57 62 58
REMARK SMILES IDX 42 59 61 60 43 61 46 62 60 63 79 64 44 65 45 66 59 68 80 69
REMARK SMILES IDX 47 70 31 71 32 72 40 73 33 74 39 75 41 76 38 77 34 78 35 79
REMARK SMILES IDX 36 80 37 81 63 82 64 83 72 84 65 85 71 86 73 87 70 88 66 89
REMARK SMILES IDX 67 90 68 91 69 92 48 93 49 94 57 95 50 96 56 97 58 98 55 99
REMARK SMILES IDX 51 100 52 101 53 102 54 103
REMARK H PARENT 12 7 8 12 8 13 19 37 78 56 46 67
REMARK Flexibility Score: inf
ROOT
ATOM      1  C   UNL A   1      35.214  16.809  24.892  1.00  0.00     0.002 C 
ENDROOT
BRANCH   1   2
ATOM      2  C   UNL A   1      33.596  16.517  24.927  1.00  0.00     0.021 C 
BRANCH   2   3
ATOM      3  C   UNL A   1      32.399  17.491  25.154  1.00  0.00     0.116 C 
BRANCH   3   4
ATOM      4  N   UNL A   1      32.220  18.664  24.319  1.00  0.00    -0.351 N 
ATOM      5  C   UNL A   1      32.624  19.955  24.577  1.00  0.00     0.279 C 
ATOM      6  O   UNL A   1      32.709  20.698  23.585  1.00  0.00    -0.268 OA
ATOM      7  H   UNL A   1      31.754  18.519  23.465  1.00  0.00     0.163 HD
BRANCH   5   8
ATOM      8  C   UNL A   1      33.047  20.553  25.964  1.00  0.00     0.283 C 
ATOM      9  C   UNL A   1      34.551  22.296  26.794  1.00  0.00     0.274 C 
ATOM     10  N   UNL A   1      34.459  21.002  26.074  1.00  0.00    -0.321 N 
ATOM     11  S   UNL A   1      33.019  22.522  27.711  1.00  0.00    -0.088 SA
ATOM     12  H   UNL A   1      34.995  20.298  26.583  1.00  0.00     0.348 HD
ATOM     13  H   UNL A   1      34.834  21.127  25.134  1.00  0.00     0.348 HD
ATOM     14  C   UNL A   1      32.084  21.613  26.467  1.00  0.00     0.151 C 
BRANCH   9  15
ATOM     15  C   UNL A   1      34.881  23.350  25.744  1.00  0.00     0.021 A 
ATOM     16  C   UNL A   1      34.380  24.720  23.372  1.00  0.00     0.123 A 
ATOM     17  C   UNL A   1      35.199  23.582  23.363  1.00  0.00     0.047 A 
ATOM     18  C   UNL A   1      33.945  25.350  24.633  1.00  0.00     0.016 A 
ATOM     19  C   UNL A   1      35.441  22.897  24.544  1.00  0.00     0.015 A 
ATOM     20  C   UNL A   1      34.312  24.635  25.790  1.00  0.00     0.020 A 
BRANCH  16  21
ATOM     21  O   UNL A   1      34.024  25.182  22.148  1.00  0.00    -0.496 OA
ATOM     22  C   UNL A   1      32.794  25.261  21.378  1.00  0.00     0.278 C 
ENDBRANCH  16  21
BRANCH  18  23
ATOM     23  C   UNL A   1      33.044  26.624  25.052  1.00  0.00     0.184 C 
BRANCH  23  24
ATOM     24  N   UNL A   1      31.863  27.168  24.256  1.00  0.00    -0.264 N 
ATOM     25  N   UNL A   1      30.744  26.396  24.124  1.00  0.00    -0.177 NA
ATOM     26  C   UNL A   1      31.743  28.195  23.313  1.00  0.00     0.050 A 
ATOM     27  C   UNL A   1      29.782  27.230  23.695  1.00  0.00     0.074 A 
ATOM     28  C   UNL A   1      30.379  28.380  23.172  1.00  0.00     0.061 A 
ATOM     29  C   UNL A   1      32.814  28.881  22.571  1.00  0.00     0.067 C 
ATOM     30  C   UNL A   1      28.341  26.850  23.790  1.00  0.00     0.070 C 
ATOM     31  Br  UNL A   1      29.473  29.770  22.301  1.00  0.00    -0.047 Br
ENDBRANCH  23  24
ENDBRANCH  18  23
ENDBRANCH   9  15
ENDBRANCH   5   8
ENDBRANCH   3   4
ENDBRANCH   2   3
ENDBRANCH   1   2
BRANCH   1  32
ATOM     32  C   UNL A   1      36.455  17.979  24.784  1.00  0.00     0.002 C 
BRANCH  32  33
ATOM     33  C   UNL A   1      36.849  19.565  24.873  1.00  0.00     0.021 C 
BRANCH  33  34
ATOM     34  C   UNL A   1      38.144  20.422  24.941  1.00  0.00     0.116 C 
BRANCH  34  35
ATOM     35  N   UNL A   1      38.826  20.693  26.182  1.00  0.00    -0.352 N 
ATOM     36  C   UNL A   1      40.058  21.293  26.231  1.00  0.00     0.251 C 
ATOM     37  H   UNL A   1      38.389  20.438  27.027  1.00  0.00     0.163 HD
ATOM     38  O   UNL A   1      41.026  20.943  25.564  1.00  0.00    -0.269 OA
BRANCH  36  39
ATOM     39  C   UNL A   1      40.026  22.584  26.971  1.00  0.00     0.039 A 
ATOM     40  C   UNL A   1      41.008  22.749  27.953  1.00  0.00     0.014 A 
ATOM     41  C   UNL A   1      39.331  23.691  26.462  1.00  0.00     0.014 A 
ATOM     42  C   UNL A   1      41.391  24.031  28.333  1.00  0.00     0.010 A 
ATOM     43  C   UNL A   1      39.767  24.968  26.788  1.00  0.00     0.010 A 
ATOM     44  C   UNL A   1      40.819  25.142  27.699  1.00  0.00    -0.014 A 
BRANCH  44  45
ATOM     45  C   UNL A   1      41.321  26.509  27.957  1.00  0.00     0.031 A 
ATOM     46  C   UNL A   1      42.719  26.852  27.542  1.00  0.00     0.074 A 
ATOM     47  C   UNL A   1      40.549  27.374  28.644  1.00  0.00     0.049 A 
ATOM     48  N   UNL A   1      43.408  27.936  27.765  1.00  0.00    -0.248 NA
ATOM     49  C   UNL A   1      43.459  25.801  26.824  1.00  0.00     0.031 C 
ATOM     50  C   UNL A   1      39.200  27.088  29.145  1.00  0.00     0.029 A 
ATOM     51  N   UNL A   1      40.783  28.659  29.054  1.00  0.00    -0.354 N 
ATOM     52  C   UNL A   1      44.669  27.691  27.235  1.00  0.00     0.074 A 
ATOM     53  C   UNL A   1      44.671  26.328  26.755  1.00  0.00     0.031 C 
ATOM     54  C   UNL A   1      38.718  28.177  29.768  1.00  0.00     0.029 A 
ATOM     55  C   UNL A   1      39.734  29.221  29.746  1.00  0.00     0.049 A 
ATOM     56  H   UNL A   1      41.624  29.137  28.870  1.00  0.00     0.167 HD
ATOM     57  C   UNL A   1      45.716  28.545  27.135  1.00  0.00     0.034 A 
ATOM     58  C   UNL A   1      39.619  30.445  30.300  1.00  0.00     0.034 A 
ATOM     59  C   UNL A   1      45.656  29.904  27.612  1.00  0.00     0.049 A 
ATOM     60  C   UNL A   1      40.788  31.387  30.156  1.00  0.00     0.074 A 
ATOM     61  C   UNL A   1      46.614  30.895  27.525  1.00  0.00     0.029 A 
ATOM     62  N   UNL A   1      44.564  30.459  28.273  1.00  0.00    -0.354 N 
ATOM     63  N   UNL A   1      41.957  31.169  29.593  1.00  0.00    -0.248 NA
ATOM     64  C   UNL A   1      40.623  32.738  30.701  1.00  0.00     0.031 C 
ATOM     65  C   UNL A   1      46.125  32.029  28.184  1.00  0.00     0.029 A 
ATOM     66  C   UNL A   1      44.833  31.771  28.619  1.00  0.00     0.049 A 
ATOM     67  H   UNL A   1      43.722  29.986  28.466  1.00  0.00     0.167 HD
ATOM     68  C   UNL A   1      42.657  32.365  29.693  1.00  0.00     0.074 A 
ATOM     69  C   UNL A   1      41.768  33.305  30.352  1.00  0.00     0.031 C 
ATOM     70  C   UNL A   1      43.917  32.669  29.286  1.00  0.00     0.034 A 
BRANCH  57  71
ATOM     71  C   UNL A   1      46.986  28.014  26.511  1.00  0.00     0.023 A 
ATOM     72  C   UNL A   1      47.255  28.173  25.139  1.00  0.00     0.031 A 
ATOM     73  C   UNL A   1      47.910  27.285  27.279  1.00  0.00     0.131 A 
ATOM     74  C   UNL A   1      48.360  27.531  24.560  1.00  0.00     0.055 A 
ATOM     75  C   UNL A   1      49.058  26.726  26.713  1.00  0.00     0.041 A 
ATOM     76  F   UNL A   1      47.699  27.076  28.587  1.00  0.00    -0.206 F 
ATOM     77  C   UNL A   1      49.280  26.830  25.343  1.00  0.00     0.022 A 
BRANCH  74  78
ATOM     78  S   UNL A   1      48.484  27.487  22.751  1.00  0.00     0.124 S 
ATOM     79  O   UNL A   1      48.429  26.050  22.489  1.00  0.00    -0.237 OA
ATOM     80  O   UNL A   1      47.319  28.257  22.335  1.00  0.00    -0.237 OA
ATOM     81  O   UNL A   1      49.777  28.113  22.480  1.00  0.00    -0.744 OA
ENDBRANCH  74  78
ENDBRANCH  57  71
BRANCH  58  82
ATOM     82  C   UNL A   1      38.371  30.851  31.011  1.00  0.00     0.023 A 
ATOM     83  C   UNL A   1      37.335  31.514  30.332  1.00  0.00     0.031 A 
ATOM     84  C   UNL A   1      38.198  30.602  32.384  1.00  0.00     0.131 A 
ATOM     85  C   UNL A   1      36.195  31.944  31.032  1.00  0.00     0.055 A 
ATOM     86  C   UNL A   1      37.040  30.985  33.067  1.00  0.00     0.041 A 
ATOM     87  F   UNL A   1      39.149  29.965  33.085  1.00  0.00    -0.206 F 
ATOM     88  C   UNL A   1      36.035  31.672  32.392  1.00  0.00     0.022 A 
BRANCH  85  89
ATOM     89  S   UNL A   1      34.958  32.937  30.153  1.00  0.00     0.124 S 
ATOM     90  O   UNL A   1      35.770  34.025  29.621  1.00  0.00    -0.237 OA
ATOM     91  O   UNL A   1      34.444  31.982  29.176  1.00  0.00    -0.237 OA
ATOM     92  O   UNL A   1      34.017  33.316  31.205  1.00  0.00    -0.744 OA
ENDBRANCH  85  89
ENDBRANCH  58  82
BRANCH  70  93
ATOM     93  C   UNL A   1      44.375  34.084  29.519  1.00  0.00     0.023 A 
ATOM     94  C   UNL A   1      44.032  35.121  28.635  1.00  0.00     0.031 A 
ATOM     95  C   UNL A   1      45.166  34.396  30.638  1.00  0.00     0.131 A 
ATOM     96  C   UNL A   1      44.531  36.412  28.852  1.00  0.00     0.055 A 
ATOM     97  C   UNL A   1      45.603  35.696  30.886  1.00  0.00     0.041 A 
ATOM     98  F   UNL A   1      45.521  33.440  31.512  1.00  0.00    -0.206 F 
ATOM     99  C   UNL A   1      45.297  36.711  29.983  1.00  0.00     0.022 A 
BRANCH  96 100
ATOM    100  S   UNL A   1      44.246  37.673  27.583  1.00  0.00     0.124 S 
ATOM    101  O   UNL A   1      45.586  37.860  27.036  1.00  0.00    -0.237 OA
ATOM    102  O   UNL A   1      43.285  37.017  26.701  1.00  0.00    -0.237 OA
ATOM    103  O   UNL A   1      43.720  38.807  28.339  1.00  0.00    -0.744 OA
ENDBRANCH  96 100
ENDBRANCH  70  93
ENDBRANCH  44  45
ENDBRANCH  36  39
ENDBRANCH  34  35
ENDBRANCH  33  34
ENDBRANCH  32  33
ENDBRANCH   1  32
TORSDOF 20
ENDMDL
