MODEL 1
REMARK VINA RESULT:     -12.7      0.000      0.000
REMARK SMILES COc1cc2c(CC(=O)NCCCCCCNC(=O)c3ccc(-c4c5nc(c(-c6cc(S(=O)(=O)[O-])ccc6F)c6ccc([nH]6)c(-c6cc(S(=O)(=O)[O-])ccc6F)c6nc(c(-c7cc(S(=O)(=O)[O-])ccc7F)c7ccc4[nH]7)C=C6)C=C5)cc3)c(C)n(C(=O)c3ccc(Cl)cc3)c2cc1Cl
REMARK SMILES IDX 13 1 12 2 11 3 10 4 8 5 9 6 7 8 6 9 3 10 4 11 97 12 5 13
REMARK SMILES IDX 96 14 98 15 95 16 83 17 85 18 84 19 2 20 1 21 86 22 87 23
REMARK SMILES IDX 88 24 89 25 94 26 90 27 93 28 91 29 92 30 14 31 15 32 16 33
REMARK SMILES IDX 17 34 18 35 19 37 20 38 21 39 82 40 22 41 81 42 23 43 24 44
REMARK SMILES IDX 25 45 75 46 26 47 80 48 74 49 76 50 27 51 79 52 73 53 72 54
REMARK SMILES IDX 28 56 60 57 40 58 59 59 41 60 44 61 58 62 77 63 42 64 43 65
REMARK SMILES IDX 57 67 78 68 45 69 29 70 30 71 38 72 31 73 37 74 39 75 36 76
REMARK SMILES IDX 32 77 33 78 34 79 35 80 61 81 62 82 70 83 63 84 69 85 71 86
REMARK SMILES IDX 68 87 64 88 65 89 66 90 67 91 46 92 47 93 55 94 48 95 54 96
REMARK SMILES IDX 56 97 53 98 49 99 50 100 51 101 52 102
REMARK H PARENT 10 7 17 36 76 55 44 66
REMARK Flexibility Score: inf
ROOT
ATOM      1  C   UNL A   1      35.021  21.056  25.480  1.00  0.00     0.002 C 
ENDROOT
BRANCH   1   2
ATOM      2  C   UNL A   1      34.013  20.500  24.469  1.00  0.00     0.021 C 
BRANCH   2   3
ATOM      3  C   UNL A   1      32.930  21.504  24.078  1.00  0.00     0.116 C 
BRANCH   3   4
ATOM      4  N   UNL A   1      33.392  22.383  23.021  1.00  0.00    -0.356 N 
ATOM      5  C   UNL A   1      33.675  23.717  23.086  1.00  0.00     0.224 C 
ATOM      6  O   UNL A   1      33.976  24.307  22.045  1.00  0.00    -0.275 OA
ATOM      7  H   UNL A   1      33.517  21.962  22.141  1.00  0.00     0.163 HD
BRANCH   5   8
ATOM      8  C   UNL A   1      33.678  24.432  24.426  1.00  0.00     0.138 C 
BRANCH   8   9
ATOM      9  C   UNL A   1      32.621  25.495  24.565  1.00  0.00    -0.009 A 
ATOM     10  C   UNL A   1      33.768  28.774  26.197  1.00  0.00     0.138 A 
ATOM     11  C   UNL A   1      33.906  27.485  25.660  1.00  0.00     0.058 A 
ATOM     12  C   UNL A   1      32.508  29.362  26.235  1.00  0.00     0.085 A 
ATOM     13  C   UNL A   1      32.793  26.792  25.126  1.00  0.00     0.008 A 
ATOM     14  C   UNL A   1      31.388  28.670  25.756  1.00  0.00     0.051 A 
ATOM     15  Cl  UNL A   1      32.217  30.986  26.755  1.00  0.00    -0.080 Cl
ATOM     16  C   UNL A   1      31.544  27.417  25.130  1.00  0.00     0.058 A 
ATOM     17  C   UNL A   1      31.277  25.369  24.225  1.00  0.00     0.028 A 
ATOM     18  N   UNL A   1      30.654  26.611  24.398  1.00  0.00    -0.280 N 
ATOM     19  C   UNL A   1      30.585  24.144  23.704  1.00  0.00     0.065 C 
BRANCH  10  20
ATOM     20  O   UNL A   1      34.949  29.362  26.567  1.00  0.00    -0.495 OA
ATOM     21  C   UNL A   1      35.264  29.281  27.953  1.00  0.00     0.278 C 
ENDBRANCH  10  20
BRANCH  18  22
ATOM     22  C   UNL A   1      29.374  26.996  23.900  1.00  0.00     0.262 C 
ATOM     23  O   UNL A   1      28.415  26.242  24.059  1.00  0.00    -0.268 OA
BRANCH  22  24
ATOM     24  C   UNL A   1      29.091  28.254  23.189  1.00  0.00     0.040 A 
ATOM     25  C   UNL A   1      27.794  28.780  23.148  1.00  0.00     0.015 A 
ATOM     26  C   UNL A   1      30.137  28.866  22.489  1.00  0.00     0.015 A 
ATOM     27  C   UNL A   1      27.528  29.875  22.321  1.00  0.00     0.021 A 
ATOM     28  C   UNL A   1      29.866  29.966  21.674  1.00  0.00     0.021 A 
ATOM     29  C   UNL A   1      28.561  30.451  21.576  1.00  0.00     0.041 A 
ATOM     30  Cl  UNL A   1      28.217  31.750  20.501  1.00  0.00    -0.084 Cl
ENDBRANCH  22  24
ENDBRANCH  18  22
ENDBRANCH   8   9
ENDBRANCH   5   8
ENDBRANCH   3   4
ENDBRANCH   2   3
ENDBRANCH   1   2
BRANCH   1  31
ATOM     31  C   UNL A   1      36.484  21.012  25.021  1.00  0.00     0.002 C 
BRANCH  31  32
ATOM     32  C   UNL A   1      37.064  22.357  24.568  1.00  0.00     0.021 C 
BRANCH  32  33
ATOM     33  C   UNL A   1      37.810  23.117  25.664  1.00  0.00     0.116 C 
BRANCH  33  34
ATOM     34  N   UNL A   1      38.878  22.355  26.276  1.00  0.00    -0.352 N 
ATOM     35  C   UNL A   1      39.887  22.647  27.152  1.00  0.00     0.251 C 
ATOM     36  H   UNL A   1      38.878  21.411  25.998  1.00  0.00     0.163 HD
ATOM     37  O   UNL A   1      40.587  21.693  27.500  1.00  0.00    -0.269 OA
BRANCH  35  38
ATOM     38  C   UNL A   1      40.224  24.012  27.642  1.00  0.00     0.039 A 
ATOM     39  C   UNL A   1      41.464  24.409  28.144  1.00  0.00     0.014 A 
ATOM     40  C   UNL A   1      39.174  24.950  27.628  1.00  0.00     0.014 A 
ATOM     41  C   UNL A   1      41.622  25.661  28.726  1.00  0.00     0.010 A 
ATOM     42  C   UNL A   1      39.336  26.215  28.179  1.00  0.00     0.010 A 
ATOM     43  C   UNL A   1      40.547  26.546  28.780  1.00  0.00    -0.014 A 
BRANCH  43  44
ATOM     44  C   UNL A   1      40.770  27.837  29.423  1.00  0.00     0.031 A 
ATOM     45  C   UNL A   1      41.721  28.752  28.725  1.00  0.00     0.074 A 
ATOM     46  C   UNL A   1      40.082  28.228  30.513  1.00  0.00     0.049 A 
ATOM     47  N   UNL A   1      42.813  29.287  29.169  1.00  0.00    -0.248 NA
ATOM     48  C   UNL A   1      41.462  29.017  27.302  1.00  0.00     0.031 C 
ATOM     49  C   UNL A   1      38.909  27.583  31.112  1.00  0.00     0.029 A 
ATOM     50  N   UNL A   1      40.210  29.371  31.241  1.00  0.00    -0.354 N 
ATOM     51  C   UNL A   1      43.295  30.097  28.138  1.00  0.00     0.074 A 
ATOM     52  C   UNL A   1      42.506  29.777  26.975  1.00  0.00     0.031 C 
ATOM     53  C   UNL A   1      38.291  28.466  31.927  1.00  0.00     0.029 A 
ATOM     54  C   UNL A   1      39.098  29.670  32.013  1.00  0.00     0.049 A 
ATOM     55  H   UNL A   1      41.018  29.933  31.219  1.00  0.00     0.167 HD
ATOM     56  C   UNL A   1      44.195  31.102  28.348  1.00  0.00     0.034 A 
ATOM     57  C   UNL A   1      38.802  30.872  32.569  1.00  0.00     0.034 A 
ATOM     58  C   UNL A   1      44.864  30.959  29.610  1.00  0.00     0.049 A 
ATOM     59  C   UNL A   1      40.044  31.680  32.621  1.00  0.00     0.074 A 
ATOM     60  C   UNL A   1      45.710  30.015  30.159  1.00  0.00     0.029 A 
ATOM     61  N   UNL A   1      44.441  31.736  30.659  1.00  0.00    -0.354 N 
ATOM     62  N   UNL A   1      41.059  31.424  33.398  1.00  0.00    -0.248 NA
ATOM     63  C   UNL A   1      40.329  32.547  31.487  1.00  0.00     0.031 C 
ATOM     64  C   UNL A   1      45.363  29.971  31.539  1.00  0.00     0.029 A 
ATOM     65  C   UNL A   1      44.362  30.920  31.758  1.00  0.00     0.049 A 
ATOM     66  H   UNL A   1      44.233  32.698  30.628  1.00  0.00     0.167 HD
ATOM     67  C   UNL A   1      42.172  31.706  32.619  1.00  0.00     0.074 A 
ATOM     68  C   UNL A   1      41.663  32.495  31.500  1.00  0.00     0.031 C 
ATOM     69  C   UNL A   1      43.352  31.040  32.790  1.00  0.00     0.034 A 
BRANCH  56  70
ATOM     70  C   UNL A   1      44.253  32.378  27.536  1.00  0.00     0.023 A 
ATOM     71  C   UNL A   1      43.620  33.567  27.939  1.00  0.00     0.031 A 
ATOM     72  C   UNL A   1      45.139  32.501  26.444  1.00  0.00     0.131 A 
ATOM     73  C   UNL A   1      43.849  34.786  27.288  1.00  0.00     0.055 A 
ATOM     74  C   UNL A   1      45.422  33.731  25.834  1.00  0.00     0.041 A 
ATOM     75  F   UNL A   1      45.808  31.437  25.970  1.00  0.00    -0.206 F 
ATOM     76  C   UNL A   1      44.775  34.885  26.257  1.00  0.00     0.022 A 
BRANCH  73  77
ATOM     77  S   UNL A   1      42.941  36.274  27.791  1.00  0.00     0.124 S 
ATOM     78  O   UNL A   1      43.792  36.801  28.851  1.00  0.00    -0.237 OA
ATOM     79  O   UNL A   1      42.924  37.045  26.550  1.00  0.00    -0.237 OA
ATOM     80  O   UNL A   1      41.643  35.754  28.210  1.00  0.00    -0.744 OA
ENDBRANCH  73  77
ENDBRANCH  56  70
BRANCH  57  81
ATOM     81  C   UNL A   1      37.464  31.512  32.529  1.00  0.00     0.023 A 
ATOM     82  C   UNL A   1      36.920  31.922  31.297  1.00  0.00     0.031 A 
ATOM     83  C   UNL A   1      36.860  32.005  33.696  1.00  0.00     0.131 A 
ATOM     84  C   UNL A   1      35.857  32.830  31.250  1.00  0.00     0.055 A 
ATOM     85  C   UNL A   1      35.785  32.903  33.649  1.00  0.00     0.041 A 
ATOM     86  F   UNL A   1      37.349  31.685  34.904  1.00  0.00    -0.206 F 
ATOM     87  C   UNL A   1      35.288  33.331  32.420  1.00  0.00     0.022 A 
BRANCH  84  88
ATOM     88  S   UNL A   1      35.255  33.432  29.649  1.00  0.00     0.124 S 
ATOM     89  O   UNL A   1      36.447  34.062  29.084  1.00  0.00    -0.237 OA
ATOM     90  O   UNL A   1      34.833  32.193  29.007  1.00  0.00    -0.237 OA
ATOM     91  O   UNL A   1      34.186  34.357  30.012  1.00  0.00    -0.744 OA
ENDBRANCH  84  88
ENDBRANCH  57  81
BRANCH  69  92
ATOM     92  C   UNL A   1      43.527  30.135  33.992  1.00  0.00     0.023 A 
ATOM     93  C   UNL A   1      42.859  28.897  33.970  1.00  0.00     0.031 A 
ATOM     94  C   UNL A   1      44.099  30.541  35.213  1.00  0.00     0.131 A 
ATOM     95  C   UNL A   1      42.735  28.139  35.141  1.00  0.00     0.055 A 
ATOM     96  C   UNL A   1      44.038  29.745  36.361  1.00  0.00     0.041 A 
ATOM     97  F   UNL A   1      44.650  31.751  35.363  1.00  0.00    -0.206 F 
ATOM     98  C   UNL A   1      43.336  28.546  36.334  1.00  0.00     0.022 A 
BRANCH  95  99
ATOM     99  S   UNL A   1      41.641  26.696  35.184  1.00  0.00     0.124 S 
ATOM    100  O   UNL A   1      40.636  27.042  34.182  1.00  0.00    -0.237 OA
ATOM    101  O   UNL A   1      42.546  25.610  34.812  1.00  0.00    -0.237 OA
ATOM    102  O   UNL A   1      41.161  26.654  36.562  1.00  0.00    -0.744 OA
ENDBRANCH  95  99
ENDBRANCH  69  92
ENDBRANCH  43  44
ENDBRANCH  35  38
ENDBRANCH  33  34
ENDBRANCH  32  33
ENDBRANCH  31  32
ENDBRANCH   1  31
TORSDOF 20
ENDMDL
MODEL 2
REMARK VINA RESULT:     -12.5      2.015      2.360
REMARK SMILES COc1cc2c(CC(=O)NCCCCCCNC(=O)c3ccc(-c4c5nc(c(-c6cc(S(=O)(=O)[O-])ccc6F)c6ccc([nH]6)c(-c6cc(S(=O)(=O)[O-])ccc6F)c6nc(c(-c7cc(S(=O)(=O)[O-])ccc7F)c7ccc4[nH]7)C=C6)C=C5)cc3)c(C)n(C(=O)c3ccc(Cl)cc3)c2cc1Cl
REMARK SMILES IDX 13 1 12 2 11 3 10 4 8 5 9 6 7 8 6 9 3 10 4 11 97 12 5 13
REMARK SMILES IDX 96 14 98 15 95 16 83 17 85 18 84 19 2 20 1 21 86 22 87 23
REMARK SMILES IDX 88 24 89 25 94 26 90 27 93 28 91 29 92 30 14 31 15 32 16 33
REMARK SMILES IDX 17 34 18 35 19 37 20 38 21 39 82 40 22 41 81 42 23 43 24 44
REMARK SMILES IDX 25 45 75 46 26 47 80 48 74 49 76 50 27 51 79 52 73 53 72 54
REMARK SMILES IDX 28 56 60 57 40 58 59 59 41 60 44 61 58 62 77 63 42 64 43 65
REMARK SMILES IDX 57 67 78 68 45 69 29 70 30 71 38 72 31 73 37 74 39 75 36 76
REMARK SMILES IDX 32 77 33 78 34 79 35 80 61 81 62 82 70 83 63 84 69 85 71 86
REMARK SMILES IDX 68 87 64 88 65 89 66 90 67 91 46 92 47 93 55 94 48 95 54 96
REMARK SMILES IDX 56 97 53 98 49 99 50 100 51 101 52 102
REMARK H PARENT 10 7 17 36 76 55 44 66
REMARK Flexibility Score: inf
ROOT
ATOM      1  C   UNL A   1      35.680  21.651  25.582  1.00  0.00     0.002 C 
ENDROOT
BRANCH   1   2
ATOM      2  C   UNL A   1      34.669  20.968  24.655  1.00  0.00     0.021 C 
BRANCH   2   3
ATOM      3  C   UNL A   1      33.515  21.879  24.241  1.00  0.00     0.116 C 
BRANCH   3   4
ATOM      4  N   UNL A   1      33.949  22.856  23.260  1.00  0.00    -0.356 N 
ATOM      5  C   UNL A   1      34.060  24.209  23.398  1.00  0.00     0.224 C 
ATOM      6  O   UNL A   1      34.369  24.880  22.409  1.00  0.00    -0.275 OA
ATOM      7  H   UNL A   1      34.195  22.494  22.379  1.00  0.00     0.163 HD
BRANCH   5   8
ATOM      8  C   UNL A   1      33.867  24.856  24.759  1.00  0.00     0.138 C 
BRANCH   8   9
ATOM      9  C   UNL A   1      32.742  25.854  24.818  1.00  0.00    -0.009 A 
ATOM     10  C   UNL A   1      33.615  29.249  26.381  1.00  0.00     0.138 A 
ATOM     11  C   UNL A   1      33.854  27.955  25.895  1.00  0.00     0.058 A 
ATOM     12  C   UNL A   1      32.321  29.758  26.348  1.00  0.00     0.085 A 
ATOM     13  C   UNL A   1      32.810  27.176  25.341  1.00  0.00     0.008 A 
ATOM     14  C   UNL A   1      31.267  28.981  25.849  1.00  0.00     0.051 A 
ATOM     15  Cl  UNL A   1      31.908  31.376  26.800  1.00  0.00    -0.080 Cl
ATOM     16  C   UNL A   1      31.525  27.721  25.273  1.00  0.00     0.058 A 
ATOM     17  C   UNL A   1      31.423  25.633  24.429  1.00  0.00     0.028 A 
ATOM     18  N   UNL A   1      30.719  26.838  24.534  1.00  0.00    -0.280 N 
ATOM     19  C   UNL A   1      30.831  24.352  23.923  1.00  0.00     0.065 C 
BRANCH  10  20
ATOM     20  O   UNL A   1      34.741  29.922  26.778  1.00  0.00    -0.495 OA
ATOM     21  C   UNL A   1      35.443  29.344  27.874  1.00  0.00     0.278 C 
ENDBRANCH  10  20
BRANCH  18  22
ATOM     22  C   UNL A   1      29.440  27.126  23.972  1.00  0.00     0.262 C 
ATOM     23  O   UNL A   1      28.489  26.390  24.232  1.00  0.00    -0.268 OA
BRANCH  22  24
ATOM     24  C   UNL A   1      29.148  28.260  23.079  1.00  0.00     0.040 A 
ATOM     25  C   UNL A   1      30.164  28.863  22.327  1.00  0.00     0.015 A 
ATOM     26  C   UNL A   1      27.844  28.769  23.064  1.00  0.00     0.015 A 
ATOM     27  C   UNL A   1      29.886  30.042  21.630  1.00  0.00     0.021 A 
ATOM     28  C   UNL A   1      27.572  29.940  22.356  1.00  0.00     0.021 A 
ATOM     29  C   UNL A   1      28.599  30.583  21.662  1.00  0.00     0.041 A 
ATOM     30  Cl  UNL A   1      28.278  32.075  20.865  1.00  0.00    -0.084 Cl
ENDBRANCH  22  24
ENDBRANCH  18  22
ENDBRANCH   8   9
ENDBRANCH   5   8
ENDBRANCH   3   4
ENDBRANCH   2   3
ENDBRANCH   1   2
BRANCH   1  31
ATOM     31  C   UNL A   1      36.973  22.110  24.897  1.00  0.00     0.002 C 
BRANCH  31  32
ATOM     32  C   UNL A   1      37.330  23.587  25.103  1.00  0.00     0.021 C 
BRANCH  32  33
ATOM     33  C   UNL A   1      38.125  23.866  26.379  1.00  0.00     0.116 C 
BRANCH  33  34
ATOM     34  N   UNL A   1      39.429  23.239  26.399  1.00  0.00    -0.352 N 
ATOM     35  C   UNL A   1      40.667  23.609  26.850  1.00  0.00     0.251 C 
ATOM     36  H   UNL A   1      39.425  22.341  25.996  1.00  0.00     0.163 HD
ATOM     37  O   UNL A   1      41.553  22.758  26.743  1.00  0.00    -0.269 OA
BRANCH  35  38
ATOM     38  C   UNL A   1      41.013  24.956  27.383  1.00  0.00     0.039 A 
ATOM     39  C   UNL A   1      41.918  25.210  28.414  1.00  0.00     0.014 A 
ATOM     40  C   UNL A   1      40.325  26.042  26.810  1.00  0.00     0.014 A 
ATOM     41  C   UNL A   1      42.045  26.489  28.943  1.00  0.00     0.010 A 
ATOM     42  C   UNL A   1      40.473  27.329  27.313  1.00  0.00     0.010 A 
ATOM     43  C   UNL A   1      41.292  27.538  28.419  1.00  0.00    -0.014 A 
BRANCH  43  44
ATOM     44  C   UNL A   1      41.453  28.853  29.032  1.00  0.00     0.031 A 
ATOM     45  C   UNL A   1      42.642  29.635  28.581  1.00  0.00     0.074 A 
ATOM     46  C   UNL A   1      40.533  29.378  29.864  1.00  0.00     0.049 A 
ATOM     47  N   UNL A   1      43.617  30.115  29.285  1.00  0.00    -0.248 NA
ATOM     48  C   UNL A   1      42.810  29.810  27.131  1.00  0.00     0.031 C 
ATOM     49  C   UNL A   1      39.185  28.875  30.143  1.00  0.00     0.029 A 
ATOM     50  N   UNL A   1      40.566  30.561  30.538  1.00  0.00    -0.354 N 
ATOM     51  C   UNL A   1      44.439  30.804  28.390  1.00  0.00     0.074 A 
ATOM     52  C   UNL A   1      43.972  30.458  27.071  1.00  0.00     0.031 C 
ATOM     53  C   UNL A   1      38.455  29.863  30.705  1.00  0.00     0.029 A 
ATOM     54  C   UNL A   1      39.320  31.004  30.951  1.00  0.00     0.049 A 
ATOM     55  H   UNL A   1      41.400  31.054  30.714  1.00  0.00     0.167 HD
ATOM     56  C   UNL A   1      45.340  31.749  28.791  1.00  0.00     0.034 A 
ATOM     57  C   UNL A   1      39.000  32.264  31.339  1.00  0.00     0.034 A 
ATOM     58  C   UNL A   1      45.620  31.651  30.195  1.00  0.00     0.049 A 
ATOM     59  C   UNL A   1      40.252  32.974  31.696  1.00  0.00     0.074 A 
ATOM     60  C   UNL A   1      46.187  30.689  31.007  1.00  0.00     0.029 A 
ATOM     61  N   UNL A   1      45.002  32.537  31.042  1.00  0.00    -0.354 N 
ATOM     62  N   UNL A   1      40.985  32.699  32.738  1.00  0.00    -0.248 NA
ATOM     63  C   UNL A   1      40.919  33.727  30.643  1.00  0.00     0.031 C 
ATOM     64  C   UNL A   1      45.473  30.777  32.235  1.00  0.00     0.029 A 
ATOM     65  C   UNL A   1      44.547  31.816  32.116  1.00  0.00     0.049 A 
ATOM     66  H   UNL A   1      44.905  33.506  30.905  1.00  0.00     0.167 HD
ATOM     67  C   UNL A   1      42.291  32.833  32.288  1.00  0.00     0.074 A 
ATOM     68  C   UNL A   1      42.186  33.572  31.031  1.00  0.00     0.031 C 
ATOM     69  C   UNL A   1      43.309  32.093  32.816  1.00  0.00     0.034 A 
BRANCH  56  70
ATOM     70  C   UNL A   1      45.741  32.950  27.962  1.00  0.00     0.023 A 
ATOM     71  C   UNL A   1      47.040  33.125  27.453  1.00  0.00     0.031 A 
ATOM     72  C   UNL A   1      44.768  33.844  27.466  1.00  0.00     0.131 A 
ATOM     73  C   UNL A   1      47.343  34.130  26.525  1.00  0.00     0.055 A 
ATOM     74  C   UNL A   1      45.054  34.805  26.486  1.00  0.00     0.041 A 
ATOM     75  F   UNL A   1      43.490  33.773  27.871  1.00  0.00    -0.206 F 
ATOM     76  C   UNL A   1      46.350  34.952  26.009  1.00  0.00     0.022 A 
BRANCH  73  77
ATOM     77  S   UNL A   1      49.052  34.371  25.966  1.00  0.00     0.124 S 
ATOM     78  O   UNL A   1      48.858  35.051  24.691  1.00  0.00    -0.237 OA
ATOM     79  O   UNL A   1      49.605  35.188  27.043  1.00  0.00    -0.237 OA
ATOM     80  O   UNL A   1      49.581  33.011  25.893  1.00  0.00    -0.744 OA
ENDBRANCH  73  77
ENDBRANCH  56  70
BRANCH  57  81
ATOM     81  C   UNL A   1      37.792  33.001  30.894  1.00  0.00     0.023 A 
ATOM     82  C   UNL A   1      36.900  33.525  31.849  1.00  0.00     0.031 A 
ATOM     83  C   UNL A   1      37.343  32.925  29.566  1.00  0.00     0.131 A 
ATOM     84  C   UNL A   1      35.600  33.898  31.487  1.00  0.00     0.055 A 
ATOM     85  C   UNL A   1      36.047  33.312  29.201  1.00  0.00     0.041 A 
ATOM     86  F   UNL A   1      38.127  32.403  28.610  1.00  0.00    -0.206 F 
ATOM     87  C   UNL A   1      35.163  33.788  30.167  1.00  0.00     0.022 A 
BRANCH  84  88
ATOM     88  S   UNL A   1      34.435  34.456  32.759  1.00  0.00     0.124 S 
ATOM     89  O   UNL A   1      35.183  35.523  33.421  1.00  0.00    -0.237 OA
ATOM     90  O   UNL A   1      33.302  34.890  31.950  1.00  0.00    -0.237 OA
ATOM     91  O   UNL A   1      34.218  33.263  33.570  1.00  0.00    -0.744 OA
ENDBRANCH  84  88
ENDBRANCH  57  81
BRANCH  69  92
ATOM     92  C   UNL A   1      43.060  31.271  34.064  1.00  0.00     0.023 A 
ATOM     93  C   UNL A   1      42.745  29.911  33.889  1.00  0.00     0.031 A 
ATOM     94  C   UNL A   1      42.880  31.817  35.350  1.00  0.00     0.131 A 
ATOM     95  C   UNL A   1      42.226  29.162  34.952  1.00  0.00     0.055 A 
ATOM     96  C   UNL A   1      42.433  31.046  36.427  1.00  0.00     0.041 A 
ATOM     97  F   UNL A   1      43.038  33.125  35.586  1.00  0.00    -0.206 F 
ATOM     98  C   UNL A   1      42.085  29.715  36.226  1.00  0.00     0.022 A 
BRANCH  95  99
ATOM     99  S   UNL A   1      41.558  27.504  34.661  1.00  0.00     0.124 S 
ATOM    100  O   UNL A   1      40.457  27.773  33.740  1.00  0.00    -0.237 OA
ATOM    101  O   UNL A   1      42.703  26.806  34.079  1.00  0.00    -0.237 OA
ATOM    102  O   UNL A   1      41.164  27.041  35.988  1.00  0.00    -0.744 OA
ENDBRANCH  95  99
ENDBRANCH  69  92
ENDBRANCH  43  44
ENDBRANCH  35  38
ENDBRANCH  33  34
ENDBRANCH  32  33
ENDBRANCH  31  32
ENDBRANCH   1  31
TORSDOF 20
ENDMDL
MODEL 3
REMARK VINA RESULT:     -11.5      3.610      9.296
REMARK SMILES COc1cc2c(CC(=O)NCCCCCCNC(=O)c3ccc(-c4c5nc(c(-c6cc(S(=O)(=O)[O-])ccc6F)c6ccc([nH]6)c(-c6cc(S(=O)(=O)[O-])ccc6F)c6nc(c(-c7cc(S(=O)(=O)[O-])ccc7F)c7ccc4[nH]7)C=C6)C=C5)cc3)c(C)n(C(=O)c3ccc(Cl)cc3)c2cc1Cl
REMARK SMILES IDX 13 1 12 2 11 3 10 4 8 5 9 6 7 8 6 9 3 10 4 11 97 12 5 13
REMARK SMILES IDX 96 14 98 15 95 16 83 17 85 18 84 19 2 20 1 21 86 22 87 23
REMARK SMILES IDX 88 24 89 25 94 26 90 27 93 28 91 29 92 30 14 31 15 32 16 33
REMARK SMILES IDX 17 34 18 35 19 37 20 38 21 39 82 40 22 41 81 42 23 43 24 44
REMARK SMILES IDX 25 45 75 46 26 47 80 48 74 49 76 50 27 51 79 52 73 53 72 54
REMARK SMILES IDX 28 56 60 57 40 58 59 59 41 60 44 61 58 62 77 63 42 64 43 65
REMARK SMILES IDX 57 67 78 68 45 69 29 70 30 71 38 72 31 73 37 74 39 75 36 76
REMARK SMILES IDX 32 77 33 78 34 79 35 80 61 81 62 82 70 83 63 84 69 85 71 86
REMARK SMILES IDX 68 87 64 88 65 89 66 90 67 91 46 92 47 93 55 94 48 95 54 96
REMARK SMILES IDX 56 97 53 98 49 99 50 100 51 101 52 102
REMARK H PARENT 10 7 17 36 76 55 44 66
REMARK Flexibility Score: inf
ROOT
ATOM      1  C   UNL A   1      36.223  29.412  29.759  1.00  0.00     0.002 C 
ENDROOT
BRANCH   1   2
ATOM      2  C   UNL A   1      36.448  30.125  28.421  1.00  0.00     0.021 C 
BRANCH   2   3
ATOM      3  C   UNL A   1      35.340  29.863  27.402  1.00  0.00     0.116 C 
BRANCH   3   4
ATOM      4  N   UNL A   1      34.450  31.003  27.296  1.00  0.00    -0.356 N 
ATOM      5  C   UNL A   1      33.097  31.013  27.115  1.00  0.00     0.224 C 
ATOM      6  O   UNL A   1      32.529  32.098  26.963  1.00  0.00    -0.275 OA
ATOM      7  H   UNL A   1      34.878  31.887  27.363  1.00  0.00     0.163 HD
BRANCH   5   8
ATOM      8  C   UNL A   1      32.311  29.713  27.165  1.00  0.00     0.138 C 
BRANCH   8   9
ATOM      9  C   UNL A   1      32.029  29.107  25.816  1.00  0.00    -0.009 A 
ATOM     10  C   UNL A   1      29.344  30.882  23.725  1.00  0.00     0.138 A 
ATOM     11  C   UNL A   1      30.211  30.686  24.811  1.00  0.00     0.058 A 
ATOM     12  C   UNL A   1      29.329  29.950  22.693  1.00  0.00     0.085 A 
ATOM     13  C   UNL A   1      31.090  29.577  24.855  1.00  0.00     0.008 A 
ATOM     14  C   UNL A   1      30.157  28.821  22.745  1.00  0.00     0.051 A 
ATOM     15  Cl  UNL A   1      28.403  30.132  21.243  1.00  0.00    -0.080 Cl
ATOM     16  C   UNL A   1      31.094  28.677  23.787  1.00  0.00     0.058 A 
ATOM     17  C   UNL A   1      32.594  27.942  25.303  1.00  0.00     0.028 A 
ATOM     18  N   UNL A   1      32.160  27.780  23.982  1.00  0.00    -0.280 N 
ATOM     19  C   UNL A   1      33.553  27.020  25.993  1.00  0.00     0.065 C 
BRANCH  10  20
ATOM     20  O   UNL A   1      28.640  32.057  23.768  1.00  0.00    -0.495 OA
ATOM     21  C   UNL A   1      29.098  33.076  22.887  1.00  0.00     0.278 C 
ENDBRANCH  10  20
BRANCH  18  22
ATOM     22  C   UNL A   1      32.712  26.896  23.008  1.00  0.00     0.262 C 
ATOM     23  O   UNL A   1      33.319  27.365  22.045  1.00  0.00    -0.268 OA
BRANCH  22  24
ATOM     24  C   UNL A   1      32.617  25.428  23.052  1.00  0.00     0.040 A 
ATOM     25  C   UNL A   1      33.727  24.626  22.756  1.00  0.00     0.015 A 
ATOM     26  C   UNL A   1      31.369  24.855  23.321  1.00  0.00     0.015 A 
ATOM     27  C   UNL A   1      33.555  23.244  22.635  1.00  0.00     0.021 A 
ATOM     28  C   UNL A   1      31.209  23.474  23.211  1.00  0.00     0.021 A 
ATOM     29  C   UNL A   1      32.296  22.678  22.846  1.00  0.00     0.041 A 
ATOM     30  Cl  UNL A   1      32.072  20.986  22.623  1.00  0.00    -0.084 Cl
ENDBRANCH  22  24
ENDBRANCH  18  22
ENDBRANCH   8   9
ENDBRANCH   5   8
ENDBRANCH   3   4
ENDBRANCH   2   3
ENDBRANCH   1   2
BRANCH   1  31
ATOM     31  C   UNL A   1      36.270  30.326  30.990  1.00  0.00     0.002 C 
BRANCH  31  32
ATOM     32  C   UNL A   1      35.897  31.790  30.729  1.00  0.00     0.021 C 
BRANCH  32  33
ATOM     33  C   UNL A   1      36.734  32.798  31.517  1.00  0.00     0.116 C 
BRANCH  33  34
ATOM     34  N   UNL A   1      37.478  33.715  30.680  1.00  0.00    -0.352 N 
ATOM     35  C   UNL A   1      38.692  33.672  30.051  1.00  0.00     0.251 C 
ATOM     36  H   UNL A   1      37.001  34.562  30.527  1.00  0.00     0.163 HD
ATOM     37  O   UNL A   1      38.970  34.652  29.355  1.00  0.00    -0.269 OA
BRANCH  35  38
ATOM     38  C   UNL A   1      39.695  32.582  30.203  1.00  0.00     0.039 A 
ATOM     39  C   UNL A   1      40.965  32.722  30.762  1.00  0.00     0.014 A 
ATOM     40  C   UNL A   1      39.322  31.324  29.693  1.00  0.00     0.014 A 
ATOM     41  C   UNL A   1      41.881  31.678  30.707  1.00  0.00     0.010 A 
ATOM     42  C   UNL A   1      40.222  30.266  29.665  1.00  0.00     0.010 A 
ATOM     43  C   UNL A   1      41.522  30.465  30.121  1.00  0.00    -0.014 A 
BRANCH  43  44
ATOM     44  C   UNL A   1      42.534  29.416  30.073  1.00  0.00     0.031 A 
ATOM     45  C   UNL A   1      42.954  28.861  31.394  1.00  0.00     0.074 A 
ATOM     46  C   UNL A   1      42.982  28.898  28.913  1.00  0.00     0.049 A 
ATOM     47  N   UNL A   1      44.136  28.815  31.921  1.00  0.00    -0.248 NA
ATOM     48  C   UNL A   1      41.883  28.390  32.286  1.00  0.00     0.031 C 
ATOM     49  C   UNL A   1      42.439  29.111  27.568  1.00  0.00     0.029 A 
ATOM     50  N   UNL A   1      43.943  27.956  28.712  1.00  0.00    -0.354 N 
ATOM     51  C   UNL A   1      43.990  28.152  33.142  1.00  0.00     0.074 A 
ATOM     52  C   UNL A   1      42.571  28.047  33.374  1.00  0.00     0.031 C 
ATOM     53  C   UNL A   1      42.900  28.140  26.749  1.00  0.00     0.029 A 
ATOM     54  C   UNL A   1      43.869  27.336  27.474  1.00  0.00     0.049 A 
ATOM     55  H   UNL A   1      44.628  27.736  29.384  1.00  0.00     0.167 HD
ATOM     56  C   UNL A   1      45.039  27.578  33.801  1.00  0.00     0.034 A 
ATOM     57  C   UNL A   1      44.460  26.167  27.121  1.00  0.00     0.034 A 
ATOM     58  C   UNL A   1      46.299  28.075  33.325  1.00  0.00     0.049 A 
ATOM     59  C   UNL A   1      45.554  25.888  28.083  1.00  0.00     0.074 A 
ATOM     60  C   UNL A   1      46.913  29.312  33.313  1.00  0.00     0.029 A 
ATOM     61  N   UNL A   1      47.013  27.296  32.450  1.00  0.00    -0.354 N 
ATOM     62  N   UNL A   1      46.660  26.574  28.161  1.00  0.00    -0.248 NA
ATOM     63  C   UNL A   1      45.229  25.090  29.256  1.00  0.00     0.031 C 
ATOM     64  C   UNL A   1      47.638  29.350  32.089  1.00  0.00     0.029 A 
ATOM     65  C   UNL A   1      47.462  28.120  31.451  1.00  0.00     0.049 A 
ATOM     66  H   UNL A   1      47.173  26.327  32.526  1.00  0.00     0.167 HD
ATOM     67  C   UNL A   1      46.920  26.657  29.522  1.00  0.00     0.074 A 
ATOM     68  C   UNL A   1      46.072  25.636  30.134  1.00  0.00     0.031 C 
ATOM     69  C   UNL A   1      47.575  27.727  30.061  1.00  0.00     0.034 A 
BRANCH  56  70
ATOM     70  C   UNL A   1      44.927  26.348  34.675  1.00  0.00     0.023 A 
ATOM     71  C   UNL A   1      45.091  26.387  36.071  1.00  0.00     0.031 A 
ATOM     72  C   UNL A   1      44.424  25.135  34.156  1.00  0.00     0.131 A 
ATOM     73  C   UNL A   1      44.785  25.289  36.885  1.00  0.00     0.055 A 
ATOM     74  C   UNL A   1      44.053  24.059  34.974  1.00  0.00     0.041 A 
ATOM     75  F   UNL A   1      44.218  24.978  32.839  1.00  0.00    -0.206 F 
ATOM     76  C   UNL A   1      44.233  24.132  36.349  1.00  0.00     0.022 A 
BRANCH  73  77
ATOM     77  S   UNL A   1      45.098  25.359  38.670  1.00  0.00     0.124 S 
ATOM     78  O   UNL A   1      44.024  26.232  39.129  1.00  0.00    -0.237 OA
ATOM     79  O   UNL A   1      44.979  23.953  39.049  1.00  0.00    -0.237 OA
ATOM     80  O   UNL A   1      46.449  25.908  38.757  1.00  0.00    -0.744 OA
ENDBRANCH  73  77
ENDBRANCH  56  70
BRANCH  57  81
ATOM     81  C   UNL A   1      43.787  25.074  26.377  1.00  0.00     0.023 A 
ATOM     82  C   UNL A   1      42.709  24.386  26.967  1.00  0.00     0.031 A 
ATOM     83  C   UNL A   1      44.379  24.493  25.245  1.00  0.00     0.131 A 
ATOM     84  C   UNL A   1      42.292  23.147  26.469  1.00  0.00     0.055 A 
ATOM     85  C   UNL A   1      43.952  23.259  24.737  1.00  0.00     0.041 A 
ATOM     86  F   UNL A   1      45.434  25.076  24.653  1.00  0.00    -0.206 F 
ATOM     87  C   UNL A   1      42.911  22.573  25.360  1.00  0.00     0.022 A 
BRANCH  84  88
ATOM     88  S   UNL A   1      40.980  22.228  27.320  1.00  0.00     0.124 S 
ATOM     89  O   UNL A   1      41.282  22.485  28.727  1.00  0.00    -0.237 OA
ATOM     90  O   UNL A   1      39.782  22.878  26.804  1.00  0.00    -0.237 OA
ATOM     91  O   UNL A   1      41.194  20.850  26.888  1.00  0.00    -0.744 OA
ENDBRANCH  84  88
ENDBRANCH  57  81
BRANCH  69  92
ATOM     92  C   UNL A   1      48.228  28.738  29.141  1.00  0.00     0.023 A 
ATOM     93  C   UNL A   1      47.404  29.733  28.586  1.00  0.00     0.031 A 
ATOM     94  C   UNL A   1      49.529  28.608  28.617  1.00  0.00     0.131 A 
ATOM     95  C   UNL A   1      47.859  30.517  27.519  1.00  0.00     0.055 A 
ATOM     96  C   UNL A   1      50.006  29.444  27.602  1.00  0.00     0.041 A 
ATOM     97  F   UNL A   1      50.343  27.616  28.996  1.00  0.00    -0.206 F 
ATOM     98  C   UNL A   1      49.163  30.391  27.034  1.00  0.00     0.022 A 
BRANCH  95  99
ATOM     99  S   UNL A   1      46.713  31.594  26.620  1.00  0.00     0.124 S 
ATOM    100  O   UNL A   1      46.233  30.714  25.559  1.00  0.00    -0.237 OA
ATOM    101  O   UNL A   1      45.729  31.927  27.650  1.00  0.00    -0.237 OA
ATOM    102  O   UNL A   1      47.545  32.710  26.181  1.00  0.00    -0.744 OA
ENDBRANCH  95  99
ENDBRANCH  69  92
ENDBRANCH  43  44
ENDBRANCH  35  38
ENDBRANCH  33  34
ENDBRANCH  32  33
ENDBRANCH  31  32
ENDBRANCH   1  31
TORSDOF 20
ENDMDL
