MODEL 1
REMARK VINA RESULT:     -12.2      0.000      0.000
REMARK SMILES O=C(NCCCCCCNC(=O)[C@H]1[C@H]2C[C@@H]3[C@@H](OC(=O)[C@@H]31)[C@@H]2Sc1ccccc1)c1ccc(-c2c3nc(c(-c4cc(S(=O)(=O)[O-])ccc4F)c4ccc([nH]4)c(-c4cc(S(=O)(=O)[O-])ccc4F)c4nc(c(-c5cc(S(=O)(=O)[O-])ccc5F)c5ccc2[nH]5)C=C4)C=C3)cc1
REMARK SMILES IDX 6 1 5 2 4 3 3 4 1 5 2 6 30 8 31 9 92 10 32 11 91 12 33 13
REMARK SMILES IDX 34 14 35 15 85 16 36 17 90 18 84 19 86 20 37 21 89 22 83 23
REMARK SMILES IDX 82 24 38 26 70 27 50 28 69 29 51 30 54 31 68 32 87 33 52 34
REMARK SMILES IDX 53 35 67 37 88 38 55 39 39 40 40 41 48 42 41 43 47 44 49 45
REMARK SMILES IDX 46 46 42 47 43 48 44 49 45 50 71 51 72 52 80 53 73 54 79 55
REMARK SMILES IDX 81 56 78 57 74 58 75 59 76 60 77 61 56 62 57 63 65 64 58 65
REMARK SMILES IDX 64 66 66 67 63 68 59 69 60 70 61 71 62 72 7 73 8 74 9 75
REMARK SMILES IDX 10 76 11 77 12 79 13 80 14 81 21 82 15 83 22 84 16 85 19 86
REMARK SMILES IDX 17 87 18 88 20 89 23 90 24 91 25 92 29 93 26 94 28 95 27 96
REMARK H PARENT 3 7 86 25 54 36 10 78
REMARK Flexibility Score: inf
ROOT
ATOM      1  C   UNL A   1      34.356  23.056  26.589  1.00  0.00     0.002 C 
ENDROOT
BRANCH   1   2
ATOM      2  C   UNL A   1      35.092  21.906  25.906  1.00  0.00     0.021 C 
BRANCH   2   3
ATOM      3  C   UNL A   1      36.479  22.261  25.387  1.00  0.00     0.116 C 
BRANCH   3   4
ATOM      4  N   UNL A   1      37.422  21.158  25.507  1.00  0.00    -0.352 N 
ATOM      5  O   UNL A   1      39.434  20.176  25.805  1.00  0.00    -0.269 OA
ATOM      6  C   UNL A   1      38.737  21.181  25.909  1.00  0.00     0.251 C 
ATOM      7  H   UNL A   1      37.067  20.270  25.267  1.00  0.00     0.163 HD
BRANCH   6   8
ATOM      8  C   UNL A   1      39.308  22.436  26.442  1.00  0.00     0.039 A 
ATOM      9  C   UNL A   1      38.780  23.669  26.055  1.00  0.00     0.014 A 
ATOM     10  C   UNL A   1      40.409  22.382  27.301  1.00  0.00     0.014 A 
ATOM     11  C   UNL A   1      39.460  24.837  26.374  1.00  0.00     0.010 A 
ATOM     12  C   UNL A   1      41.026  23.568  27.709  1.00  0.00     0.010 A 
ATOM     13  C   UNL A   1      40.586  24.806  27.211  1.00  0.00    -0.014 A 
BRANCH  13  14
ATOM     14  C   UNL A   1      41.267  26.083  27.559  1.00  0.00     0.031 A 
ATOM     15  C   UNL A   1      42.618  26.426  26.988  1.00  0.00     0.074 A 
ATOM     16  C   UNL A   1      40.632  26.959  28.363  1.00  0.00     0.049 A 
ATOM     17  N   UNL A   1      43.339  27.506  27.162  1.00  0.00    -0.248 NA
ATOM     18  C   UNL A   1      43.249  25.422  26.118  1.00  0.00     0.031 C 
ATOM     19  C   UNL A   1      39.318  26.739  28.971  1.00  0.00     0.029 A 
ATOM     20  N   UNL A   1      40.985  28.214  28.786  1.00  0.00    -0.354 N 
ATOM     21  C   UNL A   1      44.515  27.304  26.446  1.00  0.00     0.074 A 
ATOM     22  C   UNL A   1      44.425  25.980  25.868  1.00  0.00     0.031 C 
ATOM     23  C   UNL A   1      38.949  27.843  29.635  1.00  0.00     0.029 A 
ATOM     24  C   UNL A   1      40.030  28.819  29.572  1.00  0.00     0.049 A 
ATOM     25  H   UNL A   1      41.840  28.642  28.551  1.00  0.00     0.167 HD
ATOM     26  C   UNL A   1      45.565  28.148  26.284  1.00  0.00     0.034 A 
ATOM     27  C   UNL A   1      40.029  30.014  30.190  1.00  0.00     0.034 A 
ATOM     28  C   UNL A   1      45.633  29.469  26.868  1.00  0.00     0.049 A 
ATOM     29  C   UNL A   1      41.229  30.910  30.033  1.00  0.00     0.074 A 
ATOM     30  C   UNL A   1      46.633  30.419  26.738  1.00  0.00     0.029 A 
ATOM     31  N   UNL A   1      44.672  30.025  27.704  1.00  0.00    -0.354 N 
ATOM     32  N   UNL A   1      42.325  30.712  29.337  1.00  0.00    -0.248 NA
ATOM     33  C   UNL A   1      41.186  32.194  30.740  1.00  0.00     0.031 C 
ATOM     34  C   UNL A   1      46.318  31.506  27.560  1.00  0.00     0.029 A 
ATOM     35  C   UNL A   1      45.074  31.285  28.126  1.00  0.00     0.049 A 
ATOM     36  H   UNL A   1      43.827  29.588  27.959  1.00  0.00     0.167 HD
ATOM     37  C   UNL A   1      43.084  31.868  29.492  1.00  0.00     0.074 A 
ATOM     38  C   UNL A   1      42.313  32.759  30.335  1.00  0.00     0.031 C 
ATOM     39  C   UNL A   1      44.304  32.167  28.975  1.00  0.00     0.034 A 
BRANCH  26  40
ATOM     40  C   UNL A   1      46.752  27.646  25.488  1.00  0.00     0.023 A 
ATOM     41  C   UNL A   1      46.997  28.062  24.167  1.00  0.00     0.031 A 
ATOM     42  C   UNL A   1      47.641  26.715  26.055  1.00  0.00     0.131 A 
ATOM     43  C   UNL A   1      48.050  27.490  23.435  1.00  0.00     0.055 A 
ATOM     44  C   UNL A   1      48.740  26.217  25.352  1.00  0.00     0.041 A 
ATOM     45  F   UNL A   1      47.451  26.260  27.305  1.00  0.00    -0.206 F 
ATOM     46  C   UNL A   1      48.939  26.590  24.027  1.00  0.00     0.022 A 
BRANCH  43  47
ATOM     47  S   UNL A   1      48.142  27.812  21.652  1.00  0.00     0.124 S 
ATOM     48  O   UNL A   1      46.830  28.400  21.388  1.00  0.00    -0.237 OA
ATOM     49  O   UNL A   1      49.279  28.720  21.553  1.00  0.00    -0.237 OA
ATOM     50  O   UNL A   1      48.348  26.486  21.073  1.00  0.00    -0.744 OA
ENDBRANCH  43  47
ENDBRANCH  26  40
BRANCH  27  51
ATOM     51  C   UNL A   1      38.867  30.428  31.028  1.00  0.00     0.023 A 
ATOM     52  C   UNL A   1      37.973  31.416  30.587  1.00  0.00     0.031 A 
ATOM     53  C   UNL A   1      38.657  29.869  32.302  1.00  0.00     0.131 A 
ATOM     54  C   UNL A   1      36.942  31.851  31.432  1.00  0.00     0.055 A 
ATOM     55  C   UNL A   1      37.590  30.259  33.112  1.00  0.00     0.041 A 
ATOM     56  F   UNL A   1      39.480  28.918  32.772  1.00  0.00    -0.206 F 
ATOM     57  C   UNL A   1      36.733  31.268  32.684  1.00  0.00     0.022 A 
BRANCH  54  58
ATOM     58  S   UNL A   1      35.933  33.264  30.911  1.00  0.00     0.124 S 
ATOM     59  O   UNL A   1      36.568  33.632  29.650  1.00  0.00    -0.237 OA
ATOM     60  O   UNL A   1      34.604  32.667  30.810  1.00  0.00    -0.237 OA
ATOM     61  O   UNL A   1      36.101  34.223  32.000  1.00  0.00    -0.744 OA
ENDBRANCH  54  58
ENDBRANCH  27  51
BRANCH  39  62
ATOM     62  C   UNL A   1      44.845  33.550  29.257  1.00  0.00     0.023 A 
ATOM     63  C   UNL A   1      44.626  34.632  28.386  1.00  0.00     0.031 A 
ATOM     64  C   UNL A   1      45.627  33.777  30.404  1.00  0.00     0.131 A 
ATOM     65  C   UNL A   1      45.243  35.868  28.636  1.00  0.00     0.055 A 
ATOM     66  C   UNL A   1      46.174  35.029  30.688  1.00  0.00     0.041 A 
ATOM     67  F   UNL A   1      45.878  32.782  31.270  1.00  0.00    -0.206 F 
ATOM     68  C   UNL A   1      45.998  36.079  29.792  1.00  0.00     0.022 A 
BRANCH  65  69
ATOM     69  S   UNL A   1      45.153  37.160  27.365  1.00  0.00     0.124 S 
ATOM     70  O   UNL A   1      45.569  38.345  28.107  1.00  0.00    -0.237 OA
ATOM     71  O   UNL A   1      46.094  36.674  26.360  1.00  0.00    -0.237 OA
ATOM     72  O   UNL A   1      43.749  37.143  26.959  1.00  0.00    -0.744 OA
ENDBRANCH  65  69
ENDBRANCH  39  62
ENDBRANCH  13  14
ENDBRANCH   6   8
ENDBRANCH   3   4
ENDBRANCH   2   3
ENDBRANCH   1   2
BRANCH   1  73
ATOM     73  C   UNL A   1      32.858  23.144  26.278  1.00  0.00     0.002 C 
BRANCH  73  74
ATOM     74  C   UNL A   1      32.453  22.682  24.872  1.00  0.00     0.021 C 
BRANCH  74  75
ATOM     75  C   UNL A   1      31.765  23.754  24.031  1.00  0.00     0.116 C 
BRANCH  75  76
ATOM     76  N   UNL A   1      32.656  24.278  23.007  1.00  0.00    -0.356 N 
ATOM     77  C   UNL A   1      32.949  25.567  22.688  1.00  0.00     0.224 C 
ATOM     78  H   UNL A   1      33.115  23.597  22.464  1.00  0.00     0.163 HD
ATOM     79  O   UNL A   1      33.772  25.786  21.802  1.00  0.00    -0.275 OA
BRANCH  77  80
ATOM     80  C   UNL A   1      32.236  26.678  23.435  1.00  0.00     0.097 C 
ATOM     81  C   UNL A   1      32.933  27.092  24.768  1.00  0.00     0.020 C 
ATOM     82  C   UNL A   1      32.253  28.003  22.639  1.00  0.00     0.119 C 
ATOM     83  C   UNL A   1      34.015  28.049  24.258  1.00  0.00     0.014 C 
ATOM     84  C   UNL A   1      31.925  28.031  25.486  1.00  0.00     0.097 C 
ATOM     85  C   UNL A   1      33.035  28.952  23.545  1.00  0.00     0.047 C 
ATOM     86  C   UNL A   1      30.900  28.651  22.646  1.00  0.00     0.310 C 
ATOM     87  C   UNL A   1      31.954  29.284  24.573  1.00  0.00     0.194 C 
ATOM     88  O   UNL A   1      30.757  29.390  23.790  1.00  0.00    -0.461 OA
ATOM     89  O   UNL A   1      30.040  28.504  21.799  1.00  0.00    -0.252 OA
BRANCH  84  90
ATOM     90  S   UNL A   1      32.143  28.308  27.293  1.00  0.00    -0.119 SA
BRANCH  90  91
ATOM     91  C   UNL A   1      33.530  29.407  27.428  1.00  0.00     0.008 A 
ATOM     92  C   UNL A   1      34.820  28.876  27.535  1.00  0.00     0.015 A 
ATOM     93  C   UNL A   1      33.358  30.793  27.500  1.00  0.00     0.015 A 
ATOM     94  C   UNL A   1      35.925  29.723  27.655  1.00  0.00     0.001 A 
ATOM     95  C   UNL A   1      34.464  31.641  27.594  1.00  0.00     0.001 A 
ATOM     96  C   UNL A   1      35.747  31.104  27.669  1.00  0.00     0.000 A 
ENDBRANCH  90  91
ENDBRANCH  84  90
ENDBRANCH  77  80
ENDBRANCH  75  76
ENDBRANCH  74  75
ENDBRANCH  73  74
ENDBRANCH   1  73
TORSDOF 18
ENDMDL
MODEL 2
REMARK VINA RESULT:     -12.1      4.963     10.306
REMARK SMILES O=C(NCCCCCCNC(=O)[C@H]1[C@H]2C[C@@H]3[C@@H](OC(=O)[C@@H]31)[C@@H]2Sc1ccccc1)c1ccc(-c2c3nc(c(-c4cc(S(=O)(=O)[O-])ccc4F)c4ccc([nH]4)c(-c4cc(S(=O)(=O)[O-])ccc4F)c4nc(c(-c5cc(S(=O)(=O)[O-])ccc5F)c5ccc2[nH]5)C=C4)C=C3)cc1
REMARK SMILES IDX 6 1 5 2 4 3 3 4 1 5 2 6 30 8 31 9 92 10 32 11 91 12 33 13
REMARK SMILES IDX 34 14 35 15 85 16 36 17 90 18 84 19 86 20 37 21 89 22 83 23
REMARK SMILES IDX 82 24 38 26 70 27 50 28 69 29 51 30 54 31 68 32 87 33 52 34
REMARK SMILES IDX 53 35 67 37 88 38 55 39 39 40 40 41 48 42 41 43 47 44 49 45
REMARK SMILES IDX 46 46 42 47 43 48 44 49 45 50 71 51 72 52 80 53 73 54 79 55
REMARK SMILES IDX 81 56 78 57 74 58 75 59 76 60 77 61 56 62 57 63 65 64 58 65
REMARK SMILES IDX 64 66 66 67 63 68 59 69 60 70 61 71 62 72 7 73 8 74 9 75
REMARK SMILES IDX 10 76 11 77 12 79 13 80 14 81 21 82 15 83 22 84 16 85 19 86
REMARK SMILES IDX 17 87 18 88 20 89 23 90 24 91 25 92 29 93 26 94 28 95 27 96
REMARK H PARENT 3 7 86 25 54 36 10 78
REMARK Flexibility Score: inf
ROOT
ATOM      1  C   UNL A   1      31.021  27.723  25.829  1.00  0.00     0.002 C 
ENDROOT
BRANCH   1   2
ATOM      2  C   UNL A   1      32.422  28.065  26.329  1.00  0.00     0.021 C 
BRANCH   2   3
ATOM      3  C   UNL A   1      33.100  29.207  25.584  1.00  0.00     0.116 C 
BRANCH   3   4
ATOM      4  N   UNL A   1      32.663  30.517  26.048  1.00  0.00    -0.352 N 
ATOM      5  O   UNL A   1      32.638  32.339  27.381  1.00  0.00    -0.269 OA
ATOM      6  C   UNL A   1      33.226  31.331  27.003  1.00  0.00     0.251 C 
ATOM      7  H   UNL A   1      31.851  30.869  25.616  1.00  0.00     0.163 HD
BRANCH   6   8
ATOM      8  C   UNL A   1      34.533  30.961  27.589  1.00  0.00     0.039 A 
ATOM      9  C   UNL A   1      34.802  29.634  27.926  1.00  0.00     0.014 A 
ATOM     10  C   UNL A   1      35.479  31.957  27.845  1.00  0.00     0.014 A 
ATOM     11  C   UNL A   1      35.928  29.333  28.680  1.00  0.00     0.010 A 
ATOM     12  C   UNL A   1      36.665  31.629  28.509  1.00  0.00     0.010 A 
ATOM     13  C   UNL A   1      36.879  30.322  28.975  1.00  0.00    -0.014 A 
BRANCH  13  14
ATOM     14  C   UNL A   1      38.092  29.953  29.756  1.00  0.00     0.031 A 
ATOM     15  C   UNL A   1      38.308  30.474  31.152  1.00  0.00     0.074 A 
ATOM     16  C   UNL A   1      38.981  29.100  29.208  1.00  0.00     0.049 A 
ATOM     17  N   UNL A   1      39.292  30.229  31.983  1.00  0.00    -0.248 NA
ATOM     18  C   UNL A   1      37.295  31.398  31.683  1.00  0.00     0.031 C 
ATOM     19  C   UNL A   1      38.876  28.526  27.864  1.00  0.00     0.029 A 
ATOM     20  N   UNL A   1      40.129  28.547  29.714  1.00  0.00    -0.354 N 
ATOM     21  C   UNL A   1      39.031  30.985  33.122  1.00  0.00     0.074 A 
ATOM     22  C   UNL A   1      37.815  31.726  32.857  1.00  0.00     0.031 C 
ATOM     23  C   UNL A   1      39.877  27.656  27.678  1.00  0.00     0.029 A 
ATOM     24  C   UNL A   1      40.744  27.669  28.850  1.00  0.00     0.049 A 
ATOM     25  H   UNL A   1      40.479  28.756  30.610  1.00  0.00     0.167 HD
ATOM     26  C   UNL A   1      39.737  31.047  34.279  1.00  0.00     0.034 A 
ATOM     27  C   UNL A   1      41.886  26.968  28.974  1.00  0.00     0.034 A 
ATOM     28  C   UNL A   1      40.948  30.295  34.524  1.00  0.00     0.049 A 
ATOM     29  C   UNL A   1      42.675  27.095  30.250  1.00  0.00     0.074 A 
ATOM     30  C   UNL A   1      41.721  30.257  35.672  1.00  0.00     0.029 A 
ATOM     31  N   UNL A   1      41.571  29.460  33.604  1.00  0.00    -0.354 N 
ATOM     32  N   UNL A   1      42.405  27.799  31.325  1.00  0.00    -0.248 NA
ATOM     33  C   UNL A   1      43.921  26.324  30.330  1.00  0.00     0.031 C 
ATOM     34  C   UNL A   1      42.851  29.472  35.417  1.00  0.00     0.029 A 
ATOM     35  C   UNL A   1      42.736  28.935  34.145  1.00  0.00     0.049 A 
ATOM     36  H   UNL A   1      41.234  29.268  32.699  1.00  0.00     0.167 HD
ATOM     37  C   UNL A   1      43.430  27.522  32.225  1.00  0.00     0.074 A 
ATOM     38  C   UNL A   1      44.312  26.578  31.570  1.00  0.00     0.031 C 
ATOM     39  C   UNL A   1      43.618  27.999  33.483  1.00  0.00     0.034 A 
BRANCH  26  40
ATOM     40  C   UNL A   1      39.250  32.003  35.347  1.00  0.00     0.023 A 
ATOM     41  C   UNL A   1      39.753  33.311  35.466  1.00  0.00     0.031 A 
ATOM     42  C   UNL A   1      38.282  31.589  36.280  1.00  0.00     0.131 A 
ATOM     43  C   UNL A   1      39.346  34.126  36.535  1.00  0.00     0.055 A 
ATOM     44  C   UNL A   1      37.815  32.435  37.288  1.00  0.00     0.041 A 
ATOM     45  F   UNL A   1      37.778  30.345  36.236  1.00  0.00    -0.206 F 
ATOM     46  C   UNL A   1      38.361  33.706  37.432  1.00  0.00     0.022 A 
BRANCH  43  47
ATOM     47  S   UNL A   1      40.243  35.674  36.835  1.00  0.00     0.124 S 
ATOM     48  O   UNL A   1      39.913  35.943  38.234  1.00  0.00    -0.237 OA
ATOM     49  O   UNL A   1      41.625  35.296  36.567  1.00  0.00    -0.237 OA
ATOM     50  O   UNL A   1      39.652  36.605  35.875  1.00  0.00    -0.744 OA
ENDBRANCH  43  47
ENDBRANCH  26  40
BRANCH  27  51
ATOM     51  C   UNL A   1      42.363  26.101  27.860  1.00  0.00     0.023 A 
ATOM     52  C   UNL A   1      41.853  24.805  27.683  1.00  0.00     0.031 A 
ATOM     53  C   UNL A   1      43.367  26.541  26.978  1.00  0.00     0.131 A 
ATOM     54  C   UNL A   1      42.384  23.977  26.682  1.00  0.00     0.055 A 
ATOM     55  C   UNL A   1      43.845  25.737  25.943  1.00  0.00     0.041 A 
ATOM     56  F   UNL A   1      43.888  27.772  27.100  1.00  0.00    -0.206 F 
ATOM     57  C   UNL A   1      43.363  24.439  25.800  1.00  0.00     0.022 A 
BRANCH  54  58
ATOM     58  S   UNL A   1      41.843  22.248  26.612  1.00  0.00     0.124 S 
ATOM     59  O   UNL A   1      42.464  21.794  25.372  1.00  0.00    -0.237 OA
ATOM     60  O   UNL A   1      42.402  21.705  27.846  1.00  0.00    -0.237 OA
ATOM     61  O   UNL A   1      40.386  22.349  26.581  1.00  0.00    -0.744 OA
ENDBRANCH  54  58
ENDBRANCH  27  51
BRANCH  39  62
ATOM     62  C   UNL A   1      44.794  27.446  34.255  1.00  0.00     0.023 A 
ATOM     63  C   UNL A   1      44.690  26.296  35.057  1.00  0.00     0.031 A 
ATOM     64  C   UNL A   1      46.035  28.108  34.213  1.00  0.00     0.131 A 
ATOM     65  C   UNL A   1      45.780  25.888  35.841  1.00  0.00     0.055 A 
ATOM     66  C   UNL A   1      47.138  27.653  34.935  1.00  0.00     0.041 A 
ATOM     67  F   UNL A   1      46.195  29.216  33.471  1.00  0.00    -0.206 F 
ATOM     68  C   UNL A   1      47.009  26.547  35.770  1.00  0.00     0.022 A 
BRANCH  65  69
ATOM     69  S   UNL A   1      45.532  24.563  37.056  1.00  0.00     0.124 S 
ATOM     70  O   UNL A   1      45.662  23.367  36.230  1.00  0.00    -0.237 OA
ATOM     71  O   UNL A   1      46.616  24.803  38.005  1.00  0.00    -0.237 OA
ATOM     72  O   UNL A   1      44.189  24.818  37.571  1.00  0.00    -0.744 OA
ENDBRANCH  65  69
ENDBRANCH  39  62
ENDBRANCH  13  14
ENDBRANCH   6   8
ENDBRANCH   3   4
ENDBRANCH   2   3
ENDBRANCH   1   2
BRANCH   1  73
ATOM     73  C   UNL A   1      30.939  27.317  24.353  1.00  0.00     0.002 C 
BRANCH  73  74
ATOM     74  C   UNL A   1      29.841  26.299  24.015  1.00  0.00     0.021 C 
BRANCH  74  75
ATOM     75  C   UNL A   1      30.362  24.960  23.500  1.00  0.00     0.116 C 
BRANCH  75  76
ATOM     76  N   UNL A   1      31.551  25.133  22.680  1.00  0.00    -0.356 N 
ATOM     77  C   UNL A   1      32.802  24.623  22.845  1.00  0.00     0.224 C 
ATOM     78  H   UNL A   1      31.433  25.705  21.888  1.00  0.00     0.163 HD
ATOM     79  O   UNL A   1      33.657  24.867  21.998  1.00  0.00    -0.275 OA
BRANCH  77  80
ATOM     80  C   UNL A   1      33.084  23.782  24.076  1.00  0.00     0.097 C 
ATOM     81  C   UNL A   1      34.431  22.998  24.009  1.00  0.00     0.020 C 
ATOM     82  C   UNL A   1      33.285  24.661  25.332  1.00  0.00     0.119 C 
ATOM     83  C   UNL A   1      35.430  24.076  24.444  1.00  0.00     0.014 C 
ATOM     84  C   UNL A   1      34.400  22.023  25.219  1.00  0.00     0.097 C 
ATOM     85  C   UNL A   1      34.723  24.360  25.749  1.00  0.00     0.047 C 
ATOM     86  C   UNL A   1      32.526  24.107  26.501  1.00  0.00     0.310 C 
ATOM     87  C   UNL A   1      34.524  22.999  26.417  1.00  0.00     0.194 C 
ATOM     88  O   UNL A   1      33.276  23.138  27.111  1.00  0.00    -0.461 OA
ATOM     89  O   UNL A   1      31.399  24.426  26.829  1.00  0.00    -0.252 OA
BRANCH  84  90
ATOM     90  S   UNL A   1      35.545  20.581  25.193  1.00  0.00    -0.119 SA
BRANCH  90  91
ATOM     91  C   UNL A   1      34.560  19.219  24.627  1.00  0.00     0.008 A 
ATOM     92  C   UNL A   1      35.146  17.955  24.494  1.00  0.00     0.015 A 
ATOM     93  C   UNL A   1      33.227  19.392  24.243  1.00  0.00     0.015 A 
ATOM     94  C   UNL A   1      34.392  16.871  24.038  1.00  0.00     0.001 A 
ATOM     95  C   UNL A   1      32.466  18.304  23.812  1.00  0.00     0.001 A 
ATOM     96  C   UNL A   1      33.048  17.042  23.713  1.00  0.00     0.000 A 
ENDBRANCH  90  91
ENDBRANCH  84  90
ENDBRANCH  77  80
ENDBRANCH  75  76
ENDBRANCH  74  75
ENDBRANCH  73  74
ENDBRANCH   1  73
TORSDOF 18
ENDMDL
MODEL 3
REMARK VINA RESULT:     -11.9      1.889      2.433
REMARK SMILES O=C(NCCCCCCNC(=O)[C@H]1[C@H]2C[C@@H]3[C@@H](OC(=O)[C@@H]31)[C@@H]2Sc1ccccc1)c1ccc(-c2c3nc(c(-c4cc(S(=O)(=O)[O-])ccc4F)c4ccc([nH]4)c(-c4cc(S(=O)(=O)[O-])ccc4F)c4nc(c(-c5cc(S(=O)(=O)[O-])ccc5F)c5ccc2[nH]5)C=C4)C=C3)cc1
REMARK SMILES IDX 6 1 5 2 4 3 3 4 1 5 2 6 30 8 31 9 92 10 32 11 91 12 33 13
REMARK SMILES IDX 34 14 35 15 85 16 36 17 90 18 84 19 86 20 37 21 89 22 83 23
REMARK SMILES IDX 82 24 38 26 70 27 50 28 69 29 51 30 54 31 68 32 87 33 52 34
REMARK SMILES IDX 53 35 67 37 88 38 55 39 39 40 40 41 48 42 41 43 47 44 49 45
REMARK SMILES IDX 46 46 42 47 43 48 44 49 45 50 71 51 72 52 80 53 73 54 79 55
REMARK SMILES IDX 81 56 78 57 74 58 75 59 76 60 77 61 56 62 57 63 65 64 58 65
REMARK SMILES IDX 64 66 66 67 63 68 59 69 60 70 61 71 62 72 7 73 8 74 9 75
REMARK SMILES IDX 10 76 11 77 12 79 13 80 14 81 21 82 15 83 22 84 16 85 19 86
REMARK SMILES IDX 17 87 18 88 20 89 23 90 24 91 25 92 29 93 26 94 28 95 27 96
REMARK H PARENT 3 7 86 25 54 36 10 78
REMARK Flexibility Score: inf
ROOT
ATOM      1  C   UNL A   1      33.812  22.744  26.810  1.00  0.00     0.002 C 
ENDROOT
BRANCH   1   2
ATOM      2  C   UNL A   1      34.852  21.667  26.507  1.00  0.00     0.021 C 
BRANCH   2   3
ATOM      3  C   UNL A   1      36.119  22.180  25.836  1.00  0.00     0.116 C 
BRANCH   3   4
ATOM      4  N   UNL A   1      37.113  21.134  25.642  1.00  0.00    -0.352 N 
ATOM      5  O   UNL A   1      39.186  20.256  25.454  1.00  0.00    -0.269 OA
ATOM      6  C   UNL A   1      38.477  21.192  25.811  1.00  0.00     0.251 C 
ATOM      7  H   UNL A   1      36.760  20.263  25.348  1.00  0.00     0.163 HD
BRANCH   6   8
ATOM      8  C   UNL A   1      39.082  22.405  26.404  1.00  0.00     0.039 A 
ATOM      9  C   UNL A   1      38.578  23.668  26.086  1.00  0.00     0.014 A 
ATOM     10  C   UNL A   1      40.188  22.282  27.247  1.00  0.00     0.014 A 
ATOM     11  C   UNL A   1      39.288  24.802  26.458  1.00  0.00     0.010 A 
ATOM     12  C   UNL A   1      40.836  23.431  27.711  1.00  0.00     0.010 A 
ATOM     13  C   UNL A   1      40.420  24.702  27.282  1.00  0.00    -0.014 A 
BRANCH  13  14
ATOM     14  C   UNL A   1      41.133  25.944  27.689  1.00  0.00     0.031 A 
ATOM     15  C   UNL A   1      42.550  26.206  27.254  1.00  0.00     0.074 A 
ATOM     16  C   UNL A   1      40.470  26.861  28.422  1.00  0.00     0.049 A 
ATOM     17  N   UNL A   1      43.309  27.248  27.493  1.00  0.00    -0.248 NA
ATOM     18  C   UNL A   1      43.208  25.161  26.456  1.00  0.00     0.031 C 
ATOM     19  C   UNL A   1      39.092  26.720  28.898  1.00  0.00     0.029 A 
ATOM     20  N   UNL A   1      40.849  28.100  28.871  1.00  0.00    -0.354 N 
ATOM     21  C   UNL A   1      44.537  26.974  26.899  1.00  0.00     0.074 A 
ATOM     22  C   UNL A   1      44.432  25.651  26.321  1.00  0.00     0.031 C 
ATOM     23  C   UNL A   1      38.721  27.850  29.515  1.00  0.00     0.029 A 
ATOM     24  C   UNL A   1      39.856  28.764  29.555  1.00  0.00     0.049 A 
ATOM     25  H   UNL A   1      41.745  28.478  28.720  1.00  0.00     0.167 HD
ATOM     26  C   UNL A   1      45.644  27.758  26.837  1.00  0.00     0.034 A 
ATOM     27  C   UNL A   1      39.859  29.964  30.165  1.00  0.00     0.034 A 
ATOM     28  C   UNL A   1      45.726  29.079  27.418  1.00  0.00     0.049 A 
ATOM     29  C   UNL A   1      41.117  30.791  30.123  1.00  0.00     0.074 A 
ATOM     30  C   UNL A   1      46.785  29.972  27.384  1.00  0.00     0.029 A 
ATOM     31  N   UNL A   1      44.719  29.696  28.152  1.00  0.00    -0.354 N 
ATOM     32  N   UNL A   1      42.263  30.527  29.540  1.00  0.00    -0.248 NA
ATOM     33  C   UNL A   1      41.075  32.084  30.816  1.00  0.00     0.031 C 
ATOM     34  C   UNL A   1      46.451  31.083  28.165  1.00  0.00     0.029 A 
ATOM     35  C   UNL A   1      45.146  30.936  28.605  1.00  0.00     0.049 A 
ATOM     36  H   UNL A   1      43.830  29.308  28.324  1.00  0.00     0.167 HD
ATOM     37  C   UNL A   1      43.066  31.641  29.763  1.00  0.00     0.074 A 
ATOM     38  C   UNL A   1      42.266  32.582  30.521  1.00  0.00     0.031 C 
ATOM     39  C   UNL A   1      44.346  31.868  29.369  1.00  0.00     0.034 A 
BRANCH  26  40
ATOM     40  C   UNL A   1      46.873  27.184  26.166  1.00  0.00     0.023 A 
ATOM     41  C   UNL A   1      47.842  26.453  26.878  1.00  0.00     0.031 A 
ATOM     42  C   UNL A   1      47.092  27.393  24.792  1.00  0.00     0.131 A 
ATOM     43  C   UNL A   1      49.015  26.030  26.233  1.00  0.00     0.055 A 
ATOM     44  C   UNL A   1      48.219  26.891  24.137  1.00  0.00     0.041 A 
ATOM     45  F   UNL A   1      46.218  28.101  24.059  1.00  0.00    -0.206 F 
ATOM     46  C   UNL A   1      49.199  26.220  24.862  1.00  0.00     0.022 A 
BRANCH  43  47
ATOM     47  S   UNL A   1      50.371  25.374  27.245  1.00  0.00     0.124 S 
ATOM     48  O   UNL A   1      51.368  25.044  26.229  1.00  0.00    -0.237 OA
ATOM     49  O   UNL A   1      50.693  26.502  28.111  1.00  0.00    -0.237 OA
ATOM     50  O   UNL A   1      49.773  24.222  27.917  1.00  0.00    -0.744 OA
ENDBRANCH  43  47
ENDBRANCH  26  40
BRANCH  27  51
ATOM     51  C   UNL A   1      38.645  30.449  30.880  1.00  0.00     0.023 A 
ATOM     52  C   UNL A   1      37.629  31.136  30.198  1.00  0.00     0.031 A 
ATOM     53  C   UNL A   1      38.502  30.269  32.269  1.00  0.00     0.131 A 
ATOM     54  C   UNL A   1      36.541  31.661  30.911  1.00  0.00     0.055 A 
ATOM     55  C   UNL A   1      37.385  30.736  32.962  1.00  0.00     0.041 A 
ATOM     56  F   UNL A   1      39.442  29.617  32.970  1.00  0.00    -0.206 F 
ATOM     57  C   UNL A   1      36.403  31.451  32.284  1.00  0.00     0.022 A 
BRANCH  54  58
ATOM     58  S   UNL A   1      35.354  32.711  30.030  1.00  0.00     0.124 S 
ATOM     59  O   UNL A   1      34.448  33.099  31.104  1.00  0.00    -0.237 OA
ATOM     60  O   UNL A   1      36.214  33.765  29.503  1.00  0.00    -0.237 OA
ATOM     61  O   UNL A   1      34.786  31.813  29.026  1.00  0.00    -0.744 OA
ENDBRANCH  54  58
ENDBRANCH  27  51
BRANCH  39  62
ATOM     62  C   UNL A   1      44.932  33.222  29.696  1.00  0.00     0.023 A 
ATOM     63  C   UNL A   1      44.789  34.327  28.839  1.00  0.00     0.031 A 
ATOM     64  C   UNL A   1      45.680  33.397  30.875  1.00  0.00     0.131 A 
ATOM     65  C   UNL A   1      45.446  35.532  29.135  1.00  0.00     0.055 A 
ATOM     66  C   UNL A   1      46.267  34.619  31.201  1.00  0.00     0.041 A 
ATOM     67  F   UNL A   1      45.859  32.377  31.730  1.00  0.00    -0.206 F 
ATOM     68  C   UNL A   1      46.167  35.692  30.320  1.00  0.00     0.022 A 
BRANCH  65  69
ATOM     69  S   UNL A   1      45.455  36.849  27.885  1.00  0.00     0.124 S 
ATOM     70  O   UNL A   1      46.512  36.404  26.983  1.00  0.00    -0.237 OA
ATOM     71  O   UNL A   1      44.096  36.784  27.356  1.00  0.00    -0.237 OA
ATOM     72  O   UNL A   1      45.763  38.051  28.657  1.00  0.00    -0.744 OA
ENDBRANCH  65  69
ENDBRANCH  39  62
ENDBRANCH  13  14
ENDBRANCH   6   8
ENDBRANCH   3   4
ENDBRANCH   2   3
ENDBRANCH   1   2
BRANCH   1  73
ATOM     73  C   UNL A   1      32.395  22.435  26.315  1.00  0.00     0.002 C 
BRANCH  73  74
ATOM     74  C   UNL A   1      32.280  21.236  25.364  1.00  0.00     0.021 C 
BRANCH  74  75
ATOM     75  C   UNL A   1      32.241  21.606  23.885  1.00  0.00     0.116 C 
BRANCH  75  76
ATOM     76  N   UNL A   1      33.550  22.024  23.408  1.00  0.00    -0.356 N 
ATOM     77  C   UNL A   1      33.934  23.200  22.842  1.00  0.00     0.224 C 
ATOM     78  H   UNL A   1      34.265  21.354  23.508  1.00  0.00     0.163 HD
ATOM     79  O   UNL A   1      35.116  23.357  22.546  1.00  0.00    -0.275 OA
BRANCH  77  80
ATOM     80  C   UNL A   1      32.879  24.262  22.593  1.00  0.00     0.097 C 
ATOM     81  C   UNL A   1      32.425  25.015  23.881  1.00  0.00     0.020 C 
ATOM     82  C   UNL A   1      33.427  25.416  21.722  1.00  0.00     0.119 C 
ATOM     83  C   UNL A   1      33.533  26.065  24.023  1.00  0.00     0.014 C 
ATOM     84  C   UNL A   1      31.186  25.850  23.455  1.00  0.00     0.097 C 
ATOM     85  C   UNL A   1      33.324  26.633  22.639  1.00  0.00     0.047 C 
ATOM     86  C   UNL A   1      32.451  25.784  20.645  1.00  0.00     0.310 C 
ATOM     87  C   UNL A   1      31.826  26.917  22.529  1.00  0.00     0.194 C 
ATOM     88  O   UNL A   1      31.528  26.661  21.150  1.00  0.00    -0.461 OA
ATOM     89  O   UNL A   1      32.442  25.338  19.514  1.00  0.00    -0.252 OA
BRANCH  84  90
ATOM     90  S   UNL A   1      30.060  26.458  24.779  1.00  0.00    -0.119 SA
BRANCH  90  91
ATOM     91  C   UNL A   1      30.994  27.689  25.650  1.00  0.00     0.008 A 
ATOM     92  C   UNL A   1      31.190  28.946  25.065  1.00  0.00     0.015 A 
ATOM     93  C   UNL A   1      31.600  27.412  26.879  1.00  0.00     0.015 A 
ATOM     94  C   UNL A   1      31.933  29.925  25.727  1.00  0.00     0.001 A 
ATOM     95  C   UNL A   1      32.321  28.399  27.554  1.00  0.00     0.001 A 
ATOM     96  C   UNL A   1      32.484  29.657  26.978  1.00  0.00     0.000 A 
ENDBRANCH  90  91
ENDBRANCH  84  90
ENDBRANCH  77  80
ENDBRANCH  75  76
ENDBRANCH  74  75
ENDBRANCH  73  74
ENDBRANCH   1  73
TORSDOF 18
ENDMDL
