MODEL 1
REMARK VINA RESULT:     -11.2      0.000      0.000
REMARK SMILES Cn1ccnc(N[C@H]2C=C[C@H](C(=O)NCCCCCCNC(=O)c3ccc(-c4c5nc(c(-c6cc(S(=O)(=O)[O-])ccc6F)c6ccc([nH]6)c(-c6cc(S(=O)(=O)[O-])ccc6F)c6nc(c(-c7cc(S(=O)(=O)[O-])ccc7F)c7ccc4[nH]7)C=C6)C=C5)cc3)C2)c1=O
REMARK SMILES IDX 18 1 17 2 16 3 15 4 14 5 12 6 13 7 11 9 8 10 9 11 87 12
REMARK SMILES IDX 10 13 7 14 6 16 1 17 2 18 3 19 88 20 4 21 89 22 5 23 19 24
REMARK SMILES IDX 20 25 21 26 22 27 23 29 24 30 25 31 86 32 26 33 85 34 27 35
REMARK SMILES IDX 28 36 29 37 79 38 30 39 84 40 78 41 80 42 31 43 83 44 77 45
REMARK SMILES IDX 76 46 32 48 64 49 44 50 63 51 45 52 48 53 62 54 81 55 46 56
REMARK SMILES IDX 47 57 61 59 82 60 49 61 33 62 34 63 42 64 35 65 41 66 43 67
REMARK SMILES IDX 40 68 36 69 37 70 38 71 39 72 65 73 66 74 74 75 67 76 73 77
REMARK SMILES IDX 75 78 72 79 68 80 69 81 70 82 71 83 50 84 51 85 59 86 52 87
REMARK SMILES IDX 58 88 60 89 57 90 53 91 54 92 55 93 56 94
REMARK H PARENT 14 8 7 15 21 28 80 47 48 58
REMARK Flexibility Score: inf
ROOT
ATOM      1  C   UNL A   1      31.680  30.186  26.794  1.00  0.00     0.002 C 
ENDROOT
BRANCH   1   2
ATOM      2  C   UNL A   1      31.762  29.398  25.484  1.00  0.00     0.002 C 
BRANCH   2   3
ATOM      3  C   UNL A   1      30.874  29.926  24.352  1.00  0.00     0.021 C 
BRANCH   3   4
ATOM      4  C   UNL A   1      30.910  29.088  23.080  1.00  0.00     0.116 C 
BRANCH   4   5
ATOM      5  N   UNL A   1      32.238  29.046  22.489  1.00  0.00    -0.356 N 
ATOM      6  C   UNL A   1      33.078  27.973  22.366  1.00  0.00     0.227 C 
ATOM      7  O   UNL A   1      34.140  28.118  21.761  1.00  0.00    -0.274 OA
ATOM      8  H   UNL A   1      32.576  29.898  22.132  1.00  0.00     0.163 HD
BRANCH   6   9
ATOM      9  C   UNL A   1      32.641  26.652  22.992  1.00  0.00     0.103 C 
ATOM     10  C   UNL A   1      34.142  24.877  23.773  1.00  0.00     0.104 C 
ATOM     11  C   UNL A   1      33.597  24.565  22.430  1.00  0.00    -0.006 C 
ATOM     12  C   UNL A   1      33.504  26.204  24.185  1.00  0.00     0.046 C 
ATOM     13  C   UNL A   1      32.799  25.541  21.988  1.00  0.00    -0.016 C 
BRANCH  10  14
ATOM     14  N   UNL A   1      33.928  23.797  24.697  1.00  0.00    -0.359 N 
ATOM     15  H   UNL A   1      33.338  24.037  25.447  1.00  0.00     0.162 HD
BRANCH  14  16
ATOM     16  C   UNL A   1      34.379  22.496  24.750  1.00  0.00     0.193 A 
ATOM     17  C   UNL A   1      33.379  18.787  24.676  1.00  0.00     0.153 C 
ATOM     18  N   UNL A   1      34.151  20.011  24.758  1.00  0.00    -0.314 N 
ATOM     19  C   UNL A   1      35.508  19.986  24.948  1.00  0.00     0.109 A 
ATOM     20  C   UNL A   1      33.476  21.222  24.634  1.00  0.00     0.293 A 
ATOM     21  C   UNL A   1      36.206  21.123  25.017  1.00  0.00     0.131 A 
ATOM     22  O   UNL A   1      32.268  21.287  24.460  1.00  0.00    -0.265 OA
ATOM     23  N   UNL A   1      35.679  22.381  24.923  1.00  0.00    -0.233 NA
ENDBRANCH  14  16
ENDBRANCH  10  14
ENDBRANCH   6   9
ENDBRANCH   4   5
ENDBRANCH   3   4
ENDBRANCH   2   3
ENDBRANCH   1   2
BRANCH   1  24
ATOM     24  C   UNL A   1      31.702  31.708  26.638  1.00  0.00     0.021 C 
BRANCH  24  25
ATOM     25  C   UNL A   1      32.919  32.393  27.248  1.00  0.00     0.116 C 
BRANCH  25  26
ATOM     26  N   UNL A   1      32.661  33.788  27.568  1.00  0.00    -0.352 N 
ATOM     27  C   UNL A   1      33.217  34.570  28.550  1.00  0.00     0.251 C 
ATOM     28  H   UNL A   1      31.993  34.234  26.999  1.00  0.00     0.163 HD
ATOM     29  O   UNL A   1      32.736  35.671  28.798  1.00  0.00    -0.269 OA
BRANCH  27  30
ATOM     30  C   UNL A   1      34.376  34.067  29.320  1.00  0.00     0.039 A 
ATOM     31  C   UNL A   1      34.146  33.257  30.434  1.00  0.00     0.014 A 
ATOM     32  C   UNL A   1      35.683  34.385  28.941  1.00  0.00     0.014 A 
ATOM     33  C   UNL A   1      35.229  32.717  31.132  1.00  0.00     0.010 A 
ATOM     34  C   UNL A   1      36.759  33.781  29.587  1.00  0.00     0.010 A 
ATOM     35  C   UNL A   1      36.544  32.943  30.691  1.00  0.00    -0.014 A 
BRANCH  35  36
ATOM     36  C   UNL A   1      37.702  32.309  31.376  1.00  0.00     0.031 A 
ATOM     37  C   UNL A   1      38.427  31.161  30.727  1.00  0.00     0.074 A 
ATOM     38  C   UNL A   1      38.067  32.735  32.603  1.00  0.00     0.049 A 
ATOM     39  N   UNL A   1      39.414  30.437  31.192  1.00  0.00    -0.248 NA
ATOM     40  C   UNL A   1      37.964  30.756  29.392  1.00  0.00     0.031 C 
ATOM     41  C   UNL A   1      37.419  33.818  33.347  1.00  0.00     0.029 A 
ATOM     42  N   UNL A   1      39.066  32.310  33.443  1.00  0.00    -0.354 N 
ATOM     43  C   UNL A   1      39.683  29.488  30.212  1.00  0.00     0.074 A 
ATOM     44  C   UNL A   1      38.712  29.689  29.157  1.00  0.00     0.031 C 
ATOM     45  C   UNL A   1      38.055  33.989  34.517  1.00  0.00     0.029 A 
ATOM     46  C   UNL A   1      39.118  32.997  34.635  1.00  0.00     0.049 A 
ATOM     47  H   UNL A   1      39.687  31.580  33.215  1.00  0.00     0.167 HD
ATOM     48  C   UNL A   1      40.664  28.551  30.185  1.00  0.00     0.034 A 
ATOM     49  C   UNL A   1      39.919  32.834  35.708  1.00  0.00     0.034 A 
ATOM     50  C   UNL A   1      41.628  28.370  31.243  1.00  0.00     0.049 A 
ATOM     51  C   UNL A   1      40.974  31.757  35.670  1.00  0.00     0.074 A 
ATOM     52  C   UNL A   1      42.692  27.486  31.295  1.00  0.00     0.029 A 
ATOM     53  N   UNL A   1      41.641  29.075  32.441  1.00  0.00    -0.354 N 
ATOM     54  N   UNL A   1      41.246  30.899  34.713  1.00  0.00    -0.248 NA
ATOM     55  C   UNL A   1      41.835  31.631  36.853  1.00  0.00     0.031 C 
ATOM     56  C   UNL A   1      43.295  27.598  32.552  1.00  0.00     0.029 A 
ATOM     57  C   UNL A   1      42.670  28.618  33.251  1.00  0.00     0.049 A 
ATOM     58  H   UNL A   1      41.012  29.794  32.679  1.00  0.00     0.167 HD
ATOM     59  C   UNL A   1      42.336  30.158  35.168  1.00  0.00     0.074 A 
ATOM     60  C   UNL A   1      42.677  30.681  36.473  1.00  0.00     0.031 C 
ATOM     61  C   UNL A   1      42.997  29.141  34.557  1.00  0.00     0.034 A 
BRANCH  48  62
ATOM     62  C   UNL A   1      40.721  27.633  28.986  1.00  0.00     0.023 A 
ATOM     63  C   UNL A   1      41.668  27.812  27.962  1.00  0.00     0.031 A 
ATOM     64  C   UNL A   1      39.811  26.569  28.860  1.00  0.00     0.131 A 
ATOM     65  C   UNL A   1      41.637  26.987  26.827  1.00  0.00     0.055 A 
ATOM     66  C   UNL A   1      39.842  25.697  27.769  1.00  0.00     0.041 A 
ATOM     67  F   UNL A   1      38.869  26.361  29.793  1.00  0.00    -0.206 F 
ATOM     68  C   UNL A   1      40.749  25.914  26.736  1.00  0.00     0.022 A 
BRANCH  65  69
ATOM     69  S   UNL A   1      42.678  27.427  25.408  1.00  0.00     0.124 S 
ATOM     70  O   UNL A   1      42.640  26.196  24.621  1.00  0.00    -0.237 OA
ATOM     71  O   UNL A   1      41.971  28.570  24.841  1.00  0.00    -0.237 OA
ATOM     72  O   UNL A   1      43.972  27.730  26.014  1.00  0.00    -0.744 OA
ENDBRANCH  65  69
ENDBRANCH  48  62
BRANCH  49  73
ATOM     73  C   UNL A   1      39.751  33.693  36.917  1.00  0.00     0.023 A 
ATOM     74  C   UNL A   1      40.598  34.789  37.152  1.00  0.00     0.031 A 
ATOM     75  C   UNL A   1      38.777  33.396  37.888  1.00  0.00     0.131 A 
ATOM     76  C   UNL A   1      40.495  35.510  38.351  1.00  0.00     0.055 A 
ATOM     77  C   UNL A   1      38.635  34.158  39.049  1.00  0.00     0.041 A 
ATOM     78  F   UNL A   1      37.939  32.361  37.716  1.00  0.00    -0.206 F 
ATOM     79  C   UNL A   1      39.507  35.213  39.294  1.00  0.00     0.022 A 
BRANCH  76  80
ATOM     80  S   UNL A   1      41.742  36.776  38.714  1.00  0.00     0.124 S 
ATOM     81  O   UNL A   1      42.628  36.063  39.628  1.00  0.00    -0.237 OA
ATOM     82  O   UNL A   1      42.280  37.059  37.387  1.00  0.00    -0.237 OA
ATOM     83  O   UNL A   1      40.964  37.858  39.313  1.00  0.00    -0.744 OA
ENDBRANCH  76  80
ENDBRANCH  49  73
BRANCH  61  84
ATOM     84  C   UNL A   1      44.191  28.563  35.279  1.00  0.00     0.023 A 
ATOM     85  C   UNL A   1      44.083  27.438  36.114  1.00  0.00     0.031 A 
ATOM     86  C   UNL A   1      45.458  29.157  35.132  1.00  0.00     0.131 A 
ATOM     87  C   UNL A   1      45.207  26.979  36.818  1.00  0.00     0.055 A 
ATOM     88  C   UNL A   1      46.587  28.653  35.779  1.00  0.00     0.041 A 
ATOM     89  F   UNL A   1      45.621  30.237  34.352  1.00  0.00    -0.206 F 
ATOM     90  C   UNL A   1      46.462  27.566  36.639  1.00  0.00     0.022 A 
BRANCH  87  91
ATOM     91  S   UNL A   1      44.988  25.667  38.051  1.00  0.00     0.124 S 
ATOM     92  O   UNL A   1      46.003  24.700  37.648  1.00  0.00    -0.237 OA
ATOM     93  O   UNL A   1      45.241  26.372  39.304  1.00  0.00    -0.237 OA
ATOM     94  O   UNL A   1      43.606  25.236  37.853  1.00  0.00    -0.744 OA
ENDBRANCH  87  91
ENDBRANCH  61  84
ENDBRANCH  35  36
ENDBRANCH  27  30
ENDBRANCH  25  26
ENDBRANCH  24  25
ENDBRANCH   1  24
TORSDOF 18
ENDMDL
MODEL 2
REMARK VINA RESULT:     -11.1      5.434     10.662
REMARK SMILES Cn1ccnc(N[C@H]2C=C[C@H](C(=O)NCCCCCCNC(=O)c3ccc(-c4c5nc(c(-c6cc(S(=O)(=O)[O-])ccc6F)c6ccc([nH]6)c(-c6cc(S(=O)(=O)[O-])ccc6F)c6nc(c(-c7cc(S(=O)(=O)[O-])ccc7F)c7ccc4[nH]7)C=C6)C=C5)cc3)C2)c1=O
REMARK SMILES IDX 18 1 17 2 16 3 15 4 14 5 12 6 13 7 11 9 8 10 9 11 87 12
REMARK SMILES IDX 10 13 7 14 6 16 1 17 2 18 3 19 88 20 4 21 89 22 5 23 19 24
REMARK SMILES IDX 20 25 21 26 22 27 23 29 24 30 25 31 86 32 26 33 85 34 27 35
REMARK SMILES IDX 28 36 29 37 79 38 30 39 84 40 78 41 80 42 31 43 83 44 77 45
REMARK SMILES IDX 76 46 32 48 64 49 44 50 63 51 45 52 48 53 62 54 81 55 46 56
REMARK SMILES IDX 47 57 61 59 82 60 49 61 33 62 34 63 42 64 35 65 41 66 43 67
REMARK SMILES IDX 40 68 36 69 37 70 38 71 39 72 65 73 66 74 74 75 67 76 73 77
REMARK SMILES IDX 75 78 72 79 68 80 69 81 70 82 71 83 50 84 51 85 59 86 52 87
REMARK SMILES IDX 58 88 60 89 57 90 53 91 54 92 55 93 56 94
REMARK H PARENT 14 8 7 15 21 28 80 47 48 58
REMARK Flexibility Score: inf
ROOT
ATOM      1  C   UNL A   1      35.025  21.451  25.914  1.00  0.00     0.002 C 
ENDROOT
BRANCH   1   2
ATOM      2  C   UNL A   1      34.598  22.654  26.759  1.00  0.00     0.002 C 
BRANCH   2   3
ATOM      3  C   UNL A   1      33.253  22.501  27.475  1.00  0.00     0.021 C 
BRANCH   3   4
ATOM      4  C   UNL A   1      32.063  23.067  26.709  1.00  0.00     0.116 C 
BRANCH   4   5
ATOM      5  N   UNL A   1      31.817  22.349  25.469  1.00  0.00    -0.356 N 
ATOM      6  C   UNL A   1      31.907  22.816  24.186  1.00  0.00     0.227 C 
ATOM      7  O   UNL A   1      31.735  22.029  23.256  1.00  0.00    -0.274 OA
ATOM      8  H   UNL A   1      31.554  21.406  25.565  1.00  0.00     0.163 HD
BRANCH   6   9
ATOM      9  C   UNL A   1      32.217  24.296  23.989  1.00  0.00     0.103 C 
ATOM     10  C   UNL A   1      31.800  25.581  21.942  1.00  0.00     0.104 C 
ATOM     11  C   UNL A   1      33.222  25.167  22.035  1.00  0.00    -0.006 C 
ATOM     12  C   UNL A   1      31.132  25.070  23.218  1.00  0.00     0.046 C 
ATOM     13  C   UNL A   1      33.448  24.445  23.135  1.00  0.00    -0.016 C 
BRANCH  10  14
ATOM     14  N   UNL A   1      31.673  26.995  21.723  1.00  0.00    -0.359 N 
ATOM     15  H   UNL A   1      32.016  27.288  20.849  1.00  0.00     0.162 HD
BRANCH  14  16
ATOM     16  C   UNL A   1      31.169  28.027  22.486  1.00  0.00     0.193 A 
ATOM     17  C   UNL A   1      31.645  30.163  25.645  1.00  0.00     0.153 C 
ATOM     18  N   UNL A   1      31.110  29.605  24.419  1.00  0.00    -0.314 N 
ATOM     19  C   UNL A   1      29.937  30.065  23.879  1.00  0.00     0.109 A 
ATOM     20  C   UNL A   1      31.823  28.585  23.795  1.00  0.00     0.293 A 
ATOM     21  C   UNL A   1      29.459  29.544  22.746  1.00  0.00     0.131 A 
ATOM     22  O   UNL A   1      32.874  28.150  24.242  1.00  0.00    -0.265 OA
ATOM     23  N   UNL A   1      30.043  28.535  22.031  1.00  0.00    -0.233 NA
ENDBRANCH  14  16
ENDBRANCH  10  14
ENDBRANCH   6   9
ENDBRANCH   4   5
ENDBRANCH   3   4
ENDBRANCH   2   3
ENDBRANCH   1   2
BRANCH   1  24
ATOM     24  C   UNL A   1      35.541  21.793  24.515  1.00  0.00     0.021 C 
BRANCH  24  25
ATOM     25  C   UNL A   1      37.060  21.864  24.395  1.00  0.00     0.116 C 
BRANCH  25  26
ATOM     26  N   UNL A   1      37.711  20.697  24.967  1.00  0.00    -0.352 N 
ATOM     27  C   UNL A   1      38.843  20.626  25.740  1.00  0.00     0.251 C 
ATOM     28  H   UNL A   1      37.278  19.834  24.772  1.00  0.00     0.163 HD
ATOM     29  O   UNL A   1      39.357  19.536  25.971  1.00  0.00    -0.269 OA
BRANCH  27  30
ATOM     30  C   UNL A   1      39.450  21.869  26.266  1.00  0.00     0.039 A 
ATOM     31  C   UNL A   1      40.635  21.783  26.999  1.00  0.00     0.014 A 
ATOM     32  C   UNL A   1      38.858  23.112  26.031  1.00  0.00     0.014 A 
ATOM     33  C   UNL A   1      41.260  22.951  27.443  1.00  0.00     0.010 A 
ATOM     34  C   UNL A   1      39.522  24.279  26.404  1.00  0.00     0.010 A 
ATOM     35  C   UNL A   1      40.729  24.211  27.117  1.00  0.00    -0.014 A 
BRANCH  35  36
ATOM     36  C   UNL A   1      41.424  25.464  27.514  1.00  0.00     0.031 A 
ATOM     37  C   UNL A   1      40.683  26.531  28.273  1.00  0.00     0.074 A 
ATOM     38  C   UNL A   1      42.707  25.660  27.145  1.00  0.00     0.049 A 
ATOM     39  N   UNL A   1      41.095  27.716  28.650  1.00  0.00    -0.248 NA
ATOM     40  C   UNL A   1      39.287  26.240  28.632  1.00  0.00     0.031 C 
ATOM     41  C   UNL A   1      43.519  24.713  26.378  1.00  0.00     0.029 A 
ATOM     42  N   UNL A   1      43.553  26.721  27.360  1.00  0.00    -0.354 N 
ATOM     43  C   UNL A   1      40.008  28.311  29.280  1.00  0.00     0.074 A 
ATOM     44  C   UNL A   1      38.903  27.383  29.177  1.00  0.00     0.031 C 
ATOM     45  C   UNL A   1      44.751  25.221  26.214  1.00  0.00     0.029 A 
ATOM     46  C   UNL A   1      44.804  26.552  26.811  1.00  0.00     0.049 A 
ATOM     47  H   UNL A   1      43.289  27.527  27.859  1.00  0.00     0.167 HD
ATOM     48  C   UNL A   1      39.947  29.513  29.908  1.00  0.00     0.034 A 
ATOM     49  C   UNL A   1      45.867  27.381  26.776  1.00  0.00     0.034 A 
ATOM     50  C   UNL A   1      41.062  30.423  30.008  1.00  0.00     0.049 A 
ATOM     51  C   UNL A   1      45.758  28.729  27.444  1.00  0.00     0.074 A 
ATOM     52  C   UNL A   1      41.122  31.641  30.663  1.00  0.00     0.029 A 
ATOM     53  N   UNL A   1      42.309  30.224  29.428  1.00  0.00    -0.354 N 
ATOM     54  N   UNL A   1      44.737  29.258  28.080  1.00  0.00    -0.248 NA
ATOM     55  C   UNL A   1      46.948  29.589  27.399  1.00  0.00     0.031 C 
ATOM     56  C   UNL A   1      42.372  32.214  30.411  1.00  0.00     0.029 A 
ATOM     57  C   UNL A   1      43.130  31.315  29.678  1.00  0.00     0.049 A 
ATOM     58  H   UNL A   1      42.571  29.426  28.915  1.00  0.00     0.167 HD
ATOM     59  C   UNL A   1      45.178  30.497  28.541  1.00  0.00     0.074 A 
ATOM     60  C   UNL A   1      46.558  30.627  28.124  1.00  0.00     0.031 C 
ATOM     61  C   UNL A   1      44.504  31.438  29.250  1.00  0.00     0.034 A 
BRANCH  48  62
ATOM     62  C   UNL A   1      38.622  29.921  30.508  1.00  0.00     0.023 A 
ATOM     63  C   UNL A   1      37.671  30.654  29.776  1.00  0.00     0.031 A 
ATOM     64  C   UNL A   1      38.306  29.579  31.836  1.00  0.00     0.131 A 
ATOM     65  C   UNL A   1      36.486  31.082  30.396  1.00  0.00     0.055 A 
ATOM     66  C   UNL A   1      37.087  29.933  32.419  1.00  0.00     0.041 A 
ATOM     67  F   UNL A   1      39.181  28.901  32.593  1.00  0.00    -0.206 F 
ATOM     68  C   UNL A   1      36.176  30.703  31.703  1.00  0.00     0.022 A 
BRANCH  65  69
ATOM     69  S   UNL A   1      35.426  32.261  29.515  1.00  0.00     0.124 S 
ATOM     70  O   UNL A   1      34.621  32.806  30.606  1.00  0.00    -0.237 OA
ATOM     71  O   UNL A   1      36.396  33.173  28.919  1.00  0.00    -0.237 OA
ATOM     72  O   UNL A   1      34.693  31.422  28.569  1.00  0.00    -0.744 OA
ENDBRANCH  65  69
ENDBRANCH  48  62
BRANCH  49  73
ATOM     73  C   UNL A   1      47.121  26.979  26.073  1.00  0.00     0.023 A 
ATOM     74  C   UNL A   1      48.141  26.288  26.748  1.00  0.00     0.031 A 
ATOM     75  C   UNL A   1      47.344  27.331  24.730  1.00  0.00     0.131 A 
ATOM     76  C   UNL A   1      49.356  26.023  26.098  1.00  0.00     0.055 A 
ATOM     77  C   UNL A   1      48.529  27.007  24.067  1.00  0.00     0.041 A 
ATOM     78  F   UNL A   1      46.404  27.993  24.035  1.00  0.00    -0.206 F 
ATOM     79  C   UNL A   1      49.551  26.363  24.757  1.00  0.00     0.022 A 
BRANCH  76  80
ATOM     80  S   UNL A   1      50.723  25.325  27.064  1.00  0.00     0.124 S 
ATOM     81  O   UNL A   1      51.183  26.491  27.809  1.00  0.00    -0.237 OA
ATOM     82  O   UNL A   1      50.048  24.290  27.841  1.00  0.00    -0.237 OA
ATOM     83  O   UNL A   1      51.644  24.832  26.042  1.00  0.00    -0.744 OA
ENDBRANCH  76  80
ENDBRANCH  49  73
BRANCH  61  84
ATOM     84  C   UNL A   1      45.271  32.673  29.662  1.00  0.00     0.023 A 
ATOM     85  C   UNL A   1      45.299  33.831  28.868  1.00  0.00     0.031 A 
ATOM     86  C   UNL A   1      45.994  32.681  30.870  1.00  0.00     0.131 A 
ATOM     87  C   UNL A   1      46.081  34.928  29.259  1.00  0.00     0.055 A 
ATOM     88  C   UNL A   1      46.713  33.802  31.288  1.00  0.00     0.041 A 
ATOM     89  F   UNL A   1      46.008  31.601  31.666  1.00  0.00    -0.206 F 
ATOM     90  C   UNL A   1      46.771  34.929  30.474  1.00  0.00     0.022 A 
BRANCH  87  91
ATOM     91  S   UNL A   1      46.271  36.318  28.110  1.00  0.00     0.124 S 
ATOM     92  O   UNL A   1      45.826  35.732  26.849  1.00  0.00    -0.237 OA
ATOM     93  O   UNL A   1      45.388  37.326  28.690  1.00  0.00    -0.237 OA
ATOM     94  O   UNL A   1      47.696  36.631  28.180  1.00  0.00    -0.744 OA
ENDBRANCH  87  91
ENDBRANCH  61  84
ENDBRANCH  35  36
ENDBRANCH  27  30
ENDBRANCH  25  26
ENDBRANCH  24  25
ENDBRANCH   1  24
TORSDOF 18
ENDMDL
MODEL 3
REMARK VINA RESULT:     -11.1      5.701     11.658
REMARK SMILES Cn1ccnc(N[C@H]2C=C[C@H](C(=O)NCCCCCCNC(=O)c3ccc(-c4c5nc(c(-c6cc(S(=O)(=O)[O-])ccc6F)c6ccc([nH]6)c(-c6cc(S(=O)(=O)[O-])ccc6F)c6nc(c(-c7cc(S(=O)(=O)[O-])ccc7F)c7ccc4[nH]7)C=C6)C=C5)cc3)C2)c1=O
REMARK SMILES IDX 18 1 17 2 16 3 15 4 14 5 12 6 13 7 11 9 8 10 9 11 87 12
REMARK SMILES IDX 10 13 7 14 6 16 1 17 2 18 3 19 88 20 4 21 89 22 5 23 19 24
REMARK SMILES IDX 20 25 21 26 22 27 23 29 24 30 25 31 86 32 26 33 85 34 27 35
REMARK SMILES IDX 28 36 29 37 79 38 30 39 84 40 78 41 80 42 31 43 83 44 77 45
REMARK SMILES IDX 76 46 32 48 64 49 44 50 63 51 45 52 48 53 62 54 81 55 46 56
REMARK SMILES IDX 47 57 61 59 82 60 49 61 33 62 34 63 42 64 35 65 41 66 43 67
REMARK SMILES IDX 40 68 36 69 37 70 38 71 39 72 65 73 66 74 74 75 67 76 73 77
REMARK SMILES IDX 75 78 72 79 68 80 69 81 70 82 71 83 50 84 51 85 59 86 52 87
REMARK SMILES IDX 58 88 60 89 57 90 53 91 54 92 55 93 56 94
REMARK H PARENT 14 8 7 15 21 28 80 47 48 58
REMARK Flexibility Score: inf
ROOT
ATOM      1  C   UNL A   1      37.074  20.412  25.001  1.00  0.00     0.002 C 
ENDROOT
BRANCH   1   2
ATOM      2  C   UNL A   1      37.041  21.783  24.321  1.00  0.00     0.002 C 
BRANCH   2   3
ATOM      3  C   UNL A   1      37.393  22.966  25.228  1.00  0.00     0.021 C 
BRANCH   3   4
ATOM      4  C   UNL A   1      36.188  23.705  25.797  1.00  0.00     0.116 C 
BRANCH   4   5
ATOM      5  N   UNL A   1      35.528  22.949  26.849  1.00  0.00    -0.356 N 
ATOM      6  C   UNL A   1      34.212  22.587  26.936  1.00  0.00     0.227 C 
ATOM      7  O   UNL A   1      33.855  21.874  27.874  1.00  0.00    -0.274 OA
ATOM      8  H   UNL A   1      36.103  22.660  27.594  1.00  0.00     0.163 HD
BRANCH   6   9
ATOM      9  C   UNL A   1      33.263  23.094  25.856  1.00  0.00     0.103 C 
ATOM     10  C   UNL A   1      31.092  24.165  26.251  1.00  0.00     0.104 C 
ATOM     11  C   UNL A   1      30.927  22.733  25.900  1.00  0.00    -0.006 C 
ATOM     12  C   UNL A   1      32.594  24.441  26.185  1.00  0.00     0.046 C 
ATOM     13  C   UNL A   1      32.108  22.139  25.710  1.00  0.00    -0.016 C 
BRANCH  10  14
ATOM     14  N   UNL A   1      30.290  25.013  25.412  1.00  0.00    -0.359 N 
ATOM     15  H   UNL A   1      29.394  24.648  25.232  1.00  0.00     0.162 HD
BRANCH  14  16
ATOM     16  C   UNL A   1      30.517  26.231  24.808  1.00  0.00     0.193 A 
ATOM     17  C   UNL A   1      31.569  29.888  25.339  1.00  0.00     0.153 C 
ATOM     18  N   UNL A   1      31.129  28.649  24.730  1.00  0.00    -0.314 N 
ATOM     19  C   UNL A   1      30.839  28.577  23.392  1.00  0.00     0.109 A 
ATOM     20  C   UNL A   1      31.012  27.524  25.541  1.00  0.00     0.293 A 
ATOM     21  C   UNL A   1      30.439  27.426  22.844  1.00  0.00     0.131 A 
ATOM     22  O   UNL A   1      31.265  27.546  26.736  1.00  0.00    -0.265 OA
ATOM     23  N   UNL A   1      30.269  26.247  23.516  1.00  0.00    -0.233 NA
ENDBRANCH  14  16
ENDBRANCH  10  14
ENDBRANCH   6   9
ENDBRANCH   4   5
ENDBRANCH   3   4
ENDBRANCH   2   3
ENDBRANCH   1   2
BRANCH   1  24
ATOM     24  C   UNL A   1      38.425  19.696  24.950  1.00  0.00     0.021 C 
BRANCH  24  25
ATOM     25  C   UNL A   1      39.384  20.063  26.077  1.00  0.00     0.116 C 
BRANCH  25  26
ATOM     26  N   UNL A   1      40.573  19.227  26.080  1.00  0.00    -0.352 N 
ATOM     27  C   UNL A   1      41.894  19.597  26.135  1.00  0.00     0.251 C 
ATOM     28  H   UNL A   1      40.408  18.257  26.037  1.00  0.00     0.163 HD
ATOM     29  O   UNL A   1      42.770  18.763  25.930  1.00  0.00    -0.269 OA
BRANCH  27  30
ATOM     30  C   UNL A   1      42.250  21.006  26.413  1.00  0.00     0.039 A 
ATOM     31  C   UNL A   1      42.531  21.385  27.728  1.00  0.00     0.014 A 
ATOM     32  C   UNL A   1      42.314  21.946  25.382  1.00  0.00     0.014 A 
ATOM     33  C   UNL A   1      42.937  22.694  27.998  1.00  0.00     0.010 A 
ATOM     34  C   UNL A   1      42.796  23.228  25.641  1.00  0.00     0.010 A 
ATOM     35  C   UNL A   1      43.110  23.616  26.952  1.00  0.00    -0.014 A 
BRANCH  35  36
ATOM     36  C   UNL A   1      43.617  24.989  27.215  1.00  0.00     0.031 A 
ATOM     37  C   UNL A   1      42.699  26.039  27.779  1.00  0.00     0.074 A 
ATOM     38  C   UNL A   1      44.890  25.302  26.897  1.00  0.00     0.049 A 
ATOM     39  N   UNL A   1      42.935  27.305  28.015  1.00  0.00    -0.248 NA
ATOM     40  C   UNL A   1      41.325  25.617  28.093  1.00  0.00     0.031 C 
ATOM     41  C   UNL A   1      45.866  24.378  26.314  1.00  0.00     0.029 A 
ATOM     42  N   UNL A   1      45.583  26.482  27.014  1.00  0.00    -0.354 N 
ATOM     43  C   UNL A   1      41.741  27.830  28.496  1.00  0.00     0.074 A 
ATOM     44  C   UNL A   1      40.766  26.761  28.456  1.00  0.00     0.031 C 
ATOM     45  C   UNL A   1      47.035  25.017  26.152  1.00  0.00     0.029 A 
ATOM     46  C   UNL A   1      46.883  26.408  26.566  1.00  0.00     0.049 A 
ATOM     47  H   UNL A   1      45.187  27.304  27.383  1.00  0.00     0.167 HD
ATOM     48  C   UNL A   1      41.488  29.084  28.950  1.00  0.00     0.034 A 
ATOM     49  C   UNL A   1      47.837  27.357  26.480  1.00  0.00     0.034 A 
ATOM     50  C   UNL A   1      42.474  30.136  28.989  1.00  0.00     0.049 A 
ATOM     51  C   UNL A   1      47.517  28.754  26.952  1.00  0.00     0.074 A 
ATOM     52  C   UNL A   1      42.338  31.425  29.476  1.00  0.00     0.029 A 
ATOM     53  N   UNL A   1      43.775  30.029  28.514  1.00  0.00    -0.354 N 
ATOM     54  N   UNL A   1      46.396  29.222  27.451  1.00  0.00    -0.248 NA
ATOM     55  C   UNL A   1      48.594  29.748  26.858  1.00  0.00     0.031 C 
ATOM     56  C   UNL A   1      43.525  32.119  29.220  1.00  0.00     0.029 A 
ATOM     57  C   UNL A   1      44.437  31.239  28.661  1.00  0.00     0.049 A 
ATOM     58  H   UNL A   1      44.170  29.213  28.129  1.00  0.00     0.167 HD
ATOM     59  C   UNL A   1      46.648  30.556  27.764  1.00  0.00     0.074 A 
ATOM     60  C   UNL A   1      48.029  30.810  27.412  1.00  0.00     0.031 C 
ATOM     61  C   UNL A   1      45.814  31.484  28.299  1.00  0.00     0.034 A 
BRANCH  48  62
ATOM     62  C   UNL A   1      40.082  29.389  29.413  1.00  0.00     0.023 A 
ATOM     63  C   UNL A   1      39.757  29.489  30.777  1.00  0.00     0.031 A 
ATOM     64  C   UNL A   1      39.049  29.575  28.477  1.00  0.00     0.131 A 
ATOM     65  C   UNL A   1      38.424  29.696  31.167  1.00  0.00     0.055 A 
ATOM     66  C   UNL A   1      37.741  29.866  28.870  1.00  0.00     0.041 A 
ATOM     67  F   UNL A   1      39.292  29.468  27.161  1.00  0.00    -0.206 F 
ATOM     68  C   UNL A   1      37.419  29.913  30.223  1.00  0.00     0.022 A 
BRANCH  65  69
ATOM     69  S   UNL A   1      38.001  29.532  32.924  1.00  0.00     0.124 S 
ATOM     70  O   UNL A   1      39.312  29.656  33.556  1.00  0.00    -0.237 OA
ATOM     71  O   UNL A   1      37.082  30.645  33.132  1.00  0.00    -0.237 OA
ATOM     72  O   UNL A   1      37.400  28.202  33.008  1.00  0.00    -0.744 OA
ENDBRANCH  65  69
ENDBRANCH  48  62
BRANCH  49  73
ATOM     73  C   UNL A   1      49.179  27.035  25.911  1.00  0.00     0.023 A 
ATOM     74  C   UNL A   1      49.527  27.427  24.608  1.00  0.00     0.031 A 
ATOM     75  C   UNL A   1      50.114  26.278  26.641  1.00  0.00     0.131 A 
ATOM     76  C   UNL A   1      50.749  27.013  24.054  1.00  0.00     0.055 A 
ATOM     77  C   UNL A   1      51.355  25.924  26.109  1.00  0.00     0.041 A 
ATOM     78  F   UNL A   1      49.835  25.875  27.891  1.00  0.00    -0.206 F 
ATOM     79  C   UNL A   1      51.673  26.278  24.802  1.00  0.00     0.022 A 
BRANCH  76  80
ATOM     80  S   UNL A   1      51.068  27.353  22.302  1.00  0.00     0.124 S 
ATOM     81  O   UNL A   1      51.524  28.738  22.349  1.00  0.00    -0.237 OA
ATOM     82  O   UNL A   1      52.081  26.354  21.979  1.00  0.00    -0.237 OA
ATOM     83  O   UNL A   1      49.766  27.145  21.672  1.00  0.00    -0.744 OA
ENDBRANCH  76  80
ENDBRANCH  49  73
BRANCH  61  84
ATOM     84  C   UNL A   1      46.394  32.850  28.584  1.00  0.00     0.023 A 
ATOM     85  C   UNL A   1      46.439  33.858  27.606  1.00  0.00     0.031 A 
ATOM     86  C   UNL A   1      46.918  33.141  29.857  1.00  0.00     0.131 A 
ATOM     87  C   UNL A   1      47.049  35.088  27.896  1.00  0.00     0.055 A 
ATOM     88  C   UNL A   1      47.460  34.390  30.161  1.00  0.00     0.041 A 
ATOM     89  F   UNL A   1      46.908  32.215  30.829  1.00  0.00    -0.206 F 
ATOM     90  C   UNL A   1      47.541  35.368  29.174  1.00  0.00     0.022 A 
BRANCH  87  91
ATOM     91  S   UNL A   1      47.286  36.282  26.552  1.00  0.00     0.124 S 
ATOM     92  O   UNL A   1      48.541  36.923  26.934  1.00  0.00    -0.237 OA
ATOM     93  O   UNL A   1      47.344  35.421  25.375  1.00  0.00    -0.237 OA
ATOM     94  O   UNL A   1      46.103  37.135  26.637  1.00  0.00    -0.744 OA
ENDBRANCH  87  91
ENDBRANCH  61  84
ENDBRANCH  35  36
ENDBRANCH  27  30
ENDBRANCH  25  26
ENDBRANCH  24  25
ENDBRANCH   1  24
TORSDOF 18
ENDMDL
