MODEL 1
REMARK VINA RESULT:     -11.6      0.000      0.000
REMARK SMILES N#CCCn1cc(C(=O)NCCCCCCNC(=O)c2ccc(-c3c4nc(c(-c5cc(S(=O)(=O)[O-])ccc5F)c5ccc([nH]5)c(-c5cc(S(=O)(=O)[O-])ccc5F)c5nc(c(-c6cc(S(=O)(=O)[O-])ccc6F)c6ccc3[nH]6)C=C5)C=C4)cc2)c(-c2cccc([N+](=O)[O-])c2)n1
REMARK SMILES IDX 13 1 12 2 11 3 10 4 8 5 9 6 7 8 5 9 6 10 93 11 83 12 4 13
REMARK SMILES IDX 3 14 2 15 1 16 84 17 85 18 92 19 86 20 88 21 87 22 89 23
REMARK SMILES IDX 90 24 91 25 14 26 15 27 16 28 17 29 18 30 19 32 20 33 21 34
REMARK SMILES IDX 82 35 22 36 81 37 23 38 24 39 25 40 75 41 26 42 80 43 74 44
REMARK SMILES IDX 76 45 27 46 79 47 73 48 72 49 28 51 60 52 40 53 59 54 41 55
REMARK SMILES IDX 44 56 58 57 77 58 42 59 43 60 57 62 78 63 45 64 29 65 30 66
REMARK SMILES IDX 38 67 31 68 37 69 39 70 36 71 32 72 33 73 34 74 35 75 61 76
REMARK SMILES IDX 62 77 70 78 63 79 69 80 71 81 68 82 64 83 65 84 66 85 67 86
REMARK SMILES IDX 46 87 47 88 55 89 48 90 54 91 56 92 53 93 49 94 50 95 51 96
REMARK SMILES IDX 52 97
REMARK H PARENT 10 7 17 31 76 50 44 61
REMARK Flexibility Score: inf
ROOT
ATOM      1  C   UNL A   1      32.226  29.883  26.308  1.00  0.00     0.002 C 
ENDROOT
BRANCH   1   2
ATOM      2  C   UNL A   1      31.652  28.772  27.196  1.00  0.00     0.021 C 
BRANCH   2   3
ATOM      3  C   UNL A   1      32.414  27.459  27.044  1.00  0.00     0.116 C 
BRANCH   3   4
ATOM      4  N   UNL A   1      31.485  26.371  26.865  1.00  0.00    -0.352 N 
ATOM      5  C   UNL A   1      30.723  25.965  25.802  1.00  0.00     0.255 C 
ATOM      6  O   UNL A   1      30.035  24.969  25.987  1.00  0.00    -0.269 OA
ATOM      7  H   UNL A   1      31.377  25.808  27.665  1.00  0.00     0.163 HD
BRANCH   5   8
ATOM      8  C   UNL A   1      30.834  26.624  24.507  1.00  0.00     0.085 A 
ATOM      9  N   UNL A   1      30.724  28.074  22.870  1.00  0.00    -0.270 N 
ATOM     10  C   UNL A   1      30.014  27.554  23.906  1.00  0.00     0.123 A 
ATOM     11  N   UNL A   1      31.852  27.396  22.607  1.00  0.00    -0.172 NA
ATOM     12  C   UNL A   1      31.850  26.406  23.519  1.00  0.00     0.105 A 
BRANCH   9  13
ATOM     13  C   UNL A   1      30.363  29.280  22.151  1.00  0.00     0.159 C 
BRANCH  13  14
ATOM     14  C   UNL A   1      29.250  30.080  22.785  1.00  0.00     0.144 C 
BRANCH  14  15
ATOM     15  C   UNL A   1      28.792  31.166  21.825  1.00  0.00     0.064 C 
ATOM     16  N   UNL A   1      28.412  32.068  21.029  1.00  0.00    -0.198 NA
ENDBRANCH  14  15
ENDBRANCH  13  14
ENDBRANCH   9  13
BRANCH  12  17
ATOM     17  C   UNL A   1      32.816  25.312  23.468  1.00  0.00     0.010 A 
ATOM     18  C   UNL A   1      32.791  24.418  22.381  1.00  0.00     0.011 A 
ATOM     19  C   UNL A   1      33.733  25.112  24.500  1.00  0.00     0.096 A 
ATOM     20  C   UNL A   1      33.614  23.293  22.356  1.00  0.00     0.008 A 
ATOM     21  C   UNL A   1      34.560  23.980  24.468  1.00  0.00     0.270 A 
ATOM     22  C   UNL A   1      34.497  23.062  23.407  1.00  0.00     0.085 A 
BRANCH  21  23
ATOM     23  N   UNL A   1      35.487  23.731  25.577  1.00  0.00     0.062 N 
ATOM     24  O   UNL A   1      36.638  24.182  25.482  1.00  0.00    -0.258 OA
ATOM     25  O   UNL A   1      35.072  23.077  26.545  1.00  0.00    -0.258 OA
ENDBRANCH  21  23
ENDBRANCH  12  17
ENDBRANCH   5   8
ENDBRANCH   3   4
ENDBRANCH   2   3
ENDBRANCH   1   2
BRANCH   1  26
ATOM     26  C   UNL A   1      31.190  30.888  25.773  1.00  0.00     0.002 C 
BRANCH  26  27
ATOM     27  C   UNL A   1      31.133  32.246  26.493  1.00  0.00     0.021 C 
BRANCH  27  28
ATOM     28  C   UNL A   1      32.430  32.605  27.195  1.00  0.00     0.116 C 
BRANCH  28  29
ATOM     29  N   UNL A   1      32.450  34.008  27.624  1.00  0.00    -0.352 N 
ATOM     30  C   UNL A   1      33.138  34.609  28.667  1.00  0.00     0.251 C 
ATOM     31  H   UNL A   1      31.888  34.616  27.090  1.00  0.00     0.163 HD
ATOM     32  O   UNL A   1      32.744  35.666  29.139  1.00  0.00    -0.269 OA
BRANCH  30  33
ATOM     33  C   UNL A   1      34.360  33.960  29.178  1.00  0.00     0.039 A 
ATOM     34  C   UNL A   1      34.409  33.176  30.335  1.00  0.00     0.014 A 
ATOM     35  C   UNL A   1      35.498  34.129  28.414  1.00  0.00     0.014 A 
ATOM     36  C   UNL A   1      35.633  32.610  30.697  1.00  0.00     0.010 A 
ATOM     37  C   UNL A   1      36.496  33.222  28.536  1.00  0.00     0.010 A 
ATOM     38  C   UNL A   1      36.691  32.683  29.787  1.00  0.00    -0.014 A 
BRANCH  38  39
ATOM     39  C   UNL A   1      38.017  32.127  29.987  1.00  0.00     0.031 A 
ATOM     40  C   UNL A   1      38.125  30.744  29.482  1.00  0.00     0.074 A 
ATOM     41  C   UNL A   1      39.097  32.904  30.244  1.00  0.00     0.049 A 
ATOM     42  N   UNL A   1      38.023  29.657  30.172  1.00  0.00    -0.248 NA
ATOM     43  C   UNL A   1      38.049  30.528  28.025  1.00  0.00     0.031 C 
ATOM     44  C   UNL A   1      39.183  34.364  30.382  1.00  0.00     0.029 A 
ATOM     45  N   UNL A   1      40.403  32.537  30.330  1.00  0.00    -0.354 N 
ATOM     46  C   UNL A   1      38.210  28.637  29.252  1.00  0.00     0.074 A 
ATOM     47  C   UNL A   1      37.863  29.208  27.983  1.00  0.00     0.031 C 
ATOM     48  C   UNL A   1      40.478  34.757  30.308  1.00  0.00     0.029 A 
ATOM     49  C   UNL A   1      41.327  33.579  30.254  1.00  0.00     0.049 A 
ATOM     50  H   UNL A   1      40.678  31.597  30.440  1.00  0.00     0.167 HD
ATOM     51  C   UNL A   1      38.975  27.550  29.558  1.00  0.00     0.034 A 
ATOM     52  C   UNL A   1      42.678  33.449  30.096  1.00  0.00     0.034 A 
ATOM     53  C   UNL A   1      39.287  27.540  30.978  1.00  0.00     0.049 A 
ATOM     54  C   UNL A   1      43.008  32.058  30.530  1.00  0.00     0.074 A 
ATOM     55  C   UNL A   1      38.529  27.605  32.134  1.00  0.00     0.029 A 
ATOM     56  N   UNL A   1      40.562  27.911  31.362  1.00  0.00    -0.354 N 
ATOM     57  N   UNL A   1      42.846  31.642  31.760  1.00  0.00    -0.248 NA
ATOM     58  C   UNL A   1      42.965  31.008  29.517  1.00  0.00     0.031 C 
ATOM     59  C   UNL A   1      39.234  28.514  32.979  1.00  0.00     0.029 A 
ATOM     60  C   UNL A   1      40.441  28.847  32.360  1.00  0.00     0.049 A 
ATOM     61  H   UNL A   1      41.406  27.566  30.988  1.00  0.00     0.167 HD
ATOM     62  C   UNL A   1      42.260  30.387  31.648  1.00  0.00     0.074 A 
ATOM     63  C   UNL A   1      42.423  30.021  30.239  1.00  0.00     0.031 C 
ATOM     64  C   UNL A   1      41.412  29.902  32.607  1.00  0.00     0.034 A 
BRANCH  51  65
ATOM     65  C   UNL A   1      39.799  26.750  28.564  1.00  0.00     0.023 A 
ATOM     66  C   UNL A   1      40.905  27.419  28.007  1.00  0.00     0.031 A 
ATOM     67  C   UNL A   1      39.445  25.537  27.930  1.00  0.00     0.131 A 
ATOM     68  C   UNL A   1      41.482  26.989  26.803  1.00  0.00     0.055 A 
ATOM     69  C   UNL A   1      40.070  25.075  26.768  1.00  0.00     0.041 A 
ATOM     70  F   UNL A   1      38.441  24.756  28.337  1.00  0.00    -0.206 F 
ATOM     71  C   UNL A   1      41.066  25.824  26.171  1.00  0.00     0.022 A 
BRANCH  68  72
ATOM     72  S   UNL A   1      42.645  28.104  25.984  1.00  0.00     0.124 S 
ATOM     73  O   UNL A   1      42.212  29.397  26.502  1.00  0.00    -0.237 OA
ATOM     74  O   UNL A   1      43.927  27.608  26.476  1.00  0.00    -0.237 OA
ATOM     75  O   UNL A   1      42.389  27.876  24.566  1.00  0.00    -0.744 OA
ENDBRANCH  68  72
ENDBRANCH  51  65
BRANCH  52  76
ATOM     76  C   UNL A   1      43.583  34.303  29.255  1.00  0.00     0.023 A 
ATOM     77  C   UNL A   1      44.092  33.910  27.992  1.00  0.00     0.031 A 
ATOM     78  C   UNL A   1      43.780  35.660  29.604  1.00  0.00     0.131 A 
ATOM     79  C   UNL A   1      44.759  34.849  27.158  1.00  0.00     0.055 A 
ATOM     80  C   UNL A   1      44.438  36.578  28.779  1.00  0.00     0.041 A 
ATOM     81  F   UNL A   1      43.263  36.171  30.732  1.00  0.00    -0.206 F 
ATOM     82  C   UNL A   1      44.923  36.179  27.548  1.00  0.00     0.022 A 
BRANCH  79  83
ATOM     83  S   UNL A   1      45.366  34.379  25.498  1.00  0.00     0.124 S 
ATOM     84  O   UNL A   1      46.362  35.409  25.228  1.00  0.00    -0.237 OA
ATOM     85  O   UNL A   1      45.871  33.029  25.718  1.00  0.00    -0.237 OA
ATOM     86  O   UNL A   1      44.167  34.450  24.661  1.00  0.00    -0.744 OA
ENDBRANCH  79  83
ENDBRANCH  52  76
BRANCH  64  87
ATOM     87  C   UNL A   1      41.315  30.607  33.949  1.00  0.00     0.023 A 
ATOM     88  C   UNL A   1      40.336  31.564  34.310  1.00  0.00     0.031 A 
ATOM     89  C   UNL A   1      42.184  30.159  34.961  1.00  0.00     0.131 A 
ATOM     90  C   UNL A   1      40.264  32.031  35.641  1.00  0.00     0.055 A 
ATOM     91  C   UNL A   1      42.093  30.603  36.278  1.00  0.00     0.041 A 
ATOM     92  F   UNL A   1      43.120  29.233  34.692  1.00  0.00    -0.206 F 
ATOM     93  C   UNL A   1      41.134  31.546  36.622  1.00  0.00     0.022 A 
BRANCH  90  94
ATOM     94  S   UNL A   1      39.047  33.300  36.129  1.00  0.00     0.124 S 
ATOM     95  O   UNL A   1      38.752  32.972  37.519  1.00  0.00    -0.237 OA
ATOM     96  O   UNL A   1      39.782  34.543  35.908  1.00  0.00    -0.237 OA
ATOM     97  O   UNL A   1      37.935  33.078  35.203  1.00  0.00    -0.744 OA
ENDBRANCH  90  94
ENDBRANCH  64  87
ENDBRANCH  38  39
ENDBRANCH  30  33
ENDBRANCH  28  29
ENDBRANCH  27  28
ENDBRANCH  26  27
ENDBRANCH   1  26
TORSDOF 21
ENDMDL
MODEL 2
REMARK VINA RESULT:     -11.2      3.819      8.173
REMARK SMILES N#CCCn1cc(C(=O)NCCCCCCNC(=O)c2ccc(-c3c4nc(c(-c5cc(S(=O)(=O)[O-])ccc5F)c5ccc([nH]5)c(-c5cc(S(=O)(=O)[O-])ccc5F)c5nc(c(-c6cc(S(=O)(=O)[O-])ccc6F)c6ccc3[nH]6)C=C5)C=C4)cc2)c(-c2cccc([N+](=O)[O-])c2)n1
REMARK SMILES IDX 13 1 12 2 11 3 10 4 8 5 9 6 7 8 5 9 6 10 93 11 83 12 4 13
REMARK SMILES IDX 3 14 2 15 1 16 84 17 85 18 92 19 86 20 88 21 87 22 89 23
REMARK SMILES IDX 90 24 91 25 14 26 15 27 16 28 17 29 18 30 19 32 20 33 21 34
REMARK SMILES IDX 82 35 22 36 81 37 23 38 24 39 25 40 75 41 26 42 80 43 74 44
REMARK SMILES IDX 76 45 27 46 79 47 73 48 72 49 28 51 60 52 40 53 59 54 41 55
REMARK SMILES IDX 44 56 58 57 77 58 42 59 43 60 57 62 78 63 45 64 29 65 30 66
REMARK SMILES IDX 38 67 31 68 37 69 39 70 36 71 32 72 33 73 34 74 35 75 61 76
REMARK SMILES IDX 62 77 70 78 63 79 69 80 71 81 68 82 64 83 65 84 66 85 67 86
REMARK SMILES IDX 46 87 47 88 55 89 48 90 54 91 56 92 53 93 49 94 50 95 51 96
REMARK SMILES IDX 52 97
REMARK H PARENT 10 7 17 31 76 50 44 61
REMARK Flexibility Score: inf
ROOT
ATOM      1  C   UNL A   1      33.679  26.368  25.433  1.00  0.00     0.002 C 
ENDROOT
BRANCH   1   2
ATOM      2  C   UNL A   1      32.744  25.512  26.295  1.00  0.00     0.021 C 
BRANCH   2   3
ATOM      3  C   UNL A   1      33.349  24.150  26.626  1.00  0.00     0.116 C 
BRANCH   3   4
ATOM      4  N   UNL A   1      34.671  24.050  26.059  1.00  0.00    -0.352 N 
ATOM      5  C   UNL A   1      35.288  23.088  25.305  1.00  0.00     0.255 C 
ATOM      6  O   UNL A   1      36.442  23.329  24.972  1.00  0.00    -0.269 OA
ATOM      7  H   UNL A   1      35.244  24.826  26.254  1.00  0.00     0.163 HD
BRANCH   5   8
ATOM      8  C   UNL A   1      34.556  21.918  24.840  1.00  0.00     0.085 A 
ATOM      9  N   UNL A   1      33.748  19.895  24.620  1.00  0.00    -0.270 N 
ATOM     10  C   UNL A   1      34.891  20.581  24.879  1.00  0.00     0.123 A 
ATOM     11  N   UNL A   1      32.745  20.676  24.191  1.00  0.00    -0.172 NA
ATOM     12  C   UNL A   1      33.283  21.910  24.179  1.00  0.00     0.105 A 
BRANCH   9  13
ATOM     13  C   UNL A   1      33.575  18.472  24.846  1.00  0.00     0.159 C 
BRANCH  13  14
ATOM     14  C   UNL A   1      34.554  17.595  24.103  1.00  0.00     0.144 C 
BRANCH  14  15
ATOM     15  C   UNL A   1      34.594  16.218  24.744  1.00  0.00     0.064 C 
ATOM     16  N   UNL A   1      34.628  15.074  25.276  1.00  0.00    -0.198 NA
ENDBRANCH  14  15
ENDBRANCH  13  14
ENDBRANCH   9  13
BRANCH  12  17
ATOM     17  C   UNL A   1      32.583  23.048  23.590  1.00  0.00     0.010 A 
ATOM     18  C   UNL A   1      31.225  23.258  23.896  1.00  0.00     0.011 A 
ATOM     19  C   UNL A   1      33.225  23.904  22.695  1.00  0.00     0.096 A 
ATOM     20  C   UNL A   1      30.491  24.259  23.262  1.00  0.00     0.008 A 
ATOM     21  C   UNL A   1      32.482  24.911  22.062  1.00  0.00     0.270 A 
ATOM     22  C   UNL A   1      31.115  25.085  22.331  1.00  0.00     0.085 A 
BRANCH  21  23
ATOM     23  N   UNL A   1      33.135  25.778  21.076  1.00  0.00     0.062 N 
ATOM     24  O   UNL A   1      33.905  26.655  21.497  1.00  0.00    -0.258 OA
ATOM     25  O   UNL A   1      32.876  25.594  19.878  1.00  0.00    -0.258 OA
ENDBRANCH  21  23
ENDBRANCH  12  17
ENDBRANCH   5   8
ENDBRANCH   3   4
ENDBRANCH   2   3
ENDBRANCH   1   2
BRANCH   1  26
ATOM     26  C   UNL A   1      33.405  27.882  25.484  1.00  0.00     0.002 C 
BRANCH  26  27
ATOM     27  C   UNL A   1      33.252  28.494  26.887  1.00  0.00     0.021 C 
BRANCH  27  28
ATOM     28  C   UNL A   1      34.539  29.103  27.415  1.00  0.00     0.116 C 
BRANCH  28  29
ATOM     29  N   UNL A   1      34.556  30.562  27.261  1.00  0.00    -0.352 N 
ATOM     30  C   UNL A   1      35.411  31.504  27.813  1.00  0.00     0.251 C 
ATOM     31  H   UNL A   1      33.852  30.929  26.679  1.00  0.00     0.163 HD
ATOM     32  O   UNL A   1      35.058  32.670  27.923  1.00  0.00    -0.269 OA
BRANCH  30  33
ATOM     33  C   UNL A   1      36.755  31.077  28.242  1.00  0.00     0.039 A 
ATOM     34  C   UNL A   1      37.520  31.738  29.209  1.00  0.00     0.014 A 
ATOM     35  C   UNL A   1      37.238  29.922  27.657  1.00  0.00     0.014 A 
ATOM     36  C   UNL A   1      38.775  31.215  29.530  1.00  0.00     0.010 A 
ATOM     37  C   UNL A   1      38.200  29.225  28.307  1.00  0.00     0.010 A 
ATOM     38  C   UNL A   1      39.116  29.958  29.025  1.00  0.00    -0.014 A 
BRANCH  38  39
ATOM     39  C   UNL A   1      40.360  29.256  29.280  1.00  0.00     0.031 A 
ATOM     40  C   UNL A   1      40.638  29.113  30.722  1.00  0.00     0.074 A 
ATOM     41  C   UNL A   1      40.974  28.504  28.334  1.00  0.00     0.049 A 
ATOM     42  N   UNL A   1      41.402  29.864  31.442  1.00  0.00    -0.248 NA
ATOM     43  C   UNL A   1      39.759  28.231  31.514  1.00  0.00     0.031 C 
ATOM     44  C   UNL A   1      40.574  28.246  26.944  1.00  0.00     0.029 A 
ATOM     45  N   UNL A   1      42.063  27.702  28.465  1.00  0.00    -0.354 N 
ATOM     46  C   UNL A   1      41.339  29.314  32.714  1.00  0.00     0.074 A 
ATOM     47  C   UNL A   1      40.098  28.597  32.751  1.00  0.00     0.031 C 
ATOM     48  C   UNL A   1      41.273  27.194  26.452  1.00  0.00     0.029 A 
ATOM     49  C   UNL A   1      42.264  26.785  27.433  1.00  0.00     0.049 A 
ATOM     50  H   UNL A   1      42.672  27.765  29.237  1.00  0.00     0.167 HD
ATOM     51  C   UNL A   1      42.461  29.189  33.479  1.00  0.00     0.034 A 
ATOM     52  C   UNL A   1      43.144  25.740  27.442  1.00  0.00     0.034 A 
ATOM     53  C   UNL A   1      43.564  29.922  32.876  1.00  0.00     0.049 A 
ATOM     54  C   UNL A   1      44.160  26.070  28.485  1.00  0.00     0.074 A 
ATOM     55  C   UNL A   1      43.735  31.227  32.448  1.00  0.00     0.029 A 
ATOM     56  N   UNL A   1      44.542  29.196  32.222  1.00  0.00    -0.354 N 
ATOM     57  N   UNL A   1      44.969  27.095  28.388  1.00  0.00    -0.248 NA
ATOM     58  C   UNL A   1      43.893  25.629  29.850  1.00  0.00     0.031 C 
ATOM     59  C   UNL A   1      44.408  31.112  31.194  1.00  0.00     0.029 A 
ATOM     60  C   UNL A   1      44.729  29.768  30.987  1.00  0.00     0.049 A 
ATOM     61  H   UNL A   1      45.019  28.411  32.577  1.00  0.00     0.167 HD
ATOM     62  C   UNL A   1      44.965  27.686  29.646  1.00  0.00     0.074 A 
ATOM     63  C   UNL A   1      44.337  26.696  30.524  1.00  0.00     0.031 C 
ATOM     64  C   UNL A   1      45.158  29.032  29.808  1.00  0.00     0.034 A 
BRANCH  51  65
ATOM     65  C   UNL A   1      42.709  28.091  34.498  1.00  0.00     0.023 A 
ATOM     66  C   UNL A   1      43.654  27.115  34.130  1.00  0.00     0.031 A 
ATOM     67  C   UNL A   1      41.926  27.775  35.632  1.00  0.00     0.131 A 
ATOM     68  C   UNL A   1      43.674  25.854  34.745  1.00  0.00     0.055 A 
ATOM     69  C   UNL A   1      41.998  26.543  36.288  1.00  0.00     0.041 A 
ATOM     70  F   UNL A   1      41.000  28.592  36.141  1.00  0.00    -0.206 F 
ATOM     71  C   UNL A   1      42.843  25.555  35.818  1.00  0.00     0.022 A 
BRANCH  68  72
ATOM     72  S   UNL A   1      44.664  24.557  33.971  1.00  0.00     0.124 S 
ATOM     73  O   UNL A   1      44.963  23.705  35.117  1.00  0.00    -0.237 OA
ATOM     74  O   UNL A   1      43.728  24.015  32.990  1.00  0.00    -0.237 OA
ATOM     75  O   UNL A   1      45.799  25.286  33.415  1.00  0.00    -0.744 OA
ENDBRANCH  68  72
ENDBRANCH  51  65
BRANCH  52  76
ATOM     76  C   UNL A   1      42.926  24.360  26.891  1.00  0.00     0.023 A 
ATOM     77  C   UNL A   1      43.801  23.727  25.974  1.00  0.00     0.031 A 
ATOM     78  C   UNL A   1      41.927  23.534  27.461  1.00  0.00     0.131 A 
ATOM     79  C   UNL A   1      43.650  22.347  25.666  1.00  0.00     0.055 A 
ATOM     80  C   UNL A   1      41.785  22.177  27.154  1.00  0.00     0.041 A 
ATOM     81  F   UNL A   1      41.100  23.997  28.411  1.00  0.00    -0.206 F 
ATOM     82  C   UNL A   1      42.651  21.575  26.261  1.00  0.00     0.022 A 
BRANCH  79  83
ATOM     83  S   UNL A   1      44.808  21.496  24.535  1.00  0.00     0.124 S 
ATOM     84  O   UNL A   1      44.655  22.258  23.302  1.00  0.00    -0.237 OA
ATOM     85  O   UNL A   1      46.083  21.632  25.229  1.00  0.00    -0.237 OA
ATOM     86  O   UNL A   1      44.290  20.128  24.478  1.00  0.00    -0.744 OA
ENDBRANCH  79  83
ENDBRANCH  52  76
BRANCH  64  87
ATOM     87  C   UNL A   1      45.662  29.864  28.641  1.00  0.00     0.023 A 
ATOM     88  C   UNL A   1      44.961  30.924  28.019  1.00  0.00     0.031 A 
ATOM     89  C   UNL A   1      46.996  29.652  28.246  1.00  0.00     0.131 A 
ATOM     90  C   UNL A   1      45.604  31.718  27.043  1.00  0.00     0.055 A 
ATOM     91  C   UNL A   1      47.634  30.453  27.302  1.00  0.00     0.041 A 
ATOM     92  F   UNL A   1      47.726  28.677  28.814  1.00  0.00    -0.206 F 
ATOM     93  C   UNL A   1      46.938  31.488  26.693  1.00  0.00     0.022 A 
BRANCH  90  94
ATOM     94  S   UNL A   1      44.715  33.062  26.187  1.00  0.00     0.124 S 
ATOM     95  O   UNL A   1      43.921  33.673  27.246  1.00  0.00    -0.237 OA
ATOM     96  O   UNL A   1      45.807  33.875  25.657  1.00  0.00    -0.237 OA
ATOM     97  O   UNL A   1      43.933  32.358  25.169  1.00  0.00    -0.744 OA
ENDBRANCH  90  94
ENDBRANCH  64  87
ENDBRANCH  38  39
ENDBRANCH  30  33
ENDBRANCH  28  29
ENDBRANCH  27  28
ENDBRANCH  26  27
ENDBRANCH   1  26
TORSDOF 21
ENDMDL
MODEL 3
REMARK VINA RESULT:     -10.9      3.610      8.261
REMARK SMILES N#CCCn1cc(C(=O)NCCCCCCNC(=O)c2ccc(-c3c4nc(c(-c5cc(S(=O)(=O)[O-])ccc5F)c5ccc([nH]5)c(-c5cc(S(=O)(=O)[O-])ccc5F)c5nc(c(-c6cc(S(=O)(=O)[O-])ccc6F)c6ccc3[nH]6)C=C5)C=C4)cc2)c(-c2cccc([N+](=O)[O-])c2)n1
REMARK SMILES IDX 13 1 12 2 11 3 10 4 8 5 9 6 7 8 5 9 6 10 93 11 83 12 4 13
REMARK SMILES IDX 3 14 2 15 1 16 84 17 85 18 92 19 86 20 88 21 87 22 89 23
REMARK SMILES IDX 90 24 91 25 14 26 15 27 16 28 17 29 18 30 19 32 20 33 21 34
REMARK SMILES IDX 82 35 22 36 81 37 23 38 24 39 25 40 75 41 26 42 80 43 74 44
REMARK SMILES IDX 76 45 27 46 79 47 73 48 72 49 28 51 60 52 40 53 59 54 41 55
REMARK SMILES IDX 44 56 58 57 77 58 42 59 43 60 57 62 78 63 45 64 29 65 30 66
REMARK SMILES IDX 38 67 31 68 37 69 39 70 36 71 32 72 33 73 34 74 35 75 61 76
REMARK SMILES IDX 62 77 70 78 63 79 69 80 71 81 68 82 64 83 65 84 66 85 67 86
REMARK SMILES IDX 46 87 47 88 55 89 48 90 54 91 56 92 53 93 49 94 50 95 51 96
REMARK SMILES IDX 52 97
REMARK H PARENT 10 7 17 31 76 50 44 61
REMARK Flexibility Score: inf
ROOT
ATOM      1  C   UNL A   1      33.825  25.685  25.588  1.00  0.00     0.002 C 
ENDROOT
BRANCH   1   2
ATOM      2  C   UNL A   1      32.971  24.937  26.619  1.00  0.00     0.021 C 
BRANCH   2   3
ATOM      3  C   UNL A   1      33.355  23.464  26.728  1.00  0.00     0.116 C 
BRANCH   3   4
ATOM      4  N   UNL A   1      34.622  23.238  26.078  1.00  0.00    -0.352 N 
ATOM      5  C   UNL A   1      35.054  22.291  25.188  1.00  0.00     0.255 C 
ATOM      6  O   UNL A   1      36.216  22.398  24.817  1.00  0.00    -0.269 OA
ATOM      7  H   UNL A   1      35.314  23.894  26.322  1.00  0.00     0.163 HD
BRANCH   5   8
ATOM      8  C   UNL A   1      34.134  21.303  24.642  1.00  0.00     0.085 A 
ATOM      9  N   UNL A   1      33.007  19.464  24.261  1.00  0.00    -0.270 N 
ATOM     10  C   UNL A   1      34.252  19.933  24.541  1.00  0.00     0.123 A 
ATOM     11  N   UNL A   1      32.133  20.432  23.946  1.00  0.00    -0.172 NA
ATOM     12  C   UNL A   1      32.862  21.561  24.031  1.00  0.00     0.105 A 
BRANCH   9  13
ATOM     13  C   UNL A   1      32.614  18.071  24.357  1.00  0.00     0.159 C 
BRANCH  13  14
ATOM     14  C   UNL A   1      32.910  17.426  25.690  1.00  0.00     0.144 C 
BRANCH  14  15
ATOM     15  C   UNL A   1      33.078  15.926  25.504  1.00  0.00     0.064 C 
ATOM     16  N   UNL A   1      33.217  14.682  25.350  1.00  0.00    -0.198 NA
ENDBRANCH  14  15
ENDBRANCH  13  14
ENDBRANCH   9  13
BRANCH  12  17
ATOM     17  C   UNL A   1      32.340  22.849  23.580  1.00  0.00     0.010 A 
ATOM     18  C   UNL A   1      31.077  23.277  24.028  1.00  0.00     0.011 A 
ATOM     19  C   UNL A   1      33.053  23.638  22.678  1.00  0.00     0.096 A 
ATOM     20  C   UNL A   1      30.493  24.440  23.526  1.00  0.00     0.008 A 
ATOM     21  C   UNL A   1      32.462  24.808  22.179  1.00  0.00     0.270 A 
ATOM     22  C   UNL A   1      31.179  25.206  22.589  1.00  0.00     0.085 A 
BRANCH  21  23
ATOM     23  N   UNL A   1      33.180  25.614  21.187  1.00  0.00     0.062 N 
ATOM     24  O   UNL A   1      32.979  25.370  19.988  1.00  0.00    -0.258 OA
ATOM     25  O   UNL A   1      33.956  26.487  21.600  1.00  0.00    -0.258 OA
ENDBRANCH  21  23
ENDBRANCH  12  17
ENDBRANCH   5   8
ENDBRANCH   3   4
ENDBRANCH   2   3
ENDBRANCH   1   2
BRANCH   1  26
ATOM     26  C   UNL A   1      33.242  27.028  25.113  1.00  0.00     0.002 C 
BRANCH  26  27
ATOM     27  C   UNL A   1      33.011  28.088  26.206  1.00  0.00     0.021 C 
BRANCH  27  28
ATOM     28  C   UNL A   1      34.261  28.881  26.541  1.00  0.00     0.116 C 
BRANCH  28  29
ATOM     29  N   UNL A   1      33.958  30.292  26.805  1.00  0.00    -0.352 N 
ATOM     30  C   UNL A   1      34.570  31.186  27.670  1.00  0.00     0.251 C 
ATOM     31  H   UNL A   1      33.203  30.661  26.290  1.00  0.00     0.163 HD
ATOM     32  O   UNL A   1      33.964  32.170  28.073  1.00  0.00    -0.269 OA
BRANCH  30  33
ATOM     33  C   UNL A   1      35.965  30.937  28.077  1.00  0.00     0.039 A 
ATOM     34  C   UNL A   1      36.794  31.894  28.671  1.00  0.00     0.014 A 
ATOM     35  C   UNL A   1      36.433  29.653  27.877  1.00  0.00     0.014 A 
ATOM     36  C   UNL A   1      38.094  31.518  29.018  1.00  0.00     0.010 A 
ATOM     37  C   UNL A   1      37.480  29.226  28.622  1.00  0.00     0.010 A 
ATOM     38  C   UNL A   1      38.433  30.165  28.945  1.00  0.00    -0.014 A 
BRANCH  38  39
ATOM     39  C   UNL A   1      39.722  29.597  29.292  1.00  0.00     0.031 A 
ATOM     40  C   UNL A   1      39.930  29.532  30.752  1.00  0.00     0.074 A 
ATOM     41  C   UNL A   1      40.458  28.877  28.411  1.00  0.00     0.049 A 
ATOM     42  N   UNL A   1      40.576  30.379  31.481  1.00  0.00    -0.248 NA
ATOM     43  C   UNL A   1      39.096  28.596  31.531  1.00  0.00     0.031 C 
ATOM     44  C   UNL A   1      40.164  28.533  27.013  1.00  0.00     0.029 A 
ATOM     45  N   UNL A   1      41.610  28.191  28.632  1.00  0.00    -0.354 N 
ATOM     46  C   UNL A   1      40.494  29.870  32.769  1.00  0.00     0.074 A 
ATOM     47  C   UNL A   1      39.327  29.036  32.769  1.00  0.00     0.031 C 
ATOM     48  C   UNL A   1      40.989  27.539  26.601  1.00  0.00     0.029 A 
ATOM     49  C   UNL A   1      41.956  27.263  27.649  1.00  0.00     0.049 A 
ATOM     50  H   UNL A   1      42.165  28.340  29.432  1.00  0.00     0.167 HD
ATOM     51  C   UNL A   1      41.578  29.881  33.597  1.00  0.00     0.034 A 
ATOM     52  C   UNL A   1      42.931  26.310  27.747  1.00  0.00     0.034 A 
ATOM     53  C   UNL A   1      42.637  30.698  33.025  1.00  0.00     0.049 A 
ATOM     54  C   UNL A   1      43.850  26.775  28.829  1.00  0.00     0.074 A 
ATOM     55  C   UNL A   1      42.707  31.998  32.555  1.00  0.00     0.029 A 
ATOM     56  N   UNL A   1      43.716  30.049  32.454  1.00  0.00    -0.354 N 
ATOM     57  N   UNL A   1      44.561  27.870  28.734  1.00  0.00    -0.248 NA
ATOM     58  C   UNL A   1      43.549  26.356  30.194  1.00  0.00     0.031 C 
ATOM     59  C   UNL A   1      43.457  31.906  31.344  1.00  0.00     0.029 A 
ATOM     60  C   UNL A   1      43.918  30.594  31.208  1.00  0.00     0.049 A 
ATOM     61  H   UNL A   1      44.245  29.327  32.864  1.00  0.00     0.167 HD
ATOM     62  C   UNL A   1      44.428  28.501  29.965  1.00  0.00     0.074 A 
ATOM     63  C   UNL A   1      43.849  27.484  30.848  1.00  0.00     0.031 C 
ATOM     64  C   UNL A   1      44.481  29.864  30.084  1.00  0.00     0.034 A 
BRANCH  51  65
ATOM     65  C   UNL A   1      41.872  28.849  34.671  1.00  0.00     0.023 A 
ATOM     66  C   UNL A   1      42.668  29.290  35.744  1.00  0.00     0.031 A 
ATOM     67  C   UNL A   1      41.682  27.450  34.595  1.00  0.00     0.131 A 
ATOM     68  C   UNL A   1      43.361  28.380  36.557  1.00  0.00     0.055 A 
ATOM     69  C   UNL A   1      42.319  26.548  35.453  1.00  0.00     0.041 A 
ATOM     70  F   UNL A   1      40.936  26.854  33.662  1.00  0.00    -0.206 F 
ATOM     71  C   UNL A   1      43.201  27.008  36.413  1.00  0.00     0.022 A 
BRANCH  68  72
ATOM     72  S   UNL A   1      44.629  29.039  37.663  1.00  0.00     0.124 S 
ATOM     73  O   UNL A   1      45.815  28.956  36.817  1.00  0.00    -0.237 OA
ATOM     74  O   UNL A   1      44.120  30.380  37.931  1.00  0.00    -0.237 OA
ATOM     75  O   UNL A   1      44.598  28.119  38.795  1.00  0.00    -0.744 OA
ENDBRANCH  68  72
ENDBRANCH  51  65
BRANCH  52  76
ATOM     76  C   UNL A   1      42.878  24.897  27.240  1.00  0.00     0.023 A 
ATOM     77  C   UNL A   1      43.867  24.318  26.408  1.00  0.00     0.031 A 
ATOM     78  C   UNL A   1      41.923  24.002  27.779  1.00  0.00     0.131 A 
ATOM     79  C   UNL A   1      43.865  22.920  26.148  1.00  0.00     0.055 A 
ATOM     80  C   UNL A   1      41.927  22.628  27.519  1.00  0.00     0.041 A 
ATOM     81  F   UNL A   1      40.994  24.418  28.653  1.00  0.00    -0.206 F 
ATOM     82  C   UNL A   1      42.903  22.078  26.709  1.00  0.00     0.022 A 
BRANCH  79  83
ATOM     83  S   UNL A   1      45.170  22.142  25.130  1.00  0.00     0.124 S 
ATOM     84  O   UNL A   1      44.846  22.620  23.791  1.00  0.00    -0.237 OA
ATOM     85  O   UNL A   1      46.392  22.667  25.730  1.00  0.00    -0.237 OA
ATOM     86  O   UNL A   1      44.959  20.709  25.337  1.00  0.00    -0.744 OA
ENDBRANCH  79  83
ENDBRANCH  52  76
BRANCH  64  87
ATOM     87  C   UNL A   1      44.969  30.700  28.913  1.00  0.00     0.023 A 
ATOM     88  C   UNL A   1      46.321  30.997  28.616  1.00  0.00     0.031 A 
ATOM     89  C   UNL A   1      44.000  31.086  27.968  1.00  0.00     0.131 A 
ATOM     90  C   UNL A   1      46.650  31.656  27.412  1.00  0.00     0.055 A 
ATOM     91  C   UNL A   1      44.332  31.714  26.769  1.00  0.00     0.041 A 
ATOM     92  F   UNL A   1      42.701  30.814  28.176  1.00  0.00    -0.206 F 
ATOM     93  C   UNL A   1      45.659  32.006  26.489  1.00  0.00     0.022 A 
BRANCH  90  94
ATOM     94  S   UNL A   1      48.377  32.097  27.020  1.00  0.00     0.124 S 
ATOM     95  O   UNL A   1      48.242  33.175  26.048  1.00  0.00    -0.237 OA
ATOM     96  O   UNL A   1      48.909  32.477  28.327  1.00  0.00    -0.237 OA
ATOM     97  O   UNL A   1      48.930  30.854  26.478  1.00  0.00    -0.744 OA
ENDBRANCH  90  94
ENDBRANCH  64  87
ENDBRANCH  38  39
ENDBRANCH  30  33
ENDBRANCH  28  29
ENDBRANCH  27  28
ENDBRANCH  26  27
ENDBRANCH   1  26
TORSDOF 21
ENDMDL
