MODEL 1
REMARK VINA RESULT:     -12.0      0.000      0.000
REMARK SMILES Cc1cc(F)cc(N[C@@](C)(C(=O)NCCCCCCNC(=O)c2ccc(-c3c4nc(c(-c5cc(S(=O)(=O)[O-])ccc5F)c5ccc([nH]5)c(-c5cc(S(=O)(=O)[O-])ccc5F)c5nc(c(-c6cc(S(=O)(=O)[O-])ccc6F)c6ccc3[nH]6)C=C5)C=C4)cc2)c2ccc(O)cc2)c1
REMARK SMILES IDX 17 1 16 2 15 3 14 4 13 5 11 6 12 7 9 9 10 10 8 11 7 13 1 14
REMARK SMILES IDX 2 15 3 16 93 17 4 18 5 19 6 20 86 21 87 22 92 23 88 24 91 25
REMARK SMILES IDX 89 26 90 27 18 29 19 30 20 31 21 32 22 34 23 35 24 36 85 37
REMARK SMILES IDX 25 38 84 39 26 40 27 41 28 42 78 43 29 44 83 45 77 46 79 47
REMARK SMILES IDX 30 48 82 49 76 50 75 51 31 53 63 54 43 55 62 56 44 57 47 58
REMARK SMILES IDX 61 59 80 60 45 61 46 62 60 64 81 65 48 66 32 67 33 68 41 69
REMARK SMILES IDX 34 70 40 71 42 72 39 73 35 74 36 75 37 76 38 77 64 78 65 79
REMARK SMILES IDX 73 80 66 81 72 82 74 83 71 84 67 85 68 86 69 87 70 88 49 89
REMARK SMILES IDX 50 90 58 91 51 92 57 93 59 94 56 95 52 96 53 97 54 98 55 99
REMARK H PARENT 13 8 8 12 90 28 20 33 79 52 47 63
REMARK Flexibility Score: inf
ROOT
ATOM      1  C   UNL A   1      31.837  30.447  26.050  1.00  0.00     0.002 C 
ENDROOT
BRANCH   1   2
ATOM      2  C   UNL A   1      31.749  29.193  26.926  1.00  0.00     0.002 C 
BRANCH   2   3
ATOM      3  C   UNL A   1      33.073  28.452  27.146  1.00  0.00     0.021 C 
BRANCH   3   4
ATOM      4  C   UNL A   1      33.293  27.254  26.224  1.00  0.00     0.116 C 
BRANCH   4   5
ATOM      5  N   UNL A   1      32.383  26.172  26.541  1.00  0.00    -0.354 N 
ATOM      6  C   UNL A   1      31.530  25.422  25.778  1.00  0.00     0.250 C 
ATOM      7  O   UNL A   1      30.722  24.761  26.442  1.00  0.00    -0.272 OA
ATOM      8  H   UNL A   1      32.376  25.929  27.495  1.00  0.00     0.163 HD
BRANCH   6   9
ATOM      9  C   UNL A   1      31.577  25.416  24.188  1.00  0.00     0.139 C 
ATOM     10  C   UNL A   1      30.554  24.398  23.624  1.00  0.00     0.051 C 
BRANCH   9  11
ATOM     11  N   UNL A   1      32.944  24.971  23.786  1.00  0.00    -0.368 N 
ATOM     12  H   UNL A   1      33.298  25.438  22.995  1.00  0.00     0.161 HD
BRANCH  11  13
ATOM     13  C   UNL A   1      33.809  24.029  24.310  1.00  0.00     0.038 A 
ATOM     14  C   UNL A   1      33.784  20.200  24.606  1.00  0.00     0.044 C 
ATOM     15  C   UNL A   1      34.266  21.619  24.594  1.00  0.00    -0.046 A 
ATOM     16  C   UNL A   1      35.616  21.901  24.788  1.00  0.00     0.042 A 
ATOM     17  C   UNL A   1      33.386  22.684  24.325  1.00  0.00     0.029 A 
ATOM     18  C   UNL A   1      36.029  23.224  24.856  1.00  0.00     0.125 A 
ATOM     19  F   UNL A   1      37.328  23.493  25.049  1.00  0.00    -0.207 F 
ATOM     20  C   UNL A   1      35.129  24.274  24.687  1.00  0.00     0.065 A 
ENDBRANCH  11  13
ENDBRANCH   9  11
BRANCH   9  21
ATOM     21  C   UNL A   1      31.127  26.757  23.534  1.00  0.00    -0.013 A 
ATOM     22  C   UNL A   1      32.031  27.553  22.800  1.00  0.00     0.010 A 
ATOM     23  C   UNL A   1      29.797  27.214  23.609  1.00  0.00     0.010 A 
ATOM     24  C   UNL A   1      31.682  28.833  22.365  1.00  0.00     0.046 A 
ATOM     25  C   UNL A   1      29.436  28.485  23.155  1.00  0.00     0.046 A 
ATOM     26  C   UNL A   1      30.396  29.302  22.579  1.00  0.00     0.115 A 
BRANCH  26  27
ATOM     27  O   UNL A   1      30.106  30.584  22.216  1.00  0.00    -0.508 OA
ATOM     28  H   UNL A   1      29.223  30.896  22.262  1.00  0.00     0.293 HD
ENDBRANCH  26  27
ENDBRANCH   9  21
ENDBRANCH   6   9
ENDBRANCH   4   5
ENDBRANCH   3   4
ENDBRANCH   2   3
ENDBRANCH   1   2
BRANCH   1  29
ATOM     29  C   UNL A   1      31.588  31.770  26.779  1.00  0.00     0.021 C 
BRANCH  29  30
ATOM     30  C   UNL A   1      32.845  32.466  27.289  1.00  0.00     0.116 C 
BRANCH  30  31
ATOM     31  N   UNL A   1      32.614  33.869  27.584  1.00  0.00    -0.352 N 
ATOM     32  C   UNL A   1      33.185  34.661  28.550  1.00  0.00     0.251 C 
ATOM     33  H   UNL A   1      31.954  34.317  27.007  1.00  0.00     0.163 HD
ATOM     34  O   UNL A   1      32.718  35.770  28.779  1.00  0.00    -0.269 OA
BRANCH  32  35
ATOM     35  C   UNL A   1      34.341  34.159  29.327  1.00  0.00     0.039 A 
ATOM     36  C   UNL A   1      34.104  33.377  30.459  1.00  0.00     0.014 A 
ATOM     37  C   UNL A   1      35.651  34.457  28.942  1.00  0.00     0.014 A 
ATOM     38  C   UNL A   1      35.183  32.844  31.169  1.00  0.00     0.010 A 
ATOM     39  C   UNL A   1      36.722  33.861  29.604  1.00  0.00     0.010 A 
ATOM     40  C   UNL A   1      36.500  33.050  30.727  1.00  0.00    -0.014 A 
BRANCH  40  41
ATOM     41  C   UNL A   1      37.653  32.424  31.427  1.00  0.00     0.031 A 
ATOM     42  C   UNL A   1      38.403  31.289  30.785  1.00  0.00     0.074 A 
ATOM     43  C   UNL A   1      37.985  32.839  32.666  1.00  0.00     0.049 A 
ATOM     44  N   UNL A   1      39.389  30.573  31.263  1.00  0.00    -0.248 NA
ATOM     45  C   UNL A   1      37.965  30.885  29.443  1.00  0.00     0.031 C 
ATOM     46  C   UNL A   1      37.304  33.901  33.410  1.00  0.00     0.029 A 
ATOM     47  N   UNL A   1      38.969  32.414  33.524  1.00  0.00    -0.354 N 
ATOM     48  C   UNL A   1      39.678  29.625  30.287  1.00  0.00     0.074 A 
ATOM     49  C   UNL A   1      38.719  29.820  29.221  1.00  0.00     0.031 C 
ATOM     50  C   UNL A   1      37.903  34.059  34.601  1.00  0.00     0.029 A 
ATOM     51  C   UNL A   1      38.976  33.077  34.730  1.00  0.00     0.049 A 
ATOM     52  H   UNL A   1      39.608  31.700  33.299  1.00  0.00     0.167 HD
ATOM     53  C   UNL A   1      40.665  28.694  30.274  1.00  0.00     0.034 A 
ATOM     54  C   UNL A   1      39.747  32.906  35.823  1.00  0.00     0.034 A 
ATOM     55  C   UNL A   1      41.616  28.521  31.346  1.00  0.00     0.049 A 
ATOM     56  C   UNL A   1      40.821  31.849  35.797  1.00  0.00     0.074 A 
ATOM     57  C   UNL A   1      42.697  27.658  31.407  1.00  0.00     0.029 A 
ATOM     58  N   UNL A   1      41.593  29.212  32.552  1.00  0.00    -0.354 N 
ATOM     59  N   UNL A   1      41.125  31.003  34.840  1.00  0.00    -0.248 NA
ATOM     60  C   UNL A   1      41.664  31.732  36.994  1.00  0.00     0.031 C 
ATOM     61  C   UNL A   1      43.271  27.763  32.680  1.00  0.00     0.029 A 
ATOM     62  C   UNL A   1      42.611  28.761  33.381  1.00  0.00     0.049 A 
ATOM     63  H   UNL A   1      40.948  29.917  32.786  1.00  0.00     0.167 HD
ATOM     64  C   UNL A   1      42.212  30.273  35.310  1.00  0.00     0.074 A 
ATOM     65  C   UNL A   1      42.519  30.789  36.628  1.00  0.00     0.031 C 
ATOM     66  C   UNL A   1      42.898  29.269  34.703  1.00  0.00     0.034 A 
BRANCH  53  67
ATOM     67  C   UNL A   1      40.734  27.768  29.079  1.00  0.00     0.023 A 
ATOM     68  C   UNL A   1      41.689  27.941  28.061  1.00  0.00     0.031 A 
ATOM     69  C   UNL A   1      39.812  26.717  28.938  1.00  0.00     0.131 A 
ATOM     70  C   UNL A   1      41.640  27.139  26.910  1.00  0.00     0.055 A 
ATOM     71  C   UNL A   1      39.828  25.862  27.835  1.00  0.00     0.041 A 
ATOM     72  F   UNL A   1      38.861  26.513  29.865  1.00  0.00    -0.206 F 
ATOM     73  C   UNL A   1      40.734  26.082  26.802  1.00  0.00     0.022 A 
BRANCH  70  74
ATOM     74  S   UNL A   1      42.663  27.606  25.486  1.00  0.00     0.124 S 
ATOM     75  O   UNL A   1      41.951  28.779  24.984  1.00  0.00    -0.237 OA
ATOM     76  O   UNL A   1      43.961  27.861  26.100  1.00  0.00    -0.237 OA
ATOM     77  O   UNL A   1      42.601  26.432  24.619  1.00  0.00    -0.744 OA
ENDBRANCH  70  74
ENDBRANCH  53  67
BRANCH  54  78
ATOM     78  C   UNL A   1      39.515  33.738  37.040  1.00  0.00     0.023 A 
ATOM     79  C   UNL A   1      38.853  33.218  38.164  1.00  0.00     0.031 A 
ATOM     80  C   UNL A   1      39.938  35.078  37.086  1.00  0.00     0.131 A 
ATOM     81  C   UNL A   1      38.600  34.044  39.270  1.00  0.00     0.055 A 
ATOM     82  C   UNL A   1      39.733  35.880  38.210  1.00  0.00     0.041 A 
ATOM     83  F   UNL A   1      40.580  35.625  36.041  1.00  0.00    -0.206 F 
ATOM     84  C   UNL A   1      39.050  35.366  39.308  1.00  0.00     0.022 A 
BRANCH  81  85
ATOM     85  S   UNL A   1      37.604  33.388  40.637  1.00  0.00     0.124 S 
ATOM     86  O   UNL A   1      38.408  32.249  41.068  1.00  0.00    -0.237 OA
ATOM     87  O   UNL A   1      37.558  34.525  41.551  1.00  0.00    -0.237 OA
ATOM     88  O   UNL A   1      36.333  33.051  40.001  1.00  0.00    -0.744 OA
ENDBRANCH  81  85
ENDBRANCH  54  78
BRANCH  66  89
ATOM     89  C   UNL A   1      44.079  28.693  35.449  1.00  0.00     0.023 A 
ATOM     90  C   UNL A   1      43.944  27.608  36.332  1.00  0.00     0.031 A 
ATOM     91  C   UNL A   1      45.361  29.246  35.275  1.00  0.00     0.131 A 
ATOM     92  C   UNL A   1      45.058  27.148  37.051  1.00  0.00     0.055 A 
ATOM     93  C   UNL A   1      46.479  28.740  35.941  1.00  0.00     0.041 A 
ATOM     94  F   UNL A   1      45.551  30.288  34.449  1.00  0.00    -0.206 F 
ATOM     95  C   UNL A   1      46.328  27.694  36.845  1.00  0.00     0.022 A 
BRANCH  92  96
ATOM     96  S   UNL A   1      44.808  25.894  38.338  1.00  0.00     0.124 S 
ATOM     97  O   UNL A   1      46.173  25.655  38.795  1.00  0.00    -0.237 OA
ATOM     98  O   UNL A   1      43.931  26.582  39.278  1.00  0.00    -0.237 OA
ATOM     99  O   UNL A   1      44.193  24.780  37.617  1.00  0.00    -0.744 OA
ENDBRANCH  92  96
ENDBRANCH  66  89
ENDBRANCH  40  41
ENDBRANCH  32  35
ENDBRANCH  30  31
ENDBRANCH  29  30
ENDBRANCH   1  29
TORSDOF 20
ENDMDL
MODEL 2
REMARK VINA RESULT:     -11.9      2.045      2.848
REMARK SMILES Cc1cc(F)cc(N[C@@](C)(C(=O)NCCCCCCNC(=O)c2ccc(-c3c4nc(c(-c5cc(S(=O)(=O)[O-])ccc5F)c5ccc([nH]5)c(-c5cc(S(=O)(=O)[O-])ccc5F)c5nc(c(-c6cc(S(=O)(=O)[O-])ccc6F)c6ccc3[nH]6)C=C5)C=C4)cc2)c2ccc(O)cc2)c1
REMARK SMILES IDX 17 1 16 2 15 3 14 4 13 5 11 6 12 7 9 9 10 10 8 11 7 13 1 14
REMARK SMILES IDX 2 15 3 16 93 17 4 18 5 19 6 20 86 21 87 22 92 23 88 24 91 25
REMARK SMILES IDX 89 26 90 27 18 29 19 30 20 31 21 32 22 34 23 35 24 36 85 37
REMARK SMILES IDX 25 38 84 39 26 40 27 41 28 42 78 43 29 44 83 45 77 46 79 47
REMARK SMILES IDX 30 48 82 49 76 50 75 51 31 53 63 54 43 55 62 56 44 57 47 58
REMARK SMILES IDX 61 59 80 60 45 61 46 62 60 64 81 65 48 66 32 67 33 68 41 69
REMARK SMILES IDX 34 70 40 71 42 72 39 73 35 74 36 75 37 76 38 77 64 78 65 79
REMARK SMILES IDX 73 80 66 81 72 82 74 83 71 84 67 85 68 86 69 87 70 88 49 89
REMARK SMILES IDX 50 90 58 91 51 92 57 93 59 94 56 95 52 96 53 97 54 98 55 99
REMARK H PARENT 13 8 8 12 90 28 20 33 79 52 47 63
REMARK Flexibility Score: inf
ROOT
ATOM      1  C   UNL A   1      31.051  30.750  25.411  1.00  0.00     0.002 C 
ENDROOT
BRANCH   1   2
ATOM      2  C   UNL A   1      30.043  30.638  24.262  1.00  0.00     0.002 C 
BRANCH   2   3
ATOM      3  C   UNL A   1      29.994  29.275  23.564  1.00  0.00     0.021 C 
BRANCH   3   4
ATOM      4  C   UNL A   1      31.040  29.083  22.467  1.00  0.00     0.116 C 
BRANCH   4   5
ATOM      5  N   UNL A   1      31.045  27.719  21.978  1.00  0.00    -0.354 N 
ATOM      6  C   UNL A   1      31.945  26.694  22.094  1.00  0.00     0.250 C 
ATOM      7  O   UNL A   1      31.725  25.751  21.323  1.00  0.00    -0.272 OA
ATOM      8  H   UNL A   1      30.243  27.483  21.458  1.00  0.00     0.163 HD
BRANCH   6   9
ATOM      9  C   UNL A   1      33.160  26.728  23.121  1.00  0.00     0.139 C 
ATOM     10  C   UNL A   1      34.081  27.937  22.823  1.00  0.00     0.051 C 
BRANCH   9  11
ATOM     11  N   UNL A   1      33.950  25.479  22.912  1.00  0.00    -0.368 N 
ATOM     12  H   UNL A   1      34.494  25.486  22.090  1.00  0.00     0.161 HD
BRANCH  11  13
ATOM     13  C   UNL A   1      34.067  24.315  23.648  1.00  0.00     0.038 A 
ATOM     14  C   UNL A   1      32.472  20.827  23.466  1.00  0.00     0.044 C 
ATOM     15  C   UNL A   1      33.404  21.944  23.825  1.00  0.00    -0.046 A 
ATOM     16  C   UNL A   1      34.523  21.694  24.616  1.00  0.00     0.042 A 
ATOM     17  C   UNL A   1      33.209  23.244  23.325  1.00  0.00     0.029 A 
ATOM     18  C   UNL A   1      35.327  22.754  25.007  1.00  0.00     0.125 A 
ATOM     19  F   UNL A   1      36.400  22.512  25.773  1.00  0.00    -0.207 F 
ATOM     20  C   UNL A   1      35.066  24.056  24.584  1.00  0.00     0.065 A 
ENDBRANCH  11  13
ENDBRANCH   9  11
BRANCH   9  21
ATOM     21  C   UNL A   1      32.735  26.973  24.600  1.00  0.00    -0.013 A 
ATOM     22  C   UNL A   1      31.553  26.408  25.124  1.00  0.00     0.010 A 
ATOM     23  C   UNL A   1      33.524  27.728  25.488  1.00  0.00     0.010 A 
ATOM     24  C   UNL A   1      31.078  26.765  26.388  1.00  0.00     0.046 A 
ATOM     25  C   UNL A   1      33.065  28.070  26.762  1.00  0.00     0.046 A 
ATOM     26  C   UNL A   1      31.821  27.623  27.182  1.00  0.00     0.115 A 
BRANCH  26  27
ATOM     27  O   UNL A   1      31.297  28.018  28.376  1.00  0.00    -0.508 OA
ATOM     28  H   UNL A   1      31.328  27.443  29.115  1.00  0.00     0.293 HD
ENDBRANCH  26  27
ENDBRANCH   9  21
ENDBRANCH   6   9
ENDBRANCH   4   5
ENDBRANCH   3   4
ENDBRANCH   2   3
ENDBRANCH   1   2
BRANCH   1  29
ATOM     29  C   UNL A   1      30.990  32.056  26.206  1.00  0.00     0.021 C 
BRANCH  29  30
ATOM     30  C   UNL A   1      32.300  32.458  26.877  1.00  0.00     0.116 C 
BRANCH  30  31
ATOM     31  N   UNL A   1      32.285  33.839  27.327  1.00  0.00    -0.352 N 
ATOM     32  C   UNL A   1      33.067  34.455  28.274  1.00  0.00     0.251 C 
ATOM     33  H   UNL A   1      31.617  34.416  26.891  1.00  0.00     0.163 HD
ATOM     34  O   UNL A   1      32.775  35.578  28.665  1.00  0.00    -0.269 OA
BRANCH  32  35
ATOM     35  C   UNL A   1      34.241  33.748  28.833  1.00  0.00     0.039 A 
ATOM     36  C   UNL A   1      35.515  34.280  28.620  1.00  0.00     0.014 A 
ATOM     37  C   UNL A   1      34.089  32.566  29.564  1.00  0.00     0.014 A 
ATOM     38  C   UNL A   1      36.629  33.660  29.192  1.00  0.00     0.010 A 
ATOM     39  C   UNL A   1      35.190  31.995  30.198  1.00  0.00     0.010 A 
ATOM     40  C   UNL A   1      36.473  32.533  30.016  1.00  0.00    -0.014 A 
BRANCH  40  41
ATOM     41  C   UNL A   1      37.640  31.909  30.695  1.00  0.00     0.031 A 
ATOM     42  C   UNL A   1      38.455  30.861  29.989  1.00  0.00     0.074 A 
ATOM     43  C   UNL A   1      37.927  32.246  31.968  1.00  0.00     0.049 A 
ATOM     44  N   UNL A   1      39.463  30.156  30.435  1.00  0.00    -0.248 NA
ATOM     45  C   UNL A   1      38.063  30.539  28.610  1.00  0.00     0.031 C 
ATOM     46  C   UNL A   1      37.183  33.217  32.773  1.00  0.00     0.029 A 
ATOM     47  N   UNL A   1      38.912  31.802  32.816  1.00  0.00    -0.354 N 
ATOM     48  C   UNL A   1      39.816  29.298  29.399  1.00  0.00     0.074 A 
ATOM     49  C   UNL A   1      38.870  29.528  28.328  1.00  0.00     0.031 C 
ATOM     50  C   UNL A   1      37.750  33.312  33.985  1.00  0.00     0.029 A 
ATOM     51  C   UNL A   1      38.865  32.373  34.066  1.00  0.00     0.049 A 
ATOM     52  H   UNL A   1      39.589  31.137  32.553  1.00  0.00     0.167 HD
ATOM     53  C   UNL A   1      40.844  28.416  29.340  1.00  0.00     0.034 A 
ATOM     54  C   UNL A   1      39.620  32.155  35.162  1.00  0.00     0.034 A 
ATOM     55  C   UNL A   1      41.782  28.206  30.419  1.00  0.00     0.049 A 
ATOM     56  C   UNL A   1      40.742  31.153  35.083  1.00  0.00     0.074 A 
ATOM     57  C   UNL A   1      42.900  27.390  30.441  1.00  0.00     0.029 A 
ATOM     58  N   UNL A   1      41.702  28.803  31.672  1.00  0.00    -0.354 N 
ATOM     59  N   UNL A   1      41.105  30.395  34.074  1.00  0.00    -0.248 NA
ATOM     60  C   UNL A   1      41.566  30.985  36.288  1.00  0.00     0.031 C 
ATOM     61  C   UNL A   1      43.443  27.426  31.731  1.00  0.00     0.029 A 
ATOM     62  C   UNL A   1      42.723  28.337  32.489  1.00  0.00     0.049 A 
ATOM     63  H   UNL A   1      41.020  29.459  31.942  1.00  0.00     0.167 HD
ATOM     64  C   UNL A   1      42.215  29.681  34.514  1.00  0.00     0.074 A 
ATOM     65  C   UNL A   1      42.471  30.111  35.874  1.00  0.00     0.031 C 
ATOM     66  C   UNL A   1      42.960  28.758  33.851  1.00  0.00     0.034 A 
BRANCH  53  67
ATOM     67  C   UNL A   1      40.981  27.586  28.083  1.00  0.00     0.023 A 
ATOM     68  C   UNL A   1      40.625  26.226  28.047  1.00  0.00     0.031 A 
ATOM     69  C   UNL A   1      41.507  28.154  26.909  1.00  0.00     0.131 A 
ATOM     70  C   UNL A   1      40.884  25.461  26.899  1.00  0.00     0.055 A 
ATOM     71  C   UNL A   1      41.675  27.410  25.739  1.00  0.00     0.041 A 
ATOM     72  F   UNL A   1      41.887  29.442  26.883  1.00  0.00    -0.206 F 
ATOM     73  C   UNL A   1      41.380  26.051  25.735  1.00  0.00     0.022 A 
BRANCH  70  74
ATOM     74  S   UNL A   1      40.724  23.657  27.007  1.00  0.00     0.124 S 
ATOM     75  O   UNL A   1      39.289  23.475  26.797  1.00  0.00    -0.237 OA
ATOM     76  O   UNL A   1      41.591  23.199  25.928  1.00  0.00    -0.237 OA
ATOM     77  O   UNL A   1      41.191  23.352  28.358  1.00  0.00    -0.744 OA
ENDBRANCH  70  74
ENDBRANCH  53  67
BRANCH  54  78
ATOM     78  C   UNL A   1      39.325  32.882  36.431  1.00  0.00     0.023 A 
ATOM     79  C   UNL A   1      39.925  34.119  36.720  1.00  0.00     0.031 A 
ATOM     80  C   UNL A   1      38.449  32.336  37.386  1.00  0.00     0.131 A 
ATOM     81  C   UNL A   1      39.671  34.748  37.948  1.00  0.00     0.055 A 
ATOM     82  C   UNL A   1      38.157  32.993  38.583  1.00  0.00     0.041 A 
ATOM     83  F   UNL A   1      37.845  31.159  37.160  1.00  0.00    -0.206 F 
ATOM     84  C   UNL A   1      38.779  34.203  38.874  1.00  0.00     0.022 A 
BRANCH  81  85
ATOM     85  S   UNL A   1      40.584  36.263  38.355  1.00  0.00     0.124 S 
ATOM     86  O   UNL A   1      41.495  36.373  37.221  1.00  0.00    -0.237 OA
ATOM     87  O   UNL A   1      39.514  37.253  38.419  1.00  0.00    -0.237 OA
ATOM     88  O   UNL A   1      41.214  35.947  39.635  1.00  0.00    -0.744 OA
ENDBRANCH  81  85
ENDBRANCH  54  78
BRANCH  66  89
ATOM     89  C   UNL A   1      44.151  28.181  34.579  1.00  0.00     0.023 A 
ATOM     90  C   UNL A   1      44.058  27.005  35.344  1.00  0.00     0.031 A 
ATOM     91  C   UNL A   1      45.400  28.825  34.511  1.00  0.00     0.131 A 
ATOM     92  C   UNL A   1      45.176  26.543  36.055  1.00  0.00     0.055 A 
ATOM     93  C   UNL A   1      46.526  28.323  35.164  1.00  0.00     0.041 A 
ATOM     94  F   UNL A   1      45.548  29.955  33.801  1.00  0.00    -0.206 F 
ATOM     95  C   UNL A   1      46.414  27.182  35.954  1.00  0.00     0.022 A 
BRANCH  92  96
ATOM     96  S   UNL A   1      44.966  25.151  37.200  1.00  0.00     0.124 S 
ATOM     97  O   UNL A   1      43.515  25.094  37.343  1.00  0.00    -0.237 OA
ATOM     98  O   UNL A   1      45.579  24.049  36.468  1.00  0.00    -0.237 OA
ATOM     99  O   UNL A   1      45.690  25.579  38.397  1.00  0.00    -0.744 OA
ENDBRANCH  92  96
ENDBRANCH  66  89
ENDBRANCH  40  41
ENDBRANCH  32  35
ENDBRANCH  30  31
ENDBRANCH  29  30
ENDBRANCH   1  29
TORSDOF 20
ENDMDL
MODEL 3
REMARK VINA RESULT:     -11.8      1.391      1.855
REMARK SMILES Cc1cc(F)cc(N[C@@](C)(C(=O)NCCCCCCNC(=O)c2ccc(-c3c4nc(c(-c5cc(S(=O)(=O)[O-])ccc5F)c5ccc([nH]5)c(-c5cc(S(=O)(=O)[O-])ccc5F)c5nc(c(-c6cc(S(=O)(=O)[O-])ccc6F)c6ccc3[nH]6)C=C5)C=C4)cc2)c2ccc(O)cc2)c1
REMARK SMILES IDX 17 1 16 2 15 3 14 4 13 5 11 6 12 7 9 9 10 10 8 11 7 13 1 14
REMARK SMILES IDX 2 15 3 16 93 17 4 18 5 19 6 20 86 21 87 22 92 23 88 24 91 25
REMARK SMILES IDX 89 26 90 27 18 29 19 30 20 31 21 32 22 34 23 35 24 36 85 37
REMARK SMILES IDX 25 38 84 39 26 40 27 41 28 42 78 43 29 44 83 45 77 46 79 47
REMARK SMILES IDX 30 48 82 49 76 50 75 51 31 53 63 54 43 55 62 56 44 57 47 58
REMARK SMILES IDX 61 59 80 60 45 61 46 62 60 64 81 65 48 66 32 67 33 68 41 69
REMARK SMILES IDX 34 70 40 71 42 72 39 73 35 74 36 75 37 76 38 77 64 78 65 79
REMARK SMILES IDX 73 80 66 81 72 82 74 83 71 84 67 85 68 86 69 87 70 88 49 89
REMARK SMILES IDX 50 90 58 91 51 92 57 93 59 94 56 95 52 96 53 97 54 98 55 99
REMARK H PARENT 13 8 8 12 90 28 20 33 79 52 47 63
REMARK Flexibility Score: inf
ROOT
ATOM      1  C   UNL A   1      31.924  30.502  26.144  1.00  0.00     0.002 C 
ENDROOT
BRANCH   1   2
ATOM      2  C   UNL A   1      32.487  29.399  27.046  1.00  0.00     0.002 C 
BRANCH   2   3
ATOM      3  C   UNL A   1      31.845  28.019  26.873  1.00  0.00     0.021 C 
BRANCH   3   4
ATOM      4  C   UNL A   1      32.820  26.905  26.496  1.00  0.00     0.116 C 
BRANCH   4   5
ATOM      5  N   UNL A   1      32.154  25.621  26.435  1.00  0.00    -0.354 N 
ATOM      6  C   UNL A   1      31.597  24.912  25.405  1.00  0.00     0.250 C 
ATOM      7  O   UNL A   1      30.888  23.968  25.779  1.00  0.00    -0.272 OA
ATOM      8  H   UNL A   1      32.087  25.168  27.306  1.00  0.00     0.163 HD
BRANCH   6   9
ATOM      9  C   UNL A   1      31.837  25.281  23.877  1.00  0.00     0.139 C 
ATOM     10  C   UNL A   1      30.937  24.410  22.965  1.00  0.00     0.051 C 
BRANCH   9  11
ATOM     11  N   UNL A   1      33.261  24.964  23.563  1.00  0.00    -0.368 N 
ATOM     12  H   UNL A   1      33.703  25.639  22.998  1.00  0.00     0.161 HD
BRANCH  11  13
ATOM     13  C   UNL A   1      34.079  23.905  23.910  1.00  0.00     0.038 A 
ATOM     14  C   UNL A   1      37.304  23.538  25.962  1.00  0.00     0.044 C 
ATOM     15  C   UNL A   1      36.043  23.197  25.229  1.00  0.00    -0.046 A 
ATOM     16  C   UNL A   1      35.580  21.884  25.205  1.00  0.00     0.042 A 
ATOM     17  C   UNL A   1      35.269  24.196  24.609  1.00  0.00     0.029 A 
ATOM     18  C   UNL A   1      34.457  21.574  24.453  1.00  0.00     0.125 A 
ATOM     19  F   UNL A   1      34.017  20.308  24.427  1.00  0.00    -0.207 F 
ATOM     20  C   UNL A   1      33.754  22.558  23.760  1.00  0.00     0.065 A 
ENDBRANCH  11  13
ENDBRANCH   9  11
BRANCH   9  21
ATOM     21  C   UNL A   1      31.410  26.731  23.499  1.00  0.00    -0.013 A 
ATOM     22  C   UNL A   1      30.061  27.140  23.578  1.00  0.00     0.010 A 
ATOM     23  C   UNL A   1      32.345  27.707  23.106  1.00  0.00     0.010 A 
ATOM     24  C   UNL A   1      29.648  28.377  23.076  1.00  0.00     0.046 A 
ATOM     25  C   UNL A   1      31.940  28.954  22.624  1.00  0.00     0.046 A 
ATOM     26  C   UNL A   1      30.589  29.259  22.569  1.00  0.00     0.115 A 
BRANCH  26  27
ATOM     27  O   UNL A   1      30.151  30.423  22.013  1.00  0.00    -0.508 OA
ATOM     28  H   UNL A   1      30.341  31.242  22.427  1.00  0.00     0.293 HD
ENDBRANCH  26  27
ENDBRANCH   9  21
ENDBRANCH   6   9
ENDBRANCH   4   5
ENDBRANCH   3   4
ENDBRANCH   2   3
ENDBRANCH   1   2
BRANCH   1  29
ATOM     29  C   UNL A   1      31.662  31.841  26.837  1.00  0.00     0.021 C 
BRANCH  29  30
ATOM     30  C   UNL A   1      32.902  32.519  27.410  1.00  0.00     0.116 C 
BRANCH  30  31
ATOM     31  N   UNL A   1      32.666  33.917  27.727  1.00  0.00    -0.352 N 
ATOM     32  C   UNL A   1      33.232  34.695  28.707  1.00  0.00     0.251 C 
ATOM     33  H   UNL A   1      32.007  34.372  27.156  1.00  0.00     0.163 HD
ATOM     34  O   UNL A   1      32.762  35.799  28.953  1.00  0.00    -0.269 OA
BRANCH  32  35
ATOM     35  C   UNL A   1      34.388  34.184  29.479  1.00  0.00     0.039 A 
ATOM     36  C   UNL A   1      34.151  33.454  30.646  1.00  0.00     0.014 A 
ATOM     37  C   UNL A   1      35.699  34.420  29.054  1.00  0.00     0.014 A 
ATOM     38  C   UNL A   1      35.227  32.912  31.354  1.00  0.00     0.010 A 
ATOM     39  C   UNL A   1      36.763  33.813  29.716  1.00  0.00     0.010 A 
ATOM     40  C   UNL A   1      36.539  33.054  30.876  1.00  0.00    -0.014 A 
BRANCH  40  41
ATOM     41  C   UNL A   1      37.686  32.416  31.575  1.00  0.00     0.031 A 
ATOM     42  C   UNL A   1      38.436  31.286  30.925  1.00  0.00     0.074 A 
ATOM     43  C   UNL A   1      38.011  32.816  32.821  1.00  0.00     0.049 A 
ATOM     44  N   UNL A   1      39.416  30.562  31.400  1.00  0.00    -0.248 NA
ATOM     45  C   UNL A   1      38.004  30.900  29.575  1.00  0.00     0.031 C 
ATOM     46  C   UNL A   1      37.330  33.871  33.573  1.00  0.00     0.029 A 
ATOM     47  N   UNL A   1      38.989  32.377  33.680  1.00  0.00    -0.354 N 
ATOM     48  C   UNL A   1      39.709  29.624  30.414  1.00  0.00     0.074 A 
ATOM     49  C   UNL A   1      38.757  29.835  29.345  1.00  0.00     0.031 C 
ATOM     50  C   UNL A   1      37.922  34.013  34.769  1.00  0.00     0.029 A 
ATOM     51  C   UNL A   1      38.991  33.027  34.893  1.00  0.00     0.049 A 
ATOM     52  H   UNL A   1      39.627  31.664  33.450  1.00  0.00     0.167 HD
ATOM     53  C   UNL A   1      40.692  28.690  30.396  1.00  0.00     0.034 A 
ATOM     54  C   UNL A   1      39.754  32.840  35.989  1.00  0.00     0.034 A 
ATOM     55  C   UNL A   1      41.636  28.501  31.472  1.00  0.00     0.049 A 
ATOM     56  C   UNL A   1      40.825  31.780  35.957  1.00  0.00     0.074 A 
ATOM     57  C   UNL A   1      42.714  27.634  31.530  1.00  0.00     0.029 A 
ATOM     58  N   UNL A   1      41.608  29.178  32.686  1.00  0.00    -0.354 N 
ATOM     59  N   UNL A   1      41.132  30.944  34.992  1.00  0.00    -0.248 NA
ATOM     60  C   UNL A   1      41.660  31.646  37.158  1.00  0.00     0.031 C 
ATOM     61  C   UNL A   1      43.280  27.722  32.807  1.00  0.00     0.029 A 
ATOM     62  C   UNL A   1      42.620  28.713  33.516  1.00  0.00     0.049 A 
ATOM     63  H   UNL A   1      40.964  29.883  32.925  1.00  0.00     0.167 HD
ATOM     64  C   UNL A   1      42.213  30.204  35.460  1.00  0.00     0.074 A 
ATOM     65  C   UNL A   1      42.514  30.704  36.786  1.00  0.00     0.031 C 
ATOM     66  C   UNL A   1      42.900  29.205  34.846  1.00  0.00     0.034 A 
BRANCH  53  67
ATOM     67  C   UNL A   1      40.765  27.778  29.192  1.00  0.00     0.023 A 
ATOM     68  C   UNL A   1      41.717  27.969  28.173  1.00  0.00     0.031 A 
ATOM     69  C   UNL A   1      39.850  26.722  29.041  1.00  0.00     0.131 A 
ATOM     70  C   UNL A   1      41.672  27.179  27.014  1.00  0.00     0.055 A 
ATOM     71  C   UNL A   1      39.870  25.879  27.928  1.00  0.00     0.041 A 
ATOM     72  F   UNL A   1      38.903  26.501  29.967  1.00  0.00    -0.206 F 
ATOM     73  C   UNL A   1      40.773  26.117  26.896  1.00  0.00     0.022 A 
BRANCH  70  74
ATOM     74  S   UNL A   1      42.688  27.670  25.593  1.00  0.00     0.124 S 
ATOM     75  O   UNL A   1      42.413  26.591  24.647  1.00  0.00    -0.237 OA
ATOM     76  O   UNL A   1      42.141  28.977  25.250  1.00  0.00    -0.237 OA
ATOM     77  O   UNL A   1      44.046  27.682  26.132  1.00  0.00    -0.744 OA
ENDBRANCH  70  74
ENDBRANCH  53  67
BRANCH  54  78
ATOM     78  C   UNL A   1      39.518  33.658  37.214  1.00  0.00     0.023 A 
ATOM     79  C   UNL A   1      40.241  34.838  37.455  1.00  0.00     0.031 A 
ATOM     80  C   UNL A   1      38.573  33.258  38.175  1.00  0.00     0.131 A 
ATOM     81  C   UNL A   1      40.036  35.552  38.645  1.00  0.00     0.055 A 
ATOM     82  C   UNL A   1      38.332  34.002  39.331  1.00  0.00     0.041 A 
ATOM     83  F   UNL A   1      37.850  32.141  37.993  1.00  0.00    -0.206 F 
ATOM     84  C   UNL A   1      39.075  35.153  39.577  1.00  0.00     0.022 A 
BRANCH  81  85
ATOM     85  S   UNL A   1      41.099  36.981  38.997  1.00  0.00     0.124 S 
ATOM     86  O   UNL A   1      41.928  37.035  37.798  1.00  0.00    -0.237 OA
ATOM     87  O   UNL A   1      40.122  38.054  39.153  1.00  0.00    -0.237 OA
ATOM     88  O   UNL A   1      41.795  36.592  40.221  1.00  0.00    -0.744 OA
ENDBRANCH  81  85
ENDBRANCH  54  78
BRANCH  66  89
ATOM     89  C   UNL A   1      44.074  28.616  35.592  1.00  0.00     0.023 A 
ATOM     90  C   UNL A   1      43.937  27.500  36.434  1.00  0.00     0.031 A 
ATOM     91  C   UNL A   1      45.353  29.189  35.460  1.00  0.00     0.131 A 
ATOM     92  C   UNL A   1      45.043  27.027  37.156  1.00  0.00     0.055 A 
ATOM     93  C   UNL A   1      46.464  28.672  36.128  1.00  0.00     0.041 A 
ATOM     94  F   UNL A   1      45.545  30.261  34.674  1.00  0.00    -0.206 F 
ATOM     95  C   UNL A   1      46.311  27.593  36.993  1.00  0.00     0.022 A 
BRANCH  92  96
ATOM     96  S   UNL A   1      44.786  25.727  38.394  1.00  0.00     0.124 S 
ATOM     97  O   UNL A   1      44.198  26.475  39.501  1.00  0.00    -0.237 OA
ATOM     98  O   UNL A   1      43.891  24.807  37.700  1.00  0.00    -0.237 OA
ATOM     99  O   UNL A   1      46.133  25.214  38.640  1.00  0.00    -0.744 OA
ENDBRANCH  92  96
ENDBRANCH  66  89
ENDBRANCH  40  41
ENDBRANCH  32  35
ENDBRANCH  30  31
ENDBRANCH  29  30
ENDBRANCH   1  29
TORSDOF 20
ENDMDL
