MODEL 1
REMARK VINA RESULT:     -11.9      0.000      0.000
REMARK SMILES CCOc1ccc(NC(=O)N2CC[C@@H](C(=O)NCCCCCCNC(=O)c3ccc(-c4c5nc(c(-c6cc(S(=O)(=O)[O-])ccc6F)c6ccc([nH]6)c(-c6cc(S(=O)(=O)[O-])ccc6F)c6nc(c(-c7cc(S(=O)(=O)[O-])ccc7F)c7ccc4[nH]7)C=C6)C=C5)cc3)[C@@H]2C)cc1
REMARK SMILES IDX 20 1 19 2 18 3 17 4 15 5 16 6 14 8 11 9 12 10 90 11 13 12
REMARK SMILES IDX 91 13 9 14 8 15 10 17 7 18 4 19 5 20 93 21 6 22 92 23 3 24
REMARK SMILES IDX 2 25 1 26 21 27 22 28 23 29 24 30 25 31 26 33 27 34 28 35
REMARK SMILES IDX 89 36 29 37 88 38 30 39 31 40 32 41 82 42 33 43 87 44 81 45
REMARK SMILES IDX 83 46 34 47 86 48 80 49 79 50 35 52 67 53 47 54 66 55 48 56
REMARK SMILES IDX 51 57 65 58 84 59 49 60 50 61 64 63 85 64 52 65 36 66 37 67
REMARK SMILES IDX 45 68 38 69 44 70 46 71 43 72 39 73 40 74 41 75 42 76 68 77
REMARK SMILES IDX 69 78 77 79 70 80 76 81 78 82 75 83 71 84 72 85 73 86 74 87
REMARK SMILES IDX 53 88 54 89 62 90 55 91 61 92 63 93 60 94 56 95 57 96 58 97
REMARK SMILES IDX 59 98
REMARK H PARENT 17 7 8 16 24 32 83 51 51 62
REMARK Flexibility Score: inf
ROOT
ATOM      1  C   UNL A   1      31.723  29.801  27.166  1.00  0.00     0.002 C 
ENDROOT
BRANCH   1   2
ATOM      2  C   UNL A   1      32.764  28.764  26.735  1.00  0.00     0.021 C 
BRANCH   2   3
ATOM      3  C   UNL A   1      33.938  29.266  25.892  1.00  0.00     0.116 C 
BRANCH   3   4
ATOM      4  N   UNL A   1      33.694  29.254  24.454  1.00  0.00    -0.356 N 
ATOM      5  C   UNL A   1      33.594  28.276  23.515  1.00  0.00     0.225 C 
ATOM      6  O   UNL A   1      33.334  28.667  22.367  1.00  0.00    -0.275 OA
ATOM      7  H   UNL A   1      33.575  30.157  24.079  1.00  0.00     0.163 HD
BRANCH   5   8
ATOM      8  C   UNL A   1      33.841  26.776  23.725  1.00  0.00     0.102 C 
ATOM      9  N   UNL A   1      31.905  25.569  24.194  1.00  0.00    -0.321 N 
ATOM     10  C   UNL A   1      32.401  24.974  22.960  1.00  0.00     0.122 C 
ATOM     11  C   UNL A   1      33.034  26.173  24.888  1.00  0.00     0.096 C 
ATOM     12  C   UNL A   1      33.569  25.859  22.528  1.00  0.00     0.037 C 
ATOM     13  C   UNL A   1      33.832  25.127  25.679  1.00  0.00     0.032 C 
BRANCH   9  14
ATOM     14  C   UNL A   1      30.687  25.190  24.652  1.00  0.00     0.322 C 
ATOM     15  N   UNL A   1      29.537  25.883  24.475  1.00  0.00    -0.308 N 
ATOM     16  H   UNL A   1      28.822  25.527  25.051  1.00  0.00     0.171 HD
ATOM     17  O   UNL A   1      30.552  24.074  25.171  1.00  0.00    -0.248 OA
BRANCH  15  18
ATOM     18  C   UNL A   1      29.067  26.966  23.703  1.00  0.00     0.043 A 
ATOM     19  C   UNL A   1      28.381  29.413  22.485  1.00  0.00     0.119 A 
ATOM     20  C   UNL A   1      27.396  28.621  23.030  1.00  0.00     0.048 A 
ATOM     21  C   UNL A   1      29.697  28.965  22.445  1.00  0.00     0.048 A 
ATOM     22  C   UNL A   1      27.766  27.443  23.673  1.00  0.00     0.030 A 
ATOM     23  C   UNL A   1      30.030  27.723  23.013  1.00  0.00     0.030 A 
BRANCH  19  24
ATOM     24  O   UNL A   1      28.085  30.729  22.298  1.00  0.00    -0.494 OA
BRANCH  24  25
ATOM     25  C   UNL A   1      28.122  31.491  23.499  1.00  0.00     0.226 C 
ATOM     26  C   UNL A   1      28.799  32.802  23.165  1.00  0.00     0.049 C 
ENDBRANCH  24  25
ENDBRANCH  19  24
ENDBRANCH  15  18
ENDBRANCH   9  14
ENDBRANCH   5   8
ENDBRANCH   3   4
ENDBRANCH   2   3
ENDBRANCH   1   2
BRANCH   1  27
ATOM     27  C   UNL A   1      31.412  30.862  26.107  1.00  0.00     0.002 C 
BRANCH  27  28
ATOM     28  C   UNL A   1      31.365  32.311  26.609  1.00  0.00     0.021 C 
BRANCH  28  29
ATOM     29  C   UNL A   1      32.695  32.877  27.105  1.00  0.00     0.116 C 
BRANCH  29  30
ATOM     30  N   UNL A   1      32.536  34.206  27.671  1.00  0.00    -0.352 N 
ATOM     31  C   UNL A   1      33.126  34.739  28.793  1.00  0.00     0.251 C 
ATOM     32  H   UNL A   1      31.922  34.805  27.186  1.00  0.00     0.163 HD
ATOM     33  O   UNL A   1      32.690  35.772  29.288  1.00  0.00    -0.269 OA
BRANCH  31  34
ATOM     34  C   UNL A   1      34.284  34.048  29.404  1.00  0.00     0.039 A 
ATOM     35  C   UNL A   1      35.568  34.305  28.921  1.00  0.00     0.014 A 
ATOM     36  C   UNL A   1      34.095  33.146  30.456  1.00  0.00     0.014 A 
ATOM     37  C   UNL A   1      36.671  33.702  29.535  1.00  0.00     0.010 A 
ATOM     38  C   UNL A   1      35.199  32.600  31.108  1.00  0.00     0.010 A 
ATOM     39  C   UNL A   1      36.499  32.870  30.655  1.00  0.00    -0.014 A 
BRANCH  39  40
ATOM     40  C   UNL A   1      37.667  32.274  31.360  1.00  0.00     0.031 A 
ATOM     41  C   UNL A   1      38.423  31.130  30.737  1.00  0.00     0.074 A 
ATOM     42  C   UNL A   1      38.011  32.721  32.584  1.00  0.00     0.049 A 
ATOM     43  N   UNL A   1      39.414  30.429  31.224  1.00  0.00    -0.248 NA
ATOM     44  C   UNL A   1      37.982  30.702  29.402  1.00  0.00     0.031 C 
ATOM     45  C   UNL A   1      37.334  33.799  33.309  1.00  0.00     0.029 A 
ATOM     46  N   UNL A   1      39.007  32.323  33.441  1.00  0.00    -0.354 N 
ATOM     47  C   UNL A   1      39.714  29.473  30.259  1.00  0.00     0.074 A 
ATOM     48  C   UNL A   1      38.752  29.645  29.190  1.00  0.00     0.031 C 
ATOM     49  C   UNL A   1      37.946  33.988  34.489  1.00  0.00     0.029 A 
ATOM     50  C   UNL A   1      39.027  33.017  34.629  1.00  0.00     0.049 A 
ATOM     51  H   UNL A   1      39.648  31.608  33.225  1.00  0.00     0.167 HD
ATOM     52  C   UNL A   1      40.713  28.555  30.251  1.00  0.00     0.034 A 
ATOM     53  C   UNL A   1      39.813  32.876  35.716  1.00  0.00     0.034 A 
ATOM     54  C   UNL A   1      41.666  28.399  31.325  1.00  0.00     0.049 A 
ATOM     55  C   UNL A   1      40.892  31.823  35.704  1.00  0.00     0.074 A 
ATOM     56  C   UNL A   1      42.743  27.533  31.401  1.00  0.00     0.029 A 
ATOM     57  N   UNL A   1      41.651  29.116  32.515  1.00  0.00    -0.354 N 
ATOM     58  N   UNL A   1      41.194  30.958  34.762  1.00  0.00    -0.248 NA
ATOM     59  C   UNL A   1      41.744  31.733  36.897  1.00  0.00     0.031 C 
ATOM     60  C   UNL A   1      43.333  27.674  32.662  1.00  0.00     0.029 A 
ATOM     61  C   UNL A   1      42.679  28.688  33.343  1.00  0.00     0.049 A 
ATOM     62  H   UNL A   1      41.006  29.825  32.738  1.00  0.00     0.167 HD
ATOM     63  C   UNL A   1      42.290  30.244  35.238  1.00  0.00     0.074 A 
ATOM     64  C   UNL A   1      42.605  30.789  36.542  1.00  0.00     0.031 C 
ATOM     65  C   UNL A   1      42.977  29.232  34.648  1.00  0.00     0.034 A 
BRANCH  52  66
ATOM     66  C   UNL A   1      40.803  27.636  29.055  1.00  0.00     0.023 A 
ATOM     67  C   UNL A   1      41.746  27.845  28.033  1.00  0.00     0.031 A 
ATOM     68  C   UNL A   1      39.918  26.552  28.918  1.00  0.00     0.131 A 
ATOM     69  C   UNL A   1      41.726  27.039  26.884  1.00  0.00     0.055 A 
ATOM     70  C   UNL A   1      39.963  25.698  27.813  1.00  0.00     0.041 A 
ATOM     71  F   UNL A   1      38.982  26.310  29.849  1.00  0.00    -0.206 F 
ATOM     72  C   UNL A   1      40.859  25.950  26.779  1.00  0.00     0.022 A 
BRANCH  69  73
ATOM     73  S   UNL A   1      42.743  27.533  25.465  1.00  0.00     0.124 S 
ATOM     74  O   UNL A   1      44.036  27.781  26.101  1.00  0.00    -0.237 OA
ATOM     75  O   UNL A   1      42.671  26.361  24.601  1.00  0.00    -0.237 OA
ATOM     76  O   UNL A   1      42.069  28.726  24.958  1.00  0.00    -0.744 OA
ENDBRANCH  69  73
ENDBRANCH  52  66
BRANCH  53  77
ATOM     77  C   UNL A   1      39.604  33.738  36.916  1.00  0.00     0.023 A 
ATOM     78  C   UNL A   1      38.980  33.239  38.071  1.00  0.00     0.031 A 
ATOM     79  C   UNL A   1      39.991  35.091  36.910  1.00  0.00     0.131 A 
ATOM     80  C   UNL A   1      38.718  34.096  39.151  1.00  0.00     0.055 A 
ATOM     81  C   UNL A   1      39.780  35.925  38.009  1.00  0.00     0.041 A 
ATOM     82  F   UNL A   1      40.595  35.619  35.834  1.00  0.00    -0.206 F 
ATOM     83  C   UNL A   1      39.127  35.433  39.133  1.00  0.00     0.022 A 
BRANCH  80  84
ATOM     84  S   UNL A   1      37.751  33.462  40.549  1.00  0.00     0.124 S 
ATOM     85  O   UNL A   1      37.493  34.680  41.307  1.00  0.00    -0.237 OA
ATOM     86  O   UNL A   1      36.600  32.869  39.875  1.00  0.00    -0.237 OA
ATOM     87  O   UNL A   1      38.657  32.508  41.185  1.00  0.00    -0.744 OA
ENDBRANCH  80  84
ENDBRANCH  53  77
BRANCH  65  88
ATOM     88  C   UNL A   1      44.168  28.682  35.396  1.00  0.00     0.023 A 
ATOM     89  C   UNL A   1      44.046  27.626  36.315  1.00  0.00     0.031 A 
ATOM     90  C   UNL A   1      45.446  29.232  35.188  1.00  0.00     0.131 A 
ATOM     91  C   UNL A   1      45.171  27.190  37.033  1.00  0.00     0.055 A 
ATOM     92  C   UNL A   1      46.572  28.751  35.857  1.00  0.00     0.041 A 
ATOM     93  F   UNL A   1      45.623  30.246  34.324  1.00  0.00    -0.206 F 
ATOM     94  C   UNL A   1      46.436  27.733  36.796  1.00  0.00     0.022 A 
BRANCH  91  95
ATOM     95  S   UNL A   1      44.943  25.965  38.351  1.00  0.00     0.124 S 
ATOM     96  O   UNL A   1      44.258  26.746  39.376  1.00  0.00    -0.237 OA
ATOM     97  O   UNL A   1      44.143  24.940  37.690  1.00  0.00    -0.237 OA
ATOM     98  O   UNL A   1      46.309  25.563  38.686  1.00  0.00    -0.744 OA
ENDBRANCH  91  95
ENDBRANCH  65  88
ENDBRANCH  39  40
ENDBRANCH  31  34
ENDBRANCH  29  30
ENDBRANCH  28  29
ENDBRANCH  27  28
ENDBRANCH   1  27
TORSDOF 20
ENDMDL
MODEL 2
REMARK VINA RESULT:     -11.8      1.621      2.449
REMARK SMILES CCOc1ccc(NC(=O)N2CC[C@@H](C(=O)NCCCCCCNC(=O)c3ccc(-c4c5nc(c(-c6cc(S(=O)(=O)[O-])ccc6F)c6ccc([nH]6)c(-c6cc(S(=O)(=O)[O-])ccc6F)c6nc(c(-c7cc(S(=O)(=O)[O-])ccc7F)c7ccc4[nH]7)C=C6)C=C5)cc3)[C@@H]2C)cc1
REMARK SMILES IDX 20 1 19 2 18 3 17 4 15 5 16 6 14 8 11 9 12 10 90 11 13 12
REMARK SMILES IDX 91 13 9 14 8 15 10 17 7 18 4 19 5 20 93 21 6 22 92 23 3 24
REMARK SMILES IDX 2 25 1 26 21 27 22 28 23 29 24 30 25 31 26 33 27 34 28 35
REMARK SMILES IDX 89 36 29 37 88 38 30 39 31 40 32 41 82 42 33 43 87 44 81 45
REMARK SMILES IDX 83 46 34 47 86 48 80 49 79 50 35 52 67 53 47 54 66 55 48 56
REMARK SMILES IDX 51 57 65 58 84 59 49 60 50 61 64 63 85 64 52 65 36 66 37 67
REMARK SMILES IDX 45 68 38 69 44 70 46 71 43 72 39 73 40 74 41 75 42 76 68 77
REMARK SMILES IDX 69 78 77 79 70 80 76 81 78 82 75 83 71 84 72 85 73 86 74 87
REMARK SMILES IDX 53 88 54 89 62 90 55 91 61 92 63 93 60 94 56 95 57 96 58 97
REMARK SMILES IDX 59 98
REMARK H PARENT 17 7 8 16 24 32 83 51 51 62
REMARK Flexibility Score: inf
ROOT
ATOM      1  C   UNL A   1      31.785  29.032  27.164  1.00  0.00     0.002 C 
ENDROOT
BRANCH   1   2
ATOM      2  C   UNL A   1      33.003  28.113  27.034  1.00  0.00     0.021 C 
BRANCH   2   3
ATOM      3  C   UNL A   1      32.842  26.865  26.164  1.00  0.00     0.116 C 
BRANCH   3   4
ATOM      4  N   UNL A   1      31.803  25.946  26.617  1.00  0.00    -0.356 N 
ATOM      5  C   UNL A   1      31.692  24.593  26.676  1.00  0.00     0.225 C 
ATOM      6  O   UNL A   1      30.638  24.168  27.175  1.00  0.00    -0.275 OA
ATOM      7  H   UNL A   1      31.004  26.411  26.955  1.00  0.00     0.163 HD
BRANCH   5   8
ATOM      8  C   UNL A   1      32.693  23.566  26.128  1.00  0.00     0.102 C 
ATOM      9  N   UNL A   1      33.256  23.915  23.895  1.00  0.00    -0.321 N 
ATOM     10  C   UNL A   1      34.524  24.037  24.601  1.00  0.00     0.122 C 
ATOM     11  C   UNL A   1      32.369  23.088  24.702  1.00  0.00     0.096 C 
ATOM     12  C   UNL A   1      34.163  23.992  26.086  1.00  0.00     0.037 C 
ATOM     13  C   UNL A   1      32.656  21.593  24.501  1.00  0.00     0.032 C 
BRANCH   9  14
ATOM     14  C   UNL A   1      33.216  24.227  22.576  1.00  0.00     0.322 C 
ATOM     15  N   UNL A   1      32.590  25.305  22.049  1.00  0.00    -0.308 N 
ATOM     16  H   UNL A   1      32.524  25.227  21.069  1.00  0.00     0.171 HD
ATOM     17  O   UNL A   1      33.893  23.569  21.774  1.00  0.00    -0.248 OA
BRANCH  15  18
ATOM     18  C   UNL A   1      32.003  26.507  22.496  1.00  0.00     0.043 A 
ATOM     19  C   UNL A   1      30.526  28.853  23.001  1.00  0.00     0.119 A 
ATOM     20  C   UNL A   1      31.864  28.942  22.694  1.00  0.00     0.048 A 
ATOM     21  C   UNL A   1      29.925  27.609  23.161  1.00  0.00     0.048 A 
ATOM     22  C   UNL A   1      32.560  27.773  22.397  1.00  0.00     0.030 A 
ATOM     23  C   UNL A   1      30.676  26.439  22.952  1.00  0.00     0.030 A 
BRANCH  19  24
ATOM     24  O   UNL A   1      29.774  29.975  22.823  1.00  0.00    -0.494 OA
BRANCH  24  25
ATOM     25  C   UNL A   1      28.374  29.725  22.852  1.00  0.00     0.226 C 
ATOM     26  C   UNL A   1      27.729  30.923  23.514  1.00  0.00     0.049 C 
ENDBRANCH  24  25
ENDBRANCH  19  24
ENDBRANCH  15  18
ENDBRANCH   9  14
ENDBRANCH   5   8
ENDBRANCH   3   4
ENDBRANCH   2   3
ENDBRANCH   1   2
BRANCH   1  27
ATOM     27  C   UNL A   1      31.712  30.138  26.109  1.00  0.00     0.002 C 
BRANCH  27  28
ATOM     28  C   UNL A   1      31.552  31.565  26.650  1.00  0.00     0.021 C 
BRANCH  28  29
ATOM     29  C   UNL A   1      32.794  32.155  27.318  1.00  0.00     0.116 C 
BRANCH  29  30
ATOM     30  N   UNL A   1      32.670  33.591  27.508  1.00  0.00    -0.352 N 
ATOM     31  C   UNL A   1      33.264  34.387  28.459  1.00  0.00     0.251 C 
ATOM     32  H   UNL A   1      32.082  34.057  26.869  1.00  0.00     0.163 HD
ATOM     33  O   UNL A   1      32.855  35.526  28.653  1.00  0.00    -0.269 OA
BRANCH  31  34
ATOM     34  C   UNL A   1      34.392  33.852  29.255  1.00  0.00     0.039 A 
ATOM     35  C   UNL A   1      34.163  32.804  30.149  1.00  0.00     0.014 A 
ATOM     36  C   UNL A   1      35.675  34.389  29.114  1.00  0.00     0.014 A 
ATOM     37  C   UNL A   1      35.236  32.253  30.857  1.00  0.00     0.010 A 
ATOM     38  C   UNL A   1      36.752  33.795  29.770  1.00  0.00     0.010 A 
ATOM     39  C   UNL A   1      36.545  32.722  30.650  1.00  0.00    -0.014 A 
BRANCH  39  40
ATOM     40  C   UNL A   1      37.706  32.103  31.347  1.00  0.00     0.031 A 
ATOM     41  C   UNL A   1      38.476  30.989  30.689  1.00  0.00     0.074 A 
ATOM     42  C   UNL A   1      38.031  32.502  32.593  1.00  0.00     0.049 A 
ATOM     43  N   UNL A   1      39.465  30.274  31.161  1.00  0.00    -0.248 NA
ATOM     44  C   UNL A   1      38.056  30.613  29.331  1.00  0.00     0.031 C 
ATOM     45  C   UNL A   1      37.339  33.547  33.351  1.00  0.00     0.029 A 
ATOM     46  N   UNL A   1      39.017  32.075  33.447  1.00  0.00    -0.354 N 
ATOM     47  C   UNL A   1      39.783  29.359  30.162  1.00  0.00     0.074 A 
ATOM     48  C   UNL A   1      38.834  29.569  29.088  1.00  0.00     0.031 C 
ATOM     49  C   UNL A   1      37.933  33.690  34.546  1.00  0.00     0.029 A 
ATOM     50  C   UNL A   1      39.017  32.720  34.662  1.00  0.00     0.049 A 
ATOM     51  H   UNL A   1      39.665  31.372  33.211  1.00  0.00     0.167 HD
ATOM     52  C   UNL A   1      40.787  28.447  30.132  1.00  0.00     0.034 A 
ATOM     53  C   UNL A   1      39.788  32.539  35.753  1.00  0.00     0.034 A 
ATOM     54  C   UNL A   1      41.726  28.252  31.211  1.00  0.00     0.049 A 
ATOM     55  C   UNL A   1      40.874  31.492  35.714  1.00  0.00     0.074 A 
ATOM     56  C   UNL A   1      42.807  27.389  31.267  1.00  0.00     0.029 A 
ATOM     57  N   UNL A   1      41.691  28.920  32.429  1.00  0.00    -0.354 N 
ATOM     58  N   UNL A   1      41.193  30.668  34.742  1.00  0.00    -0.248 NA
ATOM     59  C   UNL A   1      41.710  31.358  36.913  1.00  0.00     0.031 C 
ATOM     60  C   UNL A   1      43.378  27.482  32.541  1.00  0.00     0.029 A 
ATOM     61  C   UNL A   1      42.709  28.465  33.253  1.00  0.00     0.049 A 
ATOM     62  H   UNL A   1      41.038  29.616  32.671  1.00  0.00     0.167 HD
ATOM     63  C   UNL A   1      42.286  29.941  35.204  1.00  0.00     0.074 A 
ATOM     64  C   UNL A   1      42.580  30.434  36.533  1.00  0.00     0.031 C 
ATOM     65  C   UNL A   1      42.986  28.956  34.583  1.00  0.00     0.034 A 
BRANCH  52  66
ATOM     66  C   UNL A   1      40.898  27.578  28.900  1.00  0.00     0.023 A 
ATOM     67  C   UNL A   1      41.921  27.766  27.954  1.00  0.00     0.031 A 
ATOM     68  C   UNL A   1      39.955  26.564  28.653  1.00  0.00     0.131 A 
ATOM     69  C   UNL A   1      41.927  27.015  26.768  1.00  0.00     0.055 A 
ATOM     70  C   UNL A   1      40.019  25.759  27.513  1.00  0.00     0.041 A 
ATOM     71  F   UNL A   1      38.943  26.347  29.508  1.00  0.00    -0.206 F 
ATOM     72  C   UNL A   1      41.000  25.993  26.554  1.00  0.00     0.022 A 
BRANCH  69  73
ATOM     73  S   UNL A   1      43.070  27.499  25.445  1.00  0.00     0.124 S 
ATOM     74  O   UNL A   1      42.187  28.247  24.552  1.00  0.00    -0.237 OA
ATOM     75  O   UNL A   1      44.068  28.284  26.161  1.00  0.00    -0.237 OA
ATOM     76  O   UNL A   1      43.541  26.221  24.915  1.00  0.00    -0.744 OA
ENDBRANCH  69  73
ENDBRANCH  52  66
BRANCH  53  77
ATOM     77  C   UNL A   1      39.559  33.350  36.984  1.00  0.00     0.023 A 
ATOM     78  C   UNL A   1      40.291  34.523  37.229  1.00  0.00     0.031 A 
ATOM     79  C   UNL A   1      38.628  32.941  37.957  1.00  0.00     0.131 A 
ATOM     80  C   UNL A   1      40.117  35.218  38.436  1.00  0.00     0.055 A 
ATOM     81  C   UNL A   1      38.417  33.666  39.131  1.00  0.00     0.041 A 
ATOM     82  F   UNL A   1      37.899  31.828  37.773  1.00  0.00    -0.206 F 
ATOM     83  C   UNL A   1      39.174  34.805  39.383  1.00  0.00     0.022 A 
BRANCH  80  84
ATOM     84  S   UNL A   1      41.206  36.623  38.796  1.00  0.00     0.124 S 
ATOM     85  O   UNL A   1      42.298  35.976  39.512  1.00  0.00    -0.237 OA
ATOM     86  O   UNL A   1      41.517  37.114  37.457  1.00  0.00    -0.237 OA
ATOM     87  O   UNL A   1      40.367  37.507  39.602  1.00  0.00    -0.744 OA
ENDBRANCH  80  84
ENDBRANCH  53  77
BRANCH  65  88
ATOM     88  C   UNL A   1      44.171  28.382  35.324  1.00  0.00     0.023 A 
ATOM     89  C   UNL A   1      44.018  27.424  36.341  1.00  0.00     0.031 A 
ATOM     90  C   UNL A   1      45.474  28.810  35.011  1.00  0.00     0.131 A 
ATOM     91  C   UNL A   1      45.143  26.966  37.046  1.00  0.00     0.055 A 
ATOM     92  C   UNL A   1      46.594  28.303  35.670  1.00  0.00     0.041 A 
ATOM     93  F   UNL A   1      45.681  29.726  34.051  1.00  0.00    -0.206 F 
ATOM     94  C   UNL A   1      46.431  27.385  36.704  1.00  0.00     0.022 A 
BRANCH  91  95
ATOM     95  S   UNL A   1      44.892  25.883  38.479  1.00  0.00     0.124 S 
ATOM     96  O   UNL A   1      44.369  24.672  37.857  1.00  0.00    -0.237 OA
ATOM     97  O   UNL A   1      46.237  25.785  39.035  1.00  0.00    -0.237 OA
ATOM     98  O   UNL A   1      43.935  26.620  39.303  1.00  0.00    -0.744 OA
ENDBRANCH  91  95
ENDBRANCH  65  88
ENDBRANCH  39  40
ENDBRANCH  31  34
ENDBRANCH  29  30
ENDBRANCH  28  29
ENDBRANCH  27  28
ENDBRANCH   1  27
TORSDOF 20
ENDMDL
MODEL 3
REMARK VINA RESULT:     -11.7      2.009      4.239
REMARK SMILES CCOc1ccc(NC(=O)N2CC[C@@H](C(=O)NCCCCCCNC(=O)c3ccc(-c4c5nc(c(-c6cc(S(=O)(=O)[O-])ccc6F)c6ccc([nH]6)c(-c6cc(S(=O)(=O)[O-])ccc6F)c6nc(c(-c7cc(S(=O)(=O)[O-])ccc7F)c7ccc4[nH]7)C=C6)C=C5)cc3)[C@@H]2C)cc1
REMARK SMILES IDX 20 1 19 2 18 3 17 4 15 5 16 6 14 8 11 9 12 10 90 11 13 12
REMARK SMILES IDX 91 13 9 14 8 15 10 17 7 18 4 19 5 20 93 21 6 22 92 23 3 24
REMARK SMILES IDX 2 25 1 26 21 27 22 28 23 29 24 30 25 31 26 33 27 34 28 35
REMARK SMILES IDX 89 36 29 37 88 38 30 39 31 40 32 41 82 42 33 43 87 44 81 45
REMARK SMILES IDX 83 46 34 47 86 48 80 49 79 50 35 52 67 53 47 54 66 55 48 56
REMARK SMILES IDX 51 57 65 58 84 59 49 60 50 61 64 63 85 64 52 65 36 66 37 67
REMARK SMILES IDX 45 68 38 69 44 70 46 71 43 72 39 73 40 74 41 75 42 76 68 77
REMARK SMILES IDX 69 78 77 79 70 80 76 81 78 82 75 83 71 84 72 85 73 86 74 87
REMARK SMILES IDX 53 88 54 89 62 90 55 91 61 92 63 93 60 94 56 95 57 96 58 97
REMARK SMILES IDX 59 98
REMARK H PARENT 17 7 8 16 24 32 83 51 51 62
REMARK Flexibility Score: inf
ROOT
ATOM      1  C   UNL A   1      32.268  29.510  25.604  1.00  0.00     0.002 C 
ENDROOT
BRANCH   1   2
ATOM      2  C   UNL A   1      32.400  28.972  24.176  1.00  0.00     0.021 C 
BRANCH   2   3
ATOM      3  C   UNL A   1      31.121  28.896  23.341  1.00  0.00     0.116 C 
BRANCH   3   4
ATOM      4  N   UNL A   1      30.146  27.922  23.821  1.00  0.00    -0.356 N 
ATOM      5  C   UNL A   1      30.156  26.574  23.995  1.00  0.00     0.225 C 
ATOM      6  O   UNL A   1      29.119  26.093  24.477  1.00  0.00    -0.275 OA
ATOM      7  H   UNL A   1      29.289  28.334  24.077  1.00  0.00     0.163 HD
BRANCH   5   8
ATOM      8  C   UNL A   1      31.276  25.606  23.590  1.00  0.00     0.102 C 
ATOM      9  N   UNL A   1      31.949  24.188  25.312  1.00  0.00    -0.321 N 
ATOM     10  C   UNL A   1      31.468  23.283  24.278  1.00  0.00     0.122 C 
ATOM     11  C   UNL A   1      32.360  25.429  24.669  1.00  0.00     0.096 C 
ATOM     12  C   UNL A   1      30.853  24.185  23.208  1.00  0.00     0.037 C 
ATOM     13  C   UNL A   1      33.770  25.314  24.074  1.00  0.00     0.032 C 
BRANCH   9  14
ATOM     14  C   UNL A   1      32.268  23.676  26.526  1.00  0.00     0.322 C 
ATOM     15  N   UNL A   1      33.407  23.005  26.814  1.00  0.00    -0.308 N 
ATOM     16  H   UNL A   1      33.340  22.561  27.691  1.00  0.00     0.171 HD
ATOM     17  O   UNL A   1      31.544  23.923  27.500  1.00  0.00    -0.248 OA
BRANCH  15  18
ATOM     18  C   UNL A   1      34.664  22.759  26.223  1.00  0.00     0.043 A 
ATOM     19  C   UNL A   1      37.240  21.946  25.418  1.00  0.00     0.119 A 
ATOM     20  C   UNL A   1      37.020  23.254  25.786  1.00  0.00     0.048 A 
ATOM     21  C   UNL A   1      36.177  21.052  25.345  1.00  0.00     0.048 A 
ATOM     22  C   UNL A   1      35.752  23.618  26.231  1.00  0.00     0.030 A 
ATOM     23  C   UNL A   1      34.885  21.472  25.705  1.00  0.00     0.030 A 
BRANCH  19  24
ATOM     24  O   UNL A   1      38.526  21.502  25.447  1.00  0.00    -0.494 OA
BRANCH  24  25
ATOM     25  C   UNL A   1      39.348  22.217  26.363  1.00  0.00     0.226 C 
ATOM     26  C   UNL A   1      40.376  21.238  26.886  1.00  0.00     0.049 C 
ENDBRANCH  24  25
ENDBRANCH  19  24
ENDBRANCH  15  18
ENDBRANCH   9  14
ENDBRANCH   5   8
ENDBRANCH   3   4
ENDBRANCH   2   3
ENDBRANCH   1   2
BRANCH   1  27
ATOM     27  C   UNL A   1      31.500  30.828  25.714  1.00  0.00     0.002 C 
BRANCH  27  28
ATOM     28  C   UNL A   1      31.658  31.582  27.041  1.00  0.00     0.021 C 
BRANCH  28  29
ATOM     29  C   UNL A   1      32.967  32.355  27.204  1.00  0.00     0.116 C 
BRANCH  29  30
ATOM     30  N   UNL A   1      32.728  33.755  27.515  1.00  0.00    -0.352 N 
ATOM     31  C   UNL A   1      33.231  34.503  28.554  1.00  0.00     0.251 C 
ATOM     32  H   UNL A   1      32.125  34.232  26.899  1.00  0.00     0.163 HD
ATOM     33  O   UNL A   1      32.730  35.586  28.834  1.00  0.00    -0.269 OA
BRANCH  31  34
ATOM     34  C   UNL A   1      34.372  33.981  29.341  1.00  0.00     0.039 A 
ATOM     35  C   UNL A   1      34.133  33.080  30.380  1.00  0.00     0.014 A 
ATOM     36  C   UNL A   1      35.678  34.386  29.047  1.00  0.00     0.014 A 
ATOM     37  C   UNL A   1      35.211  32.537  31.085  1.00  0.00     0.010 A 
ATOM     38  C   UNL A   1      36.753  33.794  29.706  1.00  0.00     0.010 A 
ATOM     39  C   UNL A   1      36.533  32.863  30.734  1.00  0.00    -0.014 A 
BRANCH  39  40
ATOM     40  C   UNL A   1      37.693  32.244  31.431  1.00  0.00     0.031 A 
ATOM     41  C   UNL A   1      38.429  31.094  30.798  1.00  0.00     0.074 A 
ATOM     42  C   UNL A   1      38.048  32.678  32.657  1.00  0.00     0.049 A 
ATOM     43  N   UNL A   1      39.411  30.374  31.276  1.00  0.00    -0.248 NA
ATOM     44  C   UNL A   1      37.978  30.681  29.461  1.00  0.00     0.031 C 
ATOM     45  C   UNL A   1      37.391  33.761  33.391  1.00  0.00     0.029 A 
ATOM     46  N   UNL A   1      39.041  32.258  33.507  1.00  0.00    -0.354 N 
ATOM     47  C   UNL A   1      39.693  29.420  30.303  1.00  0.00     0.074 A 
ATOM     48  C   UNL A   1      38.730  29.614  29.239  1.00  0.00     0.031 C 
ATOM     49  C   UNL A   1      38.009  33.932  34.570  1.00  0.00     0.029 A 
ATOM     50  C   UNL A   1      39.076  32.943  34.700  1.00  0.00     0.049 A 
ATOM     51  H   UNL A   1      39.670  31.535  33.284  1.00  0.00     0.167 HD
ATOM     52  C   UNL A   1      40.678  28.487  30.286  1.00  0.00     0.034 A 
ATOM     53  C   UNL A   1      39.862  32.783  35.784  1.00  0.00     0.034 A 
ATOM     54  C   UNL A   1      41.631  28.308  31.355  1.00  0.00     0.049 A 
ATOM     55  C   UNL A   1      40.925  31.713  35.761  1.00  0.00     0.074 A 
ATOM     56  C   UNL A   1      42.696  27.425  31.422  1.00  0.00     0.029 A 
ATOM     57  N   UNL A   1      41.632  29.017  32.550  1.00  0.00    -0.354 N 
ATOM     58  N   UNL A   1      41.210  30.851  34.811  1.00  0.00    -0.248 NA
ATOM     59  C   UNL A   1      41.780  31.602  36.950  1.00  0.00     0.031 C 
ATOM     60  C   UNL A   1      43.292  27.549  32.682  1.00  0.00     0.029 A 
ATOM     61  C   UNL A   1      42.655  28.568  33.372  1.00  0.00     0.049 A 
ATOM     62  H   UNL A   1      40.998  29.734  32.780  1.00  0.00     0.167 HD
ATOM     63  C   UNL A   1      42.296  30.117  35.279  1.00  0.00     0.074 A 
ATOM     64  C   UNL A   1      42.624  30.648  36.586  1.00  0.00     0.031 C 
ATOM     65  C   UNL A   1      42.966  29.098  34.680  1.00  0.00     0.034 A 
BRANCH  52  66
ATOM     66  C   UNL A   1      40.749  27.575  29.083  1.00  0.00     0.023 A 
ATOM     67  C   UNL A   1      41.692  27.776  28.059  1.00  0.00     0.031 A 
ATOM     68  C   UNL A   1      39.847  26.505  28.942  1.00  0.00     0.131 A 
ATOM     69  C   UNL A   1      41.656  26.979  26.905  1.00  0.00     0.055 A 
ATOM     70  C   UNL A   1      39.876  25.658  27.831  1.00  0.00     0.041 A 
ATOM     71  F   UNL A   1      38.912  26.271  29.875  1.00  0.00    -0.206 F 
ATOM     72  C   UNL A   1      40.772  25.904  26.795  1.00  0.00     0.022 A 
BRANCH  69  73
ATOM     73  S   UNL A   1      42.675  27.467  25.486  1.00  0.00     0.124 S 
ATOM     74  O   UNL A   1      43.970  27.706  26.121  1.00  0.00    -0.237 OA
ATOM     75  O   UNL A   1      42.594  26.297  24.621  1.00  0.00    -0.237 OA
ATOM     76  O   UNL A   1      42.008  28.665  24.981  1.00  0.00    -0.744 OA
ENDBRANCH  69  73
ENDBRANCH  52  66
BRANCH  53  77
ATOM     77  C   UNL A   1      39.671  33.640  36.991  1.00  0.00     0.023 A 
ATOM     78  C   UNL A   1      40.513  34.734  37.247  1.00  0.00     0.031 A 
ATOM     79  C   UNL A   1      38.664  33.350  37.930  1.00  0.00     0.131 A 
ATOM     80  C   UNL A   1      40.365  35.468  38.434  1.00  0.00     0.055 A 
ATOM     81  C   UNL A   1      38.484  34.118  39.082  1.00  0.00     0.041 A 
ATOM     82  F   UNL A   1      37.829  32.317  37.733  1.00  0.00    -0.206 F 
ATOM     83  C   UNL A   1      39.347  35.177  39.346  1.00  0.00     0.022 A 
BRANCH  80  84
ATOM     84  S   UNL A   1      41.582  36.758  38.816  1.00  0.00     0.124 S 
ATOM     85  O   UNL A   1      42.200  36.977  37.514  1.00  0.00    -0.237 OA
ATOM     86  O   UNL A   1      40.733  37.835  39.315  1.00  0.00    -0.237 OA
ATOM     87  O   UNL A   1      42.441  36.130  39.818  1.00  0.00    -0.744 OA
ENDBRANCH  80  84
ENDBRANCH  53  77
BRANCH  65  88
ATOM     88  C   UNL A   1      44.151  28.525  35.420  1.00  0.00     0.023 A 
ATOM     89  C   UNL A   1      44.006  27.515  36.387  1.00  0.00     0.031 A 
ATOM     90  C   UNL A   1      45.447  29.004  35.155  1.00  0.00     0.131 A 
ATOM     91  C   UNL A   1      45.130  27.057  37.094  1.00  0.00     0.055 A 
ATOM     92  C   UNL A   1      46.568  28.499  35.815  1.00  0.00     0.041 A 
ATOM     93  F   UNL A   1      45.646  29.971  34.244  1.00  0.00    -0.206 F 
ATOM     94  C   UNL A   1      46.411  27.529  36.801  1.00  0.00     0.022 A 
BRANCH  91  95
ATOM     95  S   UNL A   1      44.882  25.901  38.470  1.00  0.00     0.124 S 
ATOM     96  O   UNL A   1      43.949  26.635  39.319  1.00  0.00    -0.237 OA
ATOM     97  O   UNL A   1      44.342  24.726  37.797  1.00  0.00    -0.237 OA
ATOM     98  O   UNL A   1      46.225  25.734  39.024  1.00  0.00    -0.744 OA
ENDBRANCH  91  95
ENDBRANCH  65  88
ENDBRANCH  39  40
ENDBRANCH  31  34
ENDBRANCH  29  30
ENDBRANCH  28  29
ENDBRANCH  27  28
ENDBRANCH   1  27
TORSDOF 20
ENDMDL
