MODEL 1
REMARK VINA RESULT:     -13.6      0.000      0.000
REMARK SMILES Cc1cnn(C2(C(=O)NCCCCCCNC(=O)c3ccc(-c4c5nc(c(-c6cc(S(=O)(=O)[O-])ccc6F)c6ccc([nH]6)c(-c6cc(S(=O)(=O)[O-])ccc6F)c6nc(c(-c7cc(S(=O)(=O)[O-])ccc7F)c7ccc4[nH]7)C=C6)C=C5)cc3)CCN(C(=O)c3cc4ccccc4[nH]3)CC2)c1
REMARK SMILES IDX 13 1 12 2 11 3 10 4 9 5 7 6 8 7 6 9 82 10 97 11 83 12 96 13
REMARK SMILES IDX 84 14 85 15 86 16 5 17 1 18 2 19 3 20 98 21 4 22 87 23 88 24
REMARK SMILES IDX 95 25 89 26 94 27 90 29 93 30 91 31 92 32 14 33 15 34 16 35
REMARK SMILES IDX 17 36 18 38 19 39 20 40 81 41 21 42 80 43 22 44 23 45 24 46
REMARK SMILES IDX 74 47 25 48 79 49 73 50 75 51 26 52 78 53 72 54 71 55 27 57
REMARK SMILES IDX 59 58 39 59 58 60 40 61 43 62 57 63 76 64 41 65 42 66 56 68
REMARK SMILES IDX 77 69 44 70 28 71 29 72 37 73 30 74 36 75 38 76 35 77 31 78
REMARK SMILES IDX 32 79 33 80 34 81 60 82 61 83 69 84 62 85 68 86 70 87 67 88
REMARK SMILES IDX 63 89 64 90 65 91 66 92 45 93 46 94 54 95 47 96 53 97 55 98
REMARK SMILES IDX 52 99 48 100 49 101 50 102 51 103
REMARK H PARENT 9 8 95 28 16 37 75 56 43 67
REMARK Flexibility Score: inf
ROOT
ATOM      1  C   UNL A   1      33.288  30.960  27.223  1.00  0.00     0.002 C 
ENDROOT
BRANCH   1   2
ATOM      2  C   UNL A   1      31.857  30.553  26.842  1.00  0.00     0.002 C 
BRANCH   2   3
ATOM      3  C   UNL A   1      31.679  29.125  26.315  1.00  0.00     0.021 C 
BRANCH   3   4
ATOM      4  C   UNL A   1      31.732  28.040  27.391  1.00  0.00     0.116 C 
BRANCH   4   5
ATOM      5  N   UNL A   1      30.724  27.018  27.161  1.00  0.00    -0.354 N 
ATOM      6  C   UNL A   1      30.642  25.955  26.293  1.00  0.00     0.248 C 
ATOM      7  O   UNL A   1      29.535  25.413  26.302  1.00  0.00    -0.272 OA
ATOM      8  H   UNL A   1      29.937  27.105  27.746  1.00  0.00     0.163 HD
BRANCH   6   9
ATOM      9  C   UNL A   1      31.866  25.521  25.414  1.00  0.00     0.144 C 
ATOM     10  C   UNL A   1      33.115  25.541  26.339  1.00  0.00     0.062 C 
ATOM     11  C   UNL A   1      31.508  24.138  24.804  1.00  0.00     0.062 C 
ATOM     12  C   UNL A   1      34.182  24.495  26.041  1.00  0.00     0.123 C 
ATOM     13  C   UNL A   1      32.708  23.266  24.472  1.00  0.00     0.123 C 
ATOM     14  N   UNL A   1      33.643  23.222  25.589  1.00  0.00    -0.337 N 
ATOM     15  C   UNL A   1      34.069  22.048  26.206  1.00  0.00     0.270 C 
ATOM     16  O   UNL A   1      34.565  22.052  27.333  1.00  0.00    -0.267 OA
BRANCH   9  17
ATOM     17  N   UNL A   1      32.134  26.431  24.252  1.00  0.00    -0.257 N 
ATOM     18  C   UNL A   1      34.226  28.338  21.924  1.00  0.00     0.048 C 
ATOM     19  C   UNL A   1      33.192  27.631  22.706  1.00  0.00    -0.013 A 
ATOM     20  C   UNL A   1      31.826  27.472  22.423  1.00  0.00     0.138 A 
ATOM     21  C   UNL A   1      33.357  26.957  23.894  1.00  0.00     0.113 A 
ATOM     22  N   UNL A   1      31.210  26.691  23.309  1.00  0.00    -0.180 NA
ENDBRANCH   9  17
BRANCH  15  23
ATOM     23  C   UNL A   1      33.867  20.813  25.492  1.00  0.00     0.105 A 
ATOM     24  C   UNL A   1      32.729  20.304  24.886  1.00  0.00     0.042 A 
ATOM     25  N   UNL A   1      34.884  19.929  25.231  1.00  0.00    -0.351 N 
ATOM     26  C   UNL A   1      33.056  19.041  24.321  1.00  0.00     0.000 A 
ATOM     27  C   UNL A   1      34.399  18.804  24.605  1.00  0.00     0.046 A 
ATOM     28  H   UNL A   1      35.830  20.079  25.460  1.00  0.00     0.167 HD
ATOM     29  C   UNL A   1      32.334  18.074  23.598  1.00  0.00     0.010 A 
ATOM     30  C   UNL A   1      35.050  17.619  24.246  1.00  0.00     0.026 A 
ATOM     31  C   UNL A   1      32.975  16.891  23.211  1.00  0.00     0.001 A 
ATOM     32  C   UNL A   1      34.309  16.663  23.546  1.00  0.00     0.002 A 
ENDBRANCH  15  23
ENDBRANCH   6   9
ENDBRANCH   4   5
ENDBRANCH   3   4
ENDBRANCH   2   3
ENDBRANCH   1   2
BRANCH   1  33
ATOM     33  C   UNL A   1      34.424  30.109  26.636  1.00  0.00     0.021 C 
BRANCH  33  34
ATOM     34  C   UNL A   1      35.187  29.296  27.669  1.00  0.00     0.116 C 
BRANCH  34  35
ATOM     35  N   UNL A   1      35.401  30.024  28.919  1.00  0.00    -0.352 N 
ATOM     36  C   UNL A   1      36.438  29.874  29.831  1.00  0.00     0.251 C 
ATOM     37  H   UNL A   1      34.726  30.705  29.142  1.00  0.00     0.163 HD
ATOM     38  O   UNL A   1      36.305  30.221  30.987  1.00  0.00    -0.269 OA
BRANCH  36  39
ATOM     39  C   UNL A   1      37.703  29.281  29.347  1.00  0.00     0.039 A 
ATOM     40  C   UNL A   1      38.358  29.745  28.205  1.00  0.00     0.014 A 
ATOM     41  C   UNL A   1      38.250  28.254  30.108  1.00  0.00     0.014 A 
ATOM     42  C   UNL A   1      39.610  29.212  27.891  1.00  0.00     0.010 A 
ATOM     43  C   UNL A   1      39.555  27.895  29.922  1.00  0.00     0.010 A 
ATOM     44  C   UNL A   1      40.213  28.298  28.770  1.00  0.00    -0.014 A 
BRANCH  44  45
ATOM     45  C   UNL A   1      41.586  27.831  28.589  1.00  0.00     0.031 A 
ATOM     46  C   UNL A   1      41.672  26.552  27.843  1.00  0.00     0.074 A 
ATOM     47  C   UNL A   1      42.670  28.605  28.839  1.00  0.00     0.049 A 
ATOM     48  N   UNL A   1      41.889  25.374  28.324  1.00  0.00    -0.248 NA
ATOM     49  C   UNL A   1      41.254  26.539  26.428  1.00  0.00     0.031 C 
ATOM     50  C   UNL A   1      42.676  30.011  29.274  1.00  0.00     0.029 A 
ATOM     51  N   UNL A   1      43.999  28.353  28.657  1.00  0.00    -0.354 N 
ATOM     52  C   UNL A   1      41.981  24.540  27.212  1.00  0.00     0.074 A 
ATOM     53  C   UNL A   1      41.298  25.231  26.157  1.00  0.00     0.031 C 
ATOM     54  C   UNL A   1      43.901  30.550  29.084  1.00  0.00     0.029 A 
ATOM     55  C   UNL A   1      44.815  29.486  28.716  1.00  0.00     0.049 A 
ATOM     56  H   UNL A   1      44.354  27.449  28.496  1.00  0.00     0.167 HD
ATOM     57  C   UNL A   1      42.938  23.569  27.172  1.00  0.00     0.034 A 
ATOM     58  C   UNL A   1      46.159  29.559  28.523  1.00  0.00     0.034 A 
ATOM     59  C   UNL A   1      43.525  23.403  28.486  1.00  0.00     0.049 A 
ATOM     60  C   UNL A   1      46.697  28.214  28.815  1.00  0.00     0.074 A 
ATOM     61  C   UNL A   1      43.155  22.860  29.696  1.00  0.00     0.029 A 
ATOM     62  N   UNL A   1      44.580  24.249  28.724  1.00  0.00    -0.354 N 
ATOM     63  N   UNL A   1      46.608  27.662  29.996  1.00  0.00    -0.248 NA
ATOM     64  C   UNL A   1      46.972  27.291  27.720  1.00  0.00     0.031 C 
ATOM     65  C   UNL A   1      43.911  23.556  30.690  1.00  0.00     0.029 A 
ATOM     66  C   UNL A   1      44.765  24.461  30.065  1.00  0.00     0.049 A 
ATOM     67  H   UNL A   1      45.136  24.652  28.018  1.00  0.00     0.167 HD
ATOM     68  C   UNL A   1      46.367  26.329  29.736  1.00  0.00     0.074 A 
ATOM     69  C   UNL A   1      46.783  26.129  28.353  1.00  0.00     0.031 C 
ATOM     70  C   UNL A   1      45.548  25.590  30.541  1.00  0.00     0.034 A 
BRANCH  57  71
ATOM     71  C   UNL A   1      43.727  23.145  25.937  1.00  0.00     0.023 A 
ATOM     72  C   UNL A   1      43.700  21.772  25.605  1.00  0.00     0.031 A 
ATOM     73  C   UNL A   1      44.711  23.908  25.266  1.00  0.00     0.131 A 
ATOM     74  C   UNL A   1      44.665  21.205  24.754  1.00  0.00     0.055 A 
ATOM     75  C   UNL A   1      45.646  23.346  24.389  1.00  0.00     0.041 A 
ATOM     76  F   UNL A   1      44.889  25.215  25.471  1.00  0.00    -0.206 F 
ATOM     77  C   UNL A   1      45.647  21.984  24.152  1.00  0.00     0.022 A 
BRANCH  74  78
ATOM     78  S   UNL A   1      44.713  19.404  24.567  1.00  0.00     0.124 S 
ATOM     79  O   UNL A   1      43.506  18.996  25.275  1.00  0.00    -0.237 OA
ATOM     80  O   UNL A   1      44.694  19.256  23.114  1.00  0.00    -0.237 OA
ATOM     81  O   UNL A   1      45.970  19.032  25.212  1.00  0.00    -0.744 OA
ENDBRANCH  74  78
ENDBRANCH  57  71
BRANCH  58  82
ATOM     82  C   UNL A   1      46.923  30.626  27.817  1.00  0.00     0.023 A 
ATOM     83  C   UNL A   1      46.313  31.689  27.112  1.00  0.00     0.031 A 
ATOM     84  C   UNL A   1      48.310  30.742  28.063  1.00  0.00     0.131 A 
ATOM     85  C   UNL A   1      47.082  32.808  26.704  1.00  0.00     0.055 A 
ATOM     86  C   UNL A   1      49.059  31.852  27.669  1.00  0.00     0.041 A 
ATOM     87  F   UNL A   1      48.964  29.812  28.776  1.00  0.00    -0.206 F 
ATOM     88  C   UNL A   1      48.445  32.897  26.997  1.00  0.00     0.022 A 
BRANCH  85  89
ATOM     89  S   UNL A   1      46.302  34.216  25.843  1.00  0.00     0.124 S 
ATOM     90  O   UNL A   1      47.413  34.766  25.074  1.00  0.00    -0.237 OA
ATOM     91  O   UNL A   1      45.241  33.569  25.080  1.00  0.00    -0.237 OA
ATOM     92  O   UNL A   1      45.834  35.070  26.936  1.00  0.00    -0.744 OA
ENDBRANCH  85  89
ENDBRANCH  58  82
BRANCH  70  93
ATOM     93  C   UNL A   1      45.381  26.034  31.973  1.00  0.00     0.023 A 
ATOM     94  C   UNL A   1      44.258  26.704  32.508  1.00  0.00     0.031 A 
ATOM     95  C   UNL A   1      46.429  25.707  32.852  1.00  0.00     0.131 A 
ATOM     96  C   UNL A   1      44.222  27.020  33.882  1.00  0.00     0.055 A 
ATOM     97  C   UNL A   1      46.380  26.003  34.212  1.00  0.00     0.041 A 
ATOM     98  F   UNL A   1      47.519  25.065  32.401  1.00  0.00    -0.206 F 
ATOM     99  C   UNL A   1      45.276  26.666  34.732  1.00  0.00     0.022 A 
BRANCH  96 100
ATOM    100  S   UNL A   1      42.811  27.929  34.596  1.00  0.00     0.124 S 
ATOM    101  O   UNL A   1      42.496  27.177  35.804  1.00  0.00    -0.237 OA
ATOM    102  O   UNL A   1      43.367  29.264  34.801  1.00  0.00    -0.237 OA
ATOM    103  O   UNL A   1      41.791  27.853  33.548  1.00  0.00    -0.744 OA
ENDBRANCH  96 100
ENDBRANCH  70  93
ENDBRANCH  44  45
ENDBRANCH  36  39
ENDBRANCH  34  35
ENDBRANCH  33  34
ENDBRANCH   1  33
TORSDOF 18
ENDMDL
MODEL 2
REMARK VINA RESULT:     -13.3      4.036      5.274
REMARK SMILES Cc1cnn(C2(C(=O)NCCCCCCNC(=O)c3ccc(-c4c5nc(c(-c6cc(S(=O)(=O)[O-])ccc6F)c6ccc([nH]6)c(-c6cc(S(=O)(=O)[O-])ccc6F)c6nc(c(-c7cc(S(=O)(=O)[O-])ccc7F)c7ccc4[nH]7)C=C6)C=C5)cc3)CCN(C(=O)c3cc4ccccc4[nH]3)CC2)c1
REMARK SMILES IDX 13 1 12 2 11 3 10 4 9 5 7 6 8 7 6 9 82 10 97 11 83 12 96 13
REMARK SMILES IDX 84 14 85 15 86 16 5 17 1 18 2 19 3 20 98 21 4 22 87 23 88 24
REMARK SMILES IDX 95 25 89 26 94 27 90 29 93 30 91 31 92 32 14 33 15 34 16 35
REMARK SMILES IDX 17 36 18 38 19 39 20 40 81 41 21 42 80 43 22 44 23 45 24 46
REMARK SMILES IDX 74 47 25 48 79 49 73 50 75 51 26 52 78 53 72 54 71 55 27 57
REMARK SMILES IDX 59 58 39 59 58 60 40 61 43 62 57 63 76 64 41 65 42 66 56 68
REMARK SMILES IDX 77 69 44 70 28 71 29 72 37 73 30 74 36 75 38 76 35 77 31 78
REMARK SMILES IDX 32 79 33 80 34 81 60 82 61 83 69 84 62 85 68 86 70 87 67 88
REMARK SMILES IDX 63 89 64 90 65 91 66 92 45 93 46 94 54 95 47 96 53 97 55 98
REMARK SMILES IDX 52 99 48 100 49 101 50 102 51 103
REMARK H PARENT 9 8 95 28 16 37 75 56 43 67
REMARK Flexibility Score: inf
ROOT
ATOM      1  C   UNL A   1      32.754  30.030  27.589  1.00  0.00     0.002 C 
ENDROOT
BRANCH   1   2
ATOM      2  C   UNL A   1      34.120  29.951  26.893  1.00  0.00     0.002 C 
BRANCH   2   3
ATOM      3  C   UNL A   1      34.430  28.638  26.164  1.00  0.00     0.021 C 
BRANCH   3   4
ATOM      4  C   UNL A   1      33.272  28.083  25.336  1.00  0.00     0.116 C 
BRANCH   4   5
ATOM      5  N   UNL A   1      32.482  27.132  26.103  1.00  0.00    -0.354 N 
ATOM      6  C   UNL A   1      32.126  25.821  25.895  1.00  0.00     0.248 C 
ATOM      7  O   UNL A   1      31.304  25.411  26.717  1.00  0.00    -0.272 OA
ATOM      8  H   UNL A   1      32.129  27.504  26.943  1.00  0.00     0.163 HD
BRANCH   6   9
ATOM      9  C   UNL A   1      32.742  24.981  24.722  1.00  0.00     0.144 C 
ATOM     10  C   UNL A   1      34.286  25.047  24.883  1.00  0.00     0.062 C 
ATOM     11  C   UNL A   1      32.119  23.561  24.815  1.00  0.00     0.062 C 
ATOM     12  C   UNL A   1      35.054  23.803  24.451  1.00  0.00     0.123 C 
ATOM     13  C   UNL A   1      32.986  22.454  24.238  1.00  0.00     0.123 C 
ATOM     14  N   UNL A   1      34.354  22.558  24.727  1.00  0.00    -0.337 N 
ATOM     15  C   UNL A   1      35.027  21.536  25.393  1.00  0.00     0.270 C 
ATOM     16  O   UNL A   1      36.021  21.758  26.086  1.00  0.00    -0.267 OA
BRANCH   9  17
ATOM     17  N   UNL A   1      32.396  25.498  23.357  1.00  0.00    -0.257 N 
ATOM     18  C   UNL A   1      32.587  25.646  19.700  1.00  0.00     0.048 C 
ATOM     19  C   UNL A   1      32.314  25.748  21.148  1.00  0.00    -0.013 A 
ATOM     20  C   UNL A   1      31.296  26.453  21.807  1.00  0.00     0.138 A 
ATOM     21  C   UNL A   1      33.012  25.151  22.173  1.00  0.00     0.113 A 
ATOM     22  N   UNL A   1      31.299  26.243  23.122  1.00  0.00    -0.180 NA
ENDBRANCH   9  17
BRANCH  15  23
ATOM     23  C   UNL A   1      34.486  20.205  25.281  1.00  0.00     0.105 A 
ATOM     24  C   UNL A   1      33.221  19.723  25.577  1.00  0.00     0.042 A 
ATOM     25  N   UNL A   1      35.196  19.156  24.751  1.00  0.00    -0.351 N 
ATOM     26  C   UNL A   1      33.202  18.330  25.295  1.00  0.00     0.000 A 
ATOM     27  C   UNL A   1      34.472  17.990  24.835  1.00  0.00     0.046 A 
ATOM     28  H   UNL A   1      36.099  19.228  24.365  1.00  0.00     0.167 HD
ATOM     29  C   UNL A   1      32.222  17.324  25.391  1.00  0.00     0.010 A 
ATOM     30  C   UNL A   1      34.833  16.677  24.514  1.00  0.00     0.026 A 
ATOM     31  C   UNL A   1      32.560  16.008  25.053  1.00  0.00     0.001 A 
ATOM     32  C   UNL A   1      33.852  15.690  24.636  1.00  0.00     0.002 A 
ENDBRANCH  15  23
ENDBRANCH   6   9
ENDBRANCH   4   5
ENDBRANCH   3   4
ENDBRANCH   2   3
ENDBRANCH   1   2
BRANCH   1  33
ATOM     33  C   UNL A   1      31.965  31.336  27.411  1.00  0.00     0.021 C 
BRANCH  33  34
ATOM     34  C   UNL A   1      32.769  32.467  26.791  1.00  0.00     0.116 C 
BRANCH  34  35
ATOM     35  N   UNL A   1      32.459  33.770  27.377  1.00  0.00    -0.352 N 
ATOM     36  C   UNL A   1      32.974  34.330  28.540  1.00  0.00     0.251 C 
ATOM     37  H   UNL A   1      31.805  34.319  26.887  1.00  0.00     0.163 HD
ATOM     38  O   UNL A   1      32.368  35.201  29.131  1.00  0.00    -0.269 OA
BRANCH  36  39
ATOM     39  C   UNL A   1      34.277  33.833  29.029  1.00  0.00     0.039 A 
ATOM     40  C   UNL A   1      34.383  32.919  30.080  1.00  0.00     0.014 A 
ATOM     41  C   UNL A   1      35.413  34.281  28.364  1.00  0.00     0.014 A 
ATOM     42  C   UNL A   1      35.643  32.406  30.394  1.00  0.00     0.010 A 
ATOM     43  C   UNL A   1      36.598  33.622  28.529  1.00  0.00     0.010 A 
ATOM     44  C   UNL A   1      36.748  32.750  29.596  1.00  0.00    -0.014 A 
BRANCH  44  45
ATOM     45  C   UNL A   1      38.057  32.121  29.766  1.00  0.00     0.031 A 
ATOM     46  C   UNL A   1      38.082  30.703  29.334  1.00  0.00     0.074 A 
ATOM     47  C   UNL A   1      39.184  32.822  30.037  1.00  0.00     0.049 A 
ATOM     48  N   UNL A   1      38.061  29.652  30.084  1.00  0.00    -0.248 NA
ATOM     49  C   UNL A   1      37.887  30.404  27.902  1.00  0.00     0.031 C 
ATOM     50  C   UNL A   1      39.314  34.284  30.160  1.00  0.00     0.029 A 
ATOM     51  N   UNL A   1      40.480  32.407  30.153  1.00  0.00    -0.354 N 
ATOM     52  C   UNL A   1      38.209  28.579  29.207  1.00  0.00     0.074 A 
ATOM     53  C   UNL A   1      37.794  29.072  27.925  1.00  0.00     0.031 C 
ATOM     54  C   UNL A   1      40.615  34.642  30.083  1.00  0.00     0.029 A 
ATOM     55  C   UNL A   1      41.422  33.437  30.118  1.00  0.00     0.049 A 
ATOM     56  H   UNL A   1      40.728  31.460  30.253  1.00  0.00     0.167 HD
ATOM     57  C   UNL A   1      39.020  27.536  29.545  1.00  0.00     0.034 A 
ATOM     58  C   UNL A   1      42.777  33.332  30.157  1.00  0.00     0.034 A 
ATOM     59  C   UNL A   1      39.371  27.621  30.948  1.00  0.00     0.049 A 
ATOM     60  C   UNL A   1      43.077  32.045  30.818  1.00  0.00     0.074 A 
ATOM     61  C   UNL A   1      38.751  27.411  32.159  1.00  0.00     0.029 A 
ATOM     62  N   UNL A   1      40.483  28.392  31.188  1.00  0.00    -0.354 N 
ATOM     63  N   UNL A   1      42.735  31.791  32.053  1.00  0.00    -0.248 NA
ATOM     64  C   UNL A   1      43.389  30.872  30.009  1.00  0.00     0.031 C 
ATOM     65  C   UNL A   1      39.433  28.240  33.102  1.00  0.00     0.029 A 
ATOM     66  C   UNL A   1      40.488  28.888  32.464  1.00  0.00     0.049 A 
ATOM     67  H   UNL A   1      41.189  28.565  30.524  1.00  0.00     0.167 HD
ATOM     68  C   UNL A   1      42.359  30.464  32.041  1.00  0.00     0.074 A 
ATOM     69  C   UNL A   1      42.950  29.911  30.829  1.00  0.00     0.031 C 
ATOM     70  C   UNL A   1      41.334  30.015  32.824  1.00  0.00     0.034 A 
BRANCH  57  71
ATOM     71  C   UNL A   1      39.924  26.764  28.589  1.00  0.00     0.023 A 
ATOM     72  C   UNL A   1      40.972  27.490  27.980  1.00  0.00     0.031 A 
ATOM     73  C   UNL A   1      39.658  25.498  28.019  1.00  0.00     0.131 A 
ATOM     74  C   UNL A   1      41.613  27.018  26.821  1.00  0.00     0.055 A 
ATOM     75  C   UNL A   1      40.326  25.014  26.888  1.00  0.00     0.041 A 
ATOM     76  F   UNL A   1      38.693  24.686  28.457  1.00  0.00    -0.206 F 
ATOM     77  C   UNL A   1      41.288  25.786  26.264  1.00  0.00     0.022 A 
BRANCH  74  78
ATOM     78  S   UNL A   1      42.775  28.109  25.960  1.00  0.00     0.124 S 
ATOM     79  O   UNL A   1      44.061  27.610  26.431  1.00  0.00    -0.237 OA
ATOM     80  O   UNL A   1      42.451  27.844  24.561  1.00  0.00    -0.237 OA
ATOM     81  O   UNL A   1      42.408  29.439  26.441  1.00  0.00    -0.744 OA
ENDBRANCH  74  78
ENDBRANCH  57  71
BRANCH  58  82
ATOM     82  C   UNL A   1      43.778  34.127  29.391  1.00  0.00     0.023 A 
ATOM     83  C   UNL A   1      44.274  33.746  28.123  1.00  0.00     0.031 A 
ATOM     84  C   UNL A   1      44.064  35.445  29.814  1.00  0.00     0.131 A 
ATOM     85  C   UNL A   1      45.002  34.673  27.335  1.00  0.00     0.055 A 
ATOM     86  C   UNL A   1      44.773  36.356  29.028  1.00  0.00     0.041 A 
ATOM     87  F   UNL A   1      43.585  35.916  30.976  1.00  0.00    -0.206 F 
ATOM     88  C   UNL A   1      45.236  35.977  27.778  1.00  0.00     0.022 A 
BRANCH  85  89
ATOM     89  S   UNL A   1      45.603  34.218  25.671  1.00  0.00     0.124 S 
ATOM     90  O   UNL A   1      46.762  35.087  25.510  1.00  0.00    -0.237 OA
ATOM     91  O   UNL A   1      45.874  32.792  25.814  1.00  0.00    -0.237 OA
ATOM     92  O   UNL A   1      44.472  34.540  24.799  1.00  0.00    -0.744 OA
ENDBRANCH  85  89
ENDBRANCH  58  82
BRANCH  70  93
ATOM     93  C   UNL A   1      41.011  30.791  34.077  1.00  0.00     0.023 A 
ATOM     94  C   UNL A   1      39.922  31.674  34.248  1.00  0.00     0.031 A 
ATOM     95  C   UNL A   1      41.858  30.574  35.179  1.00  0.00     0.131 A 
ATOM     96  C   UNL A   1      39.719  32.300  35.495  1.00  0.00     0.055 A 
ATOM     97  C   UNL A   1      41.642  31.178  36.414  1.00  0.00     0.041 A 
ATOM     98  F   UNL A   1      42.907  29.740  35.076  1.00  0.00    -0.206 F 
ATOM     99  C   UNL A   1      40.573  32.049  36.576  1.00  0.00     0.022 A 
BRANCH  96 100
ATOM    100  S   UNL A   1      38.353  33.484  35.736  1.00  0.00     0.124 S 
ATOM    101  O   UNL A   1      37.171  32.633  35.801  1.00  0.00    -0.237 OA
ATOM    102  O   UNL A   1      38.729  34.151  36.980  1.00  0.00    -0.237 OA
ATOM    103  O   UNL A   1      38.425  34.335  34.547  1.00  0.00    -0.744 OA
ENDBRANCH  96 100
ENDBRANCH  70  93
ENDBRANCH  44  45
ENDBRANCH  36  39
ENDBRANCH  34  35
ENDBRANCH  33  34
ENDBRANCH   1  33
TORSDOF 18
ENDMDL
MODEL 3
REMARK VINA RESULT:     -13.2      3.182      9.101
REMARK SMILES Cc1cnn(C2(C(=O)NCCCCCCNC(=O)c3ccc(-c4c5nc(c(-c6cc(S(=O)(=O)[O-])ccc6F)c6ccc([nH]6)c(-c6cc(S(=O)(=O)[O-])ccc6F)c6nc(c(-c7cc(S(=O)(=O)[O-])ccc7F)c7ccc4[nH]7)C=C6)C=C5)cc3)CCN(C(=O)c3cc4ccccc4[nH]3)CC2)c1
REMARK SMILES IDX 13 1 12 2 11 3 10 4 9 5 7 6 8 7 6 9 82 10 97 11 83 12 96 13
REMARK SMILES IDX 84 14 85 15 86 16 5 17 1 18 2 19 3 20 98 21 4 22 87 23 88 24
REMARK SMILES IDX 95 25 89 26 94 27 90 29 93 30 91 31 92 32 14 33 15 34 16 35
REMARK SMILES IDX 17 36 18 38 19 39 20 40 81 41 21 42 80 43 22 44 23 45 24 46
REMARK SMILES IDX 74 47 25 48 79 49 73 50 75 51 26 52 78 53 72 54 71 55 27 57
REMARK SMILES IDX 59 58 39 59 58 60 40 61 43 62 57 63 76 64 41 65 42 66 56 68
REMARK SMILES IDX 77 69 44 70 28 71 29 72 37 73 30 74 36 75 38 76 35 77 31 78
REMARK SMILES IDX 32 79 33 80 34 81 60 82 61 83 69 84 62 85 68 86 70 87 67 88
REMARK SMILES IDX 63 89 64 90 65 91 66 92 45 93 46 94 54 95 47 96 53 97 55 98
REMARK SMILES IDX 52 99 48 100 49 101 50 102 51 103
REMARK H PARENT 9 8 95 28 16 37 75 56 43 67
REMARK Flexibility Score: inf
ROOT
ATOM      1  C   UNL A   1      37.091  19.633  24.772  1.00  0.00     0.002 C 
ENDROOT
BRANCH   1   2
ATOM      2  C   UNL A   1      36.202  20.882  24.844  1.00  0.00     0.002 C 
BRANCH   2   3
ATOM      3  C   UNL A   1      36.914  22.228  24.665  1.00  0.00     0.021 C 
BRANCH   3   4
ATOM      4  C   UNL A   1      35.989  23.445  24.694  1.00  0.00     0.116 C 
BRANCH   4   5
ATOM      5  N   UNL A   1      35.289  23.606  23.430  1.00  0.00    -0.354 N 
ATOM      6  C   UNL A   1      34.022  24.027  23.103  1.00  0.00     0.248 C 
ATOM      7  O   UNL A   1      33.757  23.868  21.909  1.00  0.00    -0.272 OA
ATOM      8  H   UNL A   1      35.834  23.364  22.647  1.00  0.00     0.163 HD
BRANCH   6   9
ATOM      9  C   UNL A   1      33.061  24.643  24.178  1.00  0.00     0.144 C 
ATOM     10  C   UNL A   1      33.942  25.490  25.138  1.00  0.00     0.062 C 
ATOM     11  C   UNL A   1      31.969  25.430  23.402  1.00  0.00     0.062 C 
ATOM     12  C   UNL A   1      33.286  26.737  25.718  1.00  0.00     0.123 C 
ATOM     13  C   UNL A   1      31.349  26.580  24.179  1.00  0.00     0.123 C 
ATOM     14  N   UNL A   1      32.380  27.404  24.796  1.00  0.00    -0.337 N 
ATOM     15  C   UNL A   1      32.514  28.775  24.587  1.00  0.00     0.270 C 
ATOM     16  O   UNL A   1      33.566  29.367  24.829  1.00  0.00    -0.267 OA
BRANCH   9  17
ATOM     17  N   UNL A   1      32.332  23.621  24.999  1.00  0.00    -0.257 N 
ATOM     18  C   UNL A   1      29.642  22.378  27.158  1.00  0.00     0.048 C 
ATOM     19  C   UNL A   1      30.800  22.635  26.276  1.00  0.00    -0.013 A 
ATOM     20  C   UNL A   1      31.702  21.719  25.715  1.00  0.00     0.138 A 
ATOM     21  C   UNL A   1      31.237  23.852  25.805  1.00  0.00     0.113 A 
ATOM     22  N   UNL A   1      32.572  22.300  24.891  1.00  0.00    -0.180 NA
ENDBRANCH   9  17
BRANCH  15  23
ATOM     23  C   UNL A   1      31.384  29.473  24.029  1.00  0.00     0.105 A 
ATOM     24  C   UNL A   1      30.445  30.290  24.638  1.00  0.00     0.042 A 
ATOM     25  N   UNL A   1      31.103  29.480  22.685  1.00  0.00    -0.351 N 
ATOM     26  C   UNL A   1      29.529  30.729  23.644  1.00  0.00     0.000 A 
ATOM     27  C   UNL A   1      29.932  30.157  22.439  1.00  0.00     0.046 A 
ATOM     28  H   UNL A   1      31.664  29.060  21.993  1.00  0.00     0.167 HD
ATOM     29  C   UNL A   1      28.391  31.556  23.656  1.00  0.00     0.010 A 
ATOM     30  C   UNL A   1      29.221  30.328  21.246  1.00  0.00     0.026 A 
ATOM     31  C   UNL A   1      27.680  31.757  22.467  1.00  0.00     0.001 A 
ATOM     32  C   UNL A   1      28.082  31.138  21.285  1.00  0.00     0.002 A 
ENDBRANCH  15  23
ENDBRANCH   6   9
ENDBRANCH   4   5
ENDBRANCH   3   4
ENDBRANCH   2   3
ENDBRANCH   1   2
BRANCH   1  33
ATOM     33  C   UNL A   1      38.608  19.862  24.857  1.00  0.00     0.021 C 
BRANCH  33  34
ATOM     34  C   UNL A   1      39.285  19.119  25.998  1.00  0.00     0.116 C 
BRANCH  34  35
ATOM     35  N   UNL A   1      40.677  18.781  25.706  1.00  0.00    -0.352 N 
ATOM     36  C   UNL A   1      41.783  19.622  25.717  1.00  0.00     0.251 C 
ATOM     37  H   UNL A   1      40.853  17.841  25.473  1.00  0.00     0.163 HD
ATOM     38  O   UNL A   1      42.782  19.344  25.085  1.00  0.00    -0.269 OA
BRANCH  36  39
ATOM     39  C   UNL A   1      41.702  20.859  26.521  1.00  0.00     0.039 A 
ATOM     40  C   UNL A   1      41.837  20.859  27.911  1.00  0.00     0.014 A 
ATOM     41  C   UNL A   1      41.526  22.051  25.828  1.00  0.00     0.014 A 
ATOM     42  C   UNL A   1      41.874  22.086  28.578  1.00  0.00     0.010 A 
ATOM     43  C   UNL A   1      41.777  23.241  26.452  1.00  0.00     0.010 A 
ATOM     44  C   UNL A   1      41.863  23.278  27.835  1.00  0.00    -0.014 A 
BRANCH  44  45
ATOM     45  C   UNL A   1      42.066  24.585  28.456  1.00  0.00     0.031 A 
ATOM     46  C   UNL A   1      40.943  25.523  28.217  1.00  0.00     0.074 A 
ATOM     47  C   UNL A   1      43.041  24.829  29.366  1.00  0.00     0.049 A 
ATOM     48  N   UNL A   1      40.904  26.508  27.382  1.00  0.00    -0.248 NA
ATOM     49  C   UNL A   1      39.630  25.208  28.811  1.00  0.00     0.031 C 
ATOM     50  C   UNL A   1      44.006  23.862  29.915  1.00  0.00     0.029 A 
ATOM     51  N   UNL A   1      43.319  25.955  30.085  1.00  0.00    -0.354 N 
ATOM     52  C   UNL A   1      39.683  27.135  27.618  1.00  0.00     0.074 A 
ATOM     53  C   UNL A   1      38.860  26.144  28.250  1.00  0.00     0.031 C 
ATOM     54  C   UNL A   1      44.580  24.362  31.030  1.00  0.00     0.029 A 
ATOM     55  C   UNL A   1      44.189  25.753  31.160  1.00  0.00     0.049 A 
ATOM     56  H   UNL A   1      42.938  26.836  29.866  1.00  0.00     0.167 HD
ATOM     57  C   UNL A   1      39.613  28.497  27.631  1.00  0.00     0.034 A 
ATOM     58  C   UNL A   1      44.605  26.663  32.080  1.00  0.00     0.034 A 
ATOM     59  C   UNL A   1      40.835  29.057  27.091  1.00  0.00     0.049 A 
ATOM     60  C   UNL A   1      44.472  27.991  31.445  1.00  0.00     0.074 A 
ATOM     61  C   UNL A   1      41.424  29.190  25.854  1.00  0.00     0.029 A 
ATOM     62  N   UNL A   1      41.820  29.230  28.032  1.00  0.00    -0.354 N 
ATOM     63  N   UNL A   1      45.147  28.332  30.380  1.00  0.00    -0.248 NA
ATOM     64  C   UNL A   1      43.299  28.811  31.723  1.00  0.00     0.031 C 
ATOM     65  C   UNL A   1      42.831  29.266  26.091  1.00  0.00     0.029 A 
ATOM     66  C   UNL A   1      43.066  29.239  27.464  1.00  0.00     0.049 A 
ATOM     67  H   UNL A   1      41.651  29.336  28.997  1.00  0.00     0.167 HD
ATOM     68  C   UNL A   1      44.259  29.083  29.636  1.00  0.00     0.074 A 
ATOM     69  C   UNL A   1      43.226  29.496  30.577  1.00  0.00     0.031 C 
ATOM     70  C   UNL A   1      44.256  29.023  28.271  1.00  0.00     0.034 A 
BRANCH  57  71
ATOM     71  C   UNL A   1      38.752  29.336  28.570  1.00  0.00     0.023 A 
ATOM     72  C   UNL A   1      39.047  29.252  29.949  1.00  0.00     0.031 A 
ATOM     73  C   UNL A   1      37.518  29.949  28.255  1.00  0.00     0.131 A 
ATOM     74  C   UNL A   1      38.115  29.652  30.923  1.00  0.00     0.055 A 
ATOM     75  C   UNL A   1      36.609  30.382  29.228  1.00  0.00     0.041 A 
ATOM     76  F   UNL A   1      37.071  30.097  27.005  1.00  0.00    -0.206 F 
ATOM     77  C   UNL A   1      36.890  30.207  30.570  1.00  0.00     0.022 A 
BRANCH  74  78
ATOM     78  S   UNL A   1      38.465  29.291  32.664  1.00  0.00     0.124 S 
ATOM     79  O   UNL A   1      38.114  30.551  33.307  1.00  0.00    -0.237 OA
ATOM     80  O   UNL A   1      37.572  28.164  32.919  1.00  0.00    -0.237 OA
ATOM     81  O   UNL A   1      39.889  28.967  32.662  1.00  0.00    -0.744 OA
ENDBRANCH  74  78
ENDBRANCH  57  71
BRANCH  58  82
ATOM     82  C   UNL A   1      44.809  26.457  33.542  1.00  0.00     0.023 A 
ATOM     83  C   UNL A   1      43.794  26.647  34.507  1.00  0.00     0.031 A 
ATOM     84  C   UNL A   1      45.982  25.801  33.977  1.00  0.00     0.131 A 
ATOM     85  C   UNL A   1      43.972  26.172  35.831  1.00  0.00     0.055 A 
ATOM     86  C   UNL A   1      46.147  25.326  35.280  1.00  0.00     0.041 A 
ATOM     87  F   UNL A   1      46.976  25.523  33.118  1.00  0.00    -0.206 F 
ATOM     88  C   UNL A   1      45.136  25.499  36.211  1.00  0.00     0.022 A 
BRANCH  85  89
ATOM     89  S   UNL A   1      42.650  26.356  37.077  1.00  0.00     0.124 S 
ATOM     90  O   UNL A   1      43.385  26.244  38.331  1.00  0.00    -0.237 OA
ATOM     91  O   UNL A   1      42.102  27.670  36.761  1.00  0.00    -0.237 OA
ATOM     92  O   UNL A   1      41.752  25.236  36.793  1.00  0.00    -0.744 OA
ENDBRANCH  85  89
ENDBRANCH  58  82
BRANCH  70  93
ATOM     93  C   UNL A   1      45.536  28.620  27.581  1.00  0.00     0.023 A 
ATOM     94  C   UNL A   1      45.830  27.338  27.064  1.00  0.00     0.031 A 
ATOM     95  C   UNL A   1      46.495  29.633  27.407  1.00  0.00     0.131 A 
ATOM     96  C   UNL A   1      47.056  27.117  26.402  1.00  0.00     0.055 A 
ATOM     97  C   UNL A   1      47.695  29.415  26.734  1.00  0.00     0.041 A 
ATOM     98  F   UNL A   1      46.267  30.872  27.873  1.00  0.00    -0.206 F 
ATOM     99  C   UNL A   1      47.982  28.152  26.233  1.00  0.00     0.022 A 
BRANCH  96 100
ATOM    100  S   UNL A   1      47.490  25.463  25.767  1.00  0.00     0.124 S 
ATOM    101  O   UNL A   1      47.055  24.564  26.829  1.00  0.00    -0.237 OA
ATOM    102  O   UNL A   1      46.731  25.394  24.520  1.00  0.00    -0.237 OA
ATOM    103  O   UNL A   1      48.942  25.537  25.589  1.00  0.00    -0.744 OA
ENDBRANCH  96 100
ENDBRANCH  70  93
ENDBRANCH  44  45
ENDBRANCH  36  39
ENDBRANCH  34  35
ENDBRANCH  33  34
ENDBRANCH   1  33
TORSDOF 18
ENDMDL
