MODEL 1
REMARK VINA RESULT:     -11.6      0.000      0.000
REMARK SMILES C[C@@H](C(=O)NCCCCCCNC(=O)c1ccc(-c2c3nc(c(-c4cc(S(=O)(=O)[O-])ccc4F)c4ccc([nH]4)c(-c4cc(S(=O)(=O)[O-])ccc4F)c4nc(c(-c5cc(S(=O)(=O)[O-])ccc5F)c5ccc2[nH]5)C=C4)C=C3)cc1)c1ccc(-c2cccc(OC(=O)NC3CC3)c2)c(F)c1
REMARK SMILES IDX 7 1 6 2 5 3 3 4 4 5 2 7 1 8 78 9 79 10 97 11 80 12 95 13
REMARK SMILES IDX 81 14 96 15 82 16 83 17 94 18 84 19 86 20 85 21 87 22 88 23
REMARK SMILES IDX 89 24 90 25 91 27 92 28 93 29 8 30 9 31 10 32 11 33 12 34
REMARK SMILES IDX 13 35 14 37 15 38 16 39 77 40 17 41 76 42 18 43 19 44 20 45
REMARK SMILES IDX 70 46 21 47 75 48 69 49 71 50 22 51 74 52 68 53 67 54 23 56
REMARK SMILES IDX 55 57 35 58 54 59 36 60 39 61 53 62 72 63 37 64 38 65 52 67
REMARK SMILES IDX 73 68 40 69 24 70 25 71 33 72 26 73 32 74 34 75 31 76 27 77
REMARK SMILES IDX 28 78 29 79 30 80 56 81 57 82 65 83 58 84 64 85 66 86 63 87
REMARK SMILES IDX 59 88 60 89 61 90 62 91 41 92 42 93 50 94 43 95 49 96 51 97
REMARK SMILES IDX 48 98 44 99 45 100 46 101 47 102
REMARK H PARENT 5 6 90 26 12 36 71 55 39 66
REMARK Flexibility Score: inf
ROOT
ATOM      1  C   UNL A   1      31.959  27.816  25.565  1.00  0.00     0.021 C 
ENDROOT
BRANCH   1   2
ATOM      2  C   UNL A   1      31.089  26.996  24.609  1.00  0.00     0.116 C 
BRANCH   2   3
ATOM      3  N   UNL A   1      31.233  25.587  24.905  1.00  0.00    -0.356 N 
ATOM      4  C   UNL A   1      32.150  24.696  24.436  1.00  0.00     0.227 C 
ATOM      5  O   UNL A   1      31.922  23.502  24.643  1.00  0.00    -0.274 OA
ATOM      6  H   UNL A   1      30.572  25.220  25.537  1.00  0.00     0.163 HD
BRANCH   4   7
ATOM      7  C   UNL A   1      33.420  25.210  23.736  1.00  0.00     0.105 C 
ATOM      8  C   UNL A   1      33.275  25.315  22.214  1.00  0.00     0.023 C 
BRANCH   7   9
ATOM      9  C   UNL A   1      34.621  24.342  24.087  1.00  0.00    -0.033 A 
ATOM     10  C   UNL A   1      35.162  23.450  23.148  1.00  0.00     0.005 A 
ATOM     11  C   UNL A   1      35.170  24.381  25.374  1.00  0.00     0.044 A 
ATOM     12  C   UNL A   1      36.238  22.630  23.479  1.00  0.00     0.012 A 
ATOM     13  C   UNL A   1      36.241  23.551  25.700  1.00  0.00     0.131 A 
ATOM     14  C   UNL A   1      36.792  22.663  24.764  1.00  0.00     0.018 A 
ATOM     15  F   UNL A   1      36.729  23.608  26.949  1.00  0.00    -0.206 F 
BRANCH  14  16
ATOM     16  C   UNL A   1      37.852  21.718  25.118  1.00  0.00    -0.012 A 
ATOM     17  C   UNL A   1      37.705  20.339  24.904  1.00  0.00     0.009 A 
ATOM     18  C   UNL A   1      39.008  22.186  25.760  1.00  0.00     0.056 A 
ATOM     19  C   UNL A   1      38.689  19.444  25.328  1.00  0.00     0.004 A 
ATOM     20  C   UNL A   1      39.981  21.294  26.190  1.00  0.00     0.133 A 
ATOM     21  C   UNL A   1      39.827  19.922  25.977  1.00  0.00     0.047 A 
BRANCH  20  22
ATOM     22  O   UNL A   1      41.161  21.674  26.872  1.00  0.00    -0.410 OA
BRANCH  22  23
ATOM     23  C   UNL A   1      42.256  22.335  26.324  1.00  0.00     0.412 C 
ATOM     24  O   UNL A   1      42.664  22.242  25.170  1.00  0.00    -0.224 OA
ATOM     25  N   UNL A   1      42.913  23.147  27.210  1.00  0.00    -0.318 N 
ATOM     26  H   UNL A   1      43.717  23.589  26.854  1.00  0.00     0.167 HD
BRANCH  25  27
ATOM     27  C   UNL A   1      42.611  23.447  28.569  1.00  0.00     0.085 C 
ATOM     28  C   UNL A   1      43.372  23.005  29.787  1.00  0.00     0.027 C 
ATOM     29  C   UNL A   1      43.503  24.415  29.303  1.00  0.00     0.027 C 
ENDBRANCH  25  27
ENDBRANCH  22  23
ENDBRANCH  20  22
ENDBRANCH  14  16
ENDBRANCH   7   9
ENDBRANCH   4   7
ENDBRANCH   2   3
ENDBRANCH   1   2
BRANCH   1  30
ATOM     30  C   UNL A   1      31.625  29.313  25.560  1.00  0.00     0.002 C 
BRANCH  30  31
ATOM     31  C   UNL A   1      31.924  30.037  26.877  1.00  0.00     0.002 C 
BRANCH  31  32
ATOM     32  C   UNL A   1      31.776  31.558  26.812  1.00  0.00     0.021 C 
BRANCH  32  33
ATOM     33  C   UNL A   1      33.013  32.323  27.269  1.00  0.00     0.116 C 
BRANCH  33  34
ATOM     34  N   UNL A   1      32.708  33.717  27.547  1.00  0.00    -0.352 N 
ATOM     35  C   UNL A   1      33.197  34.526  28.542  1.00  0.00     0.251 C 
ATOM     36  H   UNL A   1      32.061  34.139  26.936  1.00  0.00     0.163 HD
ATOM     37  O   UNL A   1      32.656  35.601  28.781  1.00  0.00    -0.269 OA
BRANCH  35  38
ATOM     38  C   UNL A   1      34.362  34.078  29.335  1.00  0.00     0.039 A 
ATOM     39  C   UNL A   1      34.154  33.259  30.446  1.00  0.00     0.014 A 
ATOM     40  C   UNL A   1      35.658  34.455  28.968  1.00  0.00     0.014 A 
ATOM     41  C   UNL A   1      35.252  32.760  31.148  1.00  0.00     0.010 A 
ATOM     42  C   UNL A   1      36.751  33.895  29.622  1.00  0.00     0.010 A 
ATOM     43  C   UNL A   1      36.560  33.039  30.718  1.00  0.00    -0.014 A 
BRANCH  43  44
ATOM     44  C   UNL A   1      37.740  32.435  31.391  1.00  0.00     0.031 A 
ATOM     45  C   UNL A   1      38.470  31.287  30.750  1.00  0.00     0.074 A 
ATOM     46  C   UNL A   1      38.109  32.878  32.610  1.00  0.00     0.049 A 
ATOM     47  N   UNL A   1      39.459  30.571  31.217  1.00  0.00    -0.248 NA
ATOM     48  C   UNL A   1      38.006  30.872  29.416  1.00  0.00     0.031 C 
ATOM     49  C   UNL A   1      37.457  33.963  33.347  1.00  0.00     0.029 A 
ATOM     50  N   UNL A   1      39.111  32.464  33.453  1.00  0.00    -0.354 N 
ATOM     51  C   UNL A   1      39.729  29.614  30.245  1.00  0.00     0.074 A 
ATOM     52  C   UNL A   1      38.760  29.807  29.187  1.00  0.00     0.031 C 
ATOM     53  C   UNL A   1      38.089  34.143  34.517  1.00  0.00     0.029 A 
ATOM     54  C   UNL A   1      39.151  33.151  34.646  1.00  0.00     0.049 A 
ATOM     55  H   UNL A   1      39.742  31.744  33.226  1.00  0.00     0.167 HD
ATOM     56  C   UNL A   1      40.706  28.673  30.230  1.00  0.00     0.034 A 
ATOM     57  C   UNL A   1      39.937  32.986  35.729  1.00  0.00     0.034 A 
ATOM     58  C   UNL A   1      41.669  28.503  31.292  1.00  0.00     0.049 A 
ATOM     59  C   UNL A   1      40.986  31.901  35.707  1.00  0.00     0.074 A 
ATOM     60  C   UNL A   1      42.739  27.628  31.349  1.00  0.00     0.029 A 
ATOM     61  N   UNL A   1      41.669  29.208  32.489  1.00  0.00    -0.354 N 
ATOM     62  N   UNL A   1      41.267  31.044  34.752  1.00  0.00    -0.248 NA
ATOM     63  C   UNL A   1      41.826  31.764  36.904  1.00  0.00     0.031 C 
ATOM     64  C   UNL A   1      43.331  27.740  32.610  1.00  0.00     0.029 A 
ATOM     65  C   UNL A   1      42.692  28.752  33.308  1.00  0.00     0.049 A 
ATOM     66  H   UNL A   1      41.037  29.925  32.722  1.00  0.00     0.167 HD
ATOM     67  C   UNL A   1      42.338  30.289  35.223  1.00  0.00     0.074 A 
ATOM     68  C   UNL A   1      42.661  30.803  36.538  1.00  0.00     0.031 C 
ATOM     69  C   UNL A   1      42.997  29.266  34.622  1.00  0.00     0.034 A 
BRANCH  56  70
ATOM     70  C   UNL A   1      40.759  27.736  29.048  1.00  0.00     0.023 A 
ATOM     71  C   UNL A   1      41.689  27.904  28.008  1.00  0.00     0.031 A 
ATOM     72  C   UNL A   1      39.859  26.658  28.956  1.00  0.00     0.131 A 
ATOM     73  C   UNL A   1      41.655  27.053  26.892  1.00  0.00     0.055 A 
ATOM     74  C   UNL A   1      39.885  25.764  27.884  1.00  0.00     0.041 A 
ATOM     75  F   UNL A   1      38.931  26.459  29.906  1.00  0.00    -0.206 F 
ATOM     76  C   UNL A   1      40.778  25.968  26.835  1.00  0.00     0.022 A 
BRANCH  73  77
ATOM     77  S   UNL A   1      42.672  27.474  25.451  1.00  0.00     0.124 S 
ATOM     78  O   UNL A   1      42.425  26.334  24.571  1.00  0.00    -0.237 OA
ATOM     79  O   UNL A   1      42.103  28.747  25.024  1.00  0.00    -0.237 OA
ATOM     80  O   UNL A   1      44.026  27.547  25.997  1.00  0.00    -0.744 OA
ENDBRANCH  73  77
ENDBRANCH  56  70
BRANCH  57  81
ATOM     81  C   UNL A   1      39.748  33.839  36.940  1.00  0.00     0.023 A 
ATOM     82  C   UNL A   1      40.627  34.896  37.226  1.00  0.00     0.031 A 
ATOM     83  C   UNL A   1      38.720  33.572  37.862  1.00  0.00     0.131 A 
ATOM     84  C   UNL A   1      40.496  35.611  38.427  1.00  0.00     0.055 A 
ATOM     85  C   UNL A   1      38.554  34.329  39.023  1.00  0.00     0.041 A 
ATOM     86  F   UNL A   1      37.851  32.573  37.641  1.00  0.00    -0.206 F 
ATOM     87  C   UNL A   1      39.456  35.346  39.320  1.00  0.00     0.022 A 
BRANCH  84  88
ATOM     88  S   UNL A   1      41.776  36.821  38.861  1.00  0.00     0.124 S 
ATOM     89  O   UNL A   1      42.537  36.095  39.872  1.00  0.00    -0.237 OA
ATOM     90  O   UNL A   1      42.443  37.027  37.580  1.00  0.00    -0.237 OA
ATOM     91  O   UNL A   1      41.010  37.963  39.355  1.00  0.00    -0.744 OA
ENDBRANCH  84  88
ENDBRANCH  57  81
BRANCH  69  92
ATOM     92  C   UNL A   1      44.166  28.665  35.367  1.00  0.00     0.023 A 
ATOM     93  C   UNL A   1      44.008  27.575  36.240  1.00  0.00     0.031 A 
ATOM     94  C   UNL A   1      45.460  29.189  35.192  1.00  0.00     0.131 A 
ATOM     95  C   UNL A   1      45.116  27.076  36.942  1.00  0.00     0.055 A 
ATOM     96  C   UNL A   1      46.569  28.645  35.842  1.00  0.00     0.041 A 
ATOM     97  F   UNL A   1      45.669  30.233  34.374  1.00  0.00    -0.206 F 
ATOM     98  C   UNL A   1      46.397  27.590  36.732  1.00  0.00     0.022 A 
BRANCH  95  99
ATOM     99  S   UNL A   1      44.845  25.799  38.202  1.00  0.00     0.124 S 
ATOM    100  O   UNL A   1      44.219  26.562  39.277  1.00  0.00    -0.237 OA
ATOM    101  O   UNL A   1      43.982  24.850  37.507  1.00  0.00    -0.237 OA
ATOM    102  O   UNL A   1      46.194  25.312  38.491  1.00  0.00    -0.744 OA
ENDBRANCH  95  99
ENDBRANCH  69  92
ENDBRANCH  43  44
ENDBRANCH  35  38
ENDBRANCH  33  34
ENDBRANCH  32  33
ENDBRANCH  31  32
ENDBRANCH  30  31
ENDBRANCH   1  30
TORSDOF 21
ENDMDL
MODEL 2
REMARK VINA RESULT:     -11.4      1.470      7.364
REMARK SMILES C[C@@H](C(=O)NCCCCCCNC(=O)c1ccc(-c2c3nc(c(-c4cc(S(=O)(=O)[O-])ccc4F)c4ccc([nH]4)c(-c4cc(S(=O)(=O)[O-])ccc4F)c4nc(c(-c5cc(S(=O)(=O)[O-])ccc5F)c5ccc2[nH]5)C=C4)C=C3)cc1)c1ccc(-c2cccc(OC(=O)NC3CC3)c2)c(F)c1
REMARK SMILES IDX 7 1 6 2 5 3 3 4 4 5 2 7 1 8 78 9 79 10 97 11 80 12 95 13
REMARK SMILES IDX 81 14 96 15 82 16 83 17 94 18 84 19 86 20 85 21 87 22 88 23
REMARK SMILES IDX 89 24 90 25 91 27 92 28 93 29 8 30 9 31 10 32 11 33 12 34
REMARK SMILES IDX 13 35 14 37 15 38 16 39 77 40 17 41 76 42 18 43 19 44 20 45
REMARK SMILES IDX 70 46 21 47 75 48 69 49 71 50 22 51 74 52 68 53 67 54 23 56
REMARK SMILES IDX 55 57 35 58 54 59 36 60 39 61 53 62 72 63 37 64 38 65 52 67
REMARK SMILES IDX 73 68 40 69 24 70 25 71 33 72 26 73 32 74 34 75 31 76 27 77
REMARK SMILES IDX 28 78 29 79 30 80 56 81 57 82 65 83 58 84 64 85 66 86 63 87
REMARK SMILES IDX 59 88 60 89 61 90 62 91 41 92 42 93 50 94 43 95 49 96 51 97
REMARK SMILES IDX 48 98 44 99 45 100 46 101 47 102
REMARK H PARENT 5 6 90 26 12 36 71 55 39 66
REMARK Flexibility Score: inf
ROOT
ATOM      1  C   UNL A   1      32.343  27.906  25.618  1.00  0.00     0.021 C 
ENDROOT
BRANCH   1   2
ATOM      2  C   UNL A   1      31.194  26.897  25.667  1.00  0.00     0.116 C 
BRANCH   2   3
ATOM      3  N   UNL A   1      31.518  25.831  26.590  1.00  0.00    -0.356 N 
ATOM      4  C   UNL A   1      31.930  24.559  26.328  1.00  0.00     0.227 C 
ATOM      5  O   UNL A   1      31.911  23.763  27.269  1.00  0.00    -0.274 OA
ATOM      6  H   UNL A   1      31.429  26.058  27.544  1.00  0.00     0.163 HD
BRANCH   4   7
ATOM      7  C   UNL A   1      32.438  24.199  24.921  1.00  0.00     0.105 C 
ATOM      8  C   UNL A   1      31.465  23.318  24.130  1.00  0.00     0.023 C 
BRANCH   7   9
ATOM      9  C   UNL A   1      33.805  23.532  24.992  1.00  0.00    -0.033 A 
ATOM     10  C   UNL A   1      33.988  22.216  24.538  1.00  0.00     0.005 A 
ATOM     11  C   UNL A   1      34.891  24.203  25.566  1.00  0.00     0.044 A 
ATOM     12  C   UNL A   1      35.228  21.593  24.635  1.00  0.00     0.012 A 
ATOM     13  C   UNL A   1      36.127  23.569  25.668  1.00  0.00     0.131 A 
ATOM     14  C   UNL A   1      36.319  22.258  25.208  1.00  0.00     0.018 A 
ATOM     15  F   UNL A   1      37.139  24.242  26.238  1.00  0.00    -0.206 F 
BRANCH  14  16
ATOM     16  C   UNL A   1      37.583  21.544  25.395  1.00  0.00    -0.012 A 
ATOM     17  C   UNL A   1      37.705  20.179  25.096  1.00  0.00     0.009 A 
ATOM     18  C   UNL A   1      38.677  22.216  25.961  1.00  0.00     0.056 A 
ATOM     19  C   UNL A   1      38.892  19.495  25.363  1.00  0.00     0.004 A 
ATOM     20  C   UNL A   1      39.854  21.532  26.234  1.00  0.00     0.133 A 
ATOM     21  C   UNL A   1      39.967  20.172  25.938  1.00  0.00     0.047 A 
BRANCH  20  22
ATOM     22  O   UNL A   1      40.993  22.120  26.832  1.00  0.00    -0.410 OA
BRANCH  22  23
ATOM     23  C   UNL A   1      42.272  22.185  26.287  1.00  0.00     0.412 C 
ATOM     24  O   UNL A   1      42.563  22.123  25.097  1.00  0.00    -0.224 OA
ATOM     25  N   UNL A   1      43.266  22.316  27.221  1.00  0.00    -0.318 N 
ATOM     26  H   UNL A   1      44.181  22.318  26.858  1.00  0.00     0.167 HD
BRANCH  25  27
ATOM     27  C   UNL A   1      43.177  22.449  28.635  1.00  0.00     0.085 C 
ATOM     28  C   UNL A   1      44.155  23.135  29.546  1.00  0.00     0.027 C 
ATOM     29  C   UNL A   1      42.860  23.807  29.208  1.00  0.00     0.027 C 
ENDBRANCH  25  27
ENDBRANCH  22  23
ENDBRANCH  20  22
ENDBRANCH  14  16
ENDBRANCH   7   9
ENDBRANCH   4   7
ENDBRANCH   2   3
ENDBRANCH   1   2
BRANCH   1  30
ATOM     30  C   UNL A   1      31.871  29.365  25.552  1.00  0.00     0.002 C 
BRANCH  30  31
ATOM     31  C   UNL A   1      31.779  30.067  26.910  1.00  0.00     0.002 C 
BRANCH  31  32
ATOM     32  C   UNL A   1      31.756  31.594  26.833  1.00  0.00     0.021 C 
BRANCH  32  33
ATOM     33  C   UNL A   1      33.051  32.258  27.289  1.00  0.00     0.116 C 
BRANCH  33  34
ATOM     34  N   UNL A   1      32.836  33.645  27.669  1.00  0.00    -0.352 N 
ATOM     35  C   UNL A   1      33.371  34.345  28.722  1.00  0.00     0.251 C 
ATOM     36  H   UNL A   1      32.222  34.153  27.090  1.00  0.00     0.163 HD
ATOM     37  O   UNL A   1      32.901  35.433  29.038  1.00  0.00    -0.269 OA
BRANCH  35  38
ATOM     38  C   UNL A   1      34.499  33.764  29.481  1.00  0.00     0.039 A 
ATOM     39  C   UNL A   1      34.232  32.862  30.511  1.00  0.00     0.014 A 
ATOM     40  C   UNL A   1      35.819  34.100  29.160  1.00  0.00     0.014 A 
ATOM     41  C   UNL A   1      35.292  32.242  31.176  1.00  0.00     0.010 A 
ATOM     42  C   UNL A   1      36.871  33.424  29.771  1.00  0.00     0.010 A 
ATOM     43  C   UNL A   1      36.619  32.485  30.784  1.00  0.00    -0.014 A 
BRANCH  43  44
ATOM     44  C   UNL A   1      37.755  31.760  31.410  1.00  0.00     0.031 A 
ATOM     45  C   UNL A   1      38.270  32.183  32.758  1.00  0.00     0.074 A 
ATOM     46  C   UNL A   1      38.364  30.765  30.732  1.00  0.00     0.049 A 
ATOM     47  N   UNL A   1      39.302  31.738  33.427  1.00  0.00    -0.248 NA
ATOM     48  C   UNL A   1      37.543  33.271  33.431  1.00  0.00     0.031 C 
ATOM     49  C   UNL A   1      37.975  30.288  29.403  1.00  0.00     0.029 A 
ATOM     50  N   UNL A   1      39.447  29.986  31.058  1.00  0.00    -0.354 N 
ATOM     51  C   UNL A   1      39.358  32.498  34.590  1.00  0.00     0.074 A 
ATOM     52  C   UNL A   1      38.288  33.470  34.508  1.00  0.00     0.031 C 
ATOM     53  C   UNL A   1      38.790  29.286  29.039  1.00  0.00     0.029 A 
ATOM     54  C   UNL A   1      39.797  29.086  30.076  1.00  0.00     0.049 A 
ATOM     55  H   UNL A   1      39.927  30.062  31.914  1.00  0.00     0.167 HD
ATOM     56  C   UNL A   1      40.212  32.382  35.637  1.00  0.00     0.034 A 
ATOM     57  C   UNL A   1      40.825  28.216  30.007  1.00  0.00     0.034 A 
ATOM     58  C   UNL A   1      41.267  31.399  35.704  1.00  0.00     0.049 A 
ATOM     59  C   UNL A   1      41.790  28.139  31.165  1.00  0.00     0.074 A 
ATOM     60  C   UNL A   1      42.145  31.151  36.745  1.00  0.00     0.029 A 
ATOM     61  N   UNL A   1      41.599  30.515  34.686  1.00  0.00    -0.354 N 
ATOM     62  N   UNL A   1      41.790  28.824  32.286  1.00  0.00    -0.248 NA
ATOM     63  C   UNL A   1      42.888  27.171  31.053  1.00  0.00     0.031 C 
ATOM     64  C   UNL A   1      43.060  30.183  36.324  1.00  0.00     0.029 A 
ATOM     65  C   UNL A   1      42.699  29.755  35.057  1.00  0.00     0.049 A 
ATOM     66  H   UNL A   1      41.124  30.439  33.828  1.00  0.00     0.167 HD
ATOM     67  C   UNL A   1      42.870  28.343  33.024  1.00  0.00     0.074 A 
ATOM     68  C   UNL A   1      43.485  27.302  32.227  1.00  0.00     0.031 C 
ATOM     69  C   UNL A   1      43.310  28.726  34.249  1.00  0.00     0.034 A 
BRANCH  56  70
ATOM     70  C   UNL A   1      40.063  33.362  36.776  1.00  0.00     0.023 A 
ATOM     71  C   UNL A   1      39.406  33.020  37.971  1.00  0.00     0.031 A 
ATOM     72  C   UNL A   1      40.583  34.665  36.662  1.00  0.00     0.131 A 
ATOM     73  C   UNL A   1      39.225  33.985  38.973  1.00  0.00     0.055 A 
ATOM     74  C   UNL A   1      40.474  35.595  37.698  1.00  0.00     0.041 A 
ATOM     75  F   UNL A   1      41.199  35.060  35.537  1.00  0.00    -0.206 F 
ATOM     76  C   UNL A   1      39.779  35.263  38.857  1.00  0.00     0.022 A 
BRANCH  73  77
ATOM     77  S   UNL A   1      38.132  33.593  40.365  1.00  0.00     0.124 S 
ATOM     78  O   UNL A   1      37.009  32.949  39.687  1.00  0.00    -0.237 OA
ATOM     79  O   UNL A   1      38.966  32.724  41.186  1.00  0.00    -0.237 OA
ATOM     80  O   UNL A   1      37.832  34.901  40.945  1.00  0.00    -0.744 OA
ENDBRANCH  73  77
ENDBRANCH  56  70
BRANCH  57  81
ATOM     81  C   UNL A   1      41.023  27.370  28.793  1.00  0.00     0.023 A 
ATOM     82  C   UNL A   1      42.039  27.656  27.868  1.00  0.00     0.031 A 
ATOM     83  C   UNL A   1      40.160  26.296  28.509  1.00  0.00     0.131 A 
ATOM     84  C   UNL A   1      42.134  26.915  26.679  1.00  0.00     0.055 A 
ATOM     85  C   UNL A   1      40.299  25.520  27.357  1.00  0.00     0.041 A 
ATOM     86  F   UNL A   1      39.169  25.977  29.357  1.00  0.00    -0.206 F 
ATOM     87  C   UNL A   1      41.282  25.840  26.425  1.00  0.00     0.022 A 
BRANCH  84  88
ATOM     88  S   UNL A   1      43.318  27.452  25.414  1.00  0.00     0.124 S 
ATOM     89  O   UNL A   1      44.026  26.209  25.127  1.00  0.00    -0.237 OA
ATOM     90  O   UNL A   1      42.435  27.944  24.363  1.00  0.00    -0.237 OA
ATOM     91  O   UNL A   1      44.104  28.476  26.097  1.00  0.00    -0.744 OA
ENDBRANCH  84  88
ENDBRANCH  57  81
BRANCH  69  92
ATOM     92  C   UNL A   1      44.491  27.980  34.823  1.00  0.00     0.023 A 
ATOM     93  C   UNL A   1      44.333  26.797  35.564  1.00  0.00     0.031 A 
ATOM     94  C   UNL A   1      45.798  28.461  34.618  1.00  0.00     0.131 A 
ATOM     95  C   UNL A   1      45.456  26.161  36.114  1.00  0.00     0.055 A 
ATOM     96  C   UNL A   1      46.916  27.787  35.111  1.00  0.00     0.041 A 
ATOM     97  F   UNL A   1      46.009  29.590  33.922  1.00  0.00    -0.206 F 
ATOM     98  C   UNL A   1      46.747  26.636  35.874  1.00  0.00     0.022 A 
BRANCH  95  99
ATOM     99  S   UNL A   1      45.202  24.748  37.224  1.00  0.00     0.124 S 
ATOM    100  O   UNL A   1      46.572  24.382  37.568  1.00  0.00    -0.237 OA
ATOM    101  O   UNL A   1      44.408  25.334  38.299  1.00  0.00    -0.237 OA
ATOM    102  O   UNL A   1      44.493  23.780  36.388  1.00  0.00    -0.744 OA
ENDBRANCH  95  99
ENDBRANCH  69  92
ENDBRANCH  43  44
ENDBRANCH  35  38
ENDBRANCH  33  34
ENDBRANCH  32  33
ENDBRANCH  31  32
ENDBRANCH  30  31
ENDBRANCH   1  30
TORSDOF 21
ENDMDL
MODEL 3
REMARK VINA RESULT:     -11.4      3.124      6.631
REMARK SMILES C[C@@H](C(=O)NCCCCCCNC(=O)c1ccc(-c2c3nc(c(-c4cc(S(=O)(=O)[O-])ccc4F)c4ccc([nH]4)c(-c4cc(S(=O)(=O)[O-])ccc4F)c4nc(c(-c5cc(S(=O)(=O)[O-])ccc5F)c5ccc2[nH]5)C=C4)C=C3)cc1)c1ccc(-c2cccc(OC(=O)NC3CC3)c2)c(F)c1
REMARK SMILES IDX 7 1 6 2 5 3 3 4 4 5 2 7 1 8 78 9 79 10 97 11 80 12 95 13
REMARK SMILES IDX 81 14 96 15 82 16 83 17 94 18 84 19 86 20 85 21 87 22 88 23
REMARK SMILES IDX 89 24 90 25 91 27 92 28 93 29 8 30 9 31 10 32 11 33 12 34
REMARK SMILES IDX 13 35 14 37 15 38 16 39 77 40 17 41 76 42 18 43 19 44 20 45
REMARK SMILES IDX 70 46 21 47 75 48 69 49 71 50 22 51 74 52 68 53 67 54 23 56
REMARK SMILES IDX 55 57 35 58 54 59 36 60 39 61 53 62 72 63 37 64 38 65 52 67
REMARK SMILES IDX 73 68 40 69 24 70 25 71 33 72 26 73 32 74 34 75 31 76 27 77
REMARK SMILES IDX 28 78 29 79 30 80 56 81 57 82 65 83 58 84 64 85 66 86 63 87
REMARK SMILES IDX 59 88 60 89 61 90 62 91 41 92 42 93 50 94 43 95 49 96 51 97
REMARK SMILES IDX 48 98 44 99 45 100 46 101 47 102
REMARK H PARENT 5 6 90 26 12 36 71 55 39 66
REMARK Flexibility Score: inf
ROOT
ATOM      1  C   UNL A   1      34.176  25.879  25.030  1.00  0.00     0.021 C 
ENDROOT
BRANCH   1   2
ATOM      2  C   UNL A   1      34.561  24.551  25.686  1.00  0.00     0.116 C 
BRANCH   2   3
ATOM      3  N   UNL A   1      34.676  23.523  24.675  1.00  0.00    -0.356 N 
ATOM      4  C   UNL A   1      33.945  22.384  24.517  1.00  0.00     0.227 C 
ATOM      5  O   UNL A   1      34.386  21.545  23.728  1.00  0.00    -0.274 OA
ATOM      6  H   UNL A   1      35.384  23.666  24.006  1.00  0.00     0.163 HD
BRANCH   4   7
ATOM      7  C   UNL A   1      32.613  22.225  25.269  1.00  0.00     0.105 C 
ATOM      8  C   UNL A   1      31.951  20.859  25.054  1.00  0.00     0.023 C 
BRANCH   7   9
ATOM      9  C   UNL A   1      31.643  23.338  24.896  1.00  0.00    -0.033 A 
ATOM     10  C   UNL A   1      31.423  23.680  23.553  1.00  0.00     0.005 A 
ATOM     11  C   UNL A   1      30.998  24.079  25.894  1.00  0.00     0.044 A 
ATOM     12  C   UNL A   1      30.564  24.721  23.212  1.00  0.00     0.012 A 
ATOM     13  C   UNL A   1      30.147  25.125  25.545  1.00  0.00     0.131 A 
ATOM     14  C   UNL A   1      29.916  25.466  24.205  1.00  0.00     0.018 A 
ATOM     15  F   UNL A   1      29.560  25.820  26.532  1.00  0.00    -0.206 F 
BRANCH  14  16
ATOM     16  C   UNL A   1      29.102  26.622  23.824  1.00  0.00    -0.012 A 
ATOM     17  C   UNL A   1      27.747  26.712  24.176  1.00  0.00     0.009 A 
ATOM     18  C   UNL A   1      29.664  27.626  23.021  1.00  0.00     0.056 A 
ATOM     19  C   UNL A   1      26.965  27.779  23.730  1.00  0.00     0.004 A 
ATOM     20  C   UNL A   1      28.882  28.682  22.571  1.00  0.00     0.133 A 
ATOM     21  C   UNL A   1      27.533  28.763  22.921  1.00  0.00     0.047 A 
BRANCH  20  22
ATOM     22  O   UNL A   1      29.356  29.719  21.733  1.00  0.00    -0.410 OA
BRANCH  22  23
ATOM     23  C   UNL A   1      28.578  30.629  21.024  1.00  0.00     0.412 C 
ATOM     24  O   UNL A   1      27.843  30.378  20.074  1.00  0.00    -0.224 OA
ATOM     25  N   UNL A   1      28.695  31.920  21.467  1.00  0.00    -0.318 N 
ATOM     26  H   UNL A   1      28.187  32.586  20.949  1.00  0.00     0.167 HD
BRANCH  25  27
ATOM     27  C   UNL A   1      29.441  32.445  22.560  1.00  0.00     0.085 C 
ATOM     28  C   UNL A   1      29.166  33.712  23.321  1.00  0.00     0.027 C 
ATOM     29  C   UNL A   1      28.828  32.389  23.936  1.00  0.00     0.027 C 
ENDBRANCH  25  27
ENDBRANCH  22  23
ENDBRANCH  20  22
ENDBRANCH  14  16
ENDBRANCH   7   9
ENDBRANCH   4   7
ENDBRANCH   2   3
ENDBRANCH   1   2
BRANCH   1  30
ATOM     30  C   UNL A   1      33.464  26.847  25.985  1.00  0.00     0.002 C 
BRANCH  30  31
ATOM     31  C   UNL A   1      32.606  27.910  25.292  1.00  0.00     0.002 C 
BRANCH  31  32
ATOM     32  C   UNL A   1      31.502  28.503  26.169  1.00  0.00     0.021 C 
BRANCH  32  33
ATOM     33  C   UNL A   1      32.014  29.409  27.283  1.00  0.00     0.116 C 
BRANCH  33  34
ATOM     34  N   UNL A   1      32.010  30.806  26.883  1.00  0.00    -0.352 N 
ATOM     35  C   UNL A   1      32.920  31.792  27.174  1.00  0.00     0.251 C 
ATOM     36  H   UNL A   1      31.248  31.085  26.324  1.00  0.00     0.163 HD
ATOM     37  O   UNL A   1      32.642  32.967  26.960  1.00  0.00    -0.269 OA
BRANCH  35  38
ATOM     38  C   UNL A   1      34.223  31.423  27.769  1.00  0.00     0.039 A 
ATOM     39  C   UNL A   1      35.135  32.431  28.087  1.00  0.00     0.014 A 
ATOM     40  C   UNL A   1      34.532  30.083  28.027  1.00  0.00     0.014 A 
ATOM     41  C   UNL A   1      36.330  32.100  28.727  1.00  0.00     0.010 A 
ATOM     42  C   UNL A   1      35.688  29.765  28.734  1.00  0.00     0.010 A 
ATOM     43  C   UNL A   1      36.598  30.771  29.095  1.00  0.00    -0.014 A 
BRANCH  43  44
ATOM     44  C   UNL A   1      37.817  30.413  29.867  1.00  0.00     0.031 A 
ATOM     45  C   UNL A   1      38.827  29.463  29.285  1.00  0.00     0.074 A 
ATOM     46  C   UNL A   1      37.977  30.892  31.117  1.00  0.00     0.049 A 
ATOM     47  N   UNL A   1      39.902  28.961  29.834  1.00  0.00    -0.248 NA
ATOM     48  C   UNL A   1      38.579  28.994  27.912  1.00  0.00     0.031 C 
ATOM     49  C   UNL A   1      37.047  31.795  31.800  1.00  0.00     0.029 A 
ATOM     50  N   UNL A   1      38.967  30.677  32.043  1.00  0.00    -0.354 N 
ATOM     51  C   UNL A   1      40.452  28.108  28.883  1.00  0.00     0.074 A 
ATOM     52  C   UNL A   1      39.559  28.119  27.744  1.00  0.00     0.031 C 
ATOM     53  C   UNL A   1      37.524  32.074  33.024  1.00  0.00     0.029 A 
ATOM     54  C   UNL A   1      38.758  31.326  33.240  1.00  0.00     0.049 A 
ATOM     55  H   UNL A   1      39.755  30.113  31.868  1.00  0.00     0.167 HD
ATOM     56  C   UNL A   1      41.605  27.396  28.949  1.00  0.00     0.034 A 
ATOM     57  C   UNL A   1      39.464  31.302  34.388  1.00  0.00     0.034 A 
ATOM     58  C   UNL A   1      42.487  27.406  30.091  1.00  0.00     0.049 A 
ATOM     59  C   UNL A   1      40.719  30.465  34.452  1.00  0.00     0.074 A 
ATOM     60  C   UNL A   1      43.710  26.775  30.237  1.00  0.00     0.029 A 
ATOM     61  N   UNL A   1      42.234  28.063  31.289  1.00  0.00    -0.354 N 
ATOM     62  N   UNL A   1      41.257  29.712  33.520  1.00  0.00    -0.248 NA
ATOM     63  C   UNL A   1      41.462  30.478  35.718  1.00  0.00     0.031 C 
ATOM     64  C   UNL A   1      44.154  26.977  31.547  1.00  0.00     0.029 A 
ATOM     65  C   UNL A   1      43.256  27.812  32.193  1.00  0.00     0.049 A 
ATOM     66  H   UNL A   1      41.446  28.624  31.469  1.00  0.00     0.167 HD
ATOM     67  C   UNL A   1      42.420  29.189  34.080  1.00  0.00     0.074 A 
ATOM     68  C   UNL A   1      42.511  29.725  35.422  1.00  0.00     0.031 C 
ATOM     69  C   UNL A   1      43.330  28.345  33.533  1.00  0.00     0.034 A 
BRANCH  56  70
ATOM     70  C   UNL A   1      41.959  26.522  27.769  1.00  0.00     0.023 A 
ATOM     71  C   UNL A   1      41.603  25.163  27.717  1.00  0.00     0.031 A 
ATOM     72  C   UNL A   1      42.670  27.057  26.679  1.00  0.00     0.131 A 
ATOM     73  C   UNL A   1      42.018  24.370  26.636  1.00  0.00     0.055 A 
ATOM     74  C   UNL A   1      43.006  26.283  25.567  1.00  0.00     0.041 A 
ATOM     75  F   UNL A   1      43.059  28.342  26.681  1.00  0.00    -0.206 F 
ATOM     76  C   UNL A   1      42.692  24.927  25.547  1.00  0.00     0.022 A 
BRANCH  73  77
ATOM     77  S   UNL A   1      41.790  22.575  26.742  1.00  0.00     0.124 S 
ATOM     78  O   UNL A   1      42.828  22.202  27.701  1.00  0.00    -0.237 OA
ATOM     79  O   UNL A   1      40.415  22.458  27.210  1.00  0.00    -0.237 OA
ATOM     80  O   UNL A   1      42.025  22.118  25.373  1.00  0.00    -0.744 OA
ENDBRANCH  73  77
ENDBRANCH  56  70
BRANCH  57  81
ATOM     81  C   UNL A   1      38.995  32.064  35.583  1.00  0.00     0.023 A 
ATOM     82  C   UNL A   1      38.407  31.408  36.676  1.00  0.00     0.031 A 
ATOM     83  C   UNL A   1      39.074  33.468  35.625  1.00  0.00     0.131 A 
ATOM     84  C   UNL A   1      37.873  32.156  37.737  1.00  0.00     0.055 A 
ATOM     85  C   UNL A   1      38.600  34.203  36.713  1.00  0.00     0.041 A 
ATOM     86  F   UNL A   1      39.625  34.149  34.607  1.00  0.00    -0.206 F 
ATOM     87  C   UNL A   1      37.980  33.547  37.771  1.00  0.00     0.022 A 
BRANCH  84  88
ATOM     88  S   UNL A   1      36.932  31.288  39.023  1.00  0.00     0.124 S 
ATOM     89  O   UNL A   1      35.746  32.129  39.139  1.00  0.00    -0.237 OA
ATOM     90  O   UNL A   1      36.731  29.976  38.417  1.00  0.00    -0.237 OA
ATOM     91  O   UNL A   1      37.830  31.310  40.175  1.00  0.00    -0.744 OA
ENDBRANCH  84  88
ENDBRANCH  57  81
BRANCH  69  92
ATOM     92  C   UNL A   1      44.532  27.985  34.375  1.00  0.00     0.023 A 
ATOM     93  C   UNL A   1      44.563  26.823  35.165  1.00  0.00     0.031 A 
ATOM     94  C   UNL A   1      45.667  28.816  34.378  1.00  0.00     0.131 A 
ATOM     95  C   UNL A   1      45.685  26.551  35.964  1.00  0.00     0.055 A 
ATOM     96  C   UNL A   1      46.805  28.505  35.123  1.00  0.00     0.041 A 
ATOM     97  F   UNL A   1      45.691  29.942  33.646  1.00  0.00    -0.206 F 
ATOM     98  C   UNL A   1      46.813  27.373  35.930  1.00  0.00     0.022 A 
BRANCH  95  99
ATOM     99  S   UNL A   1      45.615  25.151  37.115  1.00  0.00     0.124 S 
ATOM    100  O   UNL A   1      47.014  24.739  37.177  1.00  0.00    -0.237 OA
ATOM    101  O   UNL A   1      45.077  25.766  38.324  1.00  0.00    -0.237 OA
ATOM    102  O   UNL A   1      44.719  24.205  36.451  1.00  0.00    -0.744 OA
ENDBRANCH  95  99
ENDBRANCH  69  92
ENDBRANCH  43  44
ENDBRANCH  35  38
ENDBRANCH  33  34
ENDBRANCH  32  33
ENDBRANCH  31  32
ENDBRANCH  30  31
ENDBRANCH   1  30
TORSDOF 21
ENDMDL
