MODEL 1
REMARK VINA RESULT:      -9.3      0.000      0.000
REMARK SMILES O=C(NCCCCCCNC(=O)c1nc(NC[C@H]2c3ccccc3CSc3ccccc32)c2ccccc2n1)c1ccc(-c2c3nc(c(-c4cc(S(=O)(=O)[O-])ccc4F)c4ccc([nH]4)c(-c4cc(S(=O)(=O)[O-])ccc4F)c4nc(c(-c5cc(S(=O)(=O)[O-])ccc5F)c5ccc2[nH]5)C=C4)C=C3)cc1
REMARK SMILES IDX 6 1 5 2 4 3 3 4 1 5 2 6 40 8 41 9 102 10 42 11 101 12 43 13
REMARK SMILES IDX 44 14 45 15 95 16 46 17 100 18 94 19 96 20 47 21 99 22 93 23
REMARK SMILES IDX 92 24 48 26 80 27 60 28 79 29 61 30 64 31 78 32 97 33 62 34
REMARK SMILES IDX 63 35 77 37 98 38 65 39 49 40 50 41 58 42 51 43 57 44 59 45
REMARK SMILES IDX 56 46 52 47 53 48 54 49 55 50 81 51 82 52 90 53 83 54 89 55
REMARK SMILES IDX 91 56 88 57 84 58 85 59 86 60 87 61 66 62 67 63 75 64 68 65
REMARK SMILES IDX 74 66 76 67 73 68 69 69 70 70 71 71 72 72 7 73 8 74 9 75
REMARK SMILES IDX 10 76 11 77 12 79 13 80 14 81 39 82 15 83 38 84 33 85 37 86
REMARK SMILES IDX 34 87 36 88 35 89 16 90 17 92 18 93 19 94 32 95 20 96 24 97
REMARK SMILES IDX 27 98 31 99 21 100 23 101 25 102 26 103 28 104 30 105 22 106
REMARK SMILES IDX 29 107
REMARK H PARENT 3 7 96 25 64 36 10 78 16 91
REMARK Flexibility Score: inf
ROOT
ATOM      1  C   UNL A   1      45.991  20.906  24.518  1.00  0.00     0.002 C 
ENDROOT
BRANCH   1   2
ATOM      2  C   UNL A   1      44.743  20.046  24.295  1.00  0.00     0.021 C 
BRANCH   2   3
ATOM      3  C   UNL A   1      44.150  19.411  25.551  1.00  0.00     0.116 C 
BRANCH   3   4
ATOM      4  N   UNL A   1      42.714  19.217  25.443  1.00  0.00    -0.352 N 
ATOM      5  O   UNL A   1      40.538  19.524  25.911  1.00  0.00    -0.269 OA
ATOM      6  C   UNL A   1      41.687  19.963  25.961  1.00  0.00     0.251 C 
ATOM      7  H   UNL A   1      42.436  18.431  24.919  1.00  0.00     0.163 HD
BRANCH   6   8
ATOM      8  C   UNL A   1      41.940  21.286  26.576  1.00  0.00     0.039 A 
ATOM      9  C   UNL A   1      42.048  22.406  25.743  1.00  0.00     0.014 A 
ATOM     10  C   UNL A   1      42.149  21.421  27.952  1.00  0.00     0.014 A 
ATOM     11  C   UNL A   1      42.341  23.659  26.288  1.00  0.00     0.010 A 
ATOM     12  C   UNL A   1      42.389  22.679  28.500  1.00  0.00     0.010 A 
ATOM     13  C   UNL A   1      42.509  23.807  27.673  1.00  0.00    -0.014 A 
BRANCH  13  14
ATOM     14  C   UNL A   1      42.853  25.119  28.279  1.00  0.00     0.031 A 
ATOM     15  C   UNL A   1      44.292  25.472  28.531  1.00  0.00     0.074 A 
ATOM     16  C   UNL A   1      41.875  25.959  28.667  1.00  0.00     0.049 A 
ATOM     17  N   UNL A   1      44.791  26.514  29.142  1.00  0.00    -0.248 NA
ATOM     18  C   UNL A   1      45.303  24.515  28.052  1.00  0.00     0.031 C 
ATOM     19  C   UNL A   1      40.445  25.716  28.491  1.00  0.00     0.029 A 
ATOM     20  N   UNL A   1      41.934  27.173  29.307  1.00  0.00    -0.354 N 
ATOM     21  C   UNL A   1      46.168  26.326  29.146  1.00  0.00     0.074 A 
ATOM     22  C   UNL A   1      46.423  25.052  28.511  1.00  0.00     0.031 C 
ATOM     23  C   UNL A   1      39.760  26.747  29.008  1.00  0.00     0.029 A 
ATOM     24  C   UNL A   1      40.698  27.703  29.597  1.00  0.00     0.049 A 
ATOM     25  H   UNL A   1      42.780  27.621  29.539  1.00  0.00     0.167 HD
ATOM     26  C   UNL A   1      47.129  27.152  29.620  1.00  0.00     0.034 A 
ATOM     27  C   UNL A   1      40.353  28.818  30.278  1.00  0.00     0.034 A 
ATOM     28  C   UNL A   1      46.859  28.437  30.210  1.00  0.00     0.049 A 
ATOM     29  C   UNL A   1      41.438  29.716  30.813  1.00  0.00     0.074 A 
ATOM     30  C   UNL A   1      47.772  29.394  30.617  1.00  0.00     0.029 A 
ATOM     31  N   UNL A   1      45.597  28.943  30.484  1.00  0.00    -0.354 N 
ATOM     32  N   UNL A   1      42.740  29.577  30.721  1.00  0.00    -0.248 NA
ATOM     33  C   UNL A   1      41.018  30.921  31.544  1.00  0.00     0.031 C 
ATOM     34  C   UNL A   1      47.066  30.446  31.201  1.00  0.00     0.029 A 
ATOM     35  C   UNL A   1      45.709  30.180  31.098  1.00  0.00     0.049 A 
ATOM     36  H   UNL A   1      44.749  28.491  30.273  1.00  0.00     0.167 HD
ATOM     37  C   UNL A   1      43.294  30.680  31.366  1.00  0.00     0.074 A 
ATOM     38  C   UNL A   1      42.185  31.488  31.829  1.00  0.00     0.031 C 
ATOM     39  C   UNL A   1      44.602  30.987  31.556  1.00  0.00     0.034 A 
BRANCH  26  40
ATOM     40  C   UNL A   1      48.570  26.721  29.518  1.00  0.00     0.023 A 
ATOM     41  C   UNL A   1      49.281  26.931  28.320  1.00  0.00     0.031 A 
ATOM     42  C   UNL A   1      49.201  26.001  30.549  1.00  0.00     0.131 A 
ATOM     43  C   UNL A   1      50.570  26.406  28.175  1.00  0.00     0.055 A 
ATOM     44  C   UNL A   1      50.501  25.515  30.412  1.00  0.00     0.041 A 
ATOM     45  F   UNL A   1      48.564  25.770  31.708  1.00  0.00    -0.206 F 
ATOM     46  C   UNL A   1      51.187  25.705  29.217  1.00  0.00     0.022 A 
BRANCH  43  47
ATOM     47  S   UNL A   1      51.471  26.557  26.608  1.00  0.00     0.124 S 
ATOM     48  O   UNL A   1      52.736  25.894  26.928  1.00  0.00    -0.237 OA
ATOM     49  O   UNL A   1      50.603  25.824  25.687  1.00  0.00    -0.237 OA
ATOM     50  O   UNL A   1      51.558  27.991  26.387  1.00  0.00    -0.744 OA
ENDBRANCH  43  47
ENDBRANCH  26  40
BRANCH  27  51
ATOM     51  C   UNL A   1      38.905  29.139  30.430  1.00  0.00     0.023 A 
ATOM     52  C   UNL A   1      38.238  29.938  29.482  1.00  0.00     0.031 A 
ATOM     53  C   UNL A   1      38.211  28.780  31.598  1.00  0.00     0.131 A 
ATOM     54  C   UNL A   1      36.954  30.424  29.760  1.00  0.00     0.055 A 
ATOM     55  C   UNL A   1      36.905  29.209  31.838  1.00  0.00     0.041 A 
ATOM     56  F   UNL A   1      38.809  28.028  32.534  1.00  0.00    -0.206 F 
ATOM     57  C   UNL A   1      36.276  30.053  30.925  1.00  0.00     0.022 A 
BRANCH  54  58
ATOM     58  S   UNL A   1      36.180  31.668  28.688  1.00  0.00     0.124 S 
ATOM     59  O   UNL A   1      37.219  32.691  28.604  1.00  0.00    -0.237 OA
ATOM     60  O   UNL A   1      35.950  30.902  27.466  1.00  0.00    -0.237 OA
ATOM     61  O   UNL A   1      34.976  32.053  29.417  1.00  0.00    -0.744 OA
ENDBRANCH  54  58
ENDBRANCH  27  51
BRANCH  39  62
ATOM     62  C   UNL A   1      44.957  32.245  32.314  1.00  0.00     0.023 A 
ATOM     63  C   UNL A   1      45.075  32.212  33.717  1.00  0.00     0.031 A 
ATOM     64  C   UNL A   1      44.976  33.495  31.672  1.00  0.00     0.131 A 
ATOM     65  C   UNL A   1      45.139  33.410  34.439  1.00  0.00     0.055 A 
ATOM     66  C   UNL A   1      45.091  34.685  32.393  1.00  0.00     0.041 A 
ATOM     67  F   UNL A   1      44.860  33.578  30.338  1.00  0.00    -0.206 F 
ATOM     68  C   UNL A   1      45.154  34.646  33.784  1.00  0.00     0.022 A 
BRANCH  65  69
ATOM     69  S   UNL A   1      45.103  33.412  36.253  1.00  0.00     0.124 S 
ATOM     70  O   UNL A   1      46.526  33.387  36.584  1.00  0.00    -0.237 OA
ATOM     71  O   UNL A   1      44.417  34.667  36.545  1.00  0.00    -0.237 OA
ATOM     72  O   UNL A   1      44.367  32.199  36.592  1.00  0.00    -0.744 OA
ENDBRANCH  65  69
ENDBRANCH  39  62
ENDBRANCH  13  14
ENDBRANCH   6   8
ENDBRANCH   3   4
ENDBRANCH   2   3
ENDBRANCH   1   2
BRANCH   1  73
ATOM     73  C   UNL A   1      45.746  22.283  25.141  1.00  0.00     0.002 C 
BRANCH  73  74
ATOM     74  C   UNL A   1      46.405  23.463  24.421  1.00  0.00     0.021 C 
BRANCH  74  75
ATOM     75  C   UNL A   1      47.013  24.531  25.331  1.00  0.00     0.116 C 
BRANCH  75  76
ATOM     76  N   UNL A   1      47.777  25.518  24.584  1.00  0.00    -0.349 N 
ATOM     77  C   UNL A   1      47.534  26.875  24.462  1.00  0.00     0.289 C 
ATOM     78  H   UNL A   1      48.567  25.178  24.105  1.00  0.00     0.163 HD
ATOM     79  O   UNL A   1      48.214  27.535  23.676  1.00  0.00    -0.266 OA
BRANCH  77  80
ATOM     80  C   UNL A   1      46.432  27.514  25.260  1.00  0.00     0.220 A 
ATOM     81  N   UNL A   1      46.798  28.505  26.087  1.00  0.00    -0.206 NA
ATOM     82  N   UNL A   1      45.176  27.119  24.998  1.00  0.00    -0.224 NA
ATOM     83  C   UNL A   1      45.819  29.223  26.650  1.00  0.00     0.138 A 
ATOM     84  C   UNL A   1      44.208  27.819  25.583  1.00  0.00     0.077 A 
ATOM     85  C   UNL A   1      44.458  28.918  26.423  1.00  0.00     0.043 A 
ATOM     86  C   UNL A   1      42.897  27.448  25.319  1.00  0.00     0.029 A 
ATOM     87  C   UNL A   1      43.347  29.615  26.971  1.00  0.00     0.014 A 
ATOM     88  C   UNL A   1      41.812  28.135  25.864  1.00  0.00     0.002 A 
ATOM     89  C   UNL A   1      42.037  29.224  26.693  1.00  0.00     0.001 A 
BRANCH  83  90
ATOM     90  N   UNL A   1      46.189  30.330  27.400  1.00  0.00    -0.368 N 
ATOM     91  H   UNL A   1      45.688  30.530  28.223  1.00  0.00     0.162 HD
BRANCH  90  92
ATOM     92  C   UNL A   1      47.294  31.214  27.018  1.00  0.00     0.127 C 
BRANCH  92  93
ATOM     93  C   UNL A   1      47.044  32.719  27.416  1.00  0.00     0.070 C 
ATOM     94  C   UNL A   1      48.352  33.524  27.314  1.00  0.00    -0.035 A 
ATOM     95  C   UNL A   1      45.841  33.457  26.804  1.00  0.00    -0.025 A 
ATOM     96  C   UNL A   1      49.344  33.232  26.359  1.00  0.00     0.005 A 
ATOM     97  C   UNL A   1      48.588  34.584  28.215  1.00  0.00    -0.034 A 
ATOM     98  C   UNL A   1      45.448  34.773  27.161  1.00  0.00     0.011 A 
ATOM     99  C   UNL A   1      45.020  32.783  25.869  1.00  0.00     0.005 A 
ATOM    100  C   UNL A   1      50.566  33.910  26.355  1.00  0.00     0.000 A 
ATOM    101  C   UNL A   1      49.813  35.273  28.188  1.00  0.00     0.005 A 
ATOM    102  C   UNL A   1      47.506  35.037  29.157  1.00  0.00     0.110 C 
ATOM    103  S   UNL A   1      46.216  35.954  28.285  1.00  0.00    -0.121 SA
ATOM    104  C   UNL A   1      44.285  35.332  26.574  1.00  0.00     0.015 A 
ATOM    105  C   UNL A   1      43.861  33.342  25.327  1.00  0.00     0.000 A 
ATOM    106  C   UNL A   1      50.804  34.924  27.275  1.00  0.00     0.000 A 
ATOM    107  C   UNL A   1      43.491  34.623  25.678  1.00  0.00     0.001 A 
ENDBRANCH  92  93
ENDBRANCH  90  92
ENDBRANCH  83  90
ENDBRANCH  77  80
ENDBRANCH  75  76
ENDBRANCH  74  75
ENDBRANCH  73  74
ENDBRANCH   1  73
TORSDOF 19
ENDMDL
MODEL 2
REMARK VINA RESULT:      -9.2      5.091      9.349
REMARK SMILES O=C(NCCCCCCNC(=O)c1nc(NC[C@H]2c3ccccc3CSc3ccccc32)c2ccccc2n1)c1ccc(-c2c3nc(c(-c4cc(S(=O)(=O)[O-])ccc4F)c4ccc([nH]4)c(-c4cc(S(=O)(=O)[O-])ccc4F)c4nc(c(-c5cc(S(=O)(=O)[O-])ccc5F)c5ccc2[nH]5)C=C4)C=C3)cc1
REMARK SMILES IDX 6 1 5 2 4 3 3 4 1 5 2 6 40 8 41 9 102 10 42 11 101 12 43 13
REMARK SMILES IDX 44 14 45 15 95 16 46 17 100 18 94 19 96 20 47 21 99 22 93 23
REMARK SMILES IDX 92 24 48 26 80 27 60 28 79 29 61 30 64 31 78 32 97 33 62 34
REMARK SMILES IDX 63 35 77 37 98 38 65 39 49 40 50 41 58 42 51 43 57 44 59 45
REMARK SMILES IDX 56 46 52 47 53 48 54 49 55 50 81 51 82 52 90 53 83 54 89 55
REMARK SMILES IDX 91 56 88 57 84 58 85 59 86 60 87 61 66 62 67 63 75 64 68 65
REMARK SMILES IDX 74 66 76 67 73 68 69 69 70 70 71 71 72 72 7 73 8 74 9 75
REMARK SMILES IDX 10 76 11 77 12 79 13 80 14 81 39 82 15 83 38 84 33 85 37 86
REMARK SMILES IDX 34 87 36 88 35 89 16 90 17 92 18 93 19 94 32 95 20 96 24 97
REMARK SMILES IDX 27 98 31 99 21 100 23 101 25 102 26 103 28 104 30 105 22 106
REMARK SMILES IDX 29 107
REMARK H PARENT 3 7 96 25 64 36 10 78 16 91
REMARK Flexibility Score: inf
ROOT
ATOM      1  C   UNL A   1      41.750  23.817  27.847  1.00  0.00     0.002 C 
ENDROOT
BRANCH   1   2
ATOM      2  C   UNL A   1      42.117  22.353  27.583  1.00  0.00     0.021 C 
BRANCH   2   3
ATOM      3  C   UNL A   1      42.565  22.035  26.157  1.00  0.00     0.116 C 
BRANCH   3   4
ATOM      4  N   UNL A   1      43.968  21.665  26.093  1.00  0.00    -0.352 N 
ATOM      5  O   UNL A   1      46.186  21.969  25.900  1.00  0.00    -0.269 OA
ATOM      6  C   UNL A   1      45.087  22.456  26.163  1.00  0.00     0.251 C 
ATOM      7  H   UNL A   1      44.143  20.703  25.981  1.00  0.00     0.163 HD
BRANCH   6   8
ATOM      8  C   UNL A   1      44.990  23.881  26.551  1.00  0.00     0.039 A 
ATOM      9  C   UNL A   1      45.249  24.236  27.881  1.00  0.00     0.014 A 
ATOM     10  C   UNL A   1      44.574  24.857  25.640  1.00  0.00     0.014 A 
ATOM     11  C   UNL A   1      45.113  25.565  28.290  1.00  0.00     0.010 A 
ATOM     12  C   UNL A   1      44.490  26.190  26.037  1.00  0.00     0.010 A 
ATOM     13  C   UNL A   1      44.737  26.555  27.370  1.00  0.00    -0.014 A 
BRANCH  13  14
ATOM     14  C   UNL A   1      44.553  27.970  27.782  1.00  0.00     0.031 A 
ATOM     15  C   UNL A   1      45.733  28.900  27.808  1.00  0.00     0.074 A 
ATOM     16  C   UNL A   1      43.348  28.399  28.200  1.00  0.00     0.049 A 
ATOM     17  N   UNL A   1      45.802  30.134  28.234  1.00  0.00    -0.248 NA
ATOM     18  C   UNL A   1      47.011  28.365  27.309  1.00  0.00     0.031 C 
ATOM     19  C   UNL A   1      42.136  27.583  28.237  1.00  0.00     0.029 A 
ATOM     20  N   UNL A   1      42.948  29.617  28.693  1.00  0.00    -0.354 N 
ATOM     21  C   UNL A   1      47.131  30.514  28.082  1.00  0.00     0.074 A 
ATOM     22  C   UNL A   1      47.840  29.367  27.560  1.00  0.00     0.031 C 
ATOM     23  C   UNL A   1      41.127  28.321  28.723  1.00  0.00     0.029 A 
ATOM     24  C   UNL A   1      41.628  29.648  29.080  1.00  0.00     0.049 A 
ATOM     25  H   UNL A   1      43.548  30.394  28.764  1.00  0.00     0.167 HD
ATOM     26  C   UNL A   1      47.698  31.715  28.337  1.00  0.00     0.034 A 
ATOM     27  C   UNL A   1      40.906  30.622  29.676  1.00  0.00     0.034 A 
ATOM     28  C   UNL A   1      46.966  32.859  28.815  1.00  0.00     0.049 A 
ATOM     29  C   UNL A   1      41.560  31.948  29.968  1.00  0.00     0.074 A 
ATOM     30  C   UNL A   1      47.431  34.149  28.995  1.00  0.00     0.029 A 
ATOM     31  N   UNL A   1      45.632  32.856  29.192  1.00  0.00    -0.354 N 
ATOM     32  N   UNL A   1      42.793  32.327  29.725  1.00  0.00    -0.248 NA
ATOM     33  C   UNL A   1      40.736  32.980  30.613  1.00  0.00     0.031 C 
ATOM     34  C   UNL A   1      46.399  34.908  29.549  1.00  0.00     0.029 A 
ATOM     35  C   UNL A   1      45.268  34.112  29.650  1.00  0.00     0.049 A 
ATOM     36  H   UNL A   1      45.032  32.077  29.142  1.00  0.00     0.167 HD
ATOM     37  C   UNL A   1      42.889  33.643  30.171  1.00  0.00     0.074 A 
ATOM     38  C   UNL A   1      41.582  34.001  30.683  1.00  0.00     0.031 C 
ATOM     39  C   UNL A   1      43.964  34.470  30.157  1.00  0.00     0.034 A 
BRANCH  26  40
ATOM     40  C   UNL A   1      49.177  31.884  28.097  1.00  0.00     0.023 A 
ATOM     41  C   UNL A   1      49.631  32.446  26.888  1.00  0.00     0.031 A 
ATOM     42  C   UNL A   1      50.133  31.385  29.000  1.00  0.00     0.131 A 
ATOM     43  C   UNL A   1      51.001  32.473  26.605  1.00  0.00     0.055 A 
ATOM     44  C   UNL A   1      51.500  31.450  28.729  1.00  0.00     0.041 A 
ATOM     45  F   UNL A   1      49.750  30.834  30.163  1.00  0.00    -0.206 F 
ATOM     46  C   UNL A   1      51.939  31.986  27.522  1.00  0.00     0.022 A 
BRANCH  43  47
ATOM     47  S   UNL A   1      51.616  33.084  25.012  1.00  0.00     0.124 S 
ATOM     48  O   UNL A   1      51.588  31.870  24.197  1.00  0.00    -0.237 OA
ATOM     49  O   UNL A   1      50.611  34.089  24.664  1.00  0.00    -0.237 OA
ATOM     50  O   UNL A   1      52.942  33.599  25.318  1.00  0.00    -0.744 OA
ENDBRANCH  43  47
ENDBRANCH  26  40
BRANCH  27  51
ATOM     51  C   UNL A   1      39.469  30.359  29.978  1.00  0.00     0.023 A 
ATOM     52  C   UNL A   1      38.452  30.852  29.138  1.00  0.00     0.031 A 
ATOM     53  C   UNL A   1      39.092  29.745  31.183  1.00  0.00     0.131 A 
ATOM     54  C   UNL A   1      37.117  30.803  29.559  1.00  0.00     0.055 A 
ATOM     55  C   UNL A   1      37.754  29.634  31.565  1.00  0.00     0.041 A 
ATOM     56  F   UNL A   1      40.026  29.268  32.020  1.00  0.00    -0.206 F 
ATOM     57  C   UNL A   1      36.759  30.183  30.760  1.00  0.00     0.022 A 
BRANCH  54  58
ATOM     58  S   UNL A   1      35.819  31.667  28.630  1.00  0.00     0.124 S 
ATOM     59  O   UNL A   1      34.817  31.920  29.662  1.00  0.00    -0.237 OA
ATOM     60  O   UNL A   1      36.536  32.844  28.146  1.00  0.00    -0.237 OA
ATOM     61  O   UNL A   1      35.432  30.708  27.600  1.00  0.00    -0.744 OA
ENDBRANCH  54  58
ENDBRANCH  27  51
BRANCH  39  62
ATOM     62  C   UNL A   1      43.823  35.863  30.723  1.00  0.00     0.023 A 
ATOM     63  C   UNL A   1      43.638  36.959  29.857  1.00  0.00     0.031 A 
ATOM     64  C   UNL A   1      44.073  36.122  32.082  1.00  0.00     0.131 A 
ATOM     65  C   UNL A   1      43.772  38.264  30.347  1.00  0.00     0.055 A 
ATOM     66  C   UNL A   1      44.155  37.425  32.575  1.00  0.00     0.041 A 
ATOM     67  F   UNL A   1      44.263  35.111  32.944  1.00  0.00    -0.206 F 
ATOM     68  C   UNL A   1      44.024  38.503  31.702  1.00  0.00     0.022 A 
BRANCH  65  69
ATOM     69  S   UNL A   1      43.726  39.692  29.229  1.00  0.00     0.124 S 
ATOM     70  O   UNL A   1      44.771  40.548  29.788  1.00  0.00    -0.237 OA
ATOM     71  O   UNL A   1      44.041  39.084  27.940  1.00  0.00    -0.237 OA
ATOM     72  O   UNL A   1      42.366  40.205  29.368  1.00  0.00    -0.744 OA
ENDBRANCH  65  69
ENDBRANCH  39  62
ENDBRANCH  13  14
ENDBRANCH   6   8
ENDBRANCH   3   4
ENDBRANCH   2   3
ENDBRANCH   1   2
BRANCH   1  73
ATOM     73  C   UNL A   1      40.259  24.102  28.050  1.00  0.00     0.002 C 
BRANCH  73  74
ATOM     74  C   UNL A   1      39.526  24.684  26.838  1.00  0.00     0.021 C 
BRANCH  74  75
ATOM     75  C   UNL A   1      38.453  23.783  26.225  1.00  0.00     0.116 C 
BRANCH  75  76
ATOM     76  N   UNL A   1      38.968  22.462  25.898  1.00  0.00    -0.349 N 
ATOM     77  C   UNL A   1      38.267  21.362  25.434  1.00  0.00     0.289 C 
ATOM     78  H   UNL A   1      39.936  22.335  26.022  1.00  0.00     0.163 HD
ATOM     79  O   UNL A   1      38.849  20.281  25.338  1.00  0.00    -0.266 OA
BRANCH  77  80
ATOM     80  C   UNL A   1      36.810  21.492  25.089  1.00  0.00     0.220 A 
ATOM     81  N   UNL A   1      36.417  22.687  24.622  1.00  0.00    -0.206 NA
ATOM     82  N   UNL A   1      36.059  20.383  25.170  1.00  0.00    -0.224 NA
ATOM     83  C   UNL A   1      35.180  22.768  24.117  1.00  0.00     0.138 A 
ATOM     84  C   UNL A   1      34.821  20.478  24.692  1.00  0.00     0.077 A 
ATOM     85  C   UNL A   1      34.308  21.656  24.121  1.00  0.00     0.043 A 
ATOM     86  C   UNL A   1      34.023  19.344  24.745  1.00  0.00     0.029 A 
ATOM     87  C   UNL A   1      32.982  21.637  23.611  1.00  0.00     0.014 A 
ATOM     88  C   UNL A   1      32.720  19.335  24.246  1.00  0.00     0.002 A 
ATOM     89  C   UNL A   1      32.197  20.486  23.676  1.00  0.00     0.001 A 
BRANCH  83  90
ATOM     90  N   UNL A   1      34.814  23.962  23.513  1.00  0.00    -0.368 N 
ATOM     91  H   UNL A   1      34.749  23.992  22.531  1.00  0.00     0.162 HD
BRANCH  90  92
ATOM     92  C   UNL A   1      34.519  25.179  24.274  1.00  0.00     0.127 C 
BRANCH  92  93
ATOM     93  C   UNL A   1      32.982  25.523  24.315  1.00  0.00     0.070 C 
ATOM     94  C   UNL A   1      32.242  24.561  25.262  1.00  0.00    -0.035 A 
ATOM     95  C   UNL A   1      32.556  26.990  24.504  1.00  0.00    -0.025 A 
ATOM     96  C   UNL A   1      32.847  24.025  26.414  1.00  0.00     0.005 A 
ATOM     97  C   UNL A   1      30.916  24.178  24.967  1.00  0.00    -0.034 A 
ATOM     98  C   UNL A   1      31.212  27.442  24.452  1.00  0.00     0.011 A 
ATOM     99  C   UNL A   1      33.551  27.980  24.683  1.00  0.00     0.005 A 
ATOM    100  C   UNL A   1      32.190  23.073  27.199  1.00  0.00     0.000 A 
ATOM    101  C   UNL A   1      30.258  23.235  25.776  1.00  0.00     0.005 A 
ATOM    102  C   UNL A   1      30.170  24.830  23.835  1.00  0.00     0.110 C 
ATOM    103  S   UNL A   1      29.678  26.517  24.258  1.00  0.00    -0.121 SA
ATOM    104  C   UNL A   1      30.942  28.828  24.582  1.00  0.00     0.015 A 
ATOM    105  C   UNL A   1      33.264  29.344  24.776  1.00  0.00     0.000 A 
ATOM    106  C   UNL A   1      30.900  22.671  26.875  1.00  0.00     0.000 A 
ATOM    107  C   UNL A   1      31.954  29.771  24.728  1.00  0.00     0.001 A 
ENDBRANCH  92  93
ENDBRANCH  90  92
ENDBRANCH  83  90
ENDBRANCH  77  80
ENDBRANCH  75  76
ENDBRANCH  74  75
ENDBRANCH  73  74
ENDBRANCH   1  73
TORSDOF 19
ENDMDL
MODEL 3
REMARK VINA RESULT:      -9.1      1.686      7.480
REMARK SMILES O=C(NCCCCCCNC(=O)c1nc(NC[C@H]2c3ccccc3CSc3ccccc32)c2ccccc2n1)c1ccc(-c2c3nc(c(-c4cc(S(=O)(=O)[O-])ccc4F)c4ccc([nH]4)c(-c4cc(S(=O)(=O)[O-])ccc4F)c4nc(c(-c5cc(S(=O)(=O)[O-])ccc5F)c5ccc2[nH]5)C=C4)C=C3)cc1
REMARK SMILES IDX 6 1 5 2 4 3 3 4 1 5 2 6 40 8 41 9 102 10 42 11 101 12 43 13
REMARK SMILES IDX 44 14 45 15 95 16 46 17 100 18 94 19 96 20 47 21 99 22 93 23
REMARK SMILES IDX 92 24 48 26 80 27 60 28 79 29 61 30 64 31 78 32 97 33 62 34
REMARK SMILES IDX 63 35 77 37 98 38 65 39 49 40 50 41 58 42 51 43 57 44 59 45
REMARK SMILES IDX 56 46 52 47 53 48 54 49 55 50 81 51 82 52 90 53 83 54 89 55
REMARK SMILES IDX 91 56 88 57 84 58 85 59 86 60 87 61 66 62 67 63 75 64 68 65
REMARK SMILES IDX 74 66 76 67 73 68 69 69 70 70 71 71 72 72 7 73 8 74 9 75
REMARK SMILES IDX 10 76 11 77 12 79 13 80 14 81 39 82 15 83 38 84 33 85 37 86
REMARK SMILES IDX 34 87 36 88 35 89 16 90 17 92 18 93 19 94 32 95 20 96 24 97
REMARK SMILES IDX 27 98 31 99 21 100 23 101 25 102 26 103 28 104 30 105 22 106
REMARK SMILES IDX 29 107
REMARK H PARENT 3 7 96 25 64 36 10 78 16 91
REMARK Flexibility Score: inf
ROOT
ATOM      1  C   UNL A   1      45.210  20.302  24.306  1.00  0.00     0.002 C 
ENDROOT
BRANCH   1   2
ATOM      2  C   UNL A   1      44.199  19.197  24.629  1.00  0.00     0.021 C 
BRANCH   2   3
ATOM      3  C   UNL A   1      43.408  19.388  25.922  1.00  0.00     0.116 C 
BRANCH   3   4
ATOM      4  N   UNL A   1      41.987  19.563  25.676  1.00  0.00    -0.352 N 
ATOM      5  O   UNL A   1      39.923  20.409  25.948  1.00  0.00    -0.269 OA
ATOM      6  C   UNL A   1      41.136  20.544  26.115  1.00  0.00     0.251 C 
ATOM      7  H   UNL A   1      41.573  18.874  25.107  1.00  0.00     0.163 HD
BRANCH   6   8
ATOM      8  C   UNL A   1      41.653  21.758  26.787  1.00  0.00     0.039 A 
ATOM      9  C   UNL A   1      41.830  21.735  28.176  1.00  0.00     0.014 A 
ATOM     10  C   UNL A   1      41.891  22.937  26.075  1.00  0.00     0.014 A 
ATOM     11  C   UNL A   1      42.264  22.882  28.845  1.00  0.00     0.010 A 
ATOM     12  C   UNL A   1      42.374  24.065  26.737  1.00  0.00     0.010 A 
ATOM     13  C   UNL A   1      42.545  24.056  28.130  1.00  0.00    -0.014 A 
BRANCH  13  14
ATOM     14  C   UNL A   1      42.978  25.300  28.817  1.00  0.00     0.031 A 
ATOM     15  C   UNL A   1      41.954  26.318  29.235  1.00  0.00     0.074 A 
ATOM     16  C   UNL A   1      44.288  25.548  29.000  1.00  0.00     0.049 A 
ATOM     17  N   UNL A   1      42.133  27.506  29.748  1.00  0.00    -0.248 NA
ATOM     18  C   UNL A   1      40.541  25.960  29.027  1.00  0.00     0.031 C 
ATOM     19  C   UNL A   1      45.372  24.645  28.619  1.00  0.00     0.029 A 
ATOM     20  N   UNL A   1      44.931  26.640  29.530  1.00  0.00    -0.354 N 
ATOM     21  C   UNL A   1      40.862  28.049  29.898  1.00  0.00     0.074 A 
ATOM     22  C   UNL A   1      39.923  27.076  29.386  1.00  0.00     0.031 C 
ATOM     23  C   UNL A   1      46.545  25.216  28.930  1.00  0.00     0.029 A 
ATOM     24  C   UNL A   1      46.302  26.547  29.486  1.00  0.00     0.049 A 
ATOM     25  H   UNL A   1      44.456  27.417  29.905  1.00  0.00     0.167 HD
ATOM     26  C   UNL A   1      40.514  29.243  30.433  1.00  0.00     0.034 A 
ATOM     27  C   UNL A   1      47.259  27.436  29.829  1.00  0.00     0.034 A 
ATOM     28  C   UNL A   1      41.461  30.181  30.978  1.00  0.00     0.049 A 
ATOM     29  C   UNL A   1      46.852  28.768  30.407  1.00  0.00     0.074 A 
ATOM     30  C   UNL A   1      41.196  31.365  31.642  1.00  0.00     0.029 A 
ATOM     31  N   UNL A   1      42.840  30.052  30.919  1.00  0.00    -0.354 N 
ATOM     32  N   UNL A   1      45.644  29.228  30.638  1.00  0.00    -0.248 NA
ATOM     33  C   UNL A   1      47.925  29.703  30.771  1.00  0.00     0.031 C 
ATOM     34  C   UNL A   1      42.414  31.987  31.921  1.00  0.00     0.029 A 
ATOM     35  C   UNL A   1      43.441  31.160  31.495  1.00  0.00     0.049 A 
ATOM     36  H   UNL A   1      43.321  29.288  30.528  1.00  0.00     0.167 HD
ATOM     37  C   UNL A   1      45.812  30.496  31.188  1.00  0.00     0.074 A 
ATOM     38  C   UNL A   1      47.240  30.724  31.272  1.00  0.00     0.031 C 
ATOM     39  C   UNL A   1      44.866  31.385  31.581  1.00  0.00     0.034 A 
BRANCH  26  40
ATOM     40  C   UNL A   1      39.055  29.618  30.480  1.00  0.00     0.023 A 
ATOM     41  C   UNL A   1      38.572  30.655  29.659  1.00  0.00     0.031 A 
ATOM     42  C   UNL A   1      38.173  29.041  31.411  1.00  0.00     0.131 A 
ATOM     43  C   UNL A   1      37.252  31.099  29.802  1.00  0.00     0.055 A 
ATOM     44  C   UNL A   1      36.848  29.461  31.523  1.00  0.00     0.041 A 
ATOM     45  F   UNL A   1      38.588  28.053  32.221  1.00  0.00    -0.206 F 
ATOM     46  C   UNL A   1      36.385  30.502  30.724  1.00  0.00     0.022 A 
BRANCH  43  47
ATOM     47  S   UNL A   1      36.628  32.506  28.844  1.00  0.00     0.124 S 
ATOM     48  O   UNL A   1      37.841  33.302  28.660  1.00  0.00    -0.237 OA
ATOM     49  O   UNL A   1      36.125  31.853  27.636  1.00  0.00    -0.237 OA
ATOM     50  O   UNL A   1      35.618  33.101  29.706  1.00  0.00    -0.744 OA
ENDBRANCH  43  47
ENDBRANCH  26  40
BRANCH  27  51
ATOM     51  C   UNL A   1      48.689  27.043  29.667  1.00  0.00     0.023 A 
ATOM     52  C   UNL A   1      49.328  27.142  28.416  1.00  0.00     0.031 A 
ATOM     53  C   UNL A   1      49.385  26.425  30.718  1.00  0.00     0.131 A 
ATOM     54  C   UNL A   1      50.584  26.551  28.227  1.00  0.00     0.055 A 
ATOM     55  C   UNL A   1      50.667  25.901  30.544  1.00  0.00     0.041 A 
ATOM     56  F   UNL A   1      48.813  26.300  31.925  1.00  0.00    -0.206 F 
ATOM     57  C   UNL A   1      51.265  25.944  29.287  1.00  0.00     0.022 A 
BRANCH  54  58
ATOM     58  S   UNL A   1      51.310  26.425  26.568  1.00  0.00     0.124 S 
ATOM     59  O   UNL A   1      52.528  27.219  26.704  1.00  0.00    -0.237 OA
ATOM     60  O   UNL A   1      51.509  24.982  26.442  1.00  0.00    -0.237 OA
ATOM     61  O   UNL A   1      50.285  26.989  25.697  1.00  0.00    -0.744 OA
ENDBRANCH  54  58
ENDBRANCH  27  51
BRANCH  39  62
ATOM     62  C   UNL A   1      45.301  32.721  32.135  1.00  0.00     0.023 A 
ATOM     63  C   UNL A   1      45.553  33.797  31.262  1.00  0.00     0.031 A 
ATOM     64  C   UNL A   1      45.656  32.863  33.488  1.00  0.00     0.131 A 
ATOM     65  C   UNL A   1      46.204  34.942  31.737  1.00  0.00     0.055 A 
ATOM     66  C   UNL A   1      46.259  34.027  33.967  1.00  0.00     0.041 A 
ATOM     67  F   UNL A   1      45.442  31.863  34.357  1.00  0.00    -0.206 F 
ATOM     68  C   UNL A   1      46.553  35.066  33.086  1.00  0.00     0.022 A 
BRANCH  65  69
ATOM     69  S   UNL A   1      46.712  36.267  30.606  1.00  0.00     0.124 S 
ATOM     70  O   UNL A   1      47.450  37.159  31.497  1.00  0.00    -0.237 OA
ATOM     71  O   UNL A   1      47.526  35.545  29.633  1.00  0.00    -0.237 OA
ATOM     72  O   UNL A   1      45.452  36.801  30.099  1.00  0.00    -0.744 OA
ENDBRANCH  65  69
ENDBRANCH  39  62
ENDBRANCH  13  14
ENDBRANCH   6   8
ENDBRANCH   3   4
ENDBRANCH   2   3
ENDBRANCH   1   2
BRANCH   1  73
ATOM     73  C   UNL A   1      45.160  21.534  25.213  1.00  0.00     0.002 C 
BRANCH  73  74
ATOM     74  C   UNL A   1      45.483  22.869  24.536  1.00  0.00     0.021 C 
BRANCH  74  75
ATOM     75  C   UNL A   1      46.038  23.955  25.457  1.00  0.00     0.116 C 
BRANCH  75  76
ATOM     76  N   UNL A   1      46.917  24.876  24.752  1.00  0.00    -0.349 N 
ATOM     77  C   UNL A   1      46.795  26.250  24.630  1.00  0.00     0.289 C 
ATOM     78  H   UNL A   1      47.695  24.472  24.307  1.00  0.00     0.163 HD
ATOM     79  O   UNL A   1      47.564  26.852  23.880  1.00  0.00    -0.266 OA
BRANCH  77  80
ATOM     80  C   UNL A   1      45.716  26.977  25.381  1.00  0.00     0.220 A 
ATOM     81  N   UNL A   1      46.123  27.970  26.188  1.00  0.00    -0.206 NA
ATOM     82  N   UNL A   1      44.445  26.651  25.101  1.00  0.00    -0.224 NA
ATOM     83  C   UNL A   1      45.177  28.762  26.705  1.00  0.00     0.138 A 
ATOM     84  C   UNL A   1      43.509  27.424  25.642  1.00  0.00     0.077 A 
ATOM     85  C   UNL A   1      43.805  28.532  26.455  1.00  0.00     0.043 A 
ATOM     86  C   UNL A   1      42.184  27.124  25.358  1.00  0.00     0.029 A 
ATOM     87  C   UNL A   1      42.727  29.311  26.955  1.00  0.00     0.014 A 
ATOM     88  C   UNL A   1      41.130  27.891  25.857  1.00  0.00     0.002 A 
ATOM     89  C   UNL A   1      41.402  28.989  26.658  1.00  0.00     0.001 A 
BRANCH  83  90
ATOM     90  N   UNL A   1      45.597  29.868  27.430  1.00  0.00    -0.368 N 
ATOM     91  H   UNL A   1      46.520  29.884  27.772  1.00  0.00     0.162 HD
BRANCH  90  92
ATOM     92  C   UNL A   1      44.724  31.012  27.709  1.00  0.00     0.127 C 
BRANCH  92  93
ATOM     93  C   UNL A   1      45.199  32.336  26.997  1.00  0.00     0.070 C 
ATOM     94  C   UNL A   1      44.220  33.486  27.298  1.00  0.00    -0.035 A 
ATOM     95  C   UNL A   1      46.673  32.758  27.125  1.00  0.00    -0.025 A 
ATOM     96  C   UNL A   1      43.527  33.585  28.519  1.00  0.00     0.005 A 
ATOM     97  C   UNL A   1      43.987  34.474  26.318  1.00  0.00    -0.034 A 
ATOM     98  C   UNL A   1      47.246  33.866  26.447  1.00  0.00     0.011 A 
ATOM     99  C   UNL A   1      47.549  31.976  27.913  1.00  0.00     0.005 A 
ATOM    100  C   UNL A   1      42.567  34.580  28.726  1.00  0.00     0.000 A 
ATOM    101  C   UNL A   1      43.034  35.483  26.547  1.00  0.00     0.005 A 
ATOM    102  C   UNL A   1      44.807  34.504  25.057  1.00  0.00     0.110 C 
ATOM    103  S   UNL A   1      46.483  35.099  25.376  1.00  0.00    -0.121 SA
ATOM    104  C   UNL A   1      48.632  34.127  26.594  1.00  0.00     0.015 A 
ATOM    105  C   UNL A   1      48.918  32.233  28.018  1.00  0.00     0.000 A 
ATOM    106  C   UNL A   1      42.314  35.522  27.737  1.00  0.00     0.000 A 
ATOM    107  C   UNL A   1      49.463  33.314  27.358  1.00  0.00     0.001 A 
ENDBRANCH  92  93
ENDBRANCH  90  92
ENDBRANCH  83  90
ENDBRANCH  77  80
ENDBRANCH  75  76
ENDBRANCH  74  75
ENDBRANCH  73  74
ENDBRANCH   1  73
TORSDOF 19
ENDMDL
