MODEL 1
REMARK VINA RESULT:     -11.2      0.000      0.000
REMARK SMILES CC1(C)C[C@@]([NH2+]CCN=[N+]=[N-])(C(=O)NCCCCCCNC(=O)c2ccc(-c3c4nc(c(-c5cc(S(=O)(=O)[O-])ccc5F)c5ccc([nH]5)c(-c5cc(S(=O)(=O)[O-])ccc5F)c5nc(c(-c6cc(S(=O)(=O)[O-])ccc6F)c6ccc3[nH]6)C=C5)C=C4)cc2)C(C)(C)O1
REMARK SMILES IDX 17 1 16 2 15 3 14 4 12 5 13 6 5 8 1 9 2 10 3 11 4 12 90 13
REMARK SMILES IDX 87 14 88 15 89 16 6 17 7 20 8 21 9 22 10 23 11 24 18 25
REMARK SMILES IDX 19 26 20 27 21 28 22 29 23 31 24 32 25 33 86 34 26 35 85 36
REMARK SMILES IDX 27 37 28 38 29 39 79 40 30 41 84 42 78 43 80 44 31 45 83 46
REMARK SMILES IDX 77 47 76 48 32 50 64 51 44 52 63 53 45 54 48 55 62 56 81 57
REMARK SMILES IDX 46 58 47 59 61 61 82 62 49 63 33 64 34 65 42 66 35 67 41 68
REMARK SMILES IDX 43 69 40 70 36 71 37 72 38 73 39 74 65 75 66 76 74 77 67 78
REMARK SMILES IDX 73 79 75 80 72 81 68 82 69 83 70 84 71 85 50 86 51 87 59 88
REMARK SMILES IDX 52 89 58 90 60 91 57 92 53 93 54 94 55 95 56 96
REMARK H PARENT 14 7 6 18 6 19 21 30 80 49 48 60
REMARK Flexibility Score: inf
ROOT
ATOM      1  C   UNL A   1      32.367  29.831  26.917  1.00  0.00     0.002 C 
ENDROOT
BRANCH   1   2
ATOM      2  C   UNL A   1      31.740  28.548  27.447  1.00  0.00     0.021 C 
BRANCH   2   3
ATOM      3  C   UNL A   1      32.170  27.257  26.773  1.00  0.00     0.116 C 
BRANCH   3   4
ATOM      4  N   UNL A   1      31.245  26.159  26.819  1.00  0.00    -0.351 N 
ATOM      5  C   UNL A   1      31.235  24.951  26.184  1.00  0.00     0.284 C 
ATOM      6  O   UNL A   1      30.306  24.225  26.573  1.00  0.00    -0.268 OA
ATOM      7  H   UNL A   1      30.478  26.305  27.419  1.00  0.00     0.163 HD
BRANCH   5   8
ATOM      8  C   UNL A   1      32.184  24.477  24.986  1.00  0.00     0.206 C 
ATOM      9  C   UNL A   1      32.555  20.866  23.947  1.00  0.00     0.042 C 
ATOM     10  C   UNL A   1      32.737  22.381  23.853  1.00  0.00     0.070 C 
ATOM     11  C   UNL A   1      32.967  22.751  22.381  1.00  0.00     0.042 C 
ATOM     12  C   UNL A   1      31.576  23.127  24.509  1.00  0.00     0.117 C 
ATOM     13  O   UNL A   1      33.904  22.752  24.601  1.00  0.00    -0.362 OA
ATOM     14  C   UNL A   1      33.608  23.916  25.434  1.00  0.00     0.127 C 
ATOM     15  C   UNL A   1      33.674  23.389  26.881  1.00  0.00     0.049 C 
ATOM     16  C   UNL A   1      34.805  24.855  25.269  1.00  0.00     0.049 C 
BRANCH   8  17
ATOM     17  N   UNL A   1      32.109  25.303  23.745  1.00  0.00    -0.331 N 
ATOM     18  H   UNL A   1      32.498  24.734  22.993  1.00  0.00     0.347 HD
ATOM     19  H   UNL A   1      32.604  26.154  24.009  1.00  0.00     0.347 HD
BRANCH  17  20
ATOM     20  C   UNL A   1      30.831  25.811  23.261  1.00  0.00     0.267 C 
BRANCH  20  21
ATOM     21  C   UNL A   1      30.817  27.294  22.797  1.00  0.00     0.152 C 
BRANCH  21  22
ATOM     22  N   UNL A   1      30.273  28.229  23.797  1.00  0.00    -0.088 NA
ATOM     23  N   UNL A   1      29.715  29.250  23.347  1.00  0.00     0.001 N 
ATOM     24  N   UNL A   1      29.157  30.157  22.949  1.00  0.00    -0.003 NA
ENDBRANCH  21  22
ENDBRANCH  20  21
ENDBRANCH  17  20
ENDBRANCH   8  17
ENDBRANCH   5   8
ENDBRANCH   3   4
ENDBRANCH   2   3
ENDBRANCH   1   2
BRANCH   1  25
ATOM     25  C   UNL A   1      31.457  30.762  26.110  1.00  0.00     0.002 C 
BRANCH  25  26
ATOM     26  C   UNL A   1      31.401  32.234  26.533  1.00  0.00     0.021 C 
BRANCH  26  27
ATOM     27  C   UNL A   1      32.588  32.754  27.335  1.00  0.00     0.116 C 
BRANCH  27  28
ATOM     28  N   UNL A   1      32.436  34.146  27.712  1.00  0.00    -0.352 N 
ATOM     29  C   UNL A   1      33.079  34.871  28.682  1.00  0.00     0.251 C 
ATOM     30  H   UNL A   1      31.770  34.649  27.190  1.00  0.00     0.163 HD
ATOM     31  O   UNL A   1      32.669  35.994  28.964  1.00  0.00    -0.269 OA
BRANCH  29  32
ATOM     32  C   UNL A   1      34.239  34.300  29.402  1.00  0.00     0.039 A 
ATOM     33  C   UNL A   1      34.007  33.545  30.553  1.00  0.00     0.014 A 
ATOM     34  C   UNL A   1      35.548  34.528  28.968  1.00  0.00     0.014 A 
ATOM     35  C   UNL A   1      35.082  32.983  31.244  1.00  0.00     0.010 A 
ATOM     36  C   UNL A   1      36.613  33.898  29.610  1.00  0.00     0.010 A 
ATOM     37  C   UNL A   1      36.394  33.130  30.763  1.00  0.00    -0.014 A 
BRANCH  37  38
ATOM     38  C   UNL A   1      37.543  32.510  31.474  1.00  0.00     0.031 A 
ATOM     39  C   UNL A   1      38.281  31.355  30.848  1.00  0.00     0.074 A 
ATOM     40  C   UNL A   1      37.903  32.964  32.691  1.00  0.00     0.049 A 
ATOM     41  N   UNL A   1      39.274  30.650  31.328  1.00  0.00    -0.248 NA
ATOM     42  C   UNL A   1      37.823  30.920  29.521  1.00  0.00     0.031 C 
ATOM     43  C   UNL A   1      37.249  34.061  33.408  1.00  0.00     0.029 A 
ATOM     44  N   UNL A   1      38.903  32.565  33.540  1.00  0.00    -0.354 N 
ATOM     45  C   UNL A   1      39.555  29.687  30.365  1.00  0.00     0.074 A 
ATOM     46  C   UNL A   1      38.579  29.854  29.310  1.00  0.00     0.031 C 
ATOM     47  C   UNL A   1      37.887  34.268  34.571  1.00  0.00     0.029 A 
ATOM     48  C   UNL A   1      38.959  33.287  34.711  1.00  0.00     0.049 A 
ATOM     49  H   UNL A   1      39.524  31.830  33.333  1.00  0.00     0.167 HD
ATOM     50  C   UNL A   1      40.551  28.766  30.349  1.00  0.00     0.034 A 
ATOM     51  C   UNL A   1      39.772  33.166  35.779  1.00  0.00     0.034 A 
ATOM     52  C   UNL A   1      41.517  28.615  31.410  1.00  0.00     0.049 A 
ATOM     53  C   UNL A   1      40.839  32.098  35.762  1.00  0.00     0.074 A 
ATOM     54  C   UNL A   1      42.586  27.739  31.484  1.00  0.00     0.029 A 
ATOM     55  N   UNL A   1      41.527  29.351  32.589  1.00  0.00    -0.354 N 
ATOM     56  N   UNL A   1      41.114  31.219  34.826  1.00  0.00    -0.248 NA
ATOM     57  C   UNL A   1      41.711  32.016  36.940  1.00  0.00     0.031 C 
ATOM     58  C   UNL A   1      43.190  27.886  32.736  1.00  0.00     0.029 A 
ATOM     59  C   UNL A   1      42.562  28.924  33.408  1.00  0.00     0.049 A 
ATOM     60  H   UNL A   1      40.893  30.070  32.811  1.00  0.00     0.167 HD
ATOM     61  C   UNL A   1      42.221  30.510  35.286  1.00  0.00     0.074 A 
ATOM     62  C   UNL A   1      42.567  31.073  36.575  1.00  0.00     0.031 C 
ATOM     63  C   UNL A   1      42.896  29.491  34.694  1.00  0.00     0.034 A 
BRANCH  50  64
ATOM     64  C   UNL A   1      40.623  27.838  29.158  1.00  0.00     0.023 A 
ATOM     65  C   UNL A   1      41.557  28.031  28.124  1.00  0.00     0.031 A 
ATOM     66  C   UNL A   1      39.730  26.758  29.039  1.00  0.00     0.131 A 
ATOM     67  C   UNL A   1      41.525  27.212  26.986  1.00  0.00     0.055 A 
ATOM     68  C   UNL A   1      39.763  25.889  27.946  1.00  0.00     0.041 A 
ATOM     69  F   UNL A   1      38.798  26.533  29.980  1.00  0.00    -0.206 F 
ATOM     70  C   UNL A   1      40.653  26.124  26.902  1.00  0.00     0.022 A 
BRANCH  67  71
ATOM     71  S   UNL A   1      42.524  27.689  25.549  1.00  0.00     0.124 S 
ATOM     72  O   UNL A   1      43.823  27.944  26.167  1.00  0.00    -0.237 OA
ATOM     73  O   UNL A   1      42.440  26.508  24.699  1.00  0.00    -0.237 OA
ATOM     74  O   UNL A   1      41.843  28.878  25.039  1.00  0.00    -0.744 OA
ENDBRANCH  67  71
ENDBRANCH  50  64
BRANCH  51  75
ATOM     75  C   UNL A   1      39.614  34.065  36.960  1.00  0.00     0.023 A 
ATOM     76  C   UNL A   1      39.085  33.586  38.170  1.00  0.00     0.031 A 
ATOM     77  C   UNL A   1      39.933  35.432  36.881  1.00  0.00     0.131 A 
ATOM     78  C   UNL A   1      38.834  34.475  39.226  1.00  0.00     0.055 A 
ATOM     79  C   UNL A   1      39.745  36.300  37.958  1.00  0.00     0.041 A 
ATOM     80  F   UNL A   1      40.442  35.947  35.749  1.00  0.00    -0.206 F 
ATOM     81  C   UNL A   1      39.176  35.825  39.135  1.00  0.00     0.022 A 
BRANCH  78  82
ATOM     82  S   UNL A   1      37.946  33.860  40.684  1.00  0.00     0.124 S 
ATOM     83  O   UNL A   1      36.836  33.140  40.071  1.00  0.00    -0.237 OA
ATOM     84  O   UNL A   1      38.963  33.040  41.335  1.00  0.00    -0.237 OA
ATOM     85  O   UNL A   1      37.582  35.082  41.399  1.00  0.00    -0.744 OA
ENDBRANCH  78  82
ENDBRANCH  51  75
BRANCH  63  86
ATOM     86  C   UNL A   1      44.119  28.965  35.409  1.00  0.00     0.023 A 
ATOM     87  C   UNL A   1      44.028  28.044  36.467  1.00  0.00     0.031 A 
ATOM     88  C   UNL A   1      45.399  29.408  35.030  1.00  0.00     0.131 A 
ATOM     89  C   UNL A   1      45.187  27.649  37.152  1.00  0.00     0.055 A 
ATOM     90  C   UNL A   1      46.555  28.954  35.666  1.00  0.00     0.041 A 
ATOM     91  F   UNL A   1      45.549  30.293  34.031  1.00  0.00    -0.206 F 
ATOM     92  C   UNL A   1      46.452  28.081  36.745  1.00  0.00     0.022 A 
BRANCH  89  93
ATOM     93  S   UNL A   1      45.012  26.655  38.658  1.00  0.00     0.124 S 
ATOM     94  O   UNL A   1      45.796  25.468  38.332  1.00  0.00    -0.237 OA
ATOM     95  O   UNL A   1      45.578  27.531  39.679  1.00  0.00    -0.237 OA
ATOM     96  O   UNL A   1      43.570  26.436  38.760  1.00  0.00    -0.744 OA
ENDBRANCH  89  93
ENDBRANCH  63  86
ENDBRANCH  37  38
ENDBRANCH  29  32
ENDBRANCH  27  28
ENDBRANCH  26  27
ENDBRANCH  25  26
ENDBRANCH   1  25
TORSDOF 20
ENDMDL
MODEL 2
REMARK VINA RESULT:     -11.1      2.832      8.538
REMARK SMILES CC1(C)C[C@@]([NH2+]CCN=[N+]=[N-])(C(=O)NCCCCCCNC(=O)c2ccc(-c3c4nc(c(-c5cc(S(=O)(=O)[O-])ccc5F)c5ccc([nH]5)c(-c5cc(S(=O)(=O)[O-])ccc5F)c5nc(c(-c6cc(S(=O)(=O)[O-])ccc6F)c6ccc3[nH]6)C=C5)C=C4)cc2)C(C)(C)O1
REMARK SMILES IDX 17 1 16 2 15 3 14 4 12 5 13 6 5 8 1 9 2 10 3 11 4 12 90 13
REMARK SMILES IDX 87 14 88 15 89 16 6 17 7 20 8 21 9 22 10 23 11 24 18 25
REMARK SMILES IDX 19 26 20 27 21 28 22 29 23 31 24 32 25 33 86 34 26 35 85 36
REMARK SMILES IDX 27 37 28 38 29 39 79 40 30 41 84 42 78 43 80 44 31 45 83 46
REMARK SMILES IDX 77 47 76 48 32 50 64 51 44 52 63 53 45 54 48 55 62 56 81 57
REMARK SMILES IDX 46 58 47 59 61 61 82 62 49 63 33 64 34 65 42 66 35 67 41 68
REMARK SMILES IDX 43 69 40 70 36 71 37 72 38 73 39 74 65 75 66 76 74 77 67 78
REMARK SMILES IDX 73 79 75 80 72 81 68 82 69 83 70 84 71 85 50 86 51 87 59 88
REMARK SMILES IDX 52 89 58 90 60 91 57 92 53 93 54 94 55 95 56 96
REMARK H PARENT 14 7 6 18 6 19 21 30 80 49 48 60
REMARK Flexibility Score: inf
ROOT
ATOM      1  C   UNL A   1      31.039  26.629  24.624  1.00  0.00     0.002 C 
ENDROOT
BRANCH   1   2
ATOM      2  C   UNL A   1      30.352  25.484  25.356  1.00  0.00     0.021 C 
BRANCH   2   3
ATOM      3  C   UNL A   1      30.913  24.093  25.112  1.00  0.00     0.116 C 
BRANCH   3   4
ATOM      4  N   UNL A   1      31.567  23.451  26.219  1.00  0.00    -0.351 N 
ATOM      5  C   UNL A   1      32.857  23.045  26.400  1.00  0.00     0.284 C 
ATOM      6  O   UNL A   1      33.056  22.621  27.550  1.00  0.00    -0.268 OA
ATOM      7  H   UNL A   1      30.976  23.272  26.985  1.00  0.00     0.163 HD
BRANCH   5   8
ATOM      8  C   UNL A   1      34.015  22.970  25.299  1.00  0.00     0.206 C 
ATOM      9  C   UNL A   1      37.670  23.470  26.105  1.00  0.00     0.042 C 
ATOM     10  C   UNL A   1      36.456  23.115  25.246  1.00  0.00     0.070 C 
ATOM     11  C   UNL A   1      36.907  22.143  24.147  1.00  0.00     0.042 C 
ATOM     12  C   UNL A   1      35.297  22.598  26.097  1.00  0.00     0.117 C 
ATOM     13  O   UNL A   1      35.970  24.312  24.620  1.00  0.00    -0.362 OA
ATOM     14  C   UNL A   1      34.515  24.380  24.748  1.00  0.00     0.127 C 
ATOM     15  C   UNL A   1      34.260  25.574  25.689  1.00  0.00     0.049 C 
ATOM     16  C   UNL A   1      34.001  24.806  23.371  1.00  0.00     0.049 C 
BRANCH   8  17
ATOM     17  N   UNL A   1      33.911  21.832  24.339  1.00  0.00    -0.331 N 
ATOM     18  H   UNL A   1      34.765  21.844  23.780  1.00  0.00     0.347 HD
ATOM     19  H   UNL A   1      33.025  22.013  23.867  1.00  0.00     0.347 HD
BRANCH  17  20
ATOM     20  C   UNL A   1      33.748  20.464  24.814  1.00  0.00     0.267 C 
BRANCH  20  21
ATOM     21  C   UNL A   1      32.363  19.809  24.552  1.00  0.00     0.152 C 
BRANCH  21  22
ATOM     22  N   UNL A   1      32.349  18.347  24.732  1.00  0.00    -0.088 NA
ATOM     23  N   UNL A   1      32.712  17.670  23.749  1.00  0.00     0.001 N 
ATOM     24  N   UNL A   1      33.092  17.045  22.878  1.00  0.00    -0.003 NA
ENDBRANCH  21  22
ENDBRANCH  20  21
ENDBRANCH  17  20
ENDBRANCH   8  17
ENDBRANCH   5   8
ENDBRANCH   3   4
ENDBRANCH   2   3
ENDBRANCH   1   2
BRANCH   1  25
ATOM     25  C   UNL A   1      30.932  28.018  25.261  1.00  0.00     0.002 C 
BRANCH  25  26
ATOM     26  C   UNL A   1      32.019  28.417  26.265  1.00  0.00     0.021 C 
BRANCH  26  27
ATOM     27  C   UNL A   1      33.053  29.426  25.779  1.00  0.00     0.116 C 
BRANCH  27  28
ATOM     28  N   UNL A   1      32.768  30.775  26.228  1.00  0.00    -0.352 N 
ATOM     29  C   UNL A   1      33.384  31.533  27.190  1.00  0.00     0.251 C 
ATOM     30  H   UNL A   1      32.015  31.216  25.771  1.00  0.00     0.163 HD
ATOM     31  O   UNL A   1      32.867  32.588  27.547  1.00  0.00    -0.269 OA
BRANCH  29  32
ATOM     32  C   UNL A   1      34.647  31.075  27.811  1.00  0.00     0.039 A 
ATOM     33  C   UNL A   1      35.717  31.969  27.891  1.00  0.00     0.014 A 
ATOM     34  C   UNL A   1      34.793  29.767  28.285  1.00  0.00     0.014 A 
ATOM     35  C   UNL A   1      36.915  31.567  28.484  1.00  0.00     0.010 A 
ATOM     36  C   UNL A   1      35.959  29.395  28.950  1.00  0.00     0.010 A 
ATOM     37  C   UNL A   1      37.039  30.286  29.045  1.00  0.00    -0.014 A 
BRANCH  37  38
ATOM     38  C   UNL A   1      38.300  29.858  29.707  1.00  0.00     0.031 A 
ATOM     39  C   UNL A   1      38.658  30.400  31.066  1.00  0.00     0.074 A 
ATOM     40  C   UNL A   1      39.135  29.011  29.074  1.00  0.00     0.049 A 
ATOM     41  N   UNL A   1      39.732  30.188  31.785  1.00  0.00    -0.248 NA
ATOM     42  C   UNL A   1      37.694  31.321  31.686  1.00  0.00     0.031 C 
ATOM     43  C   UNL A   1      38.906  28.439  27.745  1.00  0.00     0.029 A 
ATOM     44  N   UNL A   1      40.340  28.481  29.459  1.00  0.00    -0.354 N 
ATOM     45  C   UNL A   1      39.573  30.952  32.936  1.00  0.00     0.074 A 
ATOM     46  C   UNL A   1      38.336  31.688  32.783  1.00  0.00     0.031 C 
ATOM     47  C   UNL A   1      39.920  27.612  27.442  1.00  0.00     0.029 A 
ATOM     48  C   UNL A   1      40.898  27.635  28.526  1.00  0.00     0.049 A 
ATOM     49  H   UNL A   1      40.767  28.685  30.321  1.00  0.00     0.167 HD
ATOM     50  C   UNL A   1      40.372  31.015  34.032  1.00  0.00     0.034 A 
ATOM     51  C   UNL A   1      42.067  26.965  28.538  1.00  0.00     0.034 A 
ATOM     52  C   UNL A   1      41.602  30.272  34.168  1.00  0.00     0.049 A 
ATOM     53  C   UNL A   1      42.965  27.092  29.744  1.00  0.00     0.074 A 
ATOM     54  C   UNL A   1      42.471  30.234  35.243  1.00  0.00     0.029 A 
ATOM     55  N   UNL A   1      42.144  29.443  33.192  1.00  0.00    -0.354 N 
ATOM     56  N   UNL A   1      42.783  27.791  30.841  1.00  0.00    -0.248 NA
ATOM     57  C   UNL A   1      44.219  26.330  29.718  1.00  0.00     0.031 C 
ATOM     58  C   UNL A   1      43.575  29.453  34.890  1.00  0.00     0.029 A 
ATOM     59  C   UNL A   1      43.351  28.919  33.631  1.00  0.00     0.049 A 
ATOM     60  H   UNL A   1      41.732  29.256  32.318  1.00  0.00     0.167 HD
ATOM     61  C   UNL A   1      43.880  27.515  31.653  1.00  0.00     0.074 A 
ATOM     62  C   UNL A   1      44.709  26.578  30.924  1.00  0.00     0.031 C 
ATOM     63  C   UNL A   1      44.172  27.987  32.893  1.00  0.00     0.034 A 
BRANCH  50  64
ATOM     64  C   UNL A   1      39.949  31.937  35.151  1.00  0.00     0.023 A 
ATOM     65  C   UNL A   1      39.187  31.478  36.241  1.00  0.00     0.031 A 
ATOM     66  C   UNL A   1      40.288  33.302  35.119  1.00  0.00     0.131 A 
ATOM     67  C   UNL A   1      38.724  32.384  37.206  1.00  0.00     0.055 A 
ATOM     68  C   UNL A   1      39.903  34.182  36.132  1.00  0.00     0.041 A 
ATOM     69  F   UNL A   1      40.993  33.808  34.094  1.00  0.00    -0.206 F 
ATOM     70  C   UNL A   1      39.101  33.729  37.175  1.00  0.00     0.022 A 
BRANCH  67  71
ATOM     71  S   UNL A   1      37.492  31.813  38.408  1.00  0.00     0.124 S 
ATOM     72  O   UNL A   1      36.416  32.780  38.208  1.00  0.00    -0.237 OA
ATOM     73  O   UNL A   1      37.221  30.452  37.960  1.00  0.00    -0.237 OA
ATOM     74  O   UNL A   1      38.187  31.923  39.690  1.00  0.00    -0.744 OA
ENDBRANCH  67  71
ENDBRANCH  50  64
BRANCH  51  75
ATOM     75  C   UNL A   1      42.470  26.120  27.375  1.00  0.00     0.023 A 
ATOM     76  C   UNL A   1      42.082  24.773  27.288  1.00  0.00     0.031 A 
ATOM     77  C   UNL A   1      43.302  26.628  26.361  1.00  0.00     0.131 A 
ATOM     78  C   UNL A   1      42.572  23.967  26.250  1.00  0.00     0.055 A 
ATOM     79  C   UNL A   1      43.732  25.840  25.292  1.00  0.00     0.041 A 
ATOM     80  F   UNL A   1      43.706  27.909  26.391  1.00  0.00    -0.206 F 
ATOM     81  C   UNL A   1      43.381  24.495  25.241  1.00  0.00     0.022 A 
BRANCH  78  82
ATOM     82  S   UNL A   1      42.229  22.187  26.298  1.00  0.00     0.124 S 
ATOM     83  O   UNL A   1      43.039  21.700  25.187  1.00  0.00    -0.237 OA
ATOM     84  O   UNL A   1      42.689  21.825  27.634  1.00  0.00    -0.237 OA
ATOM     85  O   UNL A   1      40.784  22.114  26.097  1.00  0.00    -0.744 OA
ENDBRANCH  78  82
ENDBRANCH  51  75
BRANCH  63  86
ATOM     86  C   UNL A   1      45.412  27.443  33.564  1.00  0.00     0.023 A 
ATOM     87  C   UNL A   1      45.386  26.278  34.350  1.00  0.00     0.031 A 
ATOM     88  C   UNL A   1      46.640  28.114  33.423  1.00  0.00     0.131 A 
ATOM     89  C   UNL A   1      46.546  25.859  35.020  1.00  0.00     0.055 A 
ATOM     90  C   UNL A   1      47.808  27.650  34.029  1.00  0.00     0.041 A 
ATOM     91  F   UNL A   1      46.727  29.236  32.689  1.00  0.00    -0.206 F 
ATOM     92  C   UNL A   1      47.762  26.526  34.847  1.00  0.00     0.022 A 
BRANCH  89  93
ATOM     93  S   UNL A   1      46.420  24.500  36.213  1.00  0.00     0.124 S 
ATOM     94  O   UNL A   1      45.195  23.833  35.785  1.00  0.00    -0.237 OA
ATOM     95  O   UNL A   1      47.660  23.765  35.982  1.00  0.00    -0.237 OA
ATOM     96  O   UNL A   1      46.336  25.182  37.504  1.00  0.00    -0.744 OA
ENDBRANCH  89  93
ENDBRANCH  63  86
ENDBRANCH  37  38
ENDBRANCH  29  32
ENDBRANCH  27  28
ENDBRANCH  26  27
ENDBRANCH  25  26
ENDBRANCH   1  25
TORSDOF 20
ENDMDL
MODEL 3
REMARK VINA RESULT:     -11.1      3.949      9.176
REMARK SMILES CC1(C)C[C@@]([NH2+]CCN=[N+]=[N-])(C(=O)NCCCCCCNC(=O)c2ccc(-c3c4nc(c(-c5cc(S(=O)(=O)[O-])ccc5F)c5ccc([nH]5)c(-c5cc(S(=O)(=O)[O-])ccc5F)c5nc(c(-c6cc(S(=O)(=O)[O-])ccc6F)c6ccc3[nH]6)C=C5)C=C4)cc2)C(C)(C)O1
REMARK SMILES IDX 17 1 16 2 15 3 14 4 12 5 13 6 5 8 1 9 2 10 3 11 4 12 90 13
REMARK SMILES IDX 87 14 88 15 89 16 6 17 7 20 8 21 9 22 10 23 11 24 18 25
REMARK SMILES IDX 19 26 20 27 21 28 22 29 23 31 24 32 25 33 86 34 26 35 85 36
REMARK SMILES IDX 27 37 28 38 29 39 79 40 30 41 84 42 78 43 80 44 31 45 83 46
REMARK SMILES IDX 77 47 76 48 32 50 64 51 44 52 63 53 45 54 48 55 62 56 81 57
REMARK SMILES IDX 46 58 47 59 61 61 82 62 49 63 33 64 34 65 42 66 35 67 41 68
REMARK SMILES IDX 43 69 40 70 36 71 37 72 38 73 39 74 65 75 66 76 74 77 67 78
REMARK SMILES IDX 73 79 75 80 72 81 68 82 69 83 70 84 71 85 50 86 51 87 59 88
REMARK SMILES IDX 52 89 58 90 60 91 57 92 53 93 54 94 55 95 56 96
REMARK H PARENT 14 7 6 18 6 19 21 30 80 49 48 60
REMARK Flexibility Score: inf
ROOT
ATOM      1  C   UNL A   1      31.269  25.957  25.982  1.00  0.00     0.002 C 
ENDROOT
BRANCH   1   2
ATOM      2  C   UNL A   1      31.116  25.000  24.808  1.00  0.00     0.021 C 
BRANCH   2   3
ATOM      3  C   UNL A   1      31.141  23.517  25.137  1.00  0.00     0.116 C 
BRANCH   3   4
ATOM      4  N   UNL A   1      31.866  23.123  26.313  1.00  0.00    -0.351 N 
ATOM      5  C   UNL A   1      33.179  22.807  26.508  1.00  0.00     0.284 C 
ATOM      6  O   UNL A   1      33.441  22.618  27.707  1.00  0.00    -0.268 OA
ATOM      7  H   UNL A   1      31.314  23.072  27.127  1.00  0.00     0.163 HD
BRANCH   5   8
ATOM      8  C   UNL A   1      34.296  22.566  25.389  1.00  0.00     0.206 C 
ATOM      9  C   UNL A   1      37.997  22.904  26.053  1.00  0.00     0.042 C 
ATOM     10  C   UNL A   1      36.738  22.554  25.260  1.00  0.00     0.070 C 
ATOM     11  C   UNL A   1      37.096  21.465  24.238  1.00  0.00     0.042 C 
ATOM     12  C   UNL A   1      35.578  22.185  26.183  1.00  0.00     0.117 C 
ATOM     13  O   UNL A   1      36.305  23.721  24.545  1.00  0.00    -0.362 OA
ATOM     14  C   UNL A   1      34.862  23.890  24.703  1.00  0.00     0.127 C 
ATOM     15  C   UNL A   1      34.708  25.174  25.543  1.00  0.00     0.049 C 
ATOM     16  C   UNL A   1      34.332  24.228  23.308  1.00  0.00     0.049 C 
BRANCH   8  17
ATOM     17  N   UNL A   1      34.094  21.359  24.534  1.00  0.00    -0.331 N 
ATOM     18  H   UNL A   1      35.010  21.116  24.154  1.00  0.00     0.347 HD
ATOM     19  H   UNL A   1      33.369  21.660  23.884  1.00  0.00     0.347 HD
BRANCH  17  20
ATOM     20  C   UNL A   1      33.539  20.132  25.091  1.00  0.00     0.267 C 
BRANCH  20  21
ATOM     21  C   UNL A   1      32.731  19.239  24.108  1.00  0.00     0.152 C 
BRANCH  21  22
ATOM     22  N   UNL A   1      32.907  17.794  24.331  1.00  0.00    -0.088 NA
ATOM     23  N   UNL A   1      33.492  17.166  23.426  1.00  0.00     0.001 N 
ATOM     24  N   UNL A   1      34.072  16.594  22.632  1.00  0.00    -0.003 NA
ENDBRANCH  21  22
ENDBRANCH  20  21
ENDBRANCH  17  20
ENDBRANCH   8  17
ENDBRANCH   5   8
ENDBRANCH   3   4
ENDBRANCH   2   3
ENDBRANCH   1   2
BRANCH   1  25
ATOM     25  C   UNL A   1      31.304  27.453  25.652  1.00  0.00     0.002 C 
BRANCH  25  26
ATOM     26  C   UNL A   1      32.675  28.080  25.372  1.00  0.00     0.021 C 
BRANCH  26  27
ATOM     27  C   UNL A   1      33.474  28.534  26.588  1.00  0.00     0.116 C 
BRANCH  27  28
ATOM     28  N   UNL A   1      33.373  29.962  26.818  1.00  0.00    -0.352 N 
ATOM     29  C   UNL A   1      34.188  30.799  27.536  1.00  0.00     0.251 C 
ATOM     30  H   UNL A   1      32.601  30.400  26.391  1.00  0.00     0.163 HD
ATOM     31  O   UNL A   1      33.821  31.949  27.760  1.00  0.00    -0.269 OA
BRANCH  29  32
ATOM     32  C   UNL A   1      35.486  30.316  28.058  1.00  0.00     0.039 A 
ATOM     33  C   UNL A   1      35.522  29.733  29.327  1.00  0.00     0.014 A 
ATOM     34  C   UNL A   1      36.666  30.461  27.322  1.00  0.00     0.014 A 
ATOM     35  C   UNL A   1      36.731  29.258  29.839  1.00  0.00     0.010 A 
ATOM     36  C   UNL A   1      37.854  29.912  27.799  1.00  0.00     0.010 A 
ATOM     37  C   UNL A   1      37.904  29.316  29.068  1.00  0.00    -0.014 A 
BRANCH  37  38
ATOM     38  C   UNL A   1      39.190  28.784  29.590  1.00  0.00     0.031 A 
ATOM     39  C   UNL A   1      39.856  29.446  30.768  1.00  0.00     0.074 A 
ATOM     40  C   UNL A   1      39.773  27.729  28.988  1.00  0.00     0.049 A 
ATOM     41  N   UNL A   1      41.000  29.163  31.339  1.00  0.00    -0.248 NA
ATOM     42  C   UNL A   1      39.155  30.592  31.365  1.00  0.00     0.031 C 
ATOM     43  C   UNL A   1      39.235  27.020  27.824  1.00  0.00     0.029 A 
ATOM     44  N   UNL A   1      40.942  27.067  29.266  1.00  0.00    -0.354 N 
ATOM     45  C   UNL A   1      41.157  30.099  32.356  1.00  0.00     0.074 A 
ATOM     46  C   UNL A   1      40.027  31.000  32.274  1.00  0.00     0.031 C 
ATOM     47  C   UNL A   1      40.054  26.002  27.512  1.00  0.00     0.029 A 
ATOM     48  C   UNL A   1      41.202  26.017  28.414  1.00  0.00     0.049 A 
ATOM     49  H   UNL A   1      41.540  27.318  30.006  1.00  0.00     0.167 HD
ATOM     50  C   UNL A   1      42.138  30.183  33.290  1.00  0.00     0.034 A 
ATOM     51  C   UNL A   1      42.249  25.171  28.358  1.00  0.00     0.034 A 
ATOM     52  C   UNL A   1      43.256  29.274  33.358  1.00  0.00     0.049 A 
ATOM     53  C   UNL A   1      43.356  25.317  29.374  1.00  0.00     0.074 A 
ATOM     54  C   UNL A   1      44.289  29.246  34.279  1.00  0.00     0.029 A 
ATOM     55  N   UNL A   1      43.496  28.237  32.464  1.00  0.00    -0.354 N 
ATOM     56  N   UNL A   1      43.471  26.186  30.353  1.00  0.00    -0.248 NA
ATOM     57  C   UNL A   1      44.467  24.363  29.284  1.00  0.00     0.031 C 
ATOM     58  C   UNL A   1      45.193  28.250  33.896  1.00  0.00     0.029 A 
ATOM     59  C   UNL A   1      44.677  27.588  32.794  1.00  0.00     0.049 A 
ATOM     60  H   UNL A   1      42.913  27.998  31.708  1.00  0.00     0.167 HD
ATOM     61  C   UNL A   1      44.645  25.850  31.021  1.00  0.00     0.074 A 
ATOM     62  C   UNL A   1      45.193  24.695  30.341  1.00  0.00     0.031 C 
ATOM     63  C   UNL A   1      45.216  26.438  32.105  1.00  0.00     0.034 A 
BRANCH  50  64
ATOM     64  C   UNL A   1      42.053  31.312  34.290  1.00  0.00     0.023 A 
ATOM     65  C   UNL A   1      41.085  31.326  35.311  1.00  0.00     0.031 A 
ATOM     66  C   UNL A   1      42.935  32.405  34.211  1.00  0.00     0.131 A 
ATOM     67  C   UNL A   1      40.969  32.441  36.155  1.00  0.00     0.055 A 
ATOM     68  C   UNL A   1      42.875  33.469  35.113  1.00  0.00     0.041 A 
ATOM     69  F   UNL A   1      43.867  32.464  33.246  1.00  0.00    -0.206 F 
ATOM     70  C   UNL A   1      41.876  33.499  36.082  1.00  0.00     0.022 A 
BRANCH  67  71
ATOM     71  S   UNL A   1      39.519  32.558  37.238  1.00  0.00     0.124 S 
ATOM     72  O   UNL A   1      38.845  33.737  36.699  1.00  0.00    -0.237 OA
ATOM     73  O   UNL A   1      38.852  31.281  37.013  1.00  0.00    -0.237 OA
ATOM     74  O   UNL A   1      40.099  32.736  38.568  1.00  0.00    -0.744 OA
ENDBRANCH  67  71
ENDBRANCH  50  64
BRANCH  51  75
ATOM     75  C   UNL A   1      42.318  24.115  27.306  1.00  0.00     0.023 A 
ATOM     76  C   UNL A   1      41.674  22.878  27.476  1.00  0.00     0.031 A 
ATOM     77  C   UNL A   1      43.079  24.301  26.138  1.00  0.00     0.131 A 
ATOM     78  C   UNL A   1      41.852  21.858  26.529  1.00  0.00     0.055 A 
ATOM     79  C   UNL A   1      43.198  23.307  25.165  1.00  0.00     0.041 A 
ATOM     80  F   UNL A   1      43.717  25.463  25.920  1.00  0.00    -0.206 F 
ATOM     81  C   UNL A   1      42.596  22.069  25.366  1.00  0.00     0.022 A 
BRANCH  78  82
ATOM     82  S   UNL A   1      41.190  20.210  26.895  1.00  0.00     0.124 S 
ATOM     83  O   UNL A   1      40.866  20.330  28.313  1.00  0.00    -0.237 OA
ATOM     84  O   UNL A   1      40.055  20.129  25.982  1.00  0.00    -0.237 OA
ATOM     85  O   UNL A   1      42.305  19.319  26.582  1.00  0.00    -0.744 OA
ENDBRANCH  78  82
ENDBRANCH  51  75
BRANCH  63  86
ATOM     86  C   UNL A   1      46.467  25.797  32.660  1.00  0.00     0.023 A 
ATOM     87  C   UNL A   1      47.743  26.073  32.139  1.00  0.00     0.031 A 
ATOM     88  C   UNL A   1      46.374  24.880  33.723  1.00  0.00     0.131 A 
ATOM     89  C   UNL A   1      48.864  25.389  32.635  1.00  0.00     0.055 A 
ATOM     90  C   UNL A   1      47.502  24.260  34.263  1.00  0.00     0.041 A 
ATOM     91  F   UNL A   1      45.181  24.571  34.258  1.00  0.00    -0.206 F 
ATOM     92  C   UNL A   1      48.754  24.501  33.708  1.00  0.00     0.022 A 
BRANCH  89  93
ATOM     93  S   UNL A   1      50.452  25.587  31.782  1.00  0.00     0.124 S 
ATOM     94  O   UNL A   1      51.300  24.639  32.495  1.00  0.00    -0.237 OA
ATOM     95  O   UNL A   1      50.114  25.231  30.407  1.00  0.00    -0.237 OA
ATOM     96  O   UNL A   1      50.782  26.996  31.993  1.00  0.00    -0.744 OA
ENDBRANCH  89  93
ENDBRANCH  63  86
ENDBRANCH  37  38
ENDBRANCH  29  32
ENDBRANCH  27  28
ENDBRANCH  26  27
ENDBRANCH  25  26
ENDBRANCH   1  25
TORSDOF 20
ENDMDL
