MODEL 1
REMARK VINA RESULT:      -9.0      0.000      0.000
REMARK SMILES COc1ccc(/C=C2/SC(=S)N(NC(=O)c3ccc(C(C)(C)C)cc3)C2=O)c(C(=O)NCCCCCCNC(=O)c2ccc(-c3c4nc(c(-c5cc(S(=O)(=O)[O-])ccc5F)c5ccc([nH]5)c(-c5cc(S(=O)(=O)[O-])ccc5F)c5nc(c(-c6cc(S(=O)(=O)[O-])ccc6F)c6ccc3[nH]6)C=C5)C=C4)cc2)c1OC
REMARK SMILES IDX 34 1 33 2 32 3 31 4 29 5 30 6 28 8 3 9 4 10 104 11 5 12 6 13
REMARK SMILES IDX 2 14 1 15 105 16 106 17 7 18 8 19 9 20 26 21 10 22 12 23
REMARK SMILES IDX 27 24 11 25 13 26 14 27 15 29 16 30 17 31 25 32 18 33 24 34
REMARK SMILES IDX 19 35 20 36 21 37 22 38 23 39 35 40 36 41 37 42 38 43 39 44
REMARK SMILES IDX 40 46 41 47 42 48 103 49 43 50 102 51 44 52 45 53 46 54
REMARK SMILES IDX 96 55 47 56 101 57 95 58 97 59 48 60 100 61 94 62 93 63
REMARK SMILES IDX 49 65 81 66 61 67 80 68 62 69 65 70 79 71 98 72 63 73 64 74
REMARK SMILES IDX 78 76 99 77 66 78 50 79 51 80 59 81 52 82 58 83 60 84 57 85
REMARK SMILES IDX 53 86 54 87 55 88 56 89 82 90 83 91 91 92 84 93 90 94 92 95
REMARK SMILES IDX 89 96 85 97 86 98 87 99 88 100 67 101 68 102 76 103 69 104
REMARK SMILES IDX 75 105 77 106 74 107 70 108 71 109 72 110 73 111
REMARK H PARENT 31 7 13 28 38 45 97 64 65 75
REMARK Flexibility Score: inf
ROOT
ATOM      1  C   UNL A   1      38.258  29.903  30.559  1.00  0.00     0.002 C 
ENDROOT
BRANCH   1   2
ATOM      2  C   UNL A   1      39.575  29.409  29.945  1.00  0.00     0.021 C 
BRANCH   2   3
ATOM      3  C   UNL A   1      39.614  28.084  29.185  1.00  0.00     0.116 C 
BRANCH   3   4
ATOM      4  N   UNL A   1      39.783  27.970  27.764  1.00  0.00    -0.352 N 
ATOM      5  C   UNL A   1      40.904  27.485  27.089  1.00  0.00     0.255 C 
ATOM      6  O   UNL A   1      40.782  27.310  25.870  1.00  0.00    -0.269 OA
ATOM      7  H   UNL A   1      39.028  28.266  27.207  1.00  0.00     0.163 HD
BRANCH   5   8
ATOM      8  C   UNL A   1      42.306  27.312  27.668  1.00  0.00     0.092 A 
ATOM      9  C   UNL A   1      44.386  28.087  28.784  1.00  0.00     0.161 A 
ATOM     10  C   UNL A   1      44.523  26.813  29.348  1.00  0.00     0.051 A 
ATOM     11  C   UNL A   1      43.297  28.352  27.895  1.00  0.00     0.174 A 
ATOM     12  C   UNL A   1      43.610  25.814  29.133  1.00  0.00     0.013 A 
ATOM     13  C   UNL A   1      42.489  26.046  28.328  1.00  0.00    -0.007 A 
BRANCH   9  14
ATOM     14  O   UNL A   1      45.381  28.789  29.374  1.00  0.00    -0.493 OA
ATOM     15  C   UNL A   1      46.109  29.958  29.122  1.00  0.00     0.278 C 
ENDBRANCH   9  14
BRANCH  11  16
ATOM     16  O   UNL A   1      43.080  29.660  27.520  1.00  0.00    -0.492 OA
ATOM     17  C   UNL A   1      42.611  30.550  28.532  1.00  0.00     0.278 C 
ENDBRANCH  11  16
BRANCH  13  18
ATOM     18  C   UNL A   1      41.588  24.870  28.393  1.00  0.00     0.030 C 
ATOM     19  C   UNL A   1      41.594  23.852  27.526  1.00  0.00     0.082 C 
ATOM     20  S   UNL A   1      40.982  22.274  27.859  1.00  0.00    -0.052 SA
ATOM     21  C   UNL A   1      42.287  23.837  26.233  1.00  0.00     0.285 C 
ATOM     22  C   UNL A   1      41.892  21.566  26.516  1.00  0.00     0.168 C 
ATOM     23  N   UNL A   1      42.625  22.560  25.889  1.00  0.00    -0.198 N 
ATOM     24  O   UNL A   1      42.427  24.828  25.517  1.00  0.00    -0.266 OA
ATOM     25  S   UNL A   1      41.788  19.955  26.096  1.00  0.00    -0.050 S 
BRANCH  23  26
ATOM     26  N   UNL A   1      43.360  22.309  24.717  1.00  0.00    -0.255 N 
ATOM     27  C   UNL A   1      44.607  22.809  24.357  1.00  0.00     0.270 C 
ATOM     28  H   UNL A   1      42.938  21.700  24.069  1.00  0.00     0.192 HD
ATOM     29  O   UNL A   1      44.928  22.691  23.170  1.00  0.00    -0.267 OA
BRANCH  27  30
ATOM     30  C   UNL A   1      45.585  23.478  25.282  1.00  0.00     0.041 A 
ATOM     31  C   UNL A   1      45.526  23.160  26.648  1.00  0.00     0.014 A 
ATOM     32  C   UNL A   1      46.531  24.418  24.887  1.00  0.00     0.014 A 
ATOM     33  C   UNL A   1      46.389  23.759  27.598  1.00  0.00     0.005 A 
ATOM     34  C   UNL A   1      47.394  25.014  25.840  1.00  0.00     0.005 A 
ATOM     35  C   UNL A   1      47.321  24.743  27.229  1.00  0.00    -0.043 A 
BRANCH  35  36
ATOM     36  C   UNL A   1      48.066  25.611  28.293  1.00  0.00    -0.013 C 
ATOM     37  C   UNL A   1      49.530  25.145  28.415  1.00  0.00     0.016 C 
ATOM     38  C   UNL A   1      48.220  27.112  28.024  1.00  0.00     0.016 C 
ATOM     39  C   UNL A   1      47.381  25.512  29.677  1.00  0.00     0.016 C 
ENDBRANCH  35  36
ENDBRANCH  27  30
ENDBRANCH  23  26
ENDBRANCH  13  18
ENDBRANCH   5   8
ENDBRANCH   3   4
ENDBRANCH   2   3
ENDBRANCH   1   2
BRANCH   1  40
ATOM     40  C   UNL A   1      36.927  29.330  30.056  1.00  0.00     0.002 C 
BRANCH  40  41
ATOM     41  C   UNL A   1      36.086  30.137  29.057  1.00  0.00     0.021 C 
BRANCH  41  42
ATOM     42  C   UNL A   1      36.390  31.625  28.894  1.00  0.00     0.116 C 
BRANCH  42  43
ATOM     43  N   UNL A   1      35.380  32.478  29.488  1.00  0.00    -0.352 N 
ATOM     44  C   UNL A   1      35.210  32.924  30.775  1.00  0.00     0.251 C 
ATOM     45  H   UNL A   1      34.693  32.793  28.856  1.00  0.00     0.163 HD
ATOM     46  O   UNL A   1      34.146  33.466  31.068  1.00  0.00    -0.269 OA
BRANCH  44  47
ATOM     47  C   UNL A   1      36.262  32.770  31.810  1.00  0.00     0.039 A 
ATOM     48  C   UNL A   1      37.468  33.461  31.639  1.00  0.00     0.014 A 
ATOM     49  C   UNL A   1      36.127  31.888  32.885  1.00  0.00     0.014 A 
ATOM     50  C   UNL A   1      38.518  33.283  32.546  1.00  0.00     0.010 A 
ATOM     51  C   UNL A   1      37.149  31.767  33.832  1.00  0.00     0.010 A 
ATOM     52  C   UNL A   1      38.368  32.444  33.662  1.00  0.00    -0.014 A 
BRANCH  52  53
ATOM     53  C   UNL A   1      39.500  32.220  34.607  1.00  0.00     0.031 A 
ATOM     54  C   UNL A   1      39.728  33.177  35.752  1.00  0.00     0.074 A 
ATOM     55  C   UNL A   1      40.319  31.161  34.444  1.00  0.00     0.049 A 
ATOM     56  N   UNL A   1      40.671  33.176  36.660  1.00  0.00    -0.248 NA
ATOM     57  C   UNL A   1      38.781  34.296  35.879  1.00  0.00     0.031 C 
ATOM     58  C   UNL A   1      40.216  30.172  33.367  1.00  0.00     0.029 A 
ATOM     59  N   UNL A   1      41.396  30.734  35.180  1.00  0.00    -0.354 N 
ATOM     60  C   UNL A   1      40.427  34.282  37.468  1.00  0.00     0.074 A 
ATOM     61  C   UNL A   1      39.297  34.978  36.890  1.00  0.00     0.031 C 
ATOM     62  C   UNL A   1      41.168  29.239  33.533  1.00  0.00     0.029 A 
ATOM     63  C   UNL A   1      41.980  29.583  34.696  1.00  0.00     0.049 A 
ATOM     64  H   UNL A   1      41.722  31.206  35.980  1.00  0.00     0.167 HD
ATOM     65  C   UNL A   1      41.056  34.665  38.607  1.00  0.00     0.034 A 
ATOM     66  C   UNL A   1      43.052  28.891  35.135  1.00  0.00     0.034 A 
ATOM     67  C   UNL A   1      42.180  33.963  39.179  1.00  0.00     0.049 A 
ATOM     68  C   UNL A   1      43.769  29.373  36.377  1.00  0.00     0.074 A 
ATOM     69  C   UNL A   1      42.897  34.270  40.323  1.00  0.00     0.029 A 
ATOM     70  N   UNL A   1      42.745  32.808  38.656  1.00  0.00    -0.354 N 
ATOM     71  N   UNL A   1      43.508  30.414  37.135  1.00  0.00    -0.248 NA
ATOM     72  C   UNL A   1      44.909  28.570  36.834  1.00  0.00     0.031 C 
ATOM     73  C   UNL A   1      43.930  33.336  40.459  1.00  0.00     0.029 A 
ATOM     74  C   UNL A   1      43.805  32.396  39.449  1.00  0.00     0.049 A 
ATOM     75  H   UNL A   1      42.438  32.348  37.842  1.00  0.00     0.167 HD
ATOM     76  C   UNL A   1      44.418  30.352  38.188  1.00  0.00     0.074 A 
ATOM     77  C   UNL A   1      45.215  29.163  37.976  1.00  0.00     0.031 C 
ATOM     78  C   UNL A   1      44.583  31.200  39.236  1.00  0.00     0.034 A 
BRANCH  65  79
ATOM     79  C   UNL A   1      40.541  35.901  39.305  1.00  0.00     0.023 A 
ATOM     80  C   UNL A   1      41.288  37.093  39.329  1.00  0.00     0.031 A 
ATOM     81  C   UNL A   1      39.295  35.896  39.956  1.00  0.00     0.131 A 
ATOM     82  C   UNL A   1      40.815  38.205  40.041  1.00  0.00     0.055 A 
ATOM     83  C   UNL A   1      38.791  37.032  40.593  1.00  0.00     0.041 A 
ATOM     84  F   UNL A   1      38.545  34.783  39.988  1.00  0.00    -0.206 F 
ATOM     85  C   UNL A   1      39.558  38.193  40.649  1.00  0.00     0.022 A 
BRANCH  82  86
ATOM     86  S   UNL A   1      41.924  39.620  40.271  1.00  0.00     0.124 S 
ATOM     87  O   UNL A   1      41.023  40.743  40.022  1.00  0.00    -0.237 OA
ATOM     88  O   UNL A   1      42.371  39.452  41.648  1.00  0.00    -0.237 OA
ATOM     89  O   UNL A   1      42.953  39.418  39.252  1.00  0.00    -0.744 OA
ENDBRANCH  82  86
ENDBRANCH  65  79
BRANCH  66  90
ATOM     90  C   UNL A   1      43.537  27.675  34.413  1.00  0.00     0.023 A 
ATOM     91  C   UNL A   1      43.071  26.395  34.755  1.00  0.00     0.031 A 
ATOM     92  C   UNL A   1      44.554  27.763  33.445  1.00  0.00     0.131 A 
ATOM     93  C   UNL A   1      43.685  25.256  34.212  1.00  0.00     0.055 A 
ATOM     94  C   UNL A   1      45.105  26.628  32.846  1.00  0.00     0.041 A 
ATOM     95  F   UNL A   1      45.039  28.959  33.074  1.00  0.00    -0.206 F 
ATOM     96  C   UNL A   1      44.689  25.363  33.248  1.00  0.00     0.022 A 
BRANCH  93  97
ATOM     97  S   UNL A   1      43.266  23.632  34.906  1.00  0.00     0.124 S 
ATOM     98  O   UNL A   1      41.916  23.865  35.406  1.00  0.00    -0.237 OA
ATOM     99  O   UNL A   1      43.378  22.766  33.737  1.00  0.00    -0.237 OA
ATOM    100  O   UNL A   1      44.285  23.429  35.933  1.00  0.00    -0.744 OA
ENDBRANCH  93  97
ENDBRANCH  66  90
BRANCH  78 101
ATOM    101  C   UNL A   1      45.611  30.815  40.276  1.00  0.00     0.023 A 
ATOM    102  C   UNL A   1      45.264  30.124  41.450  1.00  0.00     0.031 A 
ATOM    103  C   UNL A   1      46.957  31.192  40.109  1.00  0.00     0.131 A 
ATOM    104  C   UNL A   1      46.225  29.915  42.450  1.00  0.00     0.055 A 
ATOM    105  C   UNL A   1      47.927  30.908  41.071  1.00  0.00     0.041 A 
ATOM    106  F   UNL A   1      47.350  31.854  39.009  1.00  0.00    -0.206 F 
ATOM    107  C   UNL A   1      47.559  30.286  42.260  1.00  0.00     0.022 A 
BRANCH 104 108
ATOM    108  S   UNL A   1      45.678  29.287  44.062  1.00  0.00     0.124 S 
ATOM    109  O   UNL A   1      44.260  29.628  44.055  1.00  0.00    -0.237 OA
ATOM    110  O   UNL A   1      45.992  27.866  43.964  1.00  0.00    -0.237 OA
ATOM    111  O   UNL A   1      46.493  30.038  45.017  1.00  0.00    -0.744 OA
ENDBRANCH 104 108
ENDBRANCH  78 101
ENDBRANCH  52  53
ENDBRANCH  44  47
ENDBRANCH  42  43
ENDBRANCH  41  42
ENDBRANCH  40  41
ENDBRANCH   1  40
TORSDOF 22
ENDMDL
MODEL 2
REMARK VINA RESULT:      -8.9      7.307     12.594
REMARK SMILES COc1ccc(/C=C2/SC(=S)N(NC(=O)c3ccc(C(C)(C)C)cc3)C2=O)c(C(=O)NCCCCCCNC(=O)c2ccc(-c3c4nc(c(-c5cc(S(=O)(=O)[O-])ccc5F)c5ccc([nH]5)c(-c5cc(S(=O)(=O)[O-])ccc5F)c5nc(c(-c6cc(S(=O)(=O)[O-])ccc6F)c6ccc3[nH]6)C=C5)C=C4)cc2)c1OC
REMARK SMILES IDX 34 1 33 2 32 3 31 4 29 5 30 6 28 8 3 9 4 10 104 11 5 12 6 13
REMARK SMILES IDX 2 14 1 15 105 16 106 17 7 18 8 19 9 20 26 21 10 22 12 23
REMARK SMILES IDX 27 24 11 25 13 26 14 27 15 29 16 30 17 31 25 32 18 33 24 34
REMARK SMILES IDX 19 35 20 36 21 37 22 38 23 39 35 40 36 41 37 42 38 43 39 44
REMARK SMILES IDX 40 46 41 47 42 48 103 49 43 50 102 51 44 52 45 53 46 54
REMARK SMILES IDX 96 55 47 56 101 57 95 58 97 59 48 60 100 61 94 62 93 63
REMARK SMILES IDX 49 65 81 66 61 67 80 68 62 69 65 70 79 71 98 72 63 73 64 74
REMARK SMILES IDX 78 76 99 77 66 78 50 79 51 80 59 81 52 82 58 83 60 84 57 85
REMARK SMILES IDX 53 86 54 87 55 88 56 89 82 90 83 91 91 92 84 93 90 94 92 95
REMARK SMILES IDX 89 96 85 97 86 98 87 99 88 100 67 101 68 102 76 103 69 104
REMARK SMILES IDX 75 105 77 106 74 107 70 108 71 109 72 110 73 111
REMARK H PARENT 31 7 13 28 38 45 97 64 65 75
REMARK Flexibility Score: inf
ROOT
ATOM      1  C   UNL A   1      48.468  35.386  29.025  1.00  0.00     0.002 C 
ENDROOT
BRANCH   1   2
ATOM      2  C   UNL A   1      48.746  36.856  28.683  1.00  0.00     0.021 C 
BRANCH   2   3
ATOM      3  C   UNL A   1      49.327  37.791  29.743  1.00  0.00     0.116 C 
BRANCH   3   4
ATOM      4  N   UNL A   1      50.065  38.986  29.452  1.00  0.00    -0.352 N 
ATOM      5  C   UNL A   1      50.012  40.196  30.146  1.00  0.00     0.255 C 
ATOM      6  O   UNL A   1      50.856  41.047  29.837  1.00  0.00    -0.269 OA
ATOM      7  H   UNL A   1      50.675  38.948  28.680  1.00  0.00     0.163 HD
BRANCH   5   8
ATOM      8  C   UNL A   1      48.920  40.635  31.118  1.00  0.00     0.092 A 
ATOM      9  C   UNL A   1      48.004  41.209  33.355  1.00  0.00     0.161 A 
ATOM     10  C   UNL A   1      47.139  42.119  32.734  1.00  0.00     0.051 A 
ATOM     11  C   UNL A   1      48.884  40.413  32.556  1.00  0.00     0.174 A 
ATOM     12  C   UNL A   1      47.145  42.328  31.380  1.00  0.00     0.013 A 
ATOM     13  C   UNL A   1      48.038  41.627  30.563  1.00  0.00    -0.007 A 
BRANCH   9  14
ATOM     14  O   UNL A   1      47.788  41.434  34.672  1.00  0.00    -0.493 OA
ATOM     15  C   UNL A   1      48.555  41.705  35.812  1.00  0.00     0.278 C 
ENDBRANCH   9  14
BRANCH  11  16
ATOM     16  O   UNL A   1      49.854  39.682  33.205  1.00  0.00    -0.492 OA
ATOM     17  C   UNL A   1      49.606  38.286  33.368  1.00  0.00     0.278 C 
ENDBRANCH  11  16
BRANCH  13  18
ATOM     18  C   UNL A   1      47.953  42.156  29.180  1.00  0.00     0.030 C 
ATOM     19  C   UNL A   1      46.998  41.843  28.298  1.00  0.00     0.082 C 
ATOM     20  S   UNL A   1      46.562  42.810  26.938  1.00  0.00    -0.052 SA
ATOM     21  C   UNL A   1      46.034  40.745  28.437  1.00  0.00     0.285 C 
ATOM     22  C   UNL A   1      44.999  41.995  26.776  1.00  0.00     0.168 C 
ATOM     23  N   UNL A   1      44.880  41.038  27.770  1.00  0.00    -0.198 N 
ATOM     24  O   UNL A   1      46.291  39.671  28.979  1.00  0.00    -0.266 OA
ATOM     25  S   UNL A   1      43.914  42.340  25.556  1.00  0.00    -0.050 S 
BRANCH  23  26
ATOM     26  N   UNL A   1      43.785  40.157  27.821  1.00  0.00    -0.255 N 
ATOM     27  C   UNL A   1      43.073  39.729  28.937  1.00  0.00     0.270 C 
ATOM     28  H   UNL A   1      43.483  39.798  26.956  1.00  0.00     0.192 HD
ATOM     29  O   UNL A   1      42.348  38.742  28.784  1.00  0.00    -0.267 OA
BRANCH  27  30
ATOM     30  C   UNL A   1      43.116  40.361  30.301  1.00  0.00     0.041 A 
ATOM     31  C   UNL A   1      42.379  41.538  30.507  1.00  0.00     0.014 A 
ATOM     32  C   UNL A   1      43.863  39.880  31.371  1.00  0.00     0.014 A 
ATOM     33  C   UNL A   1      42.380  42.217  31.750  1.00  0.00     0.005 A 
ATOM     34  C   UNL A   1      43.859  40.562  32.614  1.00  0.00     0.005 A 
ATOM     35  C   UNL A   1      43.160  41.775  32.831  1.00  0.00    -0.043 A 
BRANCH  35  36
ATOM     36  C   UNL A   1      43.396  42.664  34.093  1.00  0.00    -0.013 C 
ATOM     37  C   UNL A   1      44.030  44.006  33.676  1.00  0.00     0.016 C 
ATOM     38  C   UNL A   1      42.173  43.117  34.900  1.00  0.00     0.016 C 
ATOM     39  C   UNL A   1      44.319  41.958  35.113  1.00  0.00     0.016 C 
ENDBRANCH  35  36
ENDBRANCH  27  30
ENDBRANCH  23  26
ENDBRANCH  13  18
ENDBRANCH   5   8
ENDBRANCH   3   4
ENDBRANCH   2   3
ENDBRANCH   1   2
BRANCH   1  40
ATOM     40  C   UNL A   1      47.505  34.574  28.150  1.00  0.00     0.002 C 
BRANCH  40  41
ATOM     41  C   UNL A   1      47.758  34.470  26.640  1.00  0.00     0.021 C 
BRANCH  41  42
ATOM     42  C   UNL A   1      47.068  35.479  25.722  1.00  0.00     0.116 C 
BRANCH  42  43
ATOM     43  N   UNL A   1      46.064  34.873  24.870  1.00  0.00    -0.352 N 
ATOM     44  C   UNL A   1      44.872  34.261  25.165  1.00  0.00     0.251 C 
ATOM     45  H   UNL A   1      46.275  34.907  23.908  1.00  0.00     0.163 HD
ATOM     46  O   UNL A   1      44.301  33.635  24.274  1.00  0.00    -0.269 OA
BRANCH  44  47
ATOM     47  C   UNL A   1      44.261  34.329  26.516  1.00  0.00     0.039 A 
ATOM     48  C   UNL A   1      43.819  35.573  26.983  1.00  0.00     0.014 A 
ATOM     49  C   UNL A   1      44.207  33.222  27.368  1.00  0.00     0.014 A 
ATOM     50  C   UNL A   1      43.312  35.701  28.280  1.00  0.00     0.010 A 
ATOM     51  C   UNL A   1      43.631  33.336  28.637  1.00  0.00     0.010 A 
ATOM     52  C   UNL A   1      43.199  34.582  29.119  1.00  0.00    -0.014 A 
BRANCH  52  53
ATOM     53  C   UNL A   1      42.698  34.723  30.517  1.00  0.00     0.031 A 
ATOM     54  C   UNL A   1      41.249  34.441  30.832  1.00  0.00     0.074 A 
ATOM     55  C   UNL A   1      43.538  35.099  31.503  1.00  0.00     0.049 A 
ATOM     56  N   UNL A   1      40.613  34.536  31.972  1.00  0.00    -0.248 NA
ATOM     57  C   UNL A   1      40.398  34.015  29.710  1.00  0.00     0.031 C 
ATOM     58  C   UNL A   1      44.957  35.417  31.328  1.00  0.00     0.029 A 
ATOM     59  N   UNL A   1      43.327  35.273  32.849  1.00  0.00    -0.354 N 
ATOM     60  C   UNL A   1      39.295  34.175  31.707  1.00  0.00     0.074 A 
ATOM     61  C   UNL A   1      39.206  33.942  30.282  1.00  0.00     0.031 C 
ATOM     62  C   UNL A   1      45.493  35.715  32.523  1.00  0.00     0.029 A 
ATOM     63  C   UNL A   1      44.453  35.657  33.544  1.00  0.00     0.049 A 
ATOM     64  H   UNL A   1      42.451  35.136  33.278  1.00  0.00     0.167 HD
ATOM     65  C   UNL A   1      38.262  34.014  32.572  1.00  0.00     0.034 A 
ATOM     66  C   UNL A   1      44.623  35.939  34.852  1.00  0.00     0.034 A 
ATOM     67  C   UNL A   1      38.360  34.244  33.993  1.00  0.00     0.049 A 
ATOM     68  C   UNL A   1      43.440  35.804  35.785  1.00  0.00     0.074 A 
ATOM     69  C   UNL A   1      37.374  34.120  34.957  1.00  0.00     0.029 A 
ATOM     70  N   UNL A   1      39.514  34.639  34.656  1.00  0.00    -0.354 N 
ATOM     71  N   UNL A   1      42.206  35.443  35.513  1.00  0.00    -0.248 NA
ATOM     72  C   UNL A   1      43.682  36.090  37.204  1.00  0.00     0.031 C 
ATOM     73  C   UNL A   1      37.916  34.495  36.192  1.00  0.00     0.029 A 
ATOM     74  C   UNL A   1      39.261  34.770  36.014  1.00  0.00     0.049 A 
ATOM     75  H   UNL A   1      40.385  34.801  34.226  1.00  0.00     0.167 HD
ATOM     76  C   UNL A   1      41.545  35.405  36.739  1.00  0.00     0.074 A 
ATOM     77  C   UNL A   1      42.522  35.758  37.746  1.00  0.00     0.031 C 
ATOM     78  C   UNL A   1      40.248  35.107  37.011  1.00  0.00     0.034 A 
BRANCH  65  79
ATOM     79  C   UNL A   1      36.937  33.567  31.999  1.00  0.00     0.023 A 
ATOM     80  C   UNL A   1      35.901  34.486  31.751  1.00  0.00     0.031 A 
ATOM     81  C   UNL A   1      36.701  32.215  31.698  1.00  0.00     0.131 A 
ATOM     82  C   UNL A   1      34.660  34.034  31.280  1.00  0.00     0.055 A 
ATOM     83  C   UNL A   1      35.490  31.782  31.151  1.00  0.00     0.041 A 
ATOM     84  F   UNL A   1      37.642  31.287  31.934  1.00  0.00    -0.206 F 
ATOM     85  C   UNL A   1      34.456  32.692  30.951  1.00  0.00     0.022 A 
BRANCH  82  86
ATOM     86  S   UNL A   1      33.276  35.204  31.230  1.00  0.00     0.124 S 
ATOM     87  O   UNL A   1      32.530  34.828  32.428  1.00  0.00    -0.237 OA
ATOM     88  O   UNL A   1      33.951  36.495  31.274  1.00  0.00    -0.237 OA
ATOM     89  O   UNL A   1      32.609  34.891  29.966  1.00  0.00    -0.744 OA
ENDBRANCH  82  86
ENDBRANCH  65  79
BRANCH  66  90
ATOM     90  C   UNL A   1      45.949  36.385  35.382  1.00  0.00     0.023 A 
ATOM     91  C   UNL A   1      46.886  35.456  35.864  1.00  0.00     0.031 A 
ATOM     92  C   UNL A   1      46.255  37.751  35.516  1.00  0.00     0.131 A 
ATOM     93  C   UNL A   1      48.031  35.902  36.542  1.00  0.00     0.055 A 
ATOM     94  C   UNL A   1      47.435  38.190  36.118  1.00  0.00     0.041 A 
ATOM     95  F   UNL A   1      45.399  38.686  35.072  1.00  0.00    -0.206 F 
ATOM     96  C   UNL A   1      48.321  37.263  36.659  1.00  0.00     0.022 A 
BRANCH  93  97
ATOM     97  S   UNL A   1      49.053  34.680  37.413  1.00  0.00     0.124 S 
ATOM     98  O   UNL A   1      49.751  34.038  36.305  1.00  0.00    -0.237 OA
ATOM     99  O   UNL A   1      49.865  35.529  38.278  1.00  0.00    -0.237 OA
ATOM    100  O   UNL A   1      48.071  33.845  38.100  1.00  0.00    -0.744 OA
ENDBRANCH  93  97
ENDBRANCH  66  90
BRANCH  78 101
ATOM    101  C   UNL A   1      39.843  35.066  38.467  1.00  0.00     0.023 A 
ATOM    102  C   UNL A   1      39.815  33.868  39.202  1.00  0.00     0.031 A 
ATOM    103  C   UNL A   1      39.429  36.245  39.116  1.00  0.00     0.131 A 
ATOM    104  C   UNL A   1      39.296  33.857  40.505  1.00  0.00     0.055 A 
ATOM    105  C   UNL A   1      38.993  36.242  40.441  1.00  0.00     0.041 A 
ATOM    106  F   UNL A   1      39.434  37.420  38.467  1.00  0.00    -0.206 F 
ATOM    107  C   UNL A   1      38.902  35.040  41.136  1.00  0.00     0.022 A 
BRANCH 104 108
ATOM    108  S   UNL A   1      39.005  32.258  41.310  1.00  0.00     0.124 S 
ATOM    109  O   UNL A   1      38.366  32.659  42.558  1.00  0.00    -0.237 OA
ATOM    110  O   UNL A   1      38.147  31.578  40.346  1.00  0.00    -0.237 OA
ATOM    111  O   UNL A   1      40.347  31.695  41.451  1.00  0.00    -0.744 OA
ENDBRANCH 104 108
ENDBRANCH  78 101
ENDBRANCH  52  53
ENDBRANCH  44  47
ENDBRANCH  42  43
ENDBRANCH  41  42
ENDBRANCH  40  41
ENDBRANCH   1  40
TORSDOF 22
ENDMDL
MODEL 3
REMARK VINA RESULT:      -8.6      1.829      2.280
REMARK SMILES COc1ccc(/C=C2/SC(=S)N(NC(=O)c3ccc(C(C)(C)C)cc3)C2=O)c(C(=O)NCCCCCCNC(=O)c2ccc(-c3c4nc(c(-c5cc(S(=O)(=O)[O-])ccc5F)c5ccc([nH]5)c(-c5cc(S(=O)(=O)[O-])ccc5F)c5nc(c(-c6cc(S(=O)(=O)[O-])ccc6F)c6ccc3[nH]6)C=C5)C=C4)cc2)c1OC
REMARK SMILES IDX 34 1 33 2 32 3 31 4 29 5 30 6 28 8 3 9 4 10 104 11 5 12 6 13
REMARK SMILES IDX 2 14 1 15 105 16 106 17 7 18 8 19 9 20 26 21 10 22 12 23
REMARK SMILES IDX 27 24 11 25 13 26 14 27 15 29 16 30 17 31 25 32 18 33 24 34
REMARK SMILES IDX 19 35 20 36 21 37 22 38 23 39 35 40 36 41 37 42 38 43 39 44
REMARK SMILES IDX 40 46 41 47 42 48 103 49 43 50 102 51 44 52 45 53 46 54
REMARK SMILES IDX 96 55 47 56 101 57 95 58 97 59 48 60 100 61 94 62 93 63
REMARK SMILES IDX 49 65 81 66 61 67 80 68 62 69 65 70 79 71 98 72 63 73 64 74
REMARK SMILES IDX 78 76 99 77 66 78 50 79 51 80 59 81 52 82 58 83 60 84 57 85
REMARK SMILES IDX 53 86 54 87 55 88 56 89 82 90 83 91 91 92 84 93 90 94 92 95
REMARK SMILES IDX 89 96 85 97 86 98 87 99 88 100 67 101 68 102 76 103 69 104
REMARK SMILES IDX 75 105 77 106 74 107 70 108 71 109 72 110 73 111
REMARK H PARENT 31 7 13 28 38 45 97 64 65 75
REMARK Flexibility Score: inf
ROOT
ATOM      1  C   UNL A   1      38.325  29.636  31.093  1.00  0.00     0.002 C 
ENDROOT
BRANCH   1   2
ATOM      2  C   UNL A   1      39.491  28.942  30.375  1.00  0.00     0.021 C 
BRANCH   2   3
ATOM      3  C   UNL A   1      39.260  27.618  29.646  1.00  0.00     0.116 C 
BRANCH   3   4
ATOM      4  N   UNL A   1      39.373  27.445  28.226  1.00  0.00    -0.352 N 
ATOM      5  C   UNL A   1      40.485  26.976  27.524  1.00  0.00     0.255 C 
ATOM      6  O   UNL A   1      40.319  26.739  26.321  1.00  0.00    -0.269 OA
ATOM      7  H   UNL A   1      38.583  27.683  27.690  1.00  0.00     0.163 HD
BRANCH   5   8
ATOM      8  C   UNL A   1      41.917  26.889  28.048  1.00  0.00     0.092 A 
ATOM      9  C   UNL A   1      43.947  27.755  29.188  1.00  0.00     0.161 A 
ATOM     10  C   UNL A   1      44.229  26.451  29.612  1.00  0.00     0.051 A 
ATOM     11  C   UNL A   1      42.807  27.997  28.358  1.00  0.00     0.174 A 
ATOM     12  C   UNL A   1      43.413  25.391  29.314  1.00  0.00     0.013 A 
ATOM     13  C   UNL A   1      42.247  25.588  28.566  1.00  0.00    -0.007 A 
BRANCH   9  14
ATOM     14  O   UNL A   1      44.888  28.491  29.824  1.00  0.00    -0.493 OA
ATOM     15  C   UNL A   1      46.283  28.601  29.829  1.00  0.00     0.278 C 
ENDBRANCH   9  14
BRANCH  11  16
ATOM     16  O   UNL A   1      42.448  29.307  28.129  1.00  0.00    -0.492 OA
ATOM     17  C   UNL A   1      43.255  30.043  27.210  1.00  0.00     0.278 C 
ENDBRANCH  11  16
BRANCH  13  18
ATOM     18  C   UNL A   1      41.471  24.325  28.530  1.00  0.00     0.030 C 
ATOM     19  C   UNL A   1      41.605  23.370  27.603  1.00  0.00     0.082 C 
ATOM     20  S   UNL A   1      41.150  21.720  27.820  1.00  0.00    -0.052 SA
ATOM     21  C   UNL A   1      42.333  23.506  26.337  1.00  0.00     0.285 C 
ATOM     22  C   UNL A   1      42.165  21.194  26.470  1.00  0.00     0.168 C 
ATOM     23  N   UNL A   1      42.810  22.295  25.929  1.00  0.00    -0.198 N 
ATOM     24  O   UNL A   1      42.391  24.550  25.687  1.00  0.00    -0.266 OA
ATOM     25  S   UNL A   1      42.240  19.610  25.950  1.00  0.00    -0.050 S 
BRANCH  23  26
ATOM     26  N   UNL A   1      43.601  22.193  24.771  1.00  0.00    -0.255 N 
ATOM     27  C   UNL A   1      44.784  22.861  24.472  1.00  0.00     0.270 C 
ATOM     28  H   UNL A   1      43.275  21.569  24.083  1.00  0.00     0.192 HD
ATOM     29  O   UNL A   1      45.147  22.840  23.292  1.00  0.00    -0.267 OA
BRANCH  27  30
ATOM     30  C   UNL A   1      45.647  23.600  25.457  1.00  0.00     0.041 A 
ATOM     31  C   UNL A   1      46.501  24.601  24.967  1.00  0.00     0.014 A 
ATOM     32  C   UNL A   1      45.686  23.342  26.823  1.00  0.00     0.014 A 
ATOM     33  C   UNL A   1      47.368  25.331  25.815  1.00  0.00     0.005 A 
ATOM     34  C   UNL A   1      46.554  24.076  27.668  1.00  0.00     0.005 A 
ATOM     35  C   UNL A   1      47.456  25.058  27.190  1.00  0.00    -0.043 A 
BRANCH  35  36
ATOM     36  C   UNL A   1      48.603  25.646  28.073  1.00  0.00    -0.013 C 
ATOM     37  C   UNL A   1      49.904  24.855  27.833  1.00  0.00     0.016 C 
ATOM     38  C   UNL A   1      49.046  27.091  27.819  1.00  0.00     0.016 C 
ATOM     39  C   UNL A   1      48.240  25.587  29.576  1.00  0.00     0.016 C 
ENDBRANCH  35  36
ENDBRANCH  27  30
ENDBRANCH  23  26
ENDBRANCH  13  18
ENDBRANCH   5   8
ENDBRANCH   3   4
ENDBRANCH   2   3
ENDBRANCH   1   2
BRANCH   1  40
ATOM     40  C   UNL A   1      36.883  29.322  30.672  1.00  0.00     0.002 C 
BRANCH  40  41
ATOM     41  C   UNL A   1      36.087  30.357  29.867  1.00  0.00     0.021 C 
BRANCH  41  42
ATOM     42  C   UNL A   1      36.837  31.561  29.298  1.00  0.00     0.116 C 
BRANCH  42  43
ATOM     43  N   UNL A   1      36.386  32.823  29.850  1.00  0.00    -0.352 N 
ATOM     44  C   UNL A   1      36.673  33.449  31.037  1.00  0.00     0.251 C 
ATOM     45  H   UNL A   1      35.762  33.318  29.271  1.00  0.00     0.163 HD
ATOM     46  O   UNL A   1      35.990  34.417  31.366  1.00  0.00    -0.269 OA
BRANCH  44  47
ATOM     47  C   UNL A   1      37.771  32.994  31.926  1.00  0.00     0.039 A 
ATOM     48  C   UNL A   1      37.435  32.457  33.175  1.00  0.00     0.014 A 
ATOM     49  C   UNL A   1      39.118  33.176  31.602  1.00  0.00     0.014 A 
ATOM     50  C   UNL A   1      38.437  32.090  34.079  1.00  0.00     0.010 A 
ATOM     51  C   UNL A   1      40.120  32.740  32.475  1.00  0.00     0.010 A 
ATOM     52  C   UNL A   1      39.793  32.214  33.735  1.00  0.00    -0.014 A 
BRANCH  52  53
ATOM     53  C   UNL A   1      40.863  31.863  34.713  1.00  0.00     0.031 A 
ATOM     54  C   UNL A   1      41.502  32.942  35.552  1.00  0.00     0.074 A 
ATOM     55  C   UNL A   1      41.260  30.581  34.852  1.00  0.00     0.049 A 
ATOM     56  N   UNL A   1      42.468  32.848  36.432  1.00  0.00    -0.248 NA
ATOM     57  C   UNL A   1      41.004  34.313  35.361  1.00  0.00     0.031 C 
ATOM     58  C   UNL A   1      40.733  29.447  34.088  1.00  0.00     0.029 A 
ATOM     59  N   UNL A   1      42.192  30.012  35.684  1.00  0.00    -0.354 N 
ATOM     60  C   UNL A   1      42.684  34.139  36.903  1.00  0.00     0.074 A 
ATOM     61  C   UNL A   1      41.808  35.010  36.149  1.00  0.00     0.031 C 
ATOM     62  C   UNL A   1      41.326  28.318  34.509  1.00  0.00     0.029 A 
ATOM     63  C   UNL A   1      42.308  28.647  35.538  1.00  0.00     0.049 A 
ATOM     64  H   UNL A   1      42.728  30.531  36.326  1.00  0.00     0.167 HD
ATOM     65  C   UNL A   1      43.506  34.560  37.898  1.00  0.00     0.034 A 
ATOM     66  C   UNL A   1      43.119  27.764  36.157  1.00  0.00     0.034 A 
ATOM     67  C   UNL A   1      44.374  33.685  38.647  1.00  0.00     0.049 A 
ATOM     68  C   UNL A   1      44.065  28.269  37.223  1.00  0.00     0.074 A 
ATOM     69  C   UNL A   1      45.253  34.008  39.668  1.00  0.00     0.029 A 
ATOM     70  N   UNL A   1      44.468  32.311  38.465  1.00  0.00    -0.354 N 
ATOM     71  N   UNL A   1      44.239  29.495  37.664  1.00  0.00    -0.248 NA
ATOM     72  C   UNL A   1      44.905  27.267  37.890  1.00  0.00     0.031 C 
ATOM     73  C   UNL A   1      45.919  32.841  40.061  1.00  0.00     0.029 A 
ATOM     74  C   UNL A   1      45.394  31.777  39.348  1.00  0.00     0.049 A 
ATOM     75  H   UNL A   1      43.951  31.793  37.806  1.00  0.00     0.167 HD
ATOM     76  C   UNL A   1      45.167  29.395  38.699  1.00  0.00     0.074 A 
ATOM     77  C   UNL A   1      45.494  27.991  38.827  1.00  0.00     0.031 C 
ATOM     78  C   UNL A   1      45.701  30.373  39.476  1.00  0.00     0.034 A 
BRANCH  65  79
ATOM     79  C   UNL A   1      43.502  36.034  38.226  1.00  0.00     0.023 A 
ATOM     80  C   UNL A   1      44.320  36.941  37.528  1.00  0.00     0.031 A 
ATOM     81  C   UNL A   1      42.679  36.545  39.245  1.00  0.00     0.131 A 
ATOM     82  C   UNL A   1      44.345  38.294  37.899  1.00  0.00     0.055 A 
ATOM     83  C   UNL A   1      42.647  37.906  39.555  1.00  0.00     0.041 A 
ATOM     84  F   UNL A   1      41.893  35.726  39.963  1.00  0.00    -0.206 F 
ATOM     85  C   UNL A   1      43.493  38.788  38.888  1.00  0.00     0.022 A 
BRANCH  82  86
ATOM     86  S   UNL A   1      45.603  39.370  37.160  1.00  0.00     0.124 S 
ATOM     87  O   UNL A   1      46.379  38.417  36.371  1.00  0.00    -0.237 OA
ATOM     88  O   UNL A   1      44.799  40.323  36.403  1.00  0.00    -0.237 OA
ATOM     89  O   UNL A   1      46.302  39.925  38.318  1.00  0.00    -0.744 OA
ENDBRANCH  82  86
ENDBRANCH  65  79
BRANCH  66  90
ATOM     90  C   UNL A   1      43.099  26.312  35.799  1.00  0.00     0.023 A 
ATOM     91  C   UNL A   1      44.071  25.762  34.947  1.00  0.00     0.031 A 
ATOM     92  C   UNL A   1      42.045  25.476  36.214  1.00  0.00     0.131 A 
ATOM     93  C   UNL A   1      43.920  24.454  34.462  1.00  0.00     0.055 A 
ATOM     94  C   UNL A   1      41.944  24.149  35.792  1.00  0.00     0.041 A 
ATOM     95  F   UNL A   1      41.087  25.944  37.029  1.00  0.00    -0.206 F 
ATOM     96  C   UNL A   1      42.871  23.638  34.890  1.00  0.00     0.022 A 
BRANCH  93  97
ATOM     97  S   UNL A   1      45.022  23.891  33.133  1.00  0.00     0.124 S 
ATOM     98  O   UNL A   1      45.910  22.986  33.852  1.00  0.00    -0.237 OA
ATOM     99  O   UNL A   1      44.083  23.268  32.207  1.00  0.00    -0.237 OA
ATOM    100  O   UNL A   1      45.640  25.126  32.659  1.00  0.00    -0.744 OA
ENDBRANCH  93  97
ENDBRANCH  66  90
BRANCH  78 101
ATOM    101  C   UNL A   1      46.629  29.937  40.588  1.00  0.00     0.023 A 
ATOM    102  C   UNL A   1      46.150  29.549  41.851  1.00  0.00     0.031 A 
ATOM    103  C   UNL A   1      48.022  29.960  40.391  1.00  0.00     0.131 A 
ATOM    104  C   UNL A   1      47.053  29.291  42.893  1.00  0.00     0.055 A 
ATOM    105  C   UNL A   1      48.915  29.622  41.409  1.00  0.00     0.041 A 
ATOM    106  F   UNL A   1      48.540  30.323  39.207  1.00  0.00    -0.206 F 
ATOM    107  C   UNL A   1      48.433  29.308  42.675  1.00  0.00     0.022 A 
BRANCH 104 108
ATOM    108  S   UNL A   1      46.402  29.082  44.573  1.00  0.00     0.124 S 
ATOM    109  O   UNL A   1      45.740  27.785  44.482  1.00  0.00    -0.237 OA
ATOM    110  O   UNL A   1      47.614  29.121  45.383  1.00  0.00    -0.237 OA
ATOM    111  O   UNL A   1      45.506  30.226  44.740  1.00  0.00    -0.744 OA
ENDBRANCH 104 108
ENDBRANCH  78 101
ENDBRANCH  52  53
ENDBRANCH  44  47
ENDBRANCH  42  43
ENDBRANCH  41  42
ENDBRANCH  40  41
ENDBRANCH   1  40
TORSDOF 22
ENDMDL
