MODEL 1
REMARK VINA RESULT:     -11.6      0.000      0.000
REMARK SMILES O=C(NCCCCCCNC(=O)c1ccc(-c2c3nc(c(-c4cc(S(=O)(=O)[O-])ccc4F)c4ccc([nH]4)c(-c4cc(S(=O)(=O)[O-])ccc4F)c4nc(c(-c5cc(S(=O)(=O)[O-])ccc5F)c5ccc2[nH]5)C=C4)C=C3)cc1)c1ccc(N[C@H]2OC[C@@H](O)[C@@H](O)[C@H]2O)cc1
REMARK SMILES IDX 6 1 5 2 4 3 3 4 1 5 2 6 76 8 77 9 91 10 78 11 90 12 79 13
REMARK SMILES IDX 80 14 81 16 82 17 88 18 83 19 86 20 84 21 89 22 87 24 85 26
REMARK SMILES IDX 7 28 8 29 9 30 10 31 11 32 12 34 13 35 14 36 75 37 15 38
REMARK SMILES IDX 74 39 16 40 17 41 18 42 68 43 19 44 73 45 67 46 69 47 20 48
REMARK SMILES IDX 72 49 66 50 65 51 21 53 53 54 33 55 52 56 34 57 37 58 51 59
REMARK SMILES IDX 70 60 35 61 36 62 50 64 71 65 38 66 22 67 23 68 31 69 24 70
REMARK SMILES IDX 30 71 32 72 29 73 25 74 26 75 27 76 28 77 54 78 55 79 63 80
REMARK SMILES IDX 56 81 62 82 64 83 61 84 57 85 58 86 59 87 60 88 39 89 40 90
REMARK SMILES IDX 48 91 41 92 47 93 49 94 46 95 42 96 43 97 44 98 45 99
REMARK H PARENT 3 7 80 15 89 23 87 25 85 27 10 33 69 52 37 63
REMARK Flexibility Score: inf
ROOT
ATOM      1  C   UNL A   1      35.115  24.568  25.123  1.00  0.00     0.002 C 
ENDROOT
BRANCH   1   2
ATOM      2  C   UNL A   1      34.050  25.665  25.051  1.00  0.00     0.021 C 
BRANCH   2   3
ATOM      3  C   UNL A   1      33.535  25.967  23.648  1.00  0.00     0.116 C 
BRANCH   3   4
ATOM      4  N   UNL A   1      32.089  26.121  23.614  1.00  0.00    -0.352 N 
ATOM      5  O   UNL A   1      29.939  25.429  23.528  1.00  0.00    -0.269 OA
ATOM      6  C   UNL A   1      31.115  25.166  23.763  1.00  0.00     0.251 C 
ATOM      7  H   UNL A   1      31.763  27.039  23.464  1.00  0.00     0.163 HD
BRANCH   6   8
ATOM      8  C   UNL A   1      31.494  23.804  24.187  1.00  0.00     0.039 A 
ATOM      9  C   UNL A   1      32.158  22.944  23.313  1.00  0.00     0.016 A 
ATOM     10  C   UNL A   1      31.187  23.380  25.477  1.00  0.00     0.016 A 
ATOM     11  C   UNL A   1      32.414  21.626  23.695  1.00  0.00     0.026 A 
ATOM     12  C   UNL A   1      31.479  22.066  25.859  1.00  0.00     0.026 A 
ATOM     13  C   UNL A   1      32.059  21.152  24.962  1.00  0.00     0.036 A 
BRANCH  13  14
ATOM     14  N   UNL A   1      32.297  19.857  25.395  1.00  0.00    -0.358 N 
ATOM     15  H   UNL A   1      31.979  19.610  26.293  1.00  0.00     0.163 HD
BRANCH  14  16
ATOM     16  C   UNL A   1      32.987  18.836  24.612  1.00  0.00     0.244 C 
ATOM     17  O   UNL A   1      34.384  18.856  24.911  1.00  0.00    -0.353 OA
ATOM     18  C   UNL A   1      32.430  17.458  25.051  1.00  0.00     0.195 C 
ATOM     19  C   UNL A   1      35.127  17.904  24.138  1.00  0.00     0.197 C 
ATOM     20  C   UNL A   1      33.182  16.338  24.322  1.00  0.00     0.178 C 
ATOM     21  C   UNL A   1      34.702  16.479  24.495  1.00  0.00     0.171 C 
BRANCH  18  22
ATOM     22  O   UNL A   1      32.618  17.309  26.484  1.00  0.00    -0.386 OA
ATOM     23  H   UNL A   1      32.858  18.166  26.870  1.00  0.00     0.211 HD
ENDBRANCH  18  22
BRANCH  20  24
ATOM     24  O   UNL A   1      32.747  15.068  24.813  1.00  0.00    -0.387 OA
ATOM     25  H   UNL A   1      32.004  14.751  24.277  1.00  0.00     0.211 HD
ENDBRANCH  20  24
BRANCH  21  26
ATOM     26  O   UNL A   1      35.071  16.196  25.854  1.00  0.00    -0.388 OA
ATOM     27  H   UNL A   1      34.380  16.524  26.452  1.00  0.00     0.211 HD
ENDBRANCH  21  26
ENDBRANCH  14  16
ENDBRANCH  13  14
ENDBRANCH   6   8
ENDBRANCH   3   4
ENDBRANCH   2   3
ENDBRANCH   1   2
BRANCH   1  28
ATOM     28  C   UNL A   1      34.849  23.463  26.150  1.00  0.00     0.002 C 
BRANCH  28  29
ATOM     29  C   UNL A   1      35.579  22.141  25.897  1.00  0.00     0.021 C 
BRANCH  29  30
ATOM     30  C   UNL A   1      36.902  22.267  25.146  1.00  0.00     0.116 C 
BRANCH  30  31
ATOM     31  N   UNL A   1      37.855  21.241  25.532  1.00  0.00    -0.352 N 
ATOM     32  C   UNL A   1      39.099  21.377  26.096  1.00  0.00     0.251 C 
ATOM     33  H   UNL A   1      37.568  20.315  25.365  1.00  0.00     0.163 HD
ATOM     34  O   UNL A   1      39.840  20.399  26.177  1.00  0.00    -0.269 OA
BRANCH  32  35
ATOM     35  C   UNL A   1      39.557  22.700  26.577  1.00  0.00     0.039 A 
ATOM     36  C   UNL A   1      40.533  22.756  27.575  1.00  0.00     0.014 A 
ATOM     37  C   UNL A   1      39.026  23.882  26.051  1.00  0.00     0.014 A 
ATOM     38  C   UNL A   1      41.022  23.995  27.998  1.00  0.00     0.010 A 
ATOM     39  C   UNL A   1      39.569  25.111  26.419  1.00  0.00     0.010 A 
ATOM     40  C   UNL A   1      40.572  25.182  27.396  1.00  0.00    -0.014 A 
BRANCH  40  41
ATOM     41  C   UNL A   1      41.141  26.503  27.779  1.00  0.00     0.031 A 
ATOM     42  C   UNL A   1      42.575  26.831  27.457  1.00  0.00     0.074 A 
ATOM     43  C   UNL A   1      40.384  27.382  28.465  1.00  0.00     0.049 A 
ATOM     44  N   UNL A   1      43.271  27.895  27.769  1.00  0.00    -0.248 NA
ATOM     45  C   UNL A   1      43.332  25.816  26.711  1.00  0.00     0.031 C 
ATOM     46  C   UNL A   1      38.992  27.165  28.866  1.00  0.00     0.029 A 
ATOM     47  N   UNL A   1      40.677  28.632  28.954  1.00  0.00    -0.354 N 
ATOM     48  C   UNL A   1      44.548  27.674  27.266  1.00  0.00     0.074 A 
ATOM     49  C   UNL A   1      44.545  26.346  26.688  1.00  0.00     0.031 C 
ATOM     50  C   UNL A   1      38.545  28.254  29.511  1.00  0.00     0.029 A 
ATOM     51  C   UNL A   1      39.629  29.225  29.621  1.00  0.00     0.049 A 
ATOM     52  H   UNL A   1      41.554  29.063  28.837  1.00  0.00     0.167 HD
ATOM     53  C   UNL A   1      45.617  28.509  27.265  1.00  0.00     0.034 A 
ATOM     54  C   UNL A   1      39.553  30.409  30.261  1.00  0.00     0.034 A 
ATOM     55  C   UNL A   1      45.601  29.833  27.840  1.00  0.00     0.049 A 
ATOM     56  C   UNL A   1      40.767  31.304  30.283  1.00  0.00     0.074 A 
ATOM     57  C   UNL A   1      46.610  30.781  27.849  1.00  0.00     0.029 A 
ATOM     58  N   UNL A   1      44.526  30.395  28.517  1.00  0.00    -0.354 N 
ATOM     59  N   UNL A   1      41.955  31.099  29.760  1.00  0.00    -0.248 NA
ATOM     60  C   UNL A   1      40.628  32.594  30.972  1.00  0.00     0.031 C 
ATOM     61  C   UNL A   1      46.175  31.878  28.598  1.00  0.00     0.029 A 
ATOM     62  C   UNL A   1      44.861  31.659  28.981  1.00  0.00     0.049 A 
ATOM     63  H   UNL A   1      43.652  29.960  28.649  1.00  0.00     0.167 HD
ATOM     64  C   UNL A   1      42.691  32.251  30.028  1.00  0.00     0.074 A 
ATOM     65  C   UNL A   1      41.809  33.148  30.745  1.00  0.00     0.031 C 
ATOM     66  C   UNL A   1      43.977  32.542  29.706  1.00  0.00     0.034 A 
BRANCH  53  67
ATOM     67  C   UNL A   1      46.899  28.000  26.646  1.00  0.00     0.023 A 
ATOM     68  C   UNL A   1      47.158  28.123  25.270  1.00  0.00     0.031 A 
ATOM     69  C   UNL A   1      47.868  27.359  27.440  1.00  0.00     0.131 A 
ATOM     70  C   UNL A   1      48.311  27.546  24.718  1.00  0.00     0.055 A 
ATOM     71  C   UNL A   1      49.057  26.865  26.898  1.00  0.00     0.041 A 
ATOM     72  F   UNL A   1      47.670  27.189  28.757  1.00  0.00    -0.206 F 
ATOM     73  C   UNL A   1      49.277  26.942  25.526  1.00  0.00     0.022 A 
BRANCH  70  74
ATOM     74  S   UNL A   1      48.454  27.458  22.912  1.00  0.00     0.124 S 
ATOM     75  O   UNL A   1      49.752  28.089  22.687  1.00  0.00    -0.237 OA
ATOM     76  O   UNL A   1      48.388  26.024  22.659  1.00  0.00    -0.237 OA
ATOM     77  O   UNL A   1      47.305  28.229  22.439  1.00  0.00    -0.744 OA
ENDBRANCH  70  74
ENDBRANCH  53  67
BRANCH  54  78
ATOM     78  C   UNL A   1      38.294  30.818  30.949  1.00  0.00     0.023 A 
ATOM     79  C   UNL A   1      37.295  31.531  30.267  1.00  0.00     0.031 A 
ATOM     80  C   UNL A   1      38.090  30.544  32.314  1.00  0.00     0.131 A 
ATOM     81  C   UNL A   1      36.163  31.989  30.961  1.00  0.00     0.055 A 
ATOM     82  C   UNL A   1      36.935  30.950  32.985  1.00  0.00     0.041 A 
ATOM     83  F   UNL A   1      39.013  29.865  33.015  1.00  0.00    -0.206 F 
ATOM     84  C   UNL A   1      35.970  31.690  32.311  1.00  0.00     0.022 A 
BRANCH  81  85
ATOM     85  S   UNL A   1      34.992  33.068  30.094  1.00  0.00     0.124 S 
ATOM     86  O   UNL A   1      35.866  34.136  29.624  1.00  0.00    -0.237 OA
ATOM     87  O   UNL A   1      34.459  32.175  29.070  1.00  0.00    -0.237 OA
ATOM     88  O   UNL A   1      34.044  33.450  31.139  1.00  0.00    -0.744 OA
ENDBRANCH  81  85
ENDBRANCH  54  78
BRANCH  66  89
ATOM     89  C   UNL A   1      44.491  33.910  30.089  1.00  0.00     0.023 A 
ATOM     90  C   UNL A   1      45.119  34.151  31.323  1.00  0.00     0.031 A 
ATOM     91  C   UNL A   1      44.338  34.994  29.204  1.00  0.00     0.131 A 
ATOM     92  C   UNL A   1      45.517  35.453  31.663  1.00  0.00     0.055 A 
ATOM     93  C   UNL A   1      44.797  36.273  29.520  1.00  0.00     0.041 A 
ATOM     94  F   UNL A   1      43.741  34.825  28.013  1.00  0.00    -0.206 F 
ATOM     95  C   UNL A   1      45.378  36.511  30.762  1.00  0.00     0.022 A 
BRANCH  92  96
ATOM     96  S   UNL A   1      46.128  35.765  33.342  1.00  0.00     0.124 S 
ATOM     97  O   UNL A   1      46.904  34.559  33.612  1.00  0.00    -0.237 OA
ATOM     98  O   UNL A   1      46.897  36.994  33.171  1.00  0.00    -0.237 OA
ATOM     99  O   UNL A   1      44.905  35.905  34.132  1.00  0.00    -0.744 OA
ENDBRANCH  92  96
ENDBRANCH  66  89
ENDBRANCH  40  41
ENDBRANCH  32  35
ENDBRANCH  30  31
ENDBRANCH  29  30
ENDBRANCH  28  29
ENDBRANCH   1  28
TORSDOF 21
ENDMDL
MODEL 2
REMARK VINA RESULT:     -11.5      1.937      2.240
REMARK SMILES O=C(NCCCCCCNC(=O)c1ccc(-c2c3nc(c(-c4cc(S(=O)(=O)[O-])ccc4F)c4ccc([nH]4)c(-c4cc(S(=O)(=O)[O-])ccc4F)c4nc(c(-c5cc(S(=O)(=O)[O-])ccc5F)c5ccc2[nH]5)C=C4)C=C3)cc1)c1ccc(N[C@H]2OC[C@@H](O)[C@@H](O)[C@H]2O)cc1
REMARK SMILES IDX 6 1 5 2 4 3 3 4 1 5 2 6 76 8 77 9 91 10 78 11 90 12 79 13
REMARK SMILES IDX 80 14 81 16 82 17 88 18 83 19 86 20 84 21 89 22 87 24 85 26
REMARK SMILES IDX 7 28 8 29 9 30 10 31 11 32 12 34 13 35 14 36 75 37 15 38
REMARK SMILES IDX 74 39 16 40 17 41 18 42 68 43 19 44 73 45 67 46 69 47 20 48
REMARK SMILES IDX 72 49 66 50 65 51 21 53 53 54 33 55 52 56 34 57 37 58 51 59
REMARK SMILES IDX 70 60 35 61 36 62 50 64 71 65 38 66 22 67 23 68 31 69 24 70
REMARK SMILES IDX 30 71 32 72 29 73 25 74 26 75 27 76 28 77 54 78 55 79 63 80
REMARK SMILES IDX 56 81 62 82 64 83 61 84 57 85 58 86 59 87 60 88 39 89 40 90
REMARK SMILES IDX 48 91 41 92 47 93 49 94 46 95 42 96 43 97 44 98 45 99
REMARK H PARENT 3 7 80 15 89 23 87 25 85 27 10 33 69 52 37 63
REMARK Flexibility Score: inf
ROOT
ATOM      1  C   UNL A   1      35.111  24.406  24.605  1.00  0.00     0.002 C 
ENDROOT
BRANCH   1   2
ATOM      2  C   UNL A   1      34.152  25.596  24.582  1.00  0.00     0.021 C 
BRANCH   2   3
ATOM      3  C   UNL A   1      33.508  25.876  23.228  1.00  0.00     0.116 C 
BRANCH   3   4
ATOM      4  N   UNL A   1      32.067  26.049  23.329  1.00  0.00    -0.352 N 
ATOM      5  O   UNL A   1      29.913  25.385  23.487  1.00  0.00    -0.269 OA
ATOM      6  C   UNL A   1      31.103  25.116  23.618  1.00  0.00     0.251 C 
ATOM      7  H   UNL A   1      31.737  26.964  23.167  1.00  0.00     0.163 HD
BRANCH   6   8
ATOM      8  C   UNL A   1      31.509  23.770  24.068  1.00  0.00     0.039 A 
ATOM      9  C   UNL A   1      32.029  22.844  23.166  1.00  0.00     0.016 A 
ATOM     10  C   UNL A   1      31.373  23.430  25.412  1.00  0.00     0.016 A 
ATOM     11  C   UNL A   1      32.308  21.543  23.589  1.00  0.00     0.026 A 
ATOM     12  C   UNL A   1      31.688  22.132  25.828  1.00  0.00     0.026 A 
ATOM     13  C   UNL A   1      32.121  21.152  24.918  1.00  0.00     0.036 A 
BRANCH  13  14
ATOM     14  N   UNL A   1      32.390  19.878  25.393  1.00  0.00    -0.358 N 
ATOM     15  H   UNL A   1      32.082  19.653  26.300  1.00  0.00     0.163 HD
BRANCH  14  16
ATOM     16  C   UNL A   1      33.099  18.846  24.640  1.00  0.00     0.244 C 
ATOM     17  O   UNL A   1      34.483  18.854  24.992  1.00  0.00    -0.353 OA
ATOM     18  C   UNL A   1      32.511  17.476  25.060  1.00  0.00     0.195 C 
ATOM     19  C   UNL A   1      35.246  17.891  24.252  1.00  0.00     0.197 C 
ATOM     20  C   UNL A   1      33.279  16.346  24.364  1.00  0.00     0.178 C 
ATOM     21  C   UNL A   1      34.792  16.472  24.596  1.00  0.00     0.171 C 
BRANCH  18  22
ATOM     22  O   UNL A   1      32.641  17.330  26.500  1.00  0.00    -0.386 OA
ATOM     23  H   UNL A   1      32.015  16.661  26.816  1.00  0.00     0.211 HD
ENDBRANCH  18  22
BRANCH  20  24
ATOM     24  O   UNL A   1      32.811  15.082  24.842  1.00  0.00    -0.387 OA
ATOM     25  H   UNL A   1      32.891  14.421  24.137  1.00  0.00     0.211 HD
ENDBRANCH  20  24
BRANCH  21  26
ATOM     26  O   UNL A   1      35.104  16.189  25.969  1.00  0.00    -0.388 OA
ATOM     27  H   UNL A   1      34.706  16.867  26.538  1.00  0.00     0.211 HD
ENDBRANCH  21  26
ENDBRANCH  14  16
ENDBRANCH  13  14
ENDBRANCH   6   8
ENDBRANCH   3   4
ENDBRANCH   2   3
ENDBRANCH   1   2
BRANCH   1  28
ATOM     28  C   UNL A   1      35.090  23.570  25.888  1.00  0.00     0.002 C 
BRANCH  28  29
ATOM     29  C   UNL A   1      35.606  22.135  25.747  1.00  0.00     0.021 C 
BRANCH  29  30
ATOM     30  C   UNL A   1      36.891  21.987  24.938  1.00  0.00     0.116 C 
BRANCH  30  31
ATOM     31  N   UNL A   1      37.739  20.919  25.440  1.00  0.00    -0.352 N 
ATOM     32  C   UNL A   1      38.962  20.996  26.058  1.00  0.00     0.251 C 
ATOM     33  H   UNL A   1      37.385  20.009  25.319  1.00  0.00     0.163 HD
ATOM     34  O   UNL A   1      39.616  19.972  26.241  1.00  0.00    -0.269 OA
BRANCH  32  35
ATOM     35  C   UNL A   1      39.503  22.310  26.473  1.00  0.00     0.039 A 
ATOM     36  C   UNL A   1      40.547  22.349  27.402  1.00  0.00     0.014 A 
ATOM     37  C   UNL A   1      38.985  23.501  25.955  1.00  0.00     0.014 A 
ATOM     38  C   UNL A   1      41.111  23.575  27.760  1.00  0.00     0.010 A 
ATOM     39  C   UNL A   1      39.599  24.714  26.254  1.00  0.00     0.010 A 
ATOM     40  C   UNL A   1      40.669  24.767  27.160  1.00  0.00    -0.014 A 
BRANCH  40  41
ATOM     41  C   UNL A   1      41.314  26.071  27.470  1.00  0.00     0.031 A 
ATOM     42  C   UNL A   1      42.730  26.337  27.035  1.00  0.00     0.074 A 
ATOM     43  C   UNL A   1      40.645  26.992  28.191  1.00  0.00     0.049 A 
ATOM     44  N   UNL A   1      43.487  27.378  27.271  1.00  0.00    -0.248 NA
ATOM     45  C   UNL A   1      43.391  25.279  26.257  1.00  0.00     0.031 C 
ATOM     46  C   UNL A   1      39.279  26.837  28.699  1.00  0.00     0.029 A 
ATOM     47  N   UNL A   1      41.020  28.238  28.630  1.00  0.00    -0.354 N 
ATOM     48  C   UNL A   1      44.714  27.099  26.679  1.00  0.00     0.074 A 
ATOM     49  C   UNL A   1      44.618  25.761  26.133  1.00  0.00     0.031 C 
ATOM     50  C   UNL A   1      38.923  27.955  29.353  1.00  0.00     0.029 A 
ATOM     51  C   UNL A   1      40.048  28.885  29.360  1.00  0.00     0.049 A 
ATOM     52  H   UNL A   1      41.901  28.633  28.439  1.00  0.00     0.167 HD
ATOM     53  C   UNL A   1      45.810  27.892  26.580  1.00  0.00     0.034 A 
ATOM     54  C   UNL A   1      40.065  30.083  29.978  1.00  0.00     0.034 A 
ATOM     55  C   UNL A   1      45.887  29.225  27.126  1.00  0.00     0.049 A 
ATOM     56  C   UNL A   1      41.310  30.930  29.890  1.00  0.00     0.074 A 
ATOM     57  C   UNL A   1      46.929  30.133  27.039  1.00  0.00     0.029 A 
ATOM     58  N   UNL A   1      44.888  29.842  27.869  1.00  0.00    -0.354 N 
ATOM     59  N   UNL A   1      42.446  30.669  29.284  1.00  0.00    -0.248 NA
ATOM     60  C   UNL A   1      41.271  32.237  30.559  1.00  0.00     0.031 C 
ATOM     61  C   UNL A   1      46.593  31.261  27.794  1.00  0.00     0.029 A 
ATOM     62  C   UNL A   1      45.305  31.100  28.279  1.00  0.00     0.049 A 
ATOM     63  H   UNL A   1      44.011  29.443  28.075  1.00  0.00     0.167 HD
ATOM     64  C   UNL A   1      43.243  31.796  29.472  1.00  0.00     0.074 A 
ATOM     65  C   UNL A   1      42.452  32.740  30.233  1.00  0.00     0.031 C 
ATOM     66  C   UNL A   1      44.511  32.031  29.048  1.00  0.00     0.034 A 
BRANCH  53  67
ATOM     67  C   UNL A   1      47.022  27.320  25.879  1.00  0.00     0.023 A 
ATOM     68  C   UNL A   1      48.024  26.625  26.578  1.00  0.00     0.031 A 
ATOM     69  C   UNL A   1      47.190  27.494  24.492  1.00  0.00     0.131 A 
ATOM     70  C   UNL A   1      49.182  26.201  25.909  1.00  0.00     0.055 A 
ATOM     71  C   UNL A   1      48.304  26.990  23.816  1.00  0.00     0.041 A 
ATOM     72  F   UNL A   1      46.281  28.168  23.772  1.00  0.00    -0.206 F 
ATOM     73  C   UNL A   1      49.316  26.354  24.527  1.00  0.00     0.022 A 
BRANCH  70  74
ATOM     74  S   UNL A   1      50.575  25.590  26.896  1.00  0.00     0.124 S 
ATOM     75  O   UNL A   1      51.540  25.236  25.857  1.00  0.00    -0.237 OA
ATOM     76  O   UNL A   1      50.913  26.746  27.716  1.00  0.00    -0.237 OA
ATOM     77  O   UNL A   1      50.009  24.453  27.621  1.00  0.00    -0.744 OA
ENDBRANCH  70  74
ENDBRANCH  53  67
BRANCH  54  78
ATOM     78  C   UNL A   1      38.877  30.554  30.748  1.00  0.00     0.023 A 
ATOM     79  C   UNL A   1      37.792  31.168  30.104  1.00  0.00     0.031 A 
ATOM     80  C   UNL A   1      38.830  30.440  32.150  1.00  0.00     0.131 A 
ATOM     81  C   UNL A   1      36.731  31.690  30.860  1.00  0.00     0.055 A 
ATOM     82  C   UNL A   1      37.744  30.906  32.894  1.00  0.00     0.041 A 
ATOM     83  F   UNL A   1      39.839  29.859  32.819  1.00  0.00    -0.206 F 
ATOM     84  C   UNL A   1      36.693  31.549  32.249  1.00  0.00     0.022 A 
BRANCH  81  85
ATOM     85  S   UNL A   1      35.445  32.645  30.009  1.00  0.00     0.124 S 
ATOM     86  O   UNL A   1      35.167  31.802  28.853  1.00  0.00    -0.237 OA
ATOM     87  O   UNL A   1      34.397  32.712  31.024  1.00  0.00    -0.237 OA
ATOM     88  O   UNL A   1      36.105  33.915  29.714  1.00  0.00    -0.744 OA
ENDBRANCH  81  85
ENDBRANCH  54  78
BRANCH  66  89
ATOM     89  C   UNL A   1      45.103  33.385  29.361  1.00  0.00     0.023 A 
ATOM     90  C   UNL A   1      45.016  34.461  28.462  1.00  0.00     0.031 A 
ATOM     91  C   UNL A   1      45.775  33.596  30.580  1.00  0.00     0.131 A 
ATOM     92  C   UNL A   1      45.640  35.681  28.768  1.00  0.00     0.055 A 
ATOM     93  C   UNL A   1      46.336  34.831  30.907  1.00  0.00     0.041 A 
ATOM     94  F   UNL A   1      45.894  32.603  31.475  1.00  0.00    -0.206 F 
ATOM     95  C   UNL A   1      46.283  35.878  29.993  1.00  0.00     0.022 A 
BRANCH  92  96
ATOM     96  S   UNL A   1      45.690  36.975  27.498  1.00  0.00     0.124 S 
ATOM     97  O   UNL A   1      44.319  37.475  27.520  1.00  0.00    -0.237 OA
ATOM     98  O   UNL A   1      46.709  37.883  28.017  1.00  0.00    -0.237 OA
ATOM     99  O   UNL A   1      46.067  36.251  26.284  1.00  0.00    -0.744 OA
ENDBRANCH  92  96
ENDBRANCH  66  89
ENDBRANCH  40  41
ENDBRANCH  32  35
ENDBRANCH  30  31
ENDBRANCH  29  30
ENDBRANCH  28  29
ENDBRANCH   1  28
TORSDOF 21
ENDMDL
MODEL 3
REMARK VINA RESULT:     -11.4      4.848     10.277
REMARK SMILES O=C(NCCCCCCNC(=O)c1ccc(-c2c3nc(c(-c4cc(S(=O)(=O)[O-])ccc4F)c4ccc([nH]4)c(-c4cc(S(=O)(=O)[O-])ccc4F)c4nc(c(-c5cc(S(=O)(=O)[O-])ccc5F)c5ccc2[nH]5)C=C4)C=C3)cc1)c1ccc(N[C@H]2OC[C@@H](O)[C@@H](O)[C@H]2O)cc1
REMARK SMILES IDX 6 1 5 2 4 3 3 4 1 5 2 6 76 8 77 9 91 10 78 11 90 12 79 13
REMARK SMILES IDX 80 14 81 16 82 17 88 18 83 19 86 20 84 21 89 22 87 24 85 26
REMARK SMILES IDX 7 28 8 29 9 30 10 31 11 32 12 34 13 35 14 36 75 37 15 38
REMARK SMILES IDX 74 39 16 40 17 41 18 42 68 43 19 44 73 45 67 46 69 47 20 48
REMARK SMILES IDX 72 49 66 50 65 51 21 53 53 54 33 55 52 56 34 57 37 58 51 59
REMARK SMILES IDX 70 60 35 61 36 62 50 64 71 65 38 66 22 67 23 68 31 69 24 70
REMARK SMILES IDX 30 71 32 72 29 73 25 74 26 75 27 76 28 77 54 78 55 79 63 80
REMARK SMILES IDX 56 81 62 82 64 83 61 84 57 85 58 86 59 87 60 88 39 89 40 90
REMARK SMILES IDX 48 91 41 92 47 93 49 94 46 95 42 96 43 97 44 98 45 99
REMARK H PARENT 3 7 80 15 89 23 87 25 85 27 10 33 69 52 37 63
REMARK Flexibility Score: inf
ROOT
ATOM      1  C   UNL A   1      33.658  26.831  25.358  1.00  0.00     0.002 C 
ENDROOT
BRANCH   1   2
ATOM      2  C   UNL A   1      34.492  25.573  25.607  1.00  0.00     0.021 C 
BRANCH   2   3
ATOM      3  C   UNL A   1      34.218  24.420  24.646  1.00  0.00     0.116 C 
BRANCH   3   4
ATOM      4  N   UNL A   1      33.532  23.314  25.296  1.00  0.00    -0.352 N 
ATOM      5  O   UNL A   1      31.797  22.251  26.280  1.00  0.00    -0.269 OA
ATOM      6  C   UNL A   1      32.194  23.164  25.562  1.00  0.00     0.251 C 
ATOM      7  H   UNL A   1      34.108  22.568  25.584  1.00  0.00     0.163 HD
BRANCH   6   8
ATOM      8  C   UNL A   1      31.230  24.128  24.996  1.00  0.00     0.039 A 
ATOM      9  C   UNL A   1      31.095  24.274  23.617  1.00  0.00     0.016 A 
ATOM     10  C   UNL A   1      30.446  24.892  25.856  1.00  0.00     0.016 A 
ATOM     11  C   UNL A   1      30.255  25.264  23.102  1.00  0.00     0.026 A 
ATOM     12  C   UNL A   1      29.583  25.858  25.326  1.00  0.00     0.026 A 
ATOM     13  C   UNL A   1      29.503  26.092  23.941  1.00  0.00     0.036 A 
BRANCH  13  14
ATOM     14  N   UNL A   1      28.649  27.082  23.484  1.00  0.00    -0.358 N 
ATOM     15  H   UNL A   1      27.719  26.829  23.285  1.00  0.00     0.163 HD
BRANCH  14  16
ATOM     16  C   UNL A   1      29.032  28.477  23.278  1.00  0.00     0.244 C 
ATOM     17  O   UNL A   1      29.392  28.684  21.911  1.00  0.00    -0.353 OA
ATOM     18  C   UNL A   1      27.789  29.351  23.578  1.00  0.00     0.195 C 
ATOM     19  C   UNL A   1      29.824  30.027  21.652  1.00  0.00     0.197 C 
ATOM     20  C   UNL A   1      28.109  30.823  23.293  1.00  0.00     0.178 C 
ATOM     21  C   UNL A   1      28.674  31.010  21.878  1.00  0.00     0.171 C 
BRANCH  18  22
ATOM     22  O   UNL A   1      26.696  28.923  22.722  1.00  0.00    -0.386 OA
ATOM     23  H   UNL A   1      25.916  28.730  23.265  1.00  0.00     0.211 HD
ENDBRANCH  18  22
BRANCH  20  24
ATOM     24  O   UNL A   1      26.928  31.612  23.459  1.00  0.00    -0.387 OA
ATOM     25  H   UNL A   1      26.408  31.264  24.200  1.00  0.00     0.211 HD
ENDBRANCH  20  24
BRANCH  21  26
ATOM     26  O   UNL A   1      27.646  30.776  20.903  1.00  0.00    -0.388 OA
ATOM     27  H   UNL A   1      28.040  30.389  20.104  1.00  0.00     0.211 HD
ENDBRANCH  21  26
ENDBRANCH  14  16
ENDBRANCH  13  14
ENDBRANCH   6   8
ENDBRANCH   3   4
ENDBRANCH   2   3
ENDBRANCH   1   2
BRANCH   1  28
ATOM     28  C   UNL A   1      32.756  27.261  26.519  1.00  0.00     0.002 C 
BRANCH  28  29
ATOM     29  C   UNL A   1      32.258  28.707  26.463  1.00  0.00     0.021 C 
BRANCH  29  30
ATOM     30  C   UNL A   1      33.270  29.720  25.934  1.00  0.00     0.116 C 
BRANCH  30  31
ATOM     31  N   UNL A   1      33.055  31.050  26.477  1.00  0.00    -0.352 N 
ATOM     32  C   UNL A   1      33.749  31.713  27.459  1.00  0.00     0.251 C 
ATOM     33  H   UNL A   1      32.303  31.549  26.083  1.00  0.00     0.163 HD
ATOM     34  O   UNL A   1      33.300  32.761  27.918  1.00  0.00    -0.269 OA
BRANCH  32  35
ATOM     35  C   UNL A   1      35.015  31.151  27.982  1.00  0.00     0.039 A 
ATOM     36  C   UNL A   1      36.156  31.957  27.999  1.00  0.00     0.014 A 
ATOM     37  C   UNL A   1      35.080  29.836  28.452  1.00  0.00     0.014 A 
ATOM     38  C   UNL A   1      37.344  31.465  28.546  1.00  0.00     0.010 A 
ATOM     39  C   UNL A   1      36.243  29.375  29.066  1.00  0.00     0.010 A 
ATOM     40  C   UNL A   1      37.388  30.183  29.119  1.00  0.00    -0.014 A 
BRANCH  40  41
ATOM     41  C   UNL A   1      38.623  29.676  29.777  1.00  0.00     0.031 A 
ATOM     42  C   UNL A   1      39.036  30.209  31.123  1.00  0.00     0.074 A 
ATOM     43  C   UNL A   1      39.399  28.779  29.138  1.00  0.00     0.049 A 
ATOM     44  N   UNL A   1      40.110  29.946  31.823  1.00  0.00    -0.248 NA
ATOM     45  C   UNL A   1      38.136  31.188  31.750  1.00  0.00     0.031 C 
ATOM     46  C   UNL A   1      39.123  28.214  27.815  1.00  0.00     0.029 A 
ATOM     47  N   UNL A   1      40.583  28.188  29.508  1.00  0.00    -0.354 N 
ATOM     48  C   UNL A   1      40.020  30.731  32.967  1.00  0.00     0.074 A 
ATOM     49  C   UNL A   1      38.819  31.528  32.832  1.00  0.00     0.031 C 
ATOM     50  C   UNL A   1      40.091  27.339  27.499  1.00  0.00     0.029 A 
ATOM     51  C   UNL A   1      41.086  27.319  28.566  1.00  0.00     0.049 A 
ATOM     52  H   UNL A   1      41.029  28.370  30.366  1.00  0.00     0.167 HD
ATOM     53  C   UNL A   1      40.849  30.768  34.040  1.00  0.00     0.034 A 
ATOM     54  C   UNL A   1      42.225  26.598  28.556  1.00  0.00     0.034 A 
ATOM     55  C   UNL A   1      42.039  29.961  34.162  1.00  0.00     0.049 A 
ATOM     56  C   UNL A   1      43.152  26.686  29.742  1.00  0.00     0.074 A 
ATOM     57  C   UNL A   1      42.922  29.882  35.226  1.00  0.00     0.029 A 
ATOM     58  N   UNL A   1      42.523  29.101  33.184  1.00  0.00    -0.354 N 
ATOM     59  N   UNL A   1      43.027  27.399  30.839  1.00  0.00    -0.248 NA
ATOM     60  C   UNL A   1      44.369  25.864  29.695  1.00  0.00     0.031 C 
ATOM     61  C   UNL A   1      43.976  29.039  34.861  1.00  0.00     0.029 A 
ATOM     62  C   UNL A   1      43.710  28.518  33.604  1.00  0.00     0.049 A 
ATOM     63  H   UNL A   1      42.087  28.929  32.317  1.00  0.00     0.167 HD
ATOM     64  C   UNL A   1      44.133  27.083  31.625  1.00  0.00     0.074 A 
ATOM     65  C   UNL A   1      44.903  26.106  30.883  1.00  0.00     0.031 C 
ATOM     66  C   UNL A   1      44.477  27.553  32.851  1.00  0.00     0.034 A 
BRANCH  53  67
ATOM     67  C   UNL A   1      40.507  31.733  35.152  1.00  0.00     0.023 A 
ATOM     68  C   UNL A   1      39.541  31.428  36.128  1.00  0.00     0.031 A 
ATOM     69  C   UNL A   1      41.139  32.988  35.227  1.00  0.00     0.131 A 
ATOM     70  C   UNL A   1      39.178  32.391  37.081  1.00  0.00     0.055 A 
ATOM     71  C   UNL A   1      40.836  33.908  36.233  1.00  0.00     0.041 A 
ATOM     72  F   UNL A   1      42.053  33.349  34.313  1.00  0.00    -0.206 F 
ATOM     73  C   UNL A   1      39.839  33.618  37.159  1.00  0.00     0.022 A 
BRANCH  70  74
ATOM     74  S   UNL A   1      37.723  32.075  38.117  1.00  0.00     0.124 S 
ATOM     75  O   UNL A   1      36.788  33.087  37.630  1.00  0.00    -0.237 OA
ATOM     76  O   UNL A   1      37.395  30.693  37.789  1.00  0.00    -0.237 OA
ATOM     77  O   UNL A   1      38.215  32.295  39.476  1.00  0.00    -0.744 OA
ENDBRANCH  70  74
ENDBRANCH  53  67
BRANCH  54  78
ATOM     78  C   UNL A   1      42.568  25.741  27.384  1.00  0.00     0.023 A 
ATOM     79  C   UNL A   1      42.133  24.409  27.308  1.00  0.00     0.031 A 
ATOM     80  C   UNL A   1      43.378  26.228  26.341  1.00  0.00     0.131 A 
ATOM     81  C   UNL A   1      42.550  23.594  26.244  1.00  0.00     0.055 A 
ATOM     82  C   UNL A   1      43.741  25.432  25.253  1.00  0.00     0.041 A 
ATOM     83  F   UNL A   1      43.821  27.496  26.361  1.00  0.00    -0.206 F 
ATOM     84  C   UNL A   1      43.338  24.102  25.208  1.00  0.00     0.022 A 
BRANCH  81  85
ATOM     85  S   UNL A   1      42.129  21.831  26.282  1.00  0.00     0.124 S 
ATOM     86  O   UNL A   1      42.457  21.478  27.658  1.00  0.00    -0.237 OA
ATOM     87  O   UNL A   1      40.708  21.853  25.945  1.00  0.00    -0.237 OA
ATOM     88  O   UNL A   1      43.000  21.251  25.262  1.00  0.00    -0.744 OA
ENDBRANCH  81  85
ENDBRANCH  54  78
BRANCH  66  89
ATOM     89  C   UNL A   1      45.721  26.977  33.486  1.00  0.00     0.023 A 
ATOM     90  C   UNL A   1      45.684  25.818  34.279  1.00  0.00     0.031 A 
ATOM     91  C   UNL A   1      46.965  27.608  33.299  1.00  0.00     0.131 A 
ATOM     92  C   UNL A   1      46.854  25.359  34.904  1.00  0.00     0.055 A 
ATOM     93  C   UNL A   1      48.137  27.109  33.868  1.00  0.00     0.041 A 
ATOM     94  F   UNL A   1      47.061  28.722  32.555  1.00  0.00    -0.206 F 
ATOM     95  C   UNL A   1      48.083  25.987  34.688  1.00  0.00     0.022 A 
BRANCH  92  96
ATOM     96  S   UNL A   1      46.729  23.991  36.088  1.00  0.00     0.124 S 
ATOM     97  O   UNL A   1      45.516  23.313  35.642  1.00  0.00    -0.237 OA
ATOM     98  O   UNL A   1      47.980  23.272  35.867  1.00  0.00    -0.237 OA
ATOM     99  O   UNL A   1      46.623  24.664  37.382  1.00  0.00    -0.744 OA
ENDBRANCH  92  96
ENDBRANCH  66  89
ENDBRANCH  40  41
ENDBRANCH  32  35
ENDBRANCH  30  31
ENDBRANCH  29  30
ENDBRANCH  28  29
ENDBRANCH   1  28
TORSDOF 21
ENDMDL
