MODEL 1
REMARK VINA RESULT:     -11.7      0.000      0.000
REMARK SMILES Cc1ccc(S(=O)(=O)N2C[C@@H](CC(=O)NCCCCCCNC(=O)c3ccc(-c4c5nc(c(-c6cc(S(=O)(=O)[O-])ccc6F)c6ccc([nH]6)c(-c6cc(S(=O)(=O)[O-])ccc6F)c6nc(c(-c7cc(S(=O)(=O)[O-])ccc7F)c7ccc4[nH]7)C=C6)C=C5)cc3)c3ccccc32)c(C)c1
REMARK SMILES IDX 18 1 17 2 16 3 15 4 13 5 14 6 12 8 11 9 9 10 10 11 93 12
REMARK SMILES IDX 88 13 92 14 89 15 91 16 90 17 6 18 7 19 8 20 5 21 1 22 2 23
REMARK SMILES IDX 3 24 96 25 4 26 94 27 95 28 19 29 20 30 21 31 22 32 23 33
REMARK SMILES IDX 24 35 25 36 26 37 87 38 27 39 86 40 28 41 29 42 30 43 80 44
REMARK SMILES IDX 31 45 85 46 79 47 81 48 32 49 84 50 78 51 77 52 33 54 65 55
REMARK SMILES IDX 45 56 64 57 46 58 49 59 63 60 82 61 47 62 48 63 62 65 83 66
REMARK SMILES IDX 50 67 34 68 35 69 43 70 36 71 42 72 44 73 41 74 37 75 38 76
REMARK SMILES IDX 39 77 40 78 66 79 67 80 75 81 68 82 74 83 76 84 73 85 69 86
REMARK SMILES IDX 70 87 71 88 72 89 51 90 52 91 60 92 53 93 59 94 61 95 58 96
REMARK SMILES IDX 54 97 55 98 56 99 57 100
REMARK H PARENT 15 7 22 34 81 53 49 64
REMARK Flexibility Score: inf
ROOT
ATOM      1  C   UNL A   1      35.456  33.172  28.817  1.00  0.00     0.002 C 
ENDROOT
BRANCH   1   2
ATOM      2  C   UNL A   1      35.917  31.979  27.984  1.00  0.00     0.021 C 
BRANCH   2   3
ATOM      3  C   UNL A   1      35.140  30.684  28.204  1.00  0.00     0.116 C 
BRANCH   3   4
ATOM      4  N   UNL A   1      33.726  30.915  27.953  1.00  0.00    -0.356 N 
ATOM      5  C   UNL A   1      32.849  30.166  27.225  1.00  0.00     0.220 C 
ATOM      6  O   UNL A   1      31.784  30.677  26.878  1.00  0.00    -0.275 OA
ATOM      7  H   UNL A   1      33.349  31.725  28.366  1.00  0.00     0.163 HD
BRANCH   5   8
ATOM      8  C   UNL A   1      33.150  28.715  26.917  1.00  0.00     0.110 C 
BRANCH   8   9
ATOM      9  C   UNL A   1      32.054  28.010  26.105  1.00  0.00     0.051 C 
ATOM     10  N   UNL A   1      32.699  25.666  25.957  1.00  0.00    -0.265 N 
ATOM     11  C   UNL A   1      31.793  26.610  26.706  1.00  0.00     0.144 C 
ATOM     12  C   UNL A   1      32.930  26.294  24.682  1.00  0.00     0.055 A 
ATOM     13  C   UNL A   1      32.479  27.616  24.718  1.00  0.00    -0.018 A 
ATOM     14  C   UNL A   1      33.536  25.778  23.548  1.00  0.00     0.027 A 
ATOM     15  C   UNL A   1      32.447  28.379  23.563  1.00  0.00     0.006 A 
ATOM     16  C   UNL A   1      33.578  26.571  22.399  1.00  0.00     0.002 A 
ATOM     17  C   UNL A   1      33.003  27.848  22.396  1.00  0.00     0.000 A 
BRANCH  10  18
ATOM     18  S   UNL A   1      32.103  24.055  25.938  1.00  0.00     0.264 S 
ATOM     19  O   UNL A   1      31.193  23.943  24.820  1.00  0.00    -0.201 OA
ATOM     20  O   UNL A   1      31.666  23.747  27.290  1.00  0.00    -0.201 OA
BRANCH  18  21
ATOM     21  C   UNL A   1      33.522  23.014  25.643  1.00  0.00     0.090 A 
ATOM     22  C   UNL A   1      37.026  20.574  25.049  1.00  0.00     0.044 C 
ATOM     23  C   UNL A   1      35.815  21.439  25.242  1.00  0.00    -0.051 A 
ATOM     24  C   UNL A   1      35.938  22.752  25.698  1.00  0.00     0.005 A 
ATOM     25  C   UNL A   1      34.535  20.915  25.009  1.00  0.00     0.008 A 
ATOM     26  C   UNL A   1      34.801  23.531  25.908  1.00  0.00     0.023 A 
ATOM     27  C   UNL A   1      33.372  21.686  25.199  1.00  0.00    -0.030 A 
ATOM     28  C   UNL A   1      32.057  20.988  24.988  1.00  0.00     0.046 C 
ENDBRANCH  18  21
ENDBRANCH  10  18
ENDBRANCH   8   9
ENDBRANCH   5   8
ENDBRANCH   3   4
ENDBRANCH   2   3
ENDBRANCH   1   2
BRANCH   1  29
ATOM     29  C   UNL A   1      34.701  34.249  28.038  1.00  0.00     0.002 C 
BRANCH  29  30
ATOM     30  C   UNL A   1      33.410  34.758  28.687  1.00  0.00     0.021 C 
BRANCH  30  31
ATOM     31  C   UNL A   1      33.527  36.089  29.429  1.00  0.00     0.116 C 
BRANCH  31  32
ATOM     32  N   UNL A   1      32.642  36.149  30.579  1.00  0.00    -0.352 N 
ATOM     33  C   UNL A   1      32.711  35.479  31.775  1.00  0.00     0.251 C 
ATOM     34  H   UNL A   1      31.878  36.762  30.486  1.00  0.00     0.163 HD
ATOM     35  O   UNL A   1      31.730  35.463  32.514  1.00  0.00    -0.269 OA
BRANCH  33  36
ATOM     36  C   UNL A   1      33.950  34.770  32.167  1.00  0.00     0.039 A 
ATOM     37  C   UNL A   1      33.863  33.440  32.587  1.00  0.00     0.014 A 
ATOM     38  C   UNL A   1      35.186  35.422  32.167  1.00  0.00     0.014 A 
ATOM     39  C   UNL A   1      35.021  32.753  32.964  1.00  0.00     0.010 A 
ATOM     40  C   UNL A   1      36.348  34.714  32.470  1.00  0.00     0.010 A 
ATOM     41  C   UNL A   1      36.278  33.375  32.885  1.00  0.00    -0.014 A 
BRANCH  41  42
ATOM     42  C   UNL A   1      37.520  32.650  33.269  1.00  0.00     0.031 A 
ATOM     43  C   UNL A   1      38.219  32.979  34.562  1.00  0.00     0.074 A 
ATOM     44  C   UNL A   1      38.042  31.724  32.438  1.00  0.00     0.049 A 
ATOM     45  N   UNL A   1      39.338  32.504  35.044  1.00  0.00    -0.248 NA
ATOM     46  C   UNL A   1      37.585  33.999  35.411  1.00  0.00     0.031 C 
ATOM     47  C   UNL A   1      37.475  31.335  31.145  1.00  0.00     0.029 A 
ATOM     48  N   UNL A   1      39.167  30.945  32.553  1.00  0.00    -0.354 N 
ATOM     49  C   UNL A   1      39.548  33.174  36.247  1.00  0.00     0.074 A 
ATOM     50  C   UNL A   1      38.474  34.135  36.381  1.00  0.00     0.031 C 
ATOM     51  C   UNL A   1      38.239  30.373  30.601  1.00  0.00     0.029 A 
ATOM     52  C   UNL A   1      39.375  30.111  31.479  1.00  0.00     0.049 A 
ATOM     53  H   UNL A   1      39.768  30.980  33.331  1.00  0.00     0.167 HD
ATOM     54  C   UNL A   1      40.532  32.988  37.163  1.00  0.00     0.034 A 
ATOM     55  C   UNL A   1      40.374  29.241  31.223  1.00  0.00     0.034 A 
ATOM     56  C   UNL A   1      41.593  32.021  37.017  1.00  0.00     0.049 A 
ATOM     57  C   UNL A   1      41.475  29.077  32.240  1.00  0.00     0.074 A 
ATOM     58  C   UNL A   1      42.617  31.723  37.900  1.00  0.00     0.029 A 
ATOM     59  N   UNL A   1      41.774  31.198  35.912  1.00  0.00    -0.354 N 
ATOM     60  N   UNL A   1      41.639  29.690  33.390  1.00  0.00    -0.248 NA
ATOM     61  C   UNL A   1      42.519  28.089  31.933  1.00  0.00     0.031 C 
ATOM     62  C   UNL A   1      43.456  30.780  37.299  1.00  0.00     0.029 A 
ATOM     63  C   UNL A   1      42.908  30.416  36.079  1.00  0.00     0.049 A 
ATOM     64  H   UNL A   1      41.184  31.173  35.125  1.00  0.00     0.167 HD
ATOM     65  C   UNL A   1      42.780  29.131  33.961  1.00  0.00     0.074 A 
ATOM     66  C   UNL A   1      43.255  28.125  33.033  1.00  0.00     0.031 C 
ATOM     67  C   UNL A   1      43.377  29.418  35.146  1.00  0.00     0.034 A 
BRANCH  54  68
ATOM     68  C   UNL A   1      40.516  33.873  38.390  1.00  0.00     0.023 A 
ATOM     69  C   UNL A   1      39.734  33.563  39.516  1.00  0.00     0.031 A 
ATOM     70  C   UNL A   1      41.272  35.059  38.424  1.00  0.00     0.131 A 
ATOM     71  C   UNL A   1      39.661  34.464  40.591  1.00  0.00     0.055 A 
ATOM     72  C   UNL A   1      41.266  35.907  39.534  1.00  0.00     0.041 A 
ATOM     73  F   UNL A   1      42.022  35.423  37.371  1.00  0.00    -0.206 F 
ATOM     74  C   UNL A   1      40.444  35.620  40.619  1.00  0.00     0.022 A 
BRANCH  71  75
ATOM     75  S   UNL A   1      38.411  34.182  41.873  1.00  0.00     0.124 S 
ATOM     76  O   UNL A   1      37.559  33.179  41.237  1.00  0.00    -0.237 OA
ATOM     77  O   UNL A   1      39.213  33.718  43.000  1.00  0.00    -0.237 OA
ATOM     78  O   UNL A   1      37.792  35.495  42.044  1.00  0.00    -0.744 OA
ENDBRANCH  71  75
ENDBRANCH  54  68
BRANCH  55  79
ATOM     79  C   UNL A   1      40.393  28.462  29.950  1.00  0.00     0.023 A 
ATOM     80  C   UNL A   1      41.357  28.714  28.960  1.00  0.00     0.031 A 
ATOM     81  C   UNL A   1      39.415  27.488  29.681  1.00  0.00     0.131 A 
ATOM     82  C   UNL A   1      41.290  28.042  27.730  1.00  0.00     0.055 A 
ATOM     83  C   UNL A   1      39.389  26.778  28.479  1.00  0.00     0.041 A 
ATOM     84  F   UNL A   1      38.470  27.204  30.592  1.00  0.00    -0.206 F 
ATOM     85  C   UNL A   1      40.322  27.066  27.488  1.00  0.00     0.022 A 
BRANCH  82  86
ATOM     86  S   UNL A   1      42.430  28.537  26.407  1.00  0.00     0.124 S 
ATOM     87  O   UNL A   1      42.518  29.977  26.615  1.00  0.00    -0.237 OA
ATOM     88  O   UNL A   1      43.625  27.765  26.733  1.00  0.00    -0.237 OA
ATOM     89  O   UNL A   1      41.736  28.123  25.189  1.00  0.00    -0.744 OA
ENDBRANCH  82  86
ENDBRANCH  55  79
BRANCH  67  90
ATOM     90  C   UNL A   1      44.576  28.582  35.535  1.00  0.00     0.023 A 
ATOM     91  C   UNL A   1      44.448  27.377  36.246  1.00  0.00     0.031 A 
ATOM     92  C   UNL A   1      45.873  29.014  35.199  1.00  0.00     0.131 A 
ATOM     93  C   UNL A   1      45.596  26.683  36.659  1.00  0.00     0.055 A 
ATOM     94  C   UNL A   1      47.007  28.282  35.549  1.00  0.00     0.041 A 
ATOM     95  F   UNL A   1      46.058  30.160  34.523  1.00  0.00    -0.206 F 
ATOM     96  C   UNL A   1      46.873  27.118  36.299  1.00  0.00     0.022 A 
BRANCH  93  97
ATOM     97  S   UNL A   1      45.402  25.266  37.776  1.00  0.00     0.124 S 
ATOM     98  O   UNL A   1      45.191  25.921  39.063  1.00  0.00    -0.237 OA
ATOM     99  O   UNL A   1      44.244  24.581  37.212  1.00  0.00    -0.237 OA
ATOM    100  O   UNL A   1      46.670  24.551  37.645  1.00  0.00    -0.744 OA
ENDBRANCH  93  97
ENDBRANCH  67  90
ENDBRANCH  41  42
ENDBRANCH  33  36
ENDBRANCH  31  32
ENDBRANCH  30  31
ENDBRANCH  29  30
ENDBRANCH   1  29
TORSDOF 19
ENDMDL
MODEL 2
REMARK VINA RESULT:     -11.6      6.348     12.364
REMARK SMILES Cc1ccc(S(=O)(=O)N2C[C@@H](CC(=O)NCCCCCCNC(=O)c3ccc(-c4c5nc(c(-c6cc(S(=O)(=O)[O-])ccc6F)c6ccc([nH]6)c(-c6cc(S(=O)(=O)[O-])ccc6F)c6nc(c(-c7cc(S(=O)(=O)[O-])ccc7F)c7ccc4[nH]7)C=C6)C=C5)cc3)c3ccccc32)c(C)c1
REMARK SMILES IDX 18 1 17 2 16 3 15 4 13 5 14 6 12 8 11 9 9 10 10 11 93 12
REMARK SMILES IDX 88 13 92 14 89 15 91 16 90 17 6 18 7 19 8 20 5 21 1 22 2 23
REMARK SMILES IDX 3 24 96 25 4 26 94 27 95 28 19 29 20 30 21 31 22 32 23 33
REMARK SMILES IDX 24 35 25 36 26 37 87 38 27 39 86 40 28 41 29 42 30 43 80 44
REMARK SMILES IDX 31 45 85 46 79 47 81 48 32 49 84 50 78 51 77 52 33 54 65 55
REMARK SMILES IDX 45 56 64 57 46 58 49 59 63 60 82 61 47 62 48 63 62 65 83 66
REMARK SMILES IDX 50 67 34 68 35 69 43 70 36 71 42 72 44 73 41 74 37 75 38 76
REMARK SMILES IDX 39 77 40 78 66 79 67 80 75 81 68 82 74 83 76 84 73 85 69 86
REMARK SMILES IDX 70 87 71 88 72 89 51 90 52 91 60 92 53 93 59 94 61 95 58 96
REMARK SMILES IDX 54 97 55 98 56 99 57 100
REMARK H PARENT 15 7 22 34 81 53 49 64
REMARK Flexibility Score: inf
ROOT
ATOM      1  C   UNL A   1      41.263  22.293  26.725  1.00  0.00     0.002 C 
ENDROOT
BRANCH   1   2
ATOM      2  C   UNL A   1      40.219  23.251  27.290  1.00  0.00     0.021 C 
BRANCH   2   3
ATOM      3  C   UNL A   1      38.868  23.246  26.579  1.00  0.00     0.116 C 
BRANCH   3   4
ATOM      4  N   UNL A   1      38.731  22.023  25.804  1.00  0.00    -0.356 N 
ATOM      5  C   UNL A   1      37.772  21.684  24.895  1.00  0.00     0.220 C 
ATOM      6  O   UNL A   1      37.654  20.501  24.575  1.00  0.00    -0.275 OA
ATOM      7  H   UNL A   1      39.428  21.344  25.956  1.00  0.00     0.163 HD
BRANCH   5   8
ATOM      8  C   UNL A   1      36.924  22.753  24.240  1.00  0.00     0.110 C 
BRANCH   8   9
ATOM      9  C   UNL A   1      35.465  22.334  24.004  1.00  0.00     0.051 C 
ATOM     10  N   UNL A   1      34.107  24.327  24.341  1.00  0.00    -0.265 N 
ATOM     11  C   UNL A   1      34.720  23.467  23.265  1.00  0.00     0.144 C 
ATOM     12  C   UNL A   1      33.942  23.454  25.475  1.00  0.00     0.055 A 
ATOM     13  C   UNL A   1      34.640  22.263  25.259  1.00  0.00    -0.018 A 
ATOM     14  C   UNL A   1      33.261  23.678  26.660  1.00  0.00     0.027 A 
ATOM     15  C   UNL A   1      34.505  21.202  26.138  1.00  0.00     0.006 A 
ATOM     16  C   UNL A   1      33.186  22.636  27.588  1.00  0.00     0.002 A 
ATOM     17  C   UNL A   1      33.771  21.395  27.311  1.00  0.00     0.000 A 
BRANCH  10  18
ATOM     18  S   UNL A   1      32.714  25.173  23.797  1.00  0.00     0.264 S 
ATOM     19  O   UNL A   1      31.564  24.344  24.085  1.00  0.00    -0.201 OA
ATOM     20  O   UNL A   1      32.991  25.620  22.442  1.00  0.00    -0.201 OA
BRANCH  18  21
ATOM     21  C   UNL A   1      32.628  26.656  24.785  1.00  0.00     0.090 A 
ATOM     22  C   UNL A   1      32.575  30.263  27.145  1.00  0.00     0.044 C 
ATOM     23  C   UNL A   1      32.599  28.996  26.341  1.00  0.00    -0.051 A 
ATOM     24  C   UNL A   1      33.747  28.205  26.287  1.00  0.00     0.005 A 
ATOM     25  C   UNL A   1      31.474  28.617  25.596  1.00  0.00     0.008 A 
ATOM     26  C   UNL A   1      33.767  27.050  25.505  1.00  0.00     0.023 A 
ATOM     27  C   UNL A   1      31.463  27.447  24.811  1.00  0.00    -0.030 A 
ATOM     28  C   UNL A   1      30.224  27.190  23.999  1.00  0.00     0.046 C 
ENDBRANCH  18  21
ENDBRANCH  10  18
ENDBRANCH   8   9
ENDBRANCH   5   8
ENDBRANCH   3   4
ENDBRANCH   2   3
ENDBRANCH   1   2
BRANCH   1  29
ATOM     29  C   UNL A   1      41.832  21.294  27.732  1.00  0.00     0.002 C 
BRANCH  29  30
ATOM     30  C   UNL A   1      42.176  19.909  27.173  1.00  0.00     0.021 C 
BRANCH  30  31
ATOM     31  C   UNL A   1      42.099  19.777  25.652  1.00  0.00     0.116 C 
BRANCH  31  32
ATOM     32  N   UNL A   1      43.357  19.325  25.083  1.00  0.00    -0.352 N 
ATOM     33  C   UNL A   1      44.469  20.048  24.727  1.00  0.00     0.251 C 
ATOM     34  H   UNL A   1      43.421  18.356  24.928  1.00  0.00     0.163 HD
ATOM     35  O   UNL A   1      45.326  19.525  24.020  1.00  0.00    -0.269 OA
BRANCH  33  36
ATOM     36  C   UNL A   1      44.629  21.448  25.179  1.00  0.00     0.039 A 
ATOM     37  C   UNL A   1      44.221  22.482  24.333  1.00  0.00     0.014 A 
ATOM     38  C   UNL A   1      45.220  21.747  26.410  1.00  0.00     0.014 A 
ATOM     39  C   UNL A   1      44.366  23.812  24.739  1.00  0.00     0.010 A 
ATOM     40  C   UNL A   1      45.294  23.070  26.846  1.00  0.00     0.010 A 
ATOM     41  C   UNL A   1      44.880  24.119  26.010  1.00  0.00    -0.014 A 
BRANCH  41  42
ATOM     42  C   UNL A   1      45.025  25.530  26.461  1.00  0.00     0.031 A 
ATOM     43  C   UNL A   1      46.372  26.203  26.416  1.00  0.00     0.074 A 
ATOM     44  C   UNL A   1      43.956  26.193  26.947  1.00  0.00     0.049 A 
ATOM     45  N   UNL A   1      46.714  27.400  26.817  1.00  0.00    -0.248 NA
ATOM     46  C   UNL A   1      47.485  25.412  25.871  1.00  0.00     0.031 C 
ATOM     47  C   UNL A   1      42.604  25.643  27.069  1.00  0.00     0.029 A 
ATOM     48  N   UNL A   1      43.837  27.471  27.434  1.00  0.00    -0.354 N 
ATOM     49  C   UNL A   1      48.083  27.502  26.583  1.00  0.00     0.074 A 
ATOM     50  C   UNL A   1      48.514  26.219  26.069  1.00  0.00     0.031 C 
ATOM     51  C   UNL A   1      41.789  26.585  27.569  1.00  0.00     0.029 A 
ATOM     52  C   UNL A   1      42.564  27.789  27.851  1.00  0.00     0.049 A 
ATOM     53  H   UNL A   1      44.591  28.102  27.481  1.00  0.00     0.167 HD
ATOM     54  C   UNL A   1      48.899  28.572  26.759  1.00  0.00     0.034 A 
ATOM     55  C   UNL A   1      42.078  28.917  28.409  1.00  0.00     0.034 A 
ATOM     56  C   UNL A   1      48.452  29.847  27.267  1.00  0.00     0.049 A 
ATOM     57  C   UNL A   1      43.012  30.082  28.626  1.00  0.00     0.074 A 
ATOM     58  C   UNL A   1      49.184  31.008  27.448  1.00  0.00     0.029 A 
ATOM     59  N   UNL A   1      47.156  30.129  27.684  1.00  0.00    -0.354 N 
ATOM     60  N   UNL A   1      44.296  30.175  28.364  1.00  0.00    -0.248 NA
ATOM     61  C   UNL A   1      42.426  31.301  29.200  1.00  0.00     0.031 C 
ATOM     62  C   UNL A   1      48.354  31.964  28.043  1.00  0.00     0.029 A 
ATOM     63  C   UNL A   1      47.077  31.434  28.149  1.00  0.00     0.049 A 
ATOM     64  H   UNL A   1      46.404  29.495  27.654  1.00  0.00     0.167 HD
ATOM     65  C   UNL A   1      44.659  31.477  28.702  1.00  0.00     0.074 A 
ATOM     66  C   UNL A   1      43.457  32.132  29.175  1.00  0.00     0.031 C 
ATOM     67  C   UNL A   1      45.874  32.078  28.623  1.00  0.00     0.034 A 
BRANCH  54  68
ATOM     68  C   UNL A   1      50.363  28.393  26.424  1.00  0.00     0.023 A 
ATOM     69  C   UNL A   1      50.838  28.493  25.105  1.00  0.00     0.031 A 
ATOM     70  C   UNL A   1      51.294  28.092  27.434  1.00  0.00     0.131 A 
ATOM     71  C   UNL A   1      52.184  28.213  24.820  1.00  0.00     0.055 A 
ATOM     72  C   UNL A   1      52.650  27.904  27.157  1.00  0.00     0.041 A 
ATOM     73  F   UNL A   1      50.900  27.961  28.711  1.00  0.00    -0.206 F 
ATOM     74  C   UNL A   1      53.099  27.948  25.841  1.00  0.00     0.022 A 
BRANCH  71  75
ATOM     75  S   UNL A   1      52.685  28.046  23.085  1.00  0.00     0.124 S 
ATOM     76  O   UNL A   1      53.880  27.213  23.203  1.00  0.00    -0.237 OA
ATOM     77  O   UNL A   1      51.520  27.411  22.480  1.00  0.00    -0.237 OA
ATOM     78  O   UNL A   1      52.935  29.424  22.666  1.00  0.00    -0.744 OA
ENDBRANCH  71  75
ENDBRANCH  54  68
BRANCH  55  79
ATOM     79  C   UNL A   1      40.644  29.007  28.811  1.00  0.00     0.023 A 
ATOM     80  C   UNL A   1      40.258  28.871  30.154  1.00  0.00     0.031 A 
ATOM     81  C   UNL A   1      39.631  29.179  27.851  1.00  0.00     0.131 A 
ATOM     82  C   UNL A   1      38.896  28.853  30.494  1.00  0.00     0.055 A 
ATOM     83  C   UNL A   1      38.280  29.222  28.201  1.00  0.00     0.041 A 
ATOM     84  F   UNL A   1      39.942  29.317  26.551  1.00  0.00    -0.206 F 
ATOM     85  C   UNL A   1      37.905  29.043  29.529  1.00  0.00     0.022 A 
BRANCH  82  86
ATOM     86  S   UNL A   1      38.433  28.477  32.208  1.00  0.00     0.124 S 
ATOM     87  O   UNL A   1      38.327  27.023  32.173  1.00  0.00    -0.237 OA
ATOM     88  O   UNL A   1      39.563  29.022  32.953  1.00  0.00    -0.237 OA
ATOM     89  O   UNL A   1      37.171  29.192  32.382  1.00  0.00    -0.744 OA
ENDBRANCH  82  86
ENDBRANCH  55  79
BRANCH  67  90
ATOM     90  C   UNL A   1      45.946  33.541  28.997  1.00  0.00     0.023 A 
ATOM     91  C   UNL A   1      45.577  34.560  28.102  1.00  0.00     0.031 A 
ATOM     92  C   UNL A   1      46.410  33.920  30.270  1.00  0.00     0.131 A 
ATOM     93  C   UNL A   1      45.744  35.905  28.466  1.00  0.00     0.055 A 
ATOM     94  C   UNL A   1      46.505  35.258  30.653  1.00  0.00     0.041 A 
ATOM     95  F   UNL A   1      46.781  32.991  31.166  1.00  0.00    -0.206 F 
ATOM     96  C   UNL A   1      46.188  36.261  29.742  1.00  0.00     0.022 A 
BRANCH  93  97
ATOM     97  S   UNL A   1      45.485  37.186  27.207  1.00  0.00     0.124 S 
ATOM     98  O   UNL A   1      44.123  36.906  26.765  1.00  0.00    -0.237 OA
ATOM     99  O   UNL A   1      45.667  38.416  27.970  1.00  0.00    -0.237 OA
ATOM    100  O   UNL A   1      46.527  36.910  26.218  1.00  0.00    -0.744 OA
ENDBRANCH  93  97
ENDBRANCH  67  90
ENDBRANCH  41  42
ENDBRANCH  33  36
ENDBRANCH  31  32
ENDBRANCH  30  31
ENDBRANCH  29  30
ENDBRANCH   1  29
TORSDOF 19
ENDMDL
MODEL 3
REMARK VINA RESULT:     -11.3      1.859      2.149
REMARK SMILES Cc1ccc(S(=O)(=O)N2C[C@@H](CC(=O)NCCCCCCNC(=O)c3ccc(-c4c5nc(c(-c6cc(S(=O)(=O)[O-])ccc6F)c6ccc([nH]6)c(-c6cc(S(=O)(=O)[O-])ccc6F)c6nc(c(-c7cc(S(=O)(=O)[O-])ccc7F)c7ccc4[nH]7)C=C6)C=C5)cc3)c3ccccc32)c(C)c1
REMARK SMILES IDX 18 1 17 2 16 3 15 4 13 5 14 6 12 8 11 9 9 10 10 11 93 12
REMARK SMILES IDX 88 13 92 14 89 15 91 16 90 17 6 18 7 19 8 20 5 21 1 22 2 23
REMARK SMILES IDX 3 24 96 25 4 26 94 27 95 28 19 29 20 30 21 31 22 32 23 33
REMARK SMILES IDX 24 35 25 36 26 37 87 38 27 39 86 40 28 41 29 42 30 43 80 44
REMARK SMILES IDX 31 45 85 46 79 47 81 48 32 49 84 50 78 51 77 52 33 54 65 55
REMARK SMILES IDX 45 56 64 57 46 58 49 59 63 60 82 61 47 62 48 63 62 65 83 66
REMARK SMILES IDX 50 67 34 68 35 69 43 70 36 71 42 72 44 73 41 74 37 75 38 76
REMARK SMILES IDX 39 77 40 78 66 79 67 80 75 81 68 82 74 83 76 84 73 85 69 86
REMARK SMILES IDX 70 87 71 88 72 89 51 90 52 91 60 92 53 93 59 94 61 95 58 96
REMARK SMILES IDX 54 97 55 98 56 99 57 100
REMARK H PARENT 15 7 22 34 81 53 49 64
REMARK Flexibility Score: inf
ROOT
ATOM      1  C   UNL A   1      34.910  31.659  28.304  1.00  0.00     0.002 C 
ENDROOT
BRANCH   1   2
ATOM      2  C   UNL A   1      34.445  30.813  27.122  1.00  0.00     0.021 C 
BRANCH   2   3
ATOM      3  C   UNL A   1      34.421  29.306  27.361  1.00  0.00     0.116 C 
BRANCH   3   4
ATOM      4  N   UNL A   1      33.136  28.922  27.923  1.00  0.00    -0.356 N 
ATOM      5  C   UNL A   1      32.230  28.016  27.458  1.00  0.00     0.220 C 
ATOM      6  O   UNL A   1      31.080  28.051  27.897  1.00  0.00    -0.275 OA
ATOM      7  H   UNL A   1      32.885  29.381  28.757  1.00  0.00     0.163 HD
BRANCH   5   8
ATOM      8  C   UNL A   1      32.652  26.943  26.477  1.00  0.00     0.110 C 
BRANCH   8   9
ATOM      9  C   UNL A   1      31.479  26.174  25.851  1.00  0.00     0.051 C 
ATOM     10  N   UNL A   1      32.419  24.154  24.867  1.00  0.00    -0.265 N 
ATOM     11  C   UNL A   1      31.680  24.659  26.080  1.00  0.00     0.144 C 
ATOM     12  C   UNL A   1      32.089  25.076  23.811  1.00  0.00     0.055 A 
ATOM     13  C   UNL A   1      31.462  26.203  24.348  1.00  0.00    -0.018 A 
ATOM     14  C   UNL A   1      32.347  24.982  22.454  1.00  0.00     0.027 A 
ATOM     15  C   UNL A   1      30.907  27.162  23.516  1.00  0.00     0.006 A 
ATOM     16  C   UNL A   1      31.857  25.985  21.614  1.00  0.00     0.002 A 
ATOM     17  C   UNL A   1      31.109  27.047  22.138  1.00  0.00     0.000 A 
BRANCH  10  18
ATOM     18  S   UNL A   1      32.134  22.487  24.567  1.00  0.00     0.264 S 
ATOM     19  O   UNL A   1      31.615  22.373  23.222  1.00  0.00    -0.201 OA
ATOM     20  O   UNL A   1      31.387  21.972  25.702  1.00  0.00    -0.201 OA
BRANCH  18  21
ATOM     21  C   UNL A   1      33.732  21.698  24.645  1.00  0.00     0.090 A 
ATOM     22  C   UNL A   1      37.650  19.919  24.909  1.00  0.00     0.044 C 
ATOM     23  C   UNL A   1      36.292  20.548  24.798  1.00  0.00    -0.051 A 
ATOM     24  C   UNL A   1      36.151  21.932  24.690  1.00  0.00     0.005 A 
ATOM     25  C   UNL A   1      35.142  19.748  24.848  1.00  0.00     0.008 A 
ATOM     26  C   UNL A   1      34.882  22.505  24.626  1.00  0.00     0.023 A 
ATOM     27  C   UNL A   1      33.849  20.300  24.769  1.00  0.00    -0.030 A 
ATOM     28  C   UNL A   1      32.697  19.344  24.911  1.00  0.00     0.046 C 
ENDBRANCH  18  21
ENDBRANCH  10  18
ENDBRANCH   8   9
ENDBRANCH   5   8
ENDBRANCH   3   4
ENDBRANCH   2   3
ENDBRANCH   1   2
BRANCH   1  29
ATOM     29  C   UNL A   1      35.569  32.986  27.928  1.00  0.00     0.002 C 
BRANCH  29  30
ATOM     30  C   UNL A   1      34.644  34.207  27.916  1.00  0.00     0.021 C 
BRANCH  30  31
ATOM     31  C   UNL A   1      33.238  33.973  28.467  1.00  0.00     0.116 C 
BRANCH  31  32
ATOM     32  N   UNL A   1      32.898  34.926  29.509  1.00  0.00    -0.352 N 
ATOM     33  C   UNL A   1      33.363  35.021  30.797  1.00  0.00     0.251 C 
ATOM     34  H   UNL A   1      32.234  35.605  29.253  1.00  0.00     0.163 HD
ATOM     35  O   UNL A   1      32.764  35.726  31.604  1.00  0.00    -0.269 OA
BRANCH  33  36
ATOM     36  C   UNL A   1      34.568  34.270  31.216  1.00  0.00     0.039 A 
ATOM     37  C   UNL A   1      34.411  33.006  31.789  1.00  0.00     0.014 A 
ATOM     38  C   UNL A   1      35.845  34.825  31.090  1.00  0.00     0.014 A 
ATOM     39  C   UNL A   1      35.536  32.281  32.194  1.00  0.00     0.010 A 
ATOM     40  C   UNL A   1      36.969  34.071  31.424  1.00  0.00     0.010 A 
ATOM     41  C   UNL A   1      36.828  32.795  31.993  1.00  0.00    -0.014 A 
BRANCH  41  42
ATOM     42  C   UNL A   1      38.034  32.027  32.405  1.00  0.00     0.031 A 
ATOM     43  C   UNL A   1      38.734  32.357  33.699  1.00  0.00     0.074 A 
ATOM     44  C   UNL A   1      38.524  31.062  31.601  1.00  0.00     0.049 A 
ATOM     45  N   UNL A   1      39.828  31.846  34.202  1.00  0.00    -0.248 NA
ATOM     46  C   UNL A   1      38.136  33.421  34.518  1.00  0.00     0.031 C 
ATOM     47  C   UNL A   1      37.953  30.667  30.311  1.00  0.00     0.029 A 
ATOM     48  N   UNL A   1      39.614  30.239  31.745  1.00  0.00    -0.354 N 
ATOM     49  C   UNL A   1      40.055  32.534  35.392  1.00  0.00     0.074 A 
ATOM     50  C   UNL A   1      39.021  33.542  35.494  1.00  0.00     0.031 C 
ATOM     51  C   UNL A   1      38.681  29.663  29.797  1.00  0.00     0.029 A 
ATOM     52  C   UNL A   1      39.797  29.373  30.692  1.00  0.00     0.049 A 
ATOM     53  H   UNL A   1      40.209  30.267  32.529  1.00  0.00     0.167 HD
ATOM     54  C   UNL A   1      41.021  32.328  36.323  1.00  0.00     0.034 A 
ATOM     55  C   UNL A   1      40.760  28.455  30.466  1.00  0.00     0.034 A 
ATOM     56  C   UNL A   1      42.041  31.314  36.209  1.00  0.00     0.049 A 
ATOM     57  C   UNL A   1      41.844  28.269  31.499  1.00  0.00     0.074 A 
ATOM     58  C   UNL A   1      43.043  30.993  37.109  1.00  0.00     0.029 A 
ATOM     59  N   UNL A   1      42.198  30.458  35.124  1.00  0.00    -0.354 N 
ATOM     60  N   UNL A   1      42.023  28.901  32.636  1.00  0.00    -0.248 NA
ATOM     61  C   UNL A   1      42.847  27.231  31.224  1.00  0.00     0.031 C 
ATOM     62  C   UNL A   1      43.848  30.002  36.538  1.00  0.00     0.029 A 
ATOM     63  C   UNL A   1      43.296  29.634  35.321  1.00  0.00     0.049 A 
ATOM     64  H   UNL A   1      41.614  30.440  34.333  1.00  0.00     0.167 HD
ATOM     65  C   UNL A   1      43.133  28.307  33.231  1.00  0.00     0.074 A 
ATOM     66  C   UNL A   1      43.574  27.261  32.331  1.00  0.00     0.031 C 
ATOM     67  C   UNL A   1      43.731  28.595  34.416  1.00  0.00     0.034 A 
BRANCH  54  68
ATOM     68  C   UNL A   1      41.030  33.240  37.529  1.00  0.00     0.023 A 
ATOM     69  C   UNL A   1      41.999  34.246  37.688  1.00  0.00     0.031 A 
ATOM     70  C   UNL A   1      40.074  33.085  38.548  1.00  0.00     0.131 A 
ATOM     71  C   UNL A   1      42.041  35.000  38.872  1.00  0.00     0.055 A 
ATOM     72  C   UNL A   1      40.065  33.900  39.683  1.00  0.00     0.041 A 
ATOM     73  F   UNL A   1      39.135  32.129  38.466  1.00  0.00    -0.206 F 
ATOM     74  C   UNL A   1      41.063  34.853  39.857  1.00  0.00     0.022 A 
BRANCH  71  75
ATOM     75  S   UNL A   1      43.482  36.060  39.172  1.00  0.00     0.124 S 
ATOM     76  O   UNL A   1      44.336  35.177  39.964  1.00  0.00    -0.237 OA
ATOM     77  O   UNL A   1      43.944  36.355  37.821  1.00  0.00    -0.237 OA
ATOM     78  O   UNL A   1      42.925  37.196  39.904  1.00  0.00    -0.744 OA
ENDBRANCH  71  75
ENDBRANCH  54  68
BRANCH  55  79
ATOM     79  C   UNL A   1      40.758  27.648  29.211  1.00  0.00     0.023 A 
ATOM     80  C   UNL A   1      41.663  27.920  28.172  1.00  0.00     0.031 A 
ATOM     81  C   UNL A   1      39.817  26.623  29.010  1.00  0.00     0.131 A 
ATOM     82  C   UNL A   1      41.572  27.217  26.961  1.00  0.00     0.055 A 
ATOM     83  C   UNL A   1      39.770  25.884  27.826  1.00  0.00     0.041 A 
ATOM     84  F   UNL A   1      38.929  26.317  29.970  1.00  0.00    -0.206 F 
ATOM     85  C   UNL A   1      40.642  26.190  26.786  1.00  0.00     0.022 A 
BRANCH  82  86
ATOM     86  S   UNL A   1      42.626  27.731  25.576  1.00  0.00     0.124 S 
ATOM     87  O   UNL A   1      43.888  28.009  26.252  1.00  0.00    -0.237 OA
ATOM     88  O   UNL A   1      42.600  26.550  24.721  1.00  0.00    -0.237 OA
ATOM     89  O   UNL A   1      41.933  28.902  25.041  1.00  0.00    -0.744 OA
ENDBRANCH  82  86
ENDBRANCH  55  79
BRANCH  67  90
ATOM     90  C   UNL A   1      44.890  27.719  34.835  1.00  0.00     0.023 A 
ATOM     91  C   UNL A   1      44.699  26.498  35.504  1.00  0.00     0.031 A 
ATOM     92  C   UNL A   1      46.211  28.128  34.574  1.00  0.00     0.131 A 
ATOM     93  C   UNL A   1      45.809  25.764  35.949  1.00  0.00     0.055 A 
ATOM     94  C   UNL A   1      47.310  27.358  34.955  1.00  0.00     0.041 A 
ATOM     95  F   UNL A   1      46.456  29.287  33.943  1.00  0.00    -0.206 F 
ATOM     96  C   UNL A   1      47.113  26.176  35.663  1.00  0.00     0.022 A 
BRANCH  93  97
ATOM     97  S   UNL A   1      45.528  24.320  37.012  1.00  0.00     0.124 S 
ATOM     98  O   UNL A   1      44.462  23.622  36.300  1.00  0.00    -0.237 OA
ATOM     99  O   UNL A   1      46.833  23.668  37.004  1.00  0.00    -0.237 OA
ATOM    100  O   UNL A   1      45.137  24.909  38.292  1.00  0.00    -0.744 OA
ENDBRANCH  93  97
ENDBRANCH  67  90
ENDBRANCH  41  42
ENDBRANCH  33  36
ENDBRANCH  31  32
ENDBRANCH  30  31
ENDBRANCH  29  30
ENDBRANCH   1  29
TORSDOF 19
ENDMDL
