MODEL 1
REMARK VINA RESULT:     -11.2      0.000      0.000
REMARK SMILES Cc1cc(C)n(CC(=O)N[C@H]2C=C[C@@H](C(=O)NCCCCCCNC(=O)c3ccc(-c4c5nc(c(-c6cc(S(=O)(=O)[O-])ccc6F)c6ccc([nH]6)c(-c6cc(S(=O)(=O)[O-])ccc6F)c6nc(c(-c7cc(S(=O)(=O)[O-])ccc7F)c7ccc4[nH]7)C=C6)C=C5)cc3)C2)n1
REMARK SMILES IDX 20 1 19 2 18 3 17 4 15 5 16 6 14 8 11 9 12 10 90 11 13 12
REMARK SMILES IDX 10 13 8 14 9 15 7 17 6 18 1 19 2 20 3 21 91 22 4 23 5 24
REMARK SMILES IDX 21 25 22 26 23 27 24 28 25 29 26 31 27 32 28 33 89 34 29 35
REMARK SMILES IDX 88 36 30 37 31 38 32 39 82 40 33 41 87 42 81 43 83 44 34 45
REMARK SMILES IDX 86 46 80 47 79 48 35 50 67 51 47 52 66 53 48 54 51 55 65 56
REMARK SMILES IDX 84 57 49 58 50 59 64 61 85 62 52 63 36 64 37 65 45 66 38 67
REMARK SMILES IDX 44 68 46 69 43 70 39 71 40 72 41 73 42 74 68 75 69 76 77 77
REMARK SMILES IDX 70 78 76 79 78 80 75 81 71 82 72 83 73 84 74 85 53 86 54 87
REMARK SMILES IDX 62 88 55 89 61 90 63 91 60 92 56 93 57 94 58 95 59 96
REMARK H PARENT 17 7 10 16 24 30 83 49 51 60
REMARK Flexibility Score: inf
ROOT
ATOM      1  C   UNL A   1      47.751  31.794  27.840  1.00  0.00     0.002 C 
ENDROOT
BRANCH   1   2
ATOM      2  C   UNL A   1      47.165  30.847  26.793  1.00  0.00     0.021 C 
BRANCH   2   3
ATOM      3  C   UNL A   1      46.207  29.791  27.337  1.00  0.00     0.116 C 
BRANCH   3   4
ATOM      4  N   UNL A   1      45.293  29.286  26.334  1.00  0.00    -0.356 N 
ATOM      5  C   UNL A   1      45.055  28.009  25.927  1.00  0.00     0.227 C 
ATOM      6  O   UNL A   1      44.086  27.824  25.182  1.00  0.00    -0.274 OA
ATOM      7  H   UNL A   1      44.760  29.974  25.874  1.00  0.00     0.163 HD
BRANCH   5   8
ATOM      8  C   UNL A   1      45.960  26.828  26.309  1.00  0.00     0.103 C 
ATOM      9  C   UNL A   1      45.782  24.416  25.728  1.00  0.00     0.106 C 
ATOM     10  C   UNL A   1      46.958  25.101  25.078  1.00  0.00    -0.006 C 
ATOM     11  C   UNL A   1      45.171  25.546  26.564  1.00  0.00     0.047 C 
ATOM     12  C   UNL A   1      47.022  26.411  25.347  1.00  0.00    -0.016 C 
BRANCH   9  13
ATOM     13  N   UNL A   1      44.996  23.856  24.637  1.00  0.00    -0.348 N 
ATOM     14  C   UNL A   1      44.514  22.618  24.345  1.00  0.00     0.242 C 
ATOM     15  O   UNL A   1      44.033  22.494  23.211  1.00  0.00    -0.273 OA
ATOM     16  H   UNL A   1      44.761  24.526  23.954  1.00  0.00     0.164 HD
BRANCH  14  17
ATOM     17  C   UNL A   1      44.411  21.483  25.334  1.00  0.00     0.244 C 
BRANCH  17  18
ATOM     18  N   UNL A   1      43.059  21.195  25.753  1.00  0.00    -0.260 N 
ATOM     19  C   UNL A   1      39.959  22.506  26.829  1.00  0.00     0.069 C 
ATOM     20  C   UNL A   1      41.094  21.654  26.405  1.00  0.00     0.060 A 
ATOM     21  C   UNL A   1      41.197  20.246  26.396  1.00  0.00     0.048 A 
ATOM     22  N   UNL A   1      42.211  22.223  25.950  1.00  0.00    -0.178 NA
ATOM     23  C   UNL A   1      42.467  19.975  25.931  1.00  0.00     0.036 A 
ATOM     24  C   UNL A   1      43.155  18.692  25.645  1.00  0.00     0.066 C 
ENDBRANCH  17  18
ENDBRANCH  14  17
ENDBRANCH   9  13
ENDBRANCH   5   8
ENDBRANCH   3   4
ENDBRANCH   2   3
ENDBRANCH   1   2
BRANCH   1  25
ATOM     25  C   UNL A   1      47.364  33.271  27.701  1.00  0.00     0.002 C 
BRANCH  25  26
ATOM     26  C   UNL A   1      46.910  33.737  26.310  1.00  0.00     0.021 C 
BRANCH  26  27
ATOM     27  C   UNL A   1      45.788  34.765  26.325  1.00  0.00     0.116 C 
BRANCH  27  28
ATOM     28  N   UNL A   1      46.117  35.945  27.118  1.00  0.00    -0.352 N 
ATOM     29  C   UNL A   1      45.358  36.550  28.106  1.00  0.00     0.251 C 
ATOM     30  H   UNL A   1      46.988  36.363  26.928  1.00  0.00     0.163 HD
ATOM     31  O   UNL A   1      45.553  37.718  28.400  1.00  0.00    -0.269 OA
BRANCH  29  32
ATOM     32  C   UNL A   1      44.309  35.758  28.783  1.00  0.00     0.039 A 
ATOM     33  C   UNL A   1      44.636  34.750  29.691  1.00  0.00     0.014 A 
ATOM     34  C   UNL A   1      42.976  36.049  28.501  1.00  0.00     0.014 A 
ATOM     35  C   UNL A   1      43.605  34.097  30.366  1.00  0.00     0.010 A 
ATOM     36  C   UNL A   1      41.974  35.521  29.277  1.00  0.00     0.010 A 
ATOM     37  C   UNL A   1      42.274  34.504  30.172  1.00  0.00    -0.014 A 
BRANCH  37  38
ATOM     38  C   UNL A   1      41.194  33.958  30.990  1.00  0.00     0.031 A 
ATOM     39  C   UNL A   1      41.510  33.881  32.437  1.00  0.00     0.074 A 
ATOM     40  C   UNL A   1      39.943  33.709  30.542  1.00  0.00     0.049 A 
ATOM     41  N   UNL A   1      41.784  32.819  33.119  1.00  0.00    -0.248 NA
ATOM     42  C   UNL A   1      41.718  35.132  33.182  1.00  0.00     0.031 C 
ATOM     43  C   UNL A   1      39.370  33.991  29.222  1.00  0.00     0.029 A 
ATOM     44  N   UNL A   1      38.874  33.215  31.228  1.00  0.00    -0.354 N 
ATOM     45  C   UNL A   1      41.942  33.238  34.433  1.00  0.00     0.074 A 
ATOM     46  C   UNL A   1      42.109  34.665  34.370  1.00  0.00     0.031 C 
ATOM     47  C   UNL A   1      38.024  33.866  29.270  1.00  0.00     0.029 A 
ATOM     48  C   UNL A   1      37.654  33.326  30.566  1.00  0.00     0.049 A 
ATOM     49  H   UNL A   1      38.958  32.812  32.122  1.00  0.00     0.167 HD
ATOM     50  C   UNL A   1      41.667  32.396  35.469  1.00  0.00     0.034 A 
ATOM     51  C   UNL A   1      36.424  32.988  31.040  1.00  0.00     0.034 A 
ATOM     52  C   UNL A   1      41.598  31.022  35.012  1.00  0.00     0.049 A 
ATOM     53  C   UNL A   1      36.647  31.980  32.104  1.00  0.00     0.074 A 
ATOM     54  C   UNL A   1      42.474  30.188  34.341  1.00  0.00     0.029 A 
ATOM     55  N   UNL A   1      40.354  30.455  34.837  1.00  0.00    -0.354 N 
ATOM     56  N   UNL A   1      37.153  30.799  31.871  1.00  0.00    -0.248 NA
ATOM     57  C   UNL A   1      36.783  32.449  33.475  1.00  0.00     0.031 C 
ATOM     58  C   UNL A   1      41.666  29.506  33.381  1.00  0.00     0.029 A 
ATOM     59  C   UNL A   1      40.336  29.880  33.588  1.00  0.00     0.049 A 
ATOM     60  H   UNL A   1      39.615  30.460  35.487  1.00  0.00     0.167 HD
ATOM     61  C   UNL A   1      38.047  30.582  32.907  1.00  0.00     0.074 A 
ATOM     62  C   UNL A   1      37.701  31.583  33.916  1.00  0.00     0.031 C 
ATOM     63  C   UNL A   1      39.158  29.803  32.738  1.00  0.00     0.034 A 
BRANCH  50  64
ATOM     64  C   UNL A   1      41.107  32.831  36.807  1.00  0.00     0.023 A 
ATOM     65  C   UNL A   1      39.799  32.417  37.129  1.00  0.00     0.031 A 
ATOM     66  C   UNL A   1      41.654  33.829  37.645  1.00  0.00     0.131 A 
ATOM     67  C   UNL A   1      39.075  33.041  38.160  1.00  0.00     0.055 A 
ATOM     68  C   UNL A   1      40.954  34.398  38.713  1.00  0.00     0.041 A 
ATOM     69  F   UNL A   1      42.852  34.383  37.431  1.00  0.00    -0.206 F 
ATOM     70  C   UNL A   1      39.645  34.029  38.957  1.00  0.00     0.022 A 
BRANCH  67  71
ATOM     71  S   UNL A   1      37.312  32.664  38.324  1.00  0.00     0.124 S 
ATOM     72  O   UNL A   1      37.313  31.208  38.239  1.00  0.00    -0.237 OA
ATOM     73  O   UNL A   1      37.004  33.234  39.631  1.00  0.00    -0.237 OA
ATOM     74  O   UNL A   1      36.710  33.356  37.186  1.00  0.00    -0.744 OA
ENDBRANCH  67  71
ENDBRANCH  50  64
BRANCH  51  75
ATOM     75  C   UNL A   1      35.135  33.711  30.844  1.00  0.00     0.023 A 
ATOM     76  C   UNL A   1      34.715  34.776  31.674  1.00  0.00     0.031 A 
ATOM     77  C   UNL A   1      34.409  33.520  29.647  1.00  0.00     0.131 A 
ATOM     78  C   UNL A   1      33.626  35.596  31.289  1.00  0.00     0.055 A 
ATOM     79  C   UNL A   1      33.337  34.334  29.273  1.00  0.00     0.041 A 
ATOM     80  F   UNL A   1      34.775  32.588  28.753  1.00  0.00    -0.206 F 
ATOM     81  C   UNL A   1      32.949  35.384  30.087  1.00  0.00     0.022 A 
BRANCH  78  82
ATOM     82  S   UNL A   1      33.124  37.025  32.308  1.00  0.00     0.124 S 
ATOM     83  O   UNL A   1      34.239  37.147  33.240  1.00  0.00    -0.237 OA
ATOM     84  O   UNL A   1      32.985  38.085  31.317  1.00  0.00    -0.237 OA
ATOM     85  O   UNL A   1      31.865  36.587  32.913  1.00  0.00    -0.744 OA
ENDBRANCH  78  82
ENDBRANCH  51  75
BRANCH  63  86
ATOM     86  C   UNL A   1      39.260  28.948  31.483  1.00  0.00     0.023 A 
ATOM     87  C   UNL A   1      40.008  29.274  30.327  1.00  0.00     0.031 A 
ATOM     88  C   UNL A   1      38.641  27.684  31.515  1.00  0.00     0.131 A 
ATOM     89  C   UNL A   1      40.101  28.355  29.259  1.00  0.00     0.055 A 
ATOM     90  C   UNL A   1      38.757  26.770  30.469  1.00  0.00     0.041 A 
ATOM     91  F   UNL A   1      37.932  27.301  32.590  1.00  0.00    -0.206 F 
ATOM     92  C   UNL A   1      39.482  27.104  29.333  1.00  0.00     0.022 A 
BRANCH  89  93
ATOM     93  S   UNL A   1      41.009  28.778  27.733  1.00  0.00     0.124 S 
ATOM     94  O   UNL A   1      39.959  29.186  26.809  1.00  0.00    -0.237 OA
ATOM     95  O   UNL A   1      41.911  29.835  28.183  1.00  0.00    -0.237 OA
ATOM     96  O   UNL A   1      41.678  27.524  27.378  1.00  0.00    -0.744 OA
ENDBRANCH  89  93
ENDBRANCH  63  86
ENDBRANCH  37  38
ENDBRANCH  29  32
ENDBRANCH  27  28
ENDBRANCH  26  27
ENDBRANCH  25  26
ENDBRANCH   1  25
TORSDOF 19
ENDMDL
MODEL 2
REMARK VINA RESULT:     -11.2      5.568     12.342
REMARK SMILES Cc1cc(C)n(CC(=O)N[C@H]2C=C[C@@H](C(=O)NCCCCCCNC(=O)c3ccc(-c4c5nc(c(-c6cc(S(=O)(=O)[O-])ccc6F)c6ccc([nH]6)c(-c6cc(S(=O)(=O)[O-])ccc6F)c6nc(c(-c7cc(S(=O)(=O)[O-])ccc7F)c7ccc4[nH]7)C=C6)C=C5)cc3)C2)n1
REMARK SMILES IDX 20 1 19 2 18 3 17 4 15 5 16 6 14 8 11 9 12 10 90 11 13 12
REMARK SMILES IDX 10 13 8 14 9 15 7 17 6 18 1 19 2 20 3 21 91 22 4 23 5 24
REMARK SMILES IDX 21 25 22 26 23 27 24 28 25 29 26 31 27 32 28 33 89 34 29 35
REMARK SMILES IDX 88 36 30 37 31 38 32 39 82 40 33 41 87 42 81 43 83 44 34 45
REMARK SMILES IDX 86 46 80 47 79 48 35 50 67 51 47 52 66 53 48 54 51 55 65 56
REMARK SMILES IDX 84 57 49 58 50 59 64 61 85 62 52 63 36 64 37 65 45 66 38 67
REMARK SMILES IDX 44 68 46 69 43 70 39 71 40 72 41 73 42 74 68 75 69 76 77 77
REMARK SMILES IDX 70 78 76 79 78 80 75 81 71 82 72 83 73 84 74 85 53 86 54 87
REMARK SMILES IDX 62 88 55 89 61 90 63 91 60 92 56 93 57 94 58 95 59 96
REMARK H PARENT 17 7 10 16 24 30 83 49 51 60
REMARK Flexibility Score: inf
ROOT
ATOM      1  C   UNL A   1      34.068  33.428  28.291  1.00  0.00     0.002 C 
ENDROOT
BRANCH   1   2
ATOM      2  C   UNL A   1      32.861  32.794  27.600  1.00  0.00     0.021 C 
BRANCH   2   3
ATOM      3  C   UNL A   1      33.013  31.315  27.255  1.00  0.00     0.116 C 
BRANCH   3   4
ATOM      4  N   UNL A   1      32.088  30.874  26.232  1.00  0.00    -0.356 N 
ATOM      5  C   UNL A   1      32.016  29.688  25.567  1.00  0.00     0.227 C 
ATOM      6  O   UNL A   1      31.014  29.492  24.871  1.00  0.00    -0.274 OA
ATOM      7  H   UNL A   1      31.405  31.536  25.977  1.00  0.00     0.163 HD
BRANCH   5   8
ATOM      8  C   UNL A   1      33.135  28.636  25.609  1.00  0.00     0.103 C 
ATOM      9  C   UNL A   1      33.029  26.168  25.320  1.00  0.00     0.106 C 
ATOM     10  C   UNL A   1      33.739  26.872  24.190  1.00  0.00    -0.006 C 
ATOM     11  C   UNL A   1      32.684  27.330  26.258  1.00  0.00     0.047 C 
ATOM     12  C   UNL A   1      33.748  28.204  24.319  1.00  0.00    -0.016 C 
BRANCH   9  13
ATOM     13  N   UNL A   1      31.938  25.427  24.701  1.00  0.00    -0.348 N 
ATOM     14  C   UNL A   1      31.470  24.154  24.804  1.00  0.00     0.242 C 
ATOM     15  O   UNL A   1      30.615  23.837  23.966  1.00  0.00    -0.273 OA
ATOM     16  H   UNL A   1      31.422  25.971  24.063  1.00  0.00     0.164 HD
BRANCH  14  17
ATOM     17  C   UNL A   1      31.818  23.200  25.920  1.00  0.00     0.244 C 
BRANCH  17  18
ATOM     18  N   UNL A   1      32.589  22.056  25.491  1.00  0.00    -0.260 N 
ATOM     19  C   UNL A   1      32.529  18.689  24.422  1.00  0.00     0.069 C 
ATOM     20  C   UNL A   1      32.895  20.067  24.823  1.00  0.00     0.060 A 
ATOM     21  C   UNL A   1      34.175  20.633  25.002  1.00  0.00     0.048 A 
ATOM     22  N   UNL A   1      31.934  20.961  25.060  1.00  0.00    -0.178 NA
ATOM     23  C   UNL A   1      33.948  21.936  25.396  1.00  0.00     0.036 A 
ATOM     24  C   UNL A   1      34.882  23.052  25.685  1.00  0.00     0.066 C 
ENDBRANCH  17  18
ENDBRANCH  14  17
ENDBRANCH   9  13
ENDBRANCH   5   8
ENDBRANCH   3   4
ENDBRANCH   2   3
ENDBRANCH   1   2
BRANCH   1  25
ATOM     25  C   UNL A   1      35.428  32.790  27.985  1.00  0.00     0.002 C 
BRANCH  25  26
ATOM     26  C   UNL A   1      36.429  32.710  29.146  1.00  0.00     0.021 C 
BRANCH  26  27
ATOM     27  C   UNL A   1      36.495  31.352  29.830  1.00  0.00     0.116 C 
BRANCH  27  28
ATOM     28  N   UNL A   1      35.835  30.303  29.059  1.00  0.00    -0.352 N 
ATOM     29  C   UNL A   1      36.417  29.343  28.249  1.00  0.00     0.251 C 
ATOM     30  H   UNL A   1      34.853  30.273  29.124  1.00  0.00     0.163 HD
ATOM     31  O   UNL A   1      35.763  28.799  27.374  1.00  0.00    -0.269 OA
BRANCH  29  32
ATOM     32  C   UNL A   1      37.840  29.001  28.461  1.00  0.00     0.039 A 
ATOM     33  C   UNL A   1      38.243  28.214  29.540  1.00  0.00     0.014 A 
ATOM     34  C   UNL A   1      38.777  29.477  27.546  1.00  0.00     0.014 A 
ATOM     35  C   UNL A   1      39.585  27.849  29.639  1.00  0.00     0.010 A 
ATOM     36  C   UNL A   1      40.061  28.991  27.555  1.00  0.00     0.010 A 
ATOM     37  C   UNL A   1      40.488  28.222  28.628  1.00  0.00    -0.014 A 
BRANCH  37  38
ATOM     38  C   UNL A   1      41.857  27.712  28.616  1.00  0.00     0.031 A 
ATOM     39  C   UNL A   1      42.060  26.544  27.723  1.00  0.00     0.074 A 
ATOM     40  C   UNL A   1      42.909  28.326  29.200  1.00  0.00     0.049 A 
ATOM     41  N   UNL A   1      42.219  25.313  28.076  1.00  0.00    -0.248 NA
ATOM     42  C   UNL A   1      41.898  26.728  26.273  1.00  0.00     0.031 C 
ATOM     43  C   UNL A   1      42.950  29.627  29.877  1.00  0.00     0.029 A 
ATOM     44  N   UNL A   1      44.214  27.936  29.231  1.00  0.00    -0.354 N 
ATOM     45  C   UNL A   1      42.439  24.603  26.903  1.00  0.00     0.074 A 
ATOM     46  C   UNL A   1      42.013  25.471  25.837  1.00  0.00     0.031 C 
ATOM     47  C   UNL A   1      44.235  30.009  30.057  1.00  0.00     0.029 A 
ATOM     48  C   UNL A   1      45.105  28.911  29.675  1.00  0.00     0.049 A 
ATOM     49  H   UNL A   1      44.505  27.036  28.962  1.00  0.00     0.167 HD
ATOM     50  C   UNL A   1      43.186  23.464  26.909  1.00  0.00     0.034 A 
ATOM     51  C   UNL A   1      46.461  28.825  29.736  1.00  0.00     0.034 A 
ATOM     52  C   UNL A   1      43.337  22.954  28.257  1.00  0.00     0.049 A 
ATOM     53  C   UNL A   1      46.785  27.379  29.808  1.00  0.00     0.074 A 
ATOM     54  C   UNL A   1      42.447  22.580  29.249  1.00  0.00     0.029 A 
ATOM     55  N   UNL A   1      44.529  23.179  28.909  1.00  0.00    -0.354 N 
ATOM     56  N   UNL A   1      46.445  26.623  30.816  1.00  0.00    -0.248 NA
ATOM     57  C   UNL A   1      47.035  26.670  28.562  1.00  0.00     0.031 C 
ATOM     58  C   UNL A   1      42.994  23.119  30.452  1.00  0.00     0.029 A 
ATOM     59  C   UNL A   1      44.230  23.696  30.149  1.00  0.00     0.049 A 
ATOM     60  H   UNL A   1      45.430  23.002  28.554  1.00  0.00     0.167 HD
ATOM     61  C   UNL A   1      46.000  25.442  30.244  1.00  0.00     0.074 A 
ATOM     62  C   UNL A   1      46.483  25.490  28.864  1.00  0.00     0.031 C 
ATOM     63  C   UNL A   1      45.051  24.669  30.852  1.00  0.00     0.034 A 
BRANCH  50  64
ATOM     64  C   UNL A   1      44.075  23.012  25.770  1.00  0.00     0.023 A 
ATOM     65  C   UNL A   1      43.935  21.683  25.324  1.00  0.00     0.031 A 
ATOM     66  C   UNL A   1      45.214  23.699  25.291  1.00  0.00     0.131 A 
ATOM     67  C   UNL A   1      44.927  21.075  24.534  1.00  0.00     0.055 A 
ATOM     68  C   UNL A   1      46.163  23.111  24.450  1.00  0.00     0.041 A 
ATOM     69  F   UNL A   1      45.533  24.939  25.677  1.00  0.00    -0.206 F 
ATOM     70  C   UNL A   1      46.041  21.781  24.091  1.00  0.00     0.022 A 
BRANCH  67  71
ATOM     71  S   UNL A   1      44.825  19.290  24.247  1.00  0.00     0.124 S 
ATOM     72  O   UNL A   1      43.741  18.909  25.146  1.00  0.00    -0.237 OA
ATOM     73  O   UNL A   1      44.529  19.234  22.819  1.00  0.00    -0.237 OA
ATOM     74  O   UNL A   1      46.151  18.809  24.627  1.00  0.00    -0.744 OA
ENDBRANCH  67  71
ENDBRANCH  50  64
BRANCH  51  75
ATOM     75  C   UNL A   1      47.463  29.881  29.419  1.00  0.00     0.023 A 
ATOM     76  C   UNL A   1      47.341  30.753  28.313  1.00  0.00     0.031 A 
ATOM     77  C   UNL A   1      48.445  30.215  30.379  1.00  0.00     0.131 A 
ATOM     78  C   UNL A   1      48.167  31.899  28.211  1.00  0.00     0.055 A 
ATOM     79  C   UNL A   1      49.255  31.348  30.272  1.00  0.00     0.041 A 
ATOM     80  F   UNL A   1      48.589  29.498  31.504  1.00  0.00    -0.206 F 
ATOM     81  C   UNL A   1      49.111  32.202  29.193  1.00  0.00     0.022 A 
BRANCH  78  82
ATOM     82  S   UNL A   1      47.964  33.079  26.833  1.00  0.00     0.124 S 
ATOM     83  O   UNL A   1      47.767  34.342  27.533  1.00  0.00    -0.237 OA
ATOM     84  O   UNL A   1      49.217  32.928  26.102  1.00  0.00    -0.237 OA
ATOM     85  O   UNL A   1      46.783  32.579  26.127  1.00  0.00    -0.744 OA
ENDBRANCH  78  82
ENDBRANCH  51  75
BRANCH  63  86
ATOM     86  C   UNL A   1      44.687  24.971  32.299  1.00  0.00     0.023 A 
ATOM     87  C   UNL A   1      43.974  26.110  32.744  1.00  0.00     0.031 A 
ATOM     88  C   UNL A   1      44.997  23.989  33.257  1.00  0.00     0.131 A 
ATOM     89  C   UNL A   1      43.614  26.235  34.104  1.00  0.00     0.055 A 
ATOM     90  C   UNL A   1      44.617  24.104  34.594  1.00  0.00     0.041 A 
ATOM     91  F   UNL A   1      45.654  22.873  32.900  1.00  0.00    -0.206 F 
ATOM     92  C   UNL A   1      43.929  25.231  35.024  1.00  0.00     0.022 A 
BRANCH  89  93
ATOM     93  S   UNL A   1      42.748  27.721  34.712  1.00  0.00     0.124 S 
ATOM     94  O   UNL A   1      43.789  28.741  34.735  1.00  0.00    -0.237 OA
ATOM     95  O   UNL A   1      41.694  27.905  33.718  1.00  0.00    -0.237 OA
ATOM     96  O   UNL A   1      42.267  27.315  36.035  1.00  0.00    -0.744 OA
ENDBRANCH  89  93
ENDBRANCH  63  86
ENDBRANCH  37  38
ENDBRANCH  29  32
ENDBRANCH  27  28
ENDBRANCH  26  27
ENDBRANCH  25  26
ENDBRANCH   1  25
TORSDOF 19
ENDMDL
MODEL 3
REMARK VINA RESULT:     -11.0      5.620     10.779
REMARK SMILES Cc1cc(C)n(CC(=O)N[C@H]2C=C[C@@H](C(=O)NCCCCCCNC(=O)c3ccc(-c4c5nc(c(-c6cc(S(=O)(=O)[O-])ccc6F)c6ccc([nH]6)c(-c6cc(S(=O)(=O)[O-])ccc6F)c6nc(c(-c7cc(S(=O)(=O)[O-])ccc7F)c7ccc4[nH]7)C=C6)C=C5)cc3)C2)n1
REMARK SMILES IDX 20 1 19 2 18 3 17 4 15 5 16 6 14 8 11 9 12 10 90 11 13 12
REMARK SMILES IDX 10 13 8 14 9 15 7 17 6 18 1 19 2 20 3 21 91 22 4 23 5 24
REMARK SMILES IDX 21 25 22 26 23 27 24 28 25 29 26 31 27 32 28 33 89 34 29 35
REMARK SMILES IDX 88 36 30 37 31 38 32 39 82 40 33 41 87 42 81 43 83 44 34 45
REMARK SMILES IDX 86 46 80 47 79 48 35 50 67 51 47 52 66 53 48 54 51 55 65 56
REMARK SMILES IDX 84 57 49 58 50 59 64 61 85 62 52 63 36 64 37 65 45 66 38 67
REMARK SMILES IDX 44 68 46 69 43 70 39 71 40 72 41 73 42 74 68 75 69 76 77 77
REMARK SMILES IDX 70 78 76 79 78 80 75 81 71 82 72 83 73 84 74 85 53 86 54 87
REMARK SMILES IDX 62 88 55 89 61 90 63 91 60 92 56 93 57 94 58 95 59 96
REMARK H PARENT 17 7 10 16 24 30 83 49 51 60
REMARK Flexibility Score: inf
ROOT
ATOM      1  C   UNL A   1      32.080  27.900  27.273  1.00  0.00     0.002 C 
ENDROOT
BRANCH   1   2
ATOM      2  C   UNL A   1      31.397  26.891  26.349  1.00  0.00     0.021 C 
BRANCH   2   3
ATOM      3  C   UNL A   1      31.170  27.372  24.919  1.00  0.00     0.116 C 
BRANCH   3   4
ATOM      4  N   UNL A   1      32.399  27.513  24.167  1.00  0.00    -0.356 N 
ATOM      5  C   UNL A   1      32.874  26.788  23.116  1.00  0.00     0.227 C 
ATOM      6  O   UNL A   1      33.867  27.229  22.529  1.00  0.00    -0.274 OA
ATOM      7  H   UNL A   1      32.984  28.247  24.462  1.00  0.00     0.163 HD
BRANCH   5   8
ATOM      8  C   UNL A   1      32.262  25.447  22.682  1.00  0.00     0.103 C 
ATOM      9  C   UNL A   1      31.508  23.510  24.048  1.00  0.00     0.106 C 
ATOM     10  C   UNL A   1      30.374  24.241  23.371  1.00  0.00    -0.006 C 
ATOM     11  C   UNL A   1      32.734  24.282  23.549  1.00  0.00     0.047 C 
ATOM     12  C   UNL A   1      30.776  25.315  22.681  1.00  0.00    -0.016 C 
BRANCH   9  13
ATOM     13  N   UNL A   1      31.202  23.536  25.472  1.00  0.00    -0.348 N 
ATOM     14  C   UNL A   1      31.848  23.124  26.595  1.00  0.00     0.242 C 
ATOM     15  O   UNL A   1      31.174  23.156  27.633  1.00  0.00    -0.273 OA
ATOM     16  H   UNL A   1      30.327  23.946  25.666  1.00  0.00     0.164 HD
BRANCH  14  17
ATOM     17  C   UNL A   1      33.316  22.781  26.662  1.00  0.00     0.244 C 
BRANCH  17  18
ATOM     18  N   UNL A   1      33.672  21.596  25.915  1.00  0.00    -0.260 N 
ATOM     19  C   UNL A   1      32.589  18.507  24.586  1.00  0.00     0.069 C 
ATOM     20  C   UNL A   1      33.343  19.714  24.995  1.00  0.00     0.060 A 
ATOM     21  C   UNL A   1      34.717  20.000  24.847  1.00  0.00     0.048 A 
ATOM     22  N   UNL A   1      32.702  20.721  25.590  1.00  0.00    -0.178 NA
ATOM     23  C   UNL A   1      34.897  21.244  25.417  1.00  0.00     0.036 A 
ATOM     24  C   UNL A   1      36.096  22.110  25.527  1.00  0.00     0.066 C 
ENDBRANCH  17  18
ENDBRANCH  14  17
ENDBRANCH   9  13
ENDBRANCH   5   8
ENDBRANCH   3   4
ENDBRANCH   2   3
ENDBRANCH   1   2
BRANCH   1  25
ATOM     25  C   UNL A   1      31.989  29.370  26.846  1.00  0.00     0.002 C 
BRANCH  25  26
ATOM     26  C   UNL A   1      33.217  29.960  26.137  1.00  0.00     0.021 C 
BRANCH  26  27
ATOM     27  C   UNL A   1      34.424  30.171  27.038  1.00  0.00     0.116 C 
BRANCH  27  28
ATOM     28  N   UNL A   1      34.463  31.507  27.624  1.00  0.00    -0.352 N 
ATOM     29  C   UNL A   1      35.167  31.933  28.736  1.00  0.00     0.251 C 
ATOM     30  H   UNL A   1      33.920  32.192  27.169  1.00  0.00     0.163 HD
ATOM     31  O   UNL A   1      34.814  32.933  29.341  1.00  0.00    -0.269 OA
BRANCH  29  32
ATOM     32  C   UNL A   1      36.341  31.151  29.178  1.00  0.00     0.039 A 
ATOM     33  C   UNL A   1      36.227  29.803  29.520  1.00  0.00     0.014 A 
ATOM     34  C   UNL A   1      37.577  31.791  29.239  1.00  0.00     0.014 A 
ATOM     35  C   UNL A   1      37.382  29.092  29.844  1.00  0.00     0.010 A 
ATOM     36  C   UNL A   1      38.728  31.060  29.402  1.00  0.00     0.010 A 
ATOM     37  C   UNL A   1      38.636  29.723  29.760  1.00  0.00    -0.014 A 
BRANCH  37  38
ATOM     38  C   UNL A   1      39.872  28.961  29.925  1.00  0.00     0.031 A 
ATOM     39  C   UNL A   1      40.242  28.707  31.339  1.00  0.00     0.074 A 
ATOM     40  C   UNL A   1      40.546  28.365  28.917  1.00  0.00     0.049 A 
ATOM     41  N   UNL A   1      41.184  29.277  32.013  1.00  0.00    -0.248 NA
ATOM     42  C   UNL A   1      39.364  27.853  32.155  1.00  0.00     0.031 C 
ATOM     43  C   UNL A   1      40.178  28.267  27.501  1.00  0.00     0.029 A 
ATOM     44  N   UNL A   1      41.692  27.629  28.976  1.00  0.00    -0.354 N 
ATOM     45  C   UNL A   1      41.188  28.666  33.259  1.00  0.00     0.074 A 
ATOM     46  C   UNL A   1      39.930  27.976  33.359  1.00  0.00     0.031 C 
ATOM     47  C   UNL A   1      40.958  27.348  26.887  1.00  0.00     0.029 A 
ATOM     48  C   UNL A   1      41.992  26.922  27.813  1.00  0.00     0.049 A 
ATOM     49  H   UNL A   1      42.262  27.600  29.776  1.00  0.00     0.167 HD
ATOM     50  C   UNL A   1      42.335  28.582  33.989  1.00  0.00     0.034 A 
ATOM     51  C   UNL A   1      43.023  26.056  27.616  1.00  0.00     0.034 A 
ATOM     52  C   UNL A   1      43.336  29.502  33.485  1.00  0.00     0.049 A 
ATOM     53  C   UNL A   1      44.069  26.419  28.603  1.00  0.00     0.074 A 
ATOM     54  C   UNL A   1      43.365  30.870  33.278  1.00  0.00     0.029 A 
ATOM     55  N   UNL A   1      44.351  28.997  32.703  1.00  0.00    -0.354 N 
ATOM     56  N   UNL A   1      44.701  27.561  28.582  1.00  0.00    -0.248 NA
ATOM     57  C   UNL A   1      44.060  25.742  29.891  1.00  0.00     0.031 C 
ATOM     58  C   UNL A   1      44.007  31.033  32.014  1.00  0.00     0.029 A 
ATOM     59  C   UNL A   1      44.426  29.777  31.571  1.00  0.00     0.049 A 
ATOM     60  H   UNL A   1      44.919  28.222  32.915  1.00  0.00     0.167 HD
ATOM     61  C   UNL A   1      44.767  27.957  29.908  1.00  0.00     0.074 A 
ATOM     62  C   UNL A   1      44.450  26.753  30.675  1.00  0.00     0.031 C 
ATOM     63  C   UNL A   1      44.797  29.279  30.256  1.00  0.00     0.034 A 
BRANCH  50  64
ATOM     64  C   UNL A   1      42.687  27.433  34.910  1.00  0.00     0.023 A 
ATOM     65  C   UNL A   1      43.519  26.419  34.396  1.00  0.00     0.031 A 
ATOM     66  C   UNL A   1      42.052  27.136  36.138  1.00  0.00     0.131 A 
ATOM     67  C   UNL A   1      43.615  25.169  35.033  1.00  0.00     0.055 A 
ATOM     68  C   UNL A   1      42.205  25.916  36.802  1.00  0.00     0.041 A 
ATOM     69  F   UNL A   1      41.174  27.959  36.721  1.00  0.00    -0.206 F 
ATOM     70  C   UNL A   1      42.966  24.910  36.235  1.00  0.00     0.022 A 
BRANCH  67  71
ATOM     71  S   UNL A   1      44.463  23.824  34.165  1.00  0.00     0.124 S 
ATOM     72  O   UNL A   1      43.338  23.061  33.635  1.00  0.00    -0.237 OA
ATOM     73  O   UNL A   1      45.264  24.556  33.189  1.00  0.00    -0.237 OA
ATOM     74  O   UNL A   1      45.223  23.164  35.224  1.00  0.00    -0.744 OA
ENDBRANCH  67  71
ENDBRANCH  50  64
BRANCH  51  75
ATOM     75  C   UNL A   1      43.009  24.772  26.861  1.00  0.00     0.023 A 
ATOM     76  C   UNL A   1      42.139  23.702  27.173  1.00  0.00     0.031 A 
ATOM     77  C   UNL A   1      43.697  24.686  25.629  1.00  0.00     0.131 A 
ATOM     78  C   UNL A   1      41.980  22.623  26.270  1.00  0.00     0.055 A 
ATOM     79  C   UNL A   1      43.534  23.618  24.743  1.00  0.00     0.041 A 
ATOM     80  F   UNL A   1      44.487  25.684  25.203  1.00  0.00    -0.206 F 
ATOM     81  C   UNL A   1      42.664  22.588  25.054  1.00  0.00     0.022 A 
BRANCH  78  82
ATOM     82  S   UNL A   1      40.797  21.277  26.619  1.00  0.00     0.124 S 
ATOM     83  O   UNL A   1      41.484  20.112  26.075  1.00  0.00    -0.237 OA
ATOM     84  O   UNL A   1      40.671  21.338  28.070  1.00  0.00    -0.237 OA
ATOM     85  O   UNL A   1      39.596  21.679  25.886  1.00  0.00    -0.744 OA
ENDBRANCH  78  82
ENDBRANCH  51  75
BRANCH  63  86
ATOM     86  C   UNL A   1      45.038  30.312  29.164  1.00  0.00     0.023 A 
ATOM     87  C   UNL A   1      46.306  30.717  28.686  1.00  0.00     0.031 A 
ATOM     88  C   UNL A   1      43.905  30.829  28.509  1.00  0.00     0.131 A 
ATOM     89  C   UNL A   1      46.401  31.618  27.601  1.00  0.00     0.055 A 
ATOM     90  C   UNL A   1      44.003  31.698  27.423  1.00  0.00     0.041 A 
ATOM     91  F   UNL A   1      42.670  30.470  28.898  1.00  0.00    -0.206 F 
ATOM     92  C   UNL A   1      45.252  32.101  26.968  1.00  0.00     0.022 A 
BRANCH  89  93
ATOM     93  S   UNL A   1      48.023  32.202  27.006  1.00  0.00     0.124 S 
ATOM     94  O   UNL A   1      48.630  32.798  28.190  1.00  0.00    -0.237 OA
ATOM     95  O   UNL A   1      48.645  30.974  26.518  1.00  0.00    -0.237 OA
ATOM     96  O   UNL A   1      47.674  33.161  25.955  1.00  0.00    -0.744 OA
ENDBRANCH  89  93
ENDBRANCH  63  86
ENDBRANCH  37  38
ENDBRANCH  29  32
ENDBRANCH  27  28
ENDBRANCH  26  27
ENDBRANCH  25  26
ENDBRANCH   1  25
TORSDOF 19
ENDMDL
