MODEL 1
REMARK VINA RESULT:     -11.4      0.000      0.000
REMARK SMILES C[C@H]1CCC[C@H](C)N1C(=O)[C@H]1[C@@H](C(=O)NCCCCCCNC(=O)c2ccc(-c3c4nc(c(-c5cc(S(=O)(=O)[O-])ccc5F)c5ccc([nH]5)c(-c5cc(S(=O)(=O)[O-])ccc5F)c5nc(c(-c6cc(S(=O)(=O)[O-])ccc6F)c6ccc3[nH]6)C=C5)C=C4)cc2)[C@H]2CC[C@@H]1O2
REMARK SMILES IDX 19 1 18 2 17 3 16 4 15 5 13 6 14 7 12 9 11 10 91 11 88 12
REMARK SMILES IDX 90 13 92 14 89 15 9 16 1 17 2 18 3 19 8 20 4 21 6 22 5 23
REMARK SMILES IDX 7 24 10 25 20 26 21 27 22 28 23 29 24 31 25 32 26 33 87 34
REMARK SMILES IDX 27 35 86 36 28 37 29 38 30 39 80 40 31 41 85 42 79 43 81 44
REMARK SMILES IDX 32 45 84 46 78 47 77 48 33 50 65 51 45 52 64 53 46 54 49 55
REMARK SMILES IDX 63 56 82 57 47 58 48 59 62 61 83 62 50 63 34 64 35 65 43 66
REMARK SMILES IDX 36 67 42 68 44 69 41 70 37 71 38 72 39 73 40 74 66 75 67 76
REMARK SMILES IDX 75 77 68 78 74 79 76 80 73 81 69 82 70 83 71 84 72 85 51 86
REMARK SMILES IDX 52 87 60 88 53 89 59 90 61 91 58 92 54 93 55 94 56 95 57 96
REMARK H PARENT 15 8 22 30 81 49 49 60
REMARK Flexibility Score: inf
ROOT
ATOM      1  C   UNL A   1      37.562  21.209  24.604  1.00  0.00     0.002 C 
ENDROOT
BRANCH   1   2
ATOM      2  C   UNL A   1      37.804  22.277  25.678  1.00  0.00     0.002 C 
BRANCH   2   3
ATOM      3  C   UNL A   1      37.401  23.705  25.273  1.00  0.00     0.021 C 
BRANCH   3   4
ATOM      4  C   UNL A   1      35.903  23.953  25.392  1.00  0.00     0.116 C 
BRANCH   4   5
ATOM      5  N   UNL A   1      35.308  23.951  24.071  1.00  0.00    -0.356 N 
ATOM      6  C   UNL A   1      34.216  23.391  23.531  1.00  0.00     0.226 C 
ATOM      7  O   UNL A   1      34.032  23.642  22.332  1.00  0.00    -0.275 OA
ATOM      8  H   UNL A   1      35.824  24.482  23.422  1.00  0.00     0.163 HD
BRANCH   6   9
ATOM      9  C   UNL A   1      33.193  22.558  24.263  1.00  0.00     0.122 C 
ATOM     10  C   UNL A   1      32.159  23.237  25.171  1.00  0.00     0.122 C 
ATOM     11  C   UNL A   1      32.084  22.200  26.317  1.00  0.00     0.132 C 
ATOM     12  C   UNL A   1      33.573  21.277  25.006  1.00  0.00     0.132 C 
ATOM     13  C   UNL A   1      33.305  22.071  27.227  1.00  0.00     0.035 C 
ATOM     14  O   UNL A   1      32.248  20.958  25.546  1.00  0.00    -0.373 OA
ATOM     15  C   UNL A   1      34.320  21.371  26.325  1.00  0.00     0.035 C 
BRANCH  10  16
ATOM     16  C   UNL A   1      32.377  24.702  25.533  1.00  0.00     0.229 C 
ATOM     17  C   UNL A   1      30.279  24.545  23.125  1.00  0.00     0.031 C 
ATOM     18  C   UNL A   1      31.131  25.767  23.462  1.00  0.00     0.082 C 
ATOM     19  C   UNL A   1      30.118  26.944  23.550  1.00  0.00     0.025 C 
ATOM     20  N   UNL A   1      32.028  25.750  24.662  1.00  0.00    -0.337 N 
ATOM     21  C   UNL A   1      30.711  28.292  23.930  1.00  0.00     0.004 C 
ATOM     22  C   UNL A   1      32.647  27.077  24.960  1.00  0.00     0.082 C 
ATOM     23  C   UNL A   1      31.574  28.147  25.173  1.00  0.00     0.025 C 
ATOM     24  C   UNL A   1      33.624  27.537  23.864  1.00  0.00     0.031 C 
ATOM     25  O   UNL A   1      32.905  24.952  26.623  1.00  0.00    -0.274 OA
ENDBRANCH  10  16
ENDBRANCH   6   9
ENDBRANCH   4   5
ENDBRANCH   3   4
ENDBRANCH   2   3
ENDBRANCH   1   2
BRANCH   1  26
ATOM     26  C   UNL A   1      38.237  19.869  24.874  1.00  0.00     0.021 C 
BRANCH  26  27
ATOM     27  C   UNL A   1      38.965  19.815  26.207  1.00  0.00     0.116 C 
BRANCH  27  28
ATOM     28  N   UNL A   1      40.175  19.012  26.126  1.00  0.00    -0.352 N 
ATOM     29  C   UNL A   1      41.482  19.434  26.120  1.00  0.00     0.251 C 
ATOM     30  H   UNL A   1      40.040  18.039  26.066  1.00  0.00     0.163 HD
ATOM     31  O   UNL A   1      42.380  18.661  25.823  1.00  0.00    -0.269 OA
BRANCH  29  32
ATOM     32  C   UNL A   1      41.766  20.843  26.456  1.00  0.00     0.039 A 
ATOM     33  C   UNL A   1      42.251  21.154  27.725  1.00  0.00     0.014 A 
ATOM     34  C   UNL A   1      41.601  21.841  25.490  1.00  0.00     0.014 A 
ATOM     35  C   UNL A   1      42.625  22.467  28.008  1.00  0.00     0.010 A 
ATOM     36  C   UNL A   1      42.064  23.125  25.743  1.00  0.00     0.010 A 
ATOM     37  C   UNL A   1      42.569  23.454  27.009  1.00  0.00    -0.014 A 
BRANCH  37  38
ATOM     38  C   UNL A   1      43.010  24.846  27.277  1.00  0.00     0.031 A 
ATOM     39  C   UNL A   1      42.066  25.812  27.939  1.00  0.00     0.074 A 
ATOM     40  C   UNL A   1      44.232  25.248  26.878  1.00  0.00     0.049 A 
ATOM     41  N   UNL A   1      42.232  27.082  28.203  1.00  0.00    -0.248 NA
ATOM     42  C   UNL A   1      40.747  25.287  28.326  1.00  0.00     0.031 C 
ATOM     43  C   UNL A   1      45.216  24.407  26.189  1.00  0.00     0.029 A 
ATOM     44  N   UNL A   1      44.858  26.463  26.989  1.00  0.00    -0.354 N 
ATOM     45  C   UNL A   1      41.040  27.508  28.777  1.00  0.00     0.074 A 
ATOM     46  C   UNL A   1      40.135  26.380  28.750  1.00  0.00     0.031 C 
ATOM     47  C   UNL A   1      46.331  25.122  25.975  1.00  0.00     0.029 A 
ATOM     48  C   UNL A   1      46.126  26.483  26.458  1.00  0.00     0.049 A 
ATOM     49  H   UNL A   1      44.438  27.248  27.410  1.00  0.00     0.167 HD
ATOM     50  C   UNL A   1      40.738  28.720  29.305  1.00  0.00     0.034 A 
ATOM     51  C   UNL A   1      47.019  27.490  26.364  1.00  0.00     0.034 A 
ATOM     52  C   UNL A   1      41.660  29.828  29.328  1.00  0.00     0.049 A 
ATOM     53  C   UNL A   1      46.645  28.840  26.920  1.00  0.00     0.074 A 
ATOM     54  C   UNL A   1      41.480  31.085  29.877  1.00  0.00     0.029 A 
ATOM     55  N   UNL A   1      42.931  29.818  28.768  1.00  0.00    -0.354 N 
ATOM     56  N   UNL A   1      45.531  29.215  27.507  1.00  0.00    -0.248 NA
ATOM     57  C   UNL A   1      47.653  29.902  26.809  1.00  0.00     0.031 C 
ATOM     58  C   UNL A   1      42.609  31.857  29.582  1.00  0.00     0.029 A 
ATOM     59  C   UNL A   1      43.532  31.057  28.927  1.00  0.00     0.049 A 
ATOM     60  H   UNL A   1      43.346  29.043  28.324  1.00  0.00     0.167 HD
ATOM     61  C   UNL A   1      45.720  30.546  27.865  1.00  0.00     0.074 A 
ATOM     62  C   UNL A   1      47.060  30.902  27.444  1.00  0.00     0.031 C 
ATOM     63  C   UNL A   1      44.866  31.399  28.490  1.00  0.00     0.034 A 
BRANCH  50  64
ATOM     64  C   UNL A   1      39.351  28.903  29.874  1.00  0.00     0.023 A 
ATOM     65  C   UNL A   1      38.316  29.492  29.125  1.00  0.00     0.031 A 
ATOM     66  C   UNL A   1      39.064  28.514  31.194  1.00  0.00     0.131 A 
ATOM     67  C   UNL A   1      37.074  29.751  29.725  1.00  0.00     0.055 A 
ATOM     68  C   UNL A   1      37.798  28.692  31.756  1.00  0.00     0.041 A 
ATOM     69  F   UNL A   1      40.015  27.970  31.969  1.00  0.00    -0.206 F 
ATOM     70  C   UNL A   1      36.799  29.329  31.026  1.00  0.00     0.022 A 
BRANCH  67  71
ATOM     71  S   UNL A   1      35.882  30.787  28.833  1.00  0.00     0.124 S 
ATOM     72  O   UNL A   1      35.190  31.454  29.935  1.00  0.00    -0.237 OA
ATOM     73  O   UNL A   1      36.746  31.632  28.017  1.00  0.00    -0.237 OA
ATOM     74  O   UNL A   1      35.073  29.820  28.094  1.00  0.00    -0.744 OA
ENDBRANCH  67  71
ENDBRANCH  50  64
BRANCH  51  75
ATOM     75  C   UNL A   1      48.343  27.270  25.714  1.00  0.00     0.023 A 
ATOM     76  C   UNL A   1      48.509  27.449  24.331  1.00  0.00     0.031 A 
ATOM     77  C   UNL A   1      49.454  26.833  26.457  1.00  0.00     0.131 A 
ATOM     78  C   UNL A   1      49.738  27.141  23.727  1.00  0.00     0.055 A 
ATOM     79  C   UNL A   1      50.692  26.586  25.861  1.00  0.00     0.041 A 
ATOM     80  F   UNL A   1      49.354  26.648  27.784  1.00  0.00    -0.206 F 
ATOM     81  C   UNL A   1      50.835  26.726  24.485  1.00  0.00     0.022 A 
BRANCH  78  82
ATOM     82  S   UNL A   1      49.853  27.197  21.917  1.00  0.00     0.124 S 
ATOM     83  O   UNL A   1      49.632  28.614  21.651  1.00  0.00    -0.237 OA
ATOM     84  O   UNL A   1      51.206  26.702  21.685  1.00  0.00    -0.237 OA
ATOM     85  O   UNL A   1      48.781  26.305  21.482  1.00  0.00    -0.744 OA
ENDBRANCH  78  82
ENDBRANCH  51  75
BRANCH  63  86
ATOM     86  C   UNL A   1      45.381  32.786  28.794  1.00  0.00     0.023 A 
ATOM     87  C   UNL A   1      45.207  33.855  27.899  1.00  0.00     0.031 A 
ATOM     88  C   UNL A   1      46.064  33.036  29.998  1.00  0.00     0.131 A 
ATOM     89  C   UNL A   1      45.763  35.109  28.192  1.00  0.00     0.055 A 
ATOM     90  C   UNL A   1      46.553  34.304  30.316  1.00  0.00     0.041 A 
ATOM     91  F   UNL A   1      46.263  32.052  30.890  1.00  0.00    -0.206 F 
ATOM     92  C   UNL A   1      46.417  35.346  29.404  1.00  0.00     0.022 A 
BRANCH  89  93
ATOM     93  S   UNL A   1      45.711  36.402  26.921  1.00  0.00     0.124 S 
ATOM     94  O   UNL A   1      46.229  35.700  25.752  1.00  0.00    -0.237 OA
ATOM     95  O   UNL A   1      44.293  36.746  26.882  1.00  0.00    -0.237 OA
ATOM     96  O   UNL A   1      46.585  37.445  27.458  1.00  0.00    -0.744 OA
ENDBRANCH  89  93
ENDBRANCH  63  86
ENDBRANCH  37  38
ENDBRANCH  29  32
ENDBRANCH  27  28
ENDBRANCH  26  27
ENDBRANCH   1  26
TORSDOF 17
ENDMDL
MODEL 2
REMARK VINA RESULT:     -11.3      6.102     11.368
REMARK SMILES C[C@H]1CCC[C@H](C)N1C(=O)[C@H]1[C@@H](C(=O)NCCCCCCNC(=O)c2ccc(-c3c4nc(c(-c5cc(S(=O)(=O)[O-])ccc5F)c5ccc([nH]5)c(-c5cc(S(=O)(=O)[O-])ccc5F)c5nc(c(-c6cc(S(=O)(=O)[O-])ccc6F)c6ccc3[nH]6)C=C5)C=C4)cc2)[C@H]2CC[C@@H]1O2
REMARK SMILES IDX 19 1 18 2 17 3 16 4 15 5 13 6 14 7 12 9 11 10 91 11 88 12
REMARK SMILES IDX 90 13 92 14 89 15 9 16 1 17 2 18 3 19 8 20 4 21 6 22 5 23
REMARK SMILES IDX 7 24 10 25 20 26 21 27 22 28 23 29 24 31 25 32 26 33 87 34
REMARK SMILES IDX 27 35 86 36 28 37 29 38 30 39 80 40 31 41 85 42 79 43 81 44
REMARK SMILES IDX 32 45 84 46 78 47 77 48 33 50 65 51 45 52 64 53 46 54 49 55
REMARK SMILES IDX 63 56 82 57 47 58 48 59 62 61 83 62 50 63 34 64 35 65 43 66
REMARK SMILES IDX 36 67 42 68 44 69 41 70 37 71 38 72 39 73 40 74 66 75 67 76
REMARK SMILES IDX 75 77 68 78 74 79 76 80 73 81 69 82 70 83 71 84 72 85 51 86
REMARK SMILES IDX 52 87 60 88 53 89 59 90 61 91 58 92 54 93 55 94 56 95 57 96
REMARK H PARENT 15 8 22 30 81 49 49 60
REMARK Flexibility Score: inf
ROOT
ATOM      1  C   UNL A   1      31.832  30.243  26.840  1.00  0.00     0.002 C 
ENDROOT
BRANCH   1   2
ATOM      2  C   UNL A   1      33.181  29.668  27.289  1.00  0.00     0.002 C 
BRANCH   2   3
ATOM      3  C   UNL A   1      33.417  28.197  26.911  1.00  0.00     0.021 C 
BRANCH   3   4
ATOM      4  C   UNL A   1      32.767  27.814  25.588  1.00  0.00     0.116 C 
BRANCH   4   5
ATOM      5  N   UNL A   1      31.764  26.795  25.821  1.00  0.00    -0.356 N 
ATOM      6  C   UNL A   1      31.124  25.909  25.043  1.00  0.00     0.226 C 
ATOM      7  O   UNL A   1      30.320  25.174  25.632  1.00  0.00    -0.275 OA
ATOM      8  H   UNL A   1      31.488  26.742  26.764  1.00  0.00     0.163 HD
BRANCH   6   9
ATOM      9  C   UNL A   1      31.348  25.702  23.565  1.00  0.00     0.122 C 
ATOM     10  C   UNL A   1      32.530  24.854  23.081  1.00  0.00     0.122 C 
ATOM     11  C   UNL A   1      32.945  25.660  21.826  1.00  0.00     0.132 C 
ATOM     12  C   UNL A   1      31.268  26.856  22.565  1.00  0.00     0.132 C 
ATOM     13  C   UNL A   1      33.579  27.031  22.052  1.00  0.00     0.035 C 
ATOM     14  O   UNL A   1      31.621  26.100  21.360  1.00  0.00    -0.373 OA
ATOM     15  C   UNL A   1      32.391  27.876  22.508  1.00  0.00     0.035 C 
BRANCH  10  16
ATOM     16  C   UNL A   1      33.609  24.485  24.093  1.00  0.00     0.229 C 
ATOM     17  C   UNL A   1      32.224  21.798  23.049  1.00  0.00     0.031 C 
ATOM     18  C   UNL A   1      32.974  21.936  24.372  1.00  0.00     0.082 C 
ATOM     19  C   UNL A   1      33.998  20.765  24.371  1.00  0.00     0.025 C 
ATOM     20  N   UNL A   1      33.648  23.228  24.723  1.00  0.00    -0.337 N 
ATOM     21  C   UNL A   1      34.923  20.703  25.577  1.00  0.00     0.004 C 
ATOM     22  C   UNL A   1      34.491  23.143  25.954  1.00  0.00     0.082 C 
ATOM     23  C   UNL A   1      35.563  22.061  25.811  1.00  0.00     0.025 C 
ATOM     24  C   UNL A   1      33.663  22.882  27.225  1.00  0.00     0.031 C 
ATOM     25  O   UNL A   1      34.452  25.345  24.374  1.00  0.00    -0.274 OA
ENDBRANCH  10  16
ENDBRANCH   6   9
ENDBRANCH   4   5
ENDBRANCH   3   4
ENDBRANCH   2   3
ENDBRANCH   1   2
BRANCH   1  26
ATOM     26  C   UNL A   1      31.797  31.762  26.712  1.00  0.00     0.021 C 
BRANCH  26  27
ATOM     27  C   UNL A   1      32.947  32.456  27.421  1.00  0.00     0.116 C 
BRANCH  27  28
ATOM     28  N   UNL A   1      32.666  33.866  27.646  1.00  0.00    -0.352 N 
ATOM     29  C   UNL A   1      33.169  34.692  28.622  1.00  0.00     0.251 C 
ATOM     30  H   UNL A   1      32.033  34.281  27.018  1.00  0.00     0.163 HD
ATOM     31  O   UNL A   1      32.671  35.790  28.819  1.00  0.00    -0.269 OA
BRANCH  29  32
ATOM     32  C   UNL A   1      34.301  34.209  29.436  1.00  0.00     0.039 A 
ATOM     33  C   UNL A   1      34.042  33.446  30.573  1.00  0.00     0.014 A 
ATOM     34  C   UNL A   1      35.616  34.471  29.036  1.00  0.00     0.014 A 
ATOM     35  C   UNL A   1      35.110  32.896  31.282  1.00  0.00     0.010 A 
ATOM     36  C   UNL A   1      36.669  33.843  29.685  1.00  0.00     0.010 A 
ATOM     37  C   UNL A   1      36.429  33.059  30.822  1.00  0.00    -0.014 A 
BRANCH  37  38
ATOM     38  C   UNL A   1      37.574  32.439  31.534  1.00  0.00     0.031 A 
ATOM     39  C   UNL A   1      38.318  31.299  30.895  1.00  0.00     0.074 A 
ATOM     40  C   UNL A   1      37.903  32.866  32.768  1.00  0.00     0.049 A 
ATOM     41  N   UNL A   1      39.300  30.581  31.374  1.00  0.00    -0.248 NA
ATOM     42  C   UNL A   1      37.877  30.892  29.552  1.00  0.00     0.031 C 
ATOM     43  C   UNL A   1      37.224  33.937  33.503  1.00  0.00     0.029 A 
ATOM     44  N   UNL A   1      38.890  32.453  33.627  1.00  0.00    -0.354 N 
ATOM     45  C   UNL A   1      39.587  29.634  30.397  1.00  0.00     0.074 A 
ATOM     46  C   UNL A   1      38.623  29.821  29.335  1.00  0.00     0.031 C 
ATOM     47  C   UNL A   1      37.838  34.120  34.682  1.00  0.00     0.029 A 
ATOM     48  C   UNL A   1      38.917  33.146  34.814  1.00  0.00     0.049 A 
ATOM     49  H   UNL A   1      39.520  31.727  33.413  1.00  0.00     0.167 HD
ATOM     50  C   UNL A   1      40.582  28.713  30.375  1.00  0.00     0.034 A 
ATOM     51  C   UNL A   1      39.716  33.005  35.891  1.00  0.00     0.034 A 
ATOM     52  C   UNL A   1      41.538  28.549  31.442  1.00  0.00     0.049 A 
ATOM     53  C   UNL A   1      40.788  31.946  35.861  1.00  0.00     0.074 A 
ATOM     54  C   UNL A   1      42.614  27.683  31.508  1.00  0.00     0.029 A 
ATOM     55  N   UNL A   1      41.526  29.259  32.636  1.00  0.00    -0.354 N 
ATOM     56  N   UNL A   1      41.081  31.090  34.908  1.00  0.00    -0.248 NA
ATOM     57  C   UNL A   1      41.644  31.838  37.049  1.00  0.00     0.031 C 
ATOM     58  C   UNL A   1      43.205  27.813  32.770  1.00  0.00     0.029 A 
ATOM     59  C   UNL A   1      42.554  28.824  33.458  1.00  0.00     0.049 A 
ATOM     60  H   UNL A   1      40.882  29.968  32.865  1.00  0.00     0.167 HD
ATOM     61  C   UNL A   1      42.177  30.368  35.369  1.00  0.00     0.074 A 
ATOM     62  C   UNL A   1      42.502  30.900  36.677  1.00  0.00     0.031 C 
ATOM     63  C   UNL A   1      42.857  29.358  34.767  1.00  0.00     0.034 A 
BRANCH  50  64
ATOM     64  C   UNL A   1      40.662  27.806  29.169  1.00  0.00     0.023 A 
ATOM     65  C   UNL A   1      41.610  28.012  28.150  1.00  0.00     0.031 A 
ATOM     66  C   UNL A   1      39.758  26.740  29.017  1.00  0.00     0.131 A 
ATOM     67  C   UNL A   1      41.578  27.221  26.992  1.00  0.00     0.055 A 
ATOM     68  C   UNL A   1      39.791  25.898  27.903  1.00  0.00     0.041 A 
ATOM     69  F   UNL A   1      38.814  26.506  29.942  1.00  0.00    -0.206 F 
ATOM     70  C   UNL A   1      40.694  26.147  26.874  1.00  0.00     0.022 A 
BRANCH  67  71
ATOM     71  S   UNL A   1      42.601  27.716  25.578  1.00  0.00     0.124 S 
ATOM     72  O   UNL A   1      41.856  28.865  25.064  1.00  0.00    -0.237 OA
ATOM     73  O   UNL A   1      43.883  28.016  26.205  1.00  0.00    -0.237 OA
ATOM     74  O   UNL A   1      42.587  26.538  24.715  1.00  0.00    -0.744 OA
ENDBRANCH  67  71
ENDBRANCH  50  64
BRANCH  51  75
ATOM     75  C   UNL A   1      39.534  33.875  37.089  1.00  0.00     0.023 A 
ATOM     76  C   UNL A   1      38.916  33.386  38.251  1.00  0.00     0.031 A 
ATOM     77  C   UNL A   1      39.933  35.223  37.076  1.00  0.00     0.131 A 
ATOM     78  C   UNL A   1      38.667  34.249  39.330  1.00  0.00     0.055 A 
ATOM     79  C   UNL A   1      39.737  36.063  38.174  1.00  0.00     0.041 A 
ATOM     80  F   UNL A   1      40.531  35.745  35.993  1.00  0.00    -0.206 F 
ATOM     81  C   UNL A   1      39.087  35.580  39.305  1.00  0.00     0.022 A 
BRANCH  78  82
ATOM     82  S   UNL A   1      37.693  33.630  40.730  1.00  0.00     0.124 S 
ATOM     83  O   UNL A   1      37.445  34.854  41.482  1.00  0.00    -0.237 OA
ATOM     84  O   UNL A   1      36.539  33.042  40.059  1.00  0.00    -0.237 OA
ATOM     85  O   UNL A   1      38.593  32.674  41.372  1.00  0.00    -0.744 OA
ENDBRANCH  78  82
ENDBRANCH  51  75
BRANCH  63  86
ATOM     86  C   UNL A   1      44.051  28.799  35.504  1.00  0.00     0.023 A 
ATOM     87  C   UNL A   1      43.933  27.721  36.398  1.00  0.00     0.031 A 
ATOM     88  C   UNL A   1      45.326  29.362  35.312  1.00  0.00     0.131 A 
ATOM     89  C   UNL A   1      45.057  27.280  37.113  1.00  0.00     0.055 A 
ATOM     90  C   UNL A   1      46.453  28.872  35.974  1.00  0.00     0.041 A 
ATOM     91  F   UNL A   1      45.498  30.396  34.473  1.00  0.00    -0.206 F 
ATOM     92  C   UNL A   1      46.320  27.835  36.891  1.00  0.00     0.022 A 
BRANCH  89  93
ATOM     93  S   UNL A   1      44.827  26.039  38.416  1.00  0.00     0.124 S 
ATOM     94  O   UNL A   1      46.202  25.649  38.709  1.00  0.00    -0.237 OA
ATOM     95  O   UNL A   1      44.144  26.800  39.457  1.00  0.00    -0.237 OA
ATOM     96  O   UNL A   1      44.014  25.010  37.768  1.00  0.00    -0.744 OA
ENDBRANCH  89  93
ENDBRANCH  63  86
ENDBRANCH  37  38
ENDBRANCH  29  32
ENDBRANCH  27  28
ENDBRANCH  26  27
ENDBRANCH   1  26
TORSDOF 17
ENDMDL
MODEL 3
REMARK VINA RESULT:     -11.3      4.916      8.350
REMARK SMILES C[C@H]1CCC[C@H](C)N1C(=O)[C@H]1[C@@H](C(=O)NCCCCCCNC(=O)c2ccc(-c3c4nc(c(-c5cc(S(=O)(=O)[O-])ccc5F)c5ccc([nH]5)c(-c5cc(S(=O)(=O)[O-])ccc5F)c5nc(c(-c6cc(S(=O)(=O)[O-])ccc6F)c6ccc3[nH]6)C=C5)C=C4)cc2)[C@H]2CC[C@@H]1O2
REMARK SMILES IDX 19 1 18 2 17 3 16 4 15 5 13 6 14 7 12 9 11 10 91 11 88 12
REMARK SMILES IDX 90 13 92 14 89 15 9 16 1 17 2 18 3 19 8 20 4 21 6 22 5 23
REMARK SMILES IDX 7 24 10 25 20 26 21 27 22 28 23 29 24 31 25 32 26 33 87 34
REMARK SMILES IDX 27 35 86 36 28 37 29 38 30 39 80 40 31 41 85 42 79 43 81 44
REMARK SMILES IDX 32 45 84 46 78 47 77 48 33 50 65 51 45 52 64 53 46 54 49 55
REMARK SMILES IDX 63 56 82 57 47 58 48 59 62 61 83 62 50 63 34 64 35 65 43 66
REMARK SMILES IDX 36 67 42 68 44 69 41 70 37 71 38 72 39 73 40 74 66 75 67 76
REMARK SMILES IDX 75 77 68 78 74 79 76 80 73 81 69 82 70 83 71 84 72 85 51 86
REMARK SMILES IDX 52 87 60 88 53 89 59 90 61 91 58 92 54 93 55 94 56 95 57 96
REMARK H PARENT 15 8 22 30 81 49 49 60
REMARK Flexibility Score: inf
ROOT
ATOM      1  C   UNL A   1      31.748  27.698  26.108  1.00  0.00     0.002 C 
ENDROOT
BRANCH   1   2
ATOM      2  C   UNL A   1      31.018  26.350  26.068  1.00  0.00     0.002 C 
BRANCH   2   3
ATOM      3  C   UNL A   1      31.213  25.546  24.772  1.00  0.00     0.021 C 
BRANCH   3   4
ATOM      4  C   UNL A   1      31.242  24.042  25.007  1.00  0.00     0.116 C 
BRANCH   4   5
ATOM      5  N   UNL A   1      31.726  23.376  23.816  1.00  0.00    -0.356 N 
ATOM      6  C   UNL A   1      32.881  22.787  23.470  1.00  0.00     0.226 C 
ATOM      7  O   UNL A   1      32.905  22.304  22.329  1.00  0.00    -0.275 OA
ATOM      8  H   UNL A   1      31.056  23.352  23.095  1.00  0.00     0.163 HD
BRANCH   6   9
ATOM      9  C   UNL A   1      34.088  22.613  24.357  1.00  0.00     0.122 C 
ATOM     10  C   UNL A   1      34.383  21.250  24.994  1.00  0.00     0.122 C 
ATOM     11  C   UNL A   1      34.905  21.705  26.378  1.00  0.00     0.132 C 
ATOM     12  C   UNL A   1      34.448  23.629  25.442  1.00  0.00     0.132 C 
ATOM     13  C   UNL A   1      33.891  22.320  27.342  1.00  0.00     0.035 C 
ATOM     14  O   UNL A   1      35.616  22.932  25.989  1.00  0.00    -0.373 OA
ATOM     15  C   UNL A   1      33.623  23.687  26.715  1.00  0.00     0.035 C 
BRANCH  10  16
ATOM     16  C   UNL A   1      33.291  20.186  24.946  1.00  0.00     0.229 C 
ATOM     17  C   UNL A   1      36.138  18.739  24.771  1.00  0.00     0.031 C 
ATOM     18  C   UNL A   1      34.822  18.139  24.280  1.00  0.00     0.082 C 
ATOM     19  C   UNL A   1      34.756  16.733  24.942  1.00  0.00     0.025 C 
ATOM     20  N   UNL A   1      33.536  18.881  24.482  1.00  0.00    -0.337 N 
ATOM     21  C   UNL A   1      33.497  15.932  24.652  1.00  0.00     0.004 C 
ATOM     22  C   UNL A   1      32.326  18.083  24.117  1.00  0.00     0.082 C 
ATOM     23  C   UNL A   1      32.266  16.781  24.920  1.00  0.00     0.025 C 
ATOM     24  C   UNL A   1      32.254  17.764  22.614  1.00  0.00     0.031 C 
ATOM     25  O   UNL A   1      32.154  20.513  25.306  1.00  0.00    -0.274 OA
ENDBRANCH  10  16
ENDBRANCH   6   9
ENDBRANCH   4   5
ENDBRANCH   3   4
ENDBRANCH   2   3
ENDBRANCH   1   2
BRANCH   1  26
ATOM     26  C   UNL A   1      33.145  27.650  26.717  1.00  0.00     0.021 C 
BRANCH  26  27
ATOM     27  C   UNL A   1      34.107  28.655  26.106  1.00  0.00     0.116 C 
BRANCH  27  28
ATOM     28  N   UNL A   1      33.745  30.022  26.450  1.00  0.00    -0.352 N 
ATOM     29  C   UNL A   1      34.298  30.837  27.407  1.00  0.00     0.251 C 
ATOM     30  H   UNL A   1      33.007  30.413  25.929  1.00  0.00     0.163 HD
ATOM     31  O   UNL A   1      33.742  31.876  27.730  1.00  0.00    -0.269 OA
BRANCH  29  32
ATOM     32  C   UNL A   1      35.558  30.412  28.048  1.00  0.00     0.039 A 
ATOM     33  C   UNL A   1      35.504  29.710  29.251  1.00  0.00     0.014 A 
ATOM     34  C   UNL A   1      36.783  30.666  27.424  1.00  0.00     0.014 A 
ATOM     35  C   UNL A   1      36.684  29.211  29.802  1.00  0.00     0.010 A 
ATOM     36  C   UNL A   1      37.941  30.086  27.923  1.00  0.00     0.010 A 
ATOM     37  C   UNL A   1      37.906  29.364  29.124  1.00  0.00    -0.014 A 
BRANCH  37  38
ATOM     38  C   UNL A   1      39.164  28.796  29.670  1.00  0.00     0.031 A 
ATOM     39  C   UNL A   1      39.793  29.414  30.888  1.00  0.00     0.074 A 
ATOM     40  C   UNL A   1      39.761  27.767  29.039  1.00  0.00     0.049 A 
ATOM     41  N   UNL A   1      40.918  29.112  31.482  1.00  0.00    -0.248 NA
ATOM     42  C   UNL A   1      39.077  30.544  31.500  1.00  0.00     0.031 C 
ATOM     43  C   UNL A   1      39.262  27.115  27.825  1.00  0.00     0.029 A 
ATOM     44  N   UNL A   1      40.917  27.087  29.326  1.00  0.00    -0.354 N 
ATOM     45  C   UNL A   1      41.048  30.017  32.529  1.00  0.00     0.074 A 
ATOM     46  C   UNL A   1      39.927  30.927  32.439  1.00  0.00     0.031 C 
ATOM     47  C   UNL A   1      40.086  26.108  27.496  1.00  0.00     0.029 A 
ATOM     48  C   UNL A   1      41.200  26.075  28.438  1.00  0.00     0.049 A 
ATOM     49  H   UNL A   1      41.491  27.303  30.097  1.00  0.00     0.167 HD
ATOM     50  C   UNL A   1      41.999  30.067  33.495  1.00  0.00     0.034 A 
ATOM     51  C   UNL A   1      42.244  25.224  28.386  1.00  0.00     0.034 A 
ATOM     52  C   UNL A   1      43.104  29.144  33.570  1.00  0.00     0.049 A 
ATOM     53  C   UNL A   1      43.312  25.326  29.445  1.00  0.00     0.074 A 
ATOM     54  C   UNL A   1      44.099  29.069  34.527  1.00  0.00     0.029 A 
ATOM     55  N   UNL A   1      43.367  28.141  32.645  1.00  0.00    -0.354 N 
ATOM     56  N   UNL A   1      43.395  26.155  30.461  1.00  0.00    -0.248 NA
ATOM     57  C   UNL A   1      44.423  24.369  29.358  1.00  0.00     0.031 C 
ATOM     58  C   UNL A   1      45.005  28.075  34.142  1.00  0.00     0.029 A 
ATOM     59  C   UNL A   1      44.528  27.467  32.991  1.00  0.00     0.049 A 
ATOM     60  H   UNL A   1      42.810  27.937  31.859  1.00  0.00     0.167 HD
ATOM     61  C   UNL A   1      44.549  25.797  31.151  1.00  0.00     0.074 A 
ATOM     62  C   UNL A   1      45.118  24.666  30.446  1.00  0.00     0.031 C 
ATOM     63  C   UNL A   1      45.089  26.348  32.269  1.00  0.00     0.034 A 
BRANCH  50  64
ATOM     64  C   UNL A   1      41.887  31.168  34.523  1.00  0.00     0.023 A 
ATOM     65  C   UNL A   1      40.844  31.198  35.465  1.00  0.00     0.031 A 
ATOM     66  C   UNL A   1      42.818  32.222  34.543  1.00  0.00     0.131 A 
ATOM     67  C   UNL A   1      40.708  32.296  36.328  1.00  0.00     0.055 A 
ATOM     68  C   UNL A   1      42.729  33.267  35.466  1.00  0.00     0.041 A 
ATOM     69  F   UNL A   1      43.823  32.264  33.654  1.00  0.00    -0.206 F 
ATOM     70  C   UNL A   1      41.659  33.316  36.354  1.00  0.00     0.022 A 
BRANCH  67  71
ATOM     71  S   UNL A   1      39.184  32.447  37.301  1.00  0.00     0.124 S 
ATOM     72  O   UNL A   1      39.715  32.701  38.640  1.00  0.00    -0.237 OA
ATOM     73  O   UNL A   1      38.509  33.568  36.659  1.00  0.00    -0.237 OA
ATOM     74  O   UNL A   1      38.539  31.147  37.132  1.00  0.00    -0.744 OA
ENDBRANCH  67  71
ENDBRANCH  50  64
BRANCH  51  75
ATOM     75  C   UNL A   1      42.343  24.212  27.295  1.00  0.00     0.023 A 
ATOM     76  C   UNL A   1      41.564  23.045  27.319  1.00  0.00     0.031 A 
ATOM     77  C   UNL A   1      43.253  24.372  26.235  1.00  0.00     0.131 A 
ATOM     78  C   UNL A   1      41.745  22.060  26.334  1.00  0.00     0.055 A 
ATOM     79  C   UNL A   1      43.387  23.418  25.225  1.00  0.00     0.041 A 
ATOM     80  F   UNL A   1      44.023  25.470  26.160  1.00  0.00    -0.206 F 
ATOM     81  C   UNL A   1      42.640  22.246  25.279  1.00  0.00     0.022 A 
BRANCH  78  82
ATOM     82  S   UNL A   1      40.862  20.485  26.510  1.00  0.00     0.124 S 
ATOM     83  O   UNL A   1      41.028  20.210  27.932  1.00  0.00    -0.237 OA
ATOM     84  O   UNL A   1      39.515  20.843  26.078  1.00  0.00    -0.237 OA
ATOM     85  O   UNL A   1      41.586  19.589  25.611  1.00  0.00    -0.744 OA
ENDBRANCH  78  82
ENDBRANCH  51  75
BRANCH  63  86
ATOM     86  C   UNL A   1      46.337  25.699  32.821  1.00  0.00     0.023 A 
ATOM     87  C   UNL A   1      47.610  25.972  32.292  1.00  0.00     0.031 A 
ATOM     88  C   UNL A   1      46.245  24.786  33.887  1.00  0.00     0.131 A 
ATOM     89  C   UNL A   1      48.733  25.292  32.790  1.00  0.00     0.055 A 
ATOM     90  C   UNL A   1      47.374  24.168  34.425  1.00  0.00     0.041 A 
ATOM     91  F   UNL A   1      45.053  24.485  34.429  1.00  0.00    -0.206 F 
ATOM     92  C   UNL A   1      48.625  24.408  33.866  1.00  0.00     0.022 A 
BRANCH  89  93
ATOM     93  S   UNL A   1      50.323  25.503  31.942  1.00  0.00     0.124 S 
ATOM     94  O   UNL A   1      50.703  24.122  31.665  1.00  0.00    -0.237 OA
ATOM     95  O   UNL A   1      49.954  26.308  30.782  1.00  0.00    -0.237 OA
ATOM     96  O   UNL A   1      51.150  26.188  32.934  1.00  0.00    -0.744 OA
ENDBRANCH  89  93
ENDBRANCH  63  86
ENDBRANCH  37  38
ENDBRANCH  29  32
ENDBRANCH  27  28
ENDBRANCH  26  27
ENDBRANCH   1  26
TORSDOF 17
ENDMDL
