MODEL 1
REMARK VINA RESULT:     -12.1      0.000      0.000
REMARK SMILES O=C(NCCCCCCNC(=O)[C@H](CO)NC(=O)[C@H](Cc1ccc(O)cc1)NC(=O)c1ccc(F)cc1)c1ccc(-c2c3nc(c(-c4cc(S(=O)(=O)[O-])ccc4F)c4ccc([nH]4)c(-c4cc(S(=O)(=O)[O-])ccc4F)c4nc(c(-c5cc(S(=O)(=O)[O-])ccc5F)c5ccc2[nH]5)C=C4)C=C3)cc1
REMARK SMILES IDX 7 1 6 2 5 3 4 4 3 5 1 6 2 7 38 9 39 10 100 11 40 12 99 13
REMARK SMILES IDX 41 14 42 15 43 16 93 17 44 18 98 19 92 20 94 21 45 22 97 23
REMARK SMILES IDX 91 24 90 25 46 27 78 28 58 29 77 30 59 31 62 32 76 33 95 34
REMARK SMILES IDX 60 35 61 36 75 38 96 39 63 40 47 41 48 42 56 43 49 44 55 45
REMARK SMILES IDX 57 46 54 47 50 48 51 49 52 50 53 51 79 52 80 53 88 54 81 55
REMARK SMILES IDX 87 56 89 57 86 58 82 59 83 60 84 61 85 62 64 63 65 64 73 65
REMARK SMILES IDX 66 66 72 67 74 68 71 69 67 70 68 71 69 72 70 73 8 74 9 75
REMARK SMILES IDX 10 76 11 77 12 79 13 80 16 81 17 82 18 84 19 85 28 86 29 87
REMARK SMILES IDX 30 89 31 90 32 91 37 92 33 93 36 94 34 95 35 96 20 97 21 98
REMARK SMILES IDX 22 99 27 100 23 101 26 102 24 103 25 104 14 106 15 107
REMARK H PARENT 3 8 94 26 62 37 10 78 16 83 28 88 25 105 15 108
REMARK Flexibility Score: inf
ROOT
ATOM      1  C   UNL A   1      31.681  29.457  25.352  1.00  0.00     0.002 C 
ENDROOT
BRANCH   1   2
ATOM      2  C   UNL A   1      31.936  30.059  26.739  1.00  0.00     0.002 C 
BRANCH   2   3
ATOM      3  C   UNL A   1      31.761  31.576  26.812  1.00  0.00     0.021 C 
BRANCH   3   4
ATOM      4  C   UNL A   1      33.009  32.313  27.264  1.00  0.00     0.116 C 
BRANCH   4   5
ATOM      5  N   UNL A   1      32.721  33.703  27.569  1.00  0.00    -0.352 N 
ATOM      6  O   UNL A   1      32.745  35.547  28.874  1.00  0.00    -0.269 OA
ATOM      7  C   UNL A   1      33.239  34.460  28.587  1.00  0.00     0.251 C 
ATOM      8  H   UNL A   1      32.079  34.155  26.976  1.00  0.00     0.163 HD
BRANCH   7   9
ATOM      9  C   UNL A   1      34.396  33.931  29.331  1.00  0.00     0.039 A 
ATOM     10  C   UNL A   1      34.189  33.091  30.431  1.00  0.00     0.014 A 
ATOM     11  C   UNL A   1      35.687  34.285  28.934  1.00  0.00     0.014 A 
ATOM     12  C   UNL A   1      35.271  32.677  31.191  1.00  0.00     0.010 A 
ATOM     13  C   UNL A   1      36.778  33.788  29.643  1.00  0.00     0.010 A 
ATOM     14  C   UNL A   1      36.576  32.975  30.769  1.00  0.00    -0.014 A 
BRANCH  14  15
ATOM     15  C   UNL A   1      37.713  32.283  31.415  1.00  0.00     0.031 A 
ATOM     16  C   UNL A   1      38.192  32.659  32.781  1.00  0.00     0.074 A 
ATOM     17  C   UNL A   1      38.308  31.292  30.723  1.00  0.00     0.049 A 
ATOM     18  N   UNL A   1      39.202  32.174  33.455  1.00  0.00    -0.248 NA
ATOM     19  C   UNL A   1      37.450  33.718  33.478  1.00  0.00     0.031 C 
ATOM     20  C   UNL A   1      37.899  30.837  29.390  1.00  0.00     0.029 A 
ATOM     21  N   UNL A   1      39.357  30.476  31.044  1.00  0.00    -0.354 N 
ATOM     22  C   UNL A   1      39.221  32.864  34.659  1.00  0.00     0.074 A 
ATOM     23  C   UNL A   1      38.143  33.831  34.603  1.00  0.00     0.031 C 
ATOM     24  C   UNL A   1      38.645  29.783  29.037  1.00  0.00     0.029 A 
ATOM     25  C   UNL A   1      39.642  29.547  30.073  1.00  0.00     0.049 A 
ATOM     26  H   UNL A   1      39.859  30.547  31.888  1.00  0.00     0.167 HD
ATOM     27  C   UNL A   1      40.061  32.694  35.712  1.00  0.00     0.034 A 
ATOM     28  C   UNL A   1      40.612  28.619  30.004  1.00  0.00     0.034 A 
ATOM     29  C   UNL A   1      41.146  31.740  35.725  1.00  0.00     0.049 A 
ATOM     30  C   UNL A   1      41.587  28.516  31.136  1.00  0.00     0.074 A 
ATOM     31  C   UNL A   1      42.072  31.501  36.726  1.00  0.00     0.029 A 
ATOM     32  N   UNL A   1      41.462  30.871  34.684  1.00  0.00    -0.354 N 
ATOM     33  N   UNL A   1      41.633  29.213  32.247  1.00  0.00    -0.248 NA
ATOM     34  C   UNL A   1      42.643  27.508  31.005  1.00  0.00     0.031 C 
ATOM     35  C   UNL A   1      42.981  30.542  36.267  1.00  0.00     0.029 A 
ATOM     36  C   UNL A   1      42.578  30.114  35.012  1.00  0.00     0.049 A 
ATOM     37  H   UNL A   1      40.964  30.803  33.837  1.00  0.00     0.167 HD
ATOM     38  C   UNL A   1      42.709  28.708  32.965  1.00  0.00     0.074 A 
ATOM     39  C   UNL A   1      43.286  27.650  32.156  1.00  0.00     0.031 C 
ATOM     40  C   UNL A   1      43.161  29.077  34.190  1.00  0.00     0.034 A 
BRANCH  27  41
ATOM     41  C   UNL A   1      39.859  33.591  36.909  1.00  0.00     0.023 A 
ATOM     42  C   UNL A   1      39.198  33.139  38.065  1.00  0.00     0.031 A 
ATOM     43  C   UNL A   1      40.321  34.919  36.893  1.00  0.00     0.131 A 
ATOM     44  C   UNL A   1      38.961  34.025  39.127  1.00  0.00     0.055 A 
ATOM     45  C   UNL A   1      40.150  35.773  37.984  1.00  0.00     0.041 A 
ATOM     46  F   UNL A   1      40.941  35.413  35.809  1.00  0.00    -0.206 F 
ATOM     47  C   UNL A   1      39.454  35.331  39.106  1.00  0.00     0.022 A 
BRANCH  44  48
ATOM     48  S   UNL A   1      37.888  33.482  40.487  1.00  0.00     0.124 S 
ATOM     49  O   UNL A   1      36.737  32.949  39.760  1.00  0.00    -0.237 OA
ATOM     50  O   UNL A   1      38.719  32.501  41.173  1.00  0.00    -0.237 OA
ATOM     51  O   UNL A   1      37.629  34.712  41.233  1.00  0.00    -0.744 OA
ENDBRANCH  44  48
ENDBRANCH  27  41
BRANCH  28  52
ATOM     52  C   UNL A   1      40.679  27.733  28.816  1.00  0.00     0.023 A 
ATOM     53  C   UNL A   1      41.636  27.952  27.816  1.00  0.00     0.031 A 
ATOM     54  C   UNL A   1      39.854  26.597  28.714  1.00  0.00     0.131 A 
ATOM     55  C   UNL A   1      41.749  27.046  26.753  1.00  0.00     0.055 A 
ATOM     56  C   UNL A   1      39.995  25.679  27.675  1.00  0.00     0.041 A 
ATOM     57  F   UNL A   1      38.943  26.334  29.665  1.00  0.00    -0.206 F 
ATOM     58  C   UNL A   1      40.947  25.903  26.684  1.00  0.00     0.022 A 
BRANCH  55  59
ATOM     59  S   UNL A   1      42.979  27.371  25.462  1.00  0.00     0.124 S 
ATOM     60  O   UNL A   1      43.163  26.043  24.887  1.00  0.00    -0.237 OA
ATOM     61  O   UNL A   1      42.290  28.345  24.621  1.00  0.00    -0.237 OA
ATOM     62  O   UNL A   1      44.122  27.895  26.206  1.00  0.00    -0.744 OA
ENDBRANCH  55  59
ENDBRANCH  28  52
BRANCH  40  63
ATOM     63  C   UNL A   1      44.315  28.292  34.758  1.00  0.00     0.023 A 
ATOM     64  C   UNL A   1      44.146  27.011  35.311  1.00  0.00     0.031 A 
ATOM     65  C   UNL A   1      45.612  28.837  34.734  1.00  0.00     0.131 A 
ATOM     66  C   UNL A   1      45.248  26.336  35.855  1.00  0.00     0.055 A 
ATOM     67  C   UNL A   1      46.713  28.137  35.224  1.00  0.00     0.041 A 
ATOM     68  F   UNL A   1      45.828  30.060  34.222  1.00  0.00    -0.206 F 
ATOM     69  C   UNL A   1      46.533  26.883  35.797  1.00  0.00     0.022 A 
BRANCH  66  70
ATOM     70  S   UNL A   1      44.974  24.756  36.702  1.00  0.00     0.124 S 
ATOM     71  O   UNL A   1      43.582  24.877  37.123  1.00  0.00    -0.237 OA
ATOM     72  O   UNL A   1      45.239  23.783  35.647  1.00  0.00    -0.237 OA
ATOM     73  O   UNL A   1      45.954  24.773  37.787  1.00  0.00    -0.744 OA
ENDBRANCH  66  70
ENDBRANCH  40  63
ENDBRANCH  14  15
ENDBRANCH   7   9
ENDBRANCH   4   5
ENDBRANCH   3   4
ENDBRANCH   2   3
ENDBRANCH   1   2
BRANCH   1  74
ATOM     74  C   UNL A   1      32.932  29.321  24.478  1.00  0.00     0.021 C 
BRANCH  74  75
ATOM     75  C   UNL A   1      33.526  27.921  24.499  1.00  0.00     0.116 C 
BRANCH  75  76
ATOM     76  N   UNL A   1      33.798  27.468  23.152  1.00  0.00    -0.354 N 
ATOM     77  C   UNL A   1      33.172  26.538  22.383  1.00  0.00     0.244 C 
ATOM     78  H   UNL A   1      34.564  27.908  22.718  1.00  0.00     0.163 HD
ATOM     79  O   UNL A   1      33.629  26.331  21.257  1.00  0.00    -0.273 OA
BRANCH  77  80
ATOM     80  C   UNL A   1      31.876  25.868  22.853  1.00  0.00     0.197 C 
BRANCH  80  81
ATOM     81  N   UNL A   1      31.913  25.473  24.267  1.00  0.00    -0.340 N 
ATOM     82  C   UNL A   1      32.421  24.396  24.918  1.00  0.00     0.243 C 
ATOM     83  H   UNL A   1      31.479  26.123  24.867  1.00  0.00     0.164 HD
ATOM     84  O   UNL A   1      32.143  24.336  26.120  1.00  0.00    -0.273 OA
BRANCH  82  85
ATOM     85  C   UNL A   1      33.128  23.219  24.200  1.00  0.00     0.176 C 
BRANCH  85  86
ATOM     86  N   UNL A   1      32.355  22.555  23.144  1.00  0.00    -0.340 N 
ATOM     87  C   UNL A   1      32.194  21.239  22.790  1.00  0.00     0.251 C 
ATOM     88  H   UNL A   1      31.851  23.179  22.575  1.00  0.00     0.164 HD
ATOM     89  O   UNL A   1      31.721  21.010  21.675  1.00  0.00    -0.269 OA
BRANCH  87  90
ATOM     90  C   UNL A   1      32.520  20.075  23.671  1.00  0.00     0.040 A 
ATOM     91  C   UNL A   1      32.738  20.164  25.049  1.00  0.00     0.017 A 
ATOM     92  C   UNL A   1      32.469  18.792  23.102  1.00  0.00     0.017 A 
ATOM     93  C   UNL A   1      32.904  19.026  25.842  1.00  0.00     0.040 A 
ATOM     94  C   UNL A   1      32.638  17.646  23.890  1.00  0.00     0.040 A 
ATOM     95  C   UNL A   1      32.852  17.776  25.256  1.00  0.00     0.123 A 
ATOM     96  F   UNL A   1      32.987  16.683  26.016  1.00  0.00    -0.207 F 
ENDBRANCH  87  90
ENDBRANCH  85  86
BRANCH  85  97
ATOM     97  C   UNL A   1      34.535  23.619  23.690  1.00  0.00     0.070 C 
BRANCH  97  98
ATOM     98  C   UNL A   1      35.793  23.211  24.434  1.00  0.00    -0.045 A 
ATOM     99  C   UNL A   1      36.272  21.904  24.218  1.00  0.00     0.007 A 
ATOM    100  C   UNL A   1      36.470  24.017  25.358  1.00  0.00     0.007 A 
ATOM    101  C   UNL A   1      37.390  21.417  24.899  1.00  0.00     0.046 A 
ATOM    102  C   UNL A   1      37.594  23.533  26.037  1.00  0.00     0.046 A 
ATOM    103  C   UNL A   1      38.043  22.240  25.806  1.00  0.00     0.115 A 
BRANCH 103 104
ATOM    104  O   UNL A   1      39.132  21.807  26.503  1.00  0.00    -0.508 OA
ATOM    105  H   UNL A   1      39.029  21.175  27.187  1.00  0.00     0.293 HD
ENDBRANCH 103 104
ENDBRANCH  97  98
ENDBRANCH  85  97
ENDBRANCH  82  85
ENDBRANCH  80  81
BRANCH  80 106
ATOM    106  C   UNL A   1      30.696  26.799  22.502  1.00  0.00     0.191 C 
BRANCH 106 107
ATOM    107  O   UNL A   1      31.124  27.961  21.798  1.00  0.00    -0.394 OA
ATOM    108  H   UNL A   1      31.305  27.731  20.873  1.00  0.00     0.210 HD
ENDBRANCH 106 107
ENDBRANCH  80 106
ENDBRANCH  77  80
ENDBRANCH  75  76
ENDBRANCH  74  75
ENDBRANCH   1  74
TORSDOF 25
ENDMDL
MODEL 2
REMARK VINA RESULT:     -11.7      1.666      2.028
REMARK SMILES O=C(NCCCCCCNC(=O)[C@H](CO)NC(=O)[C@H](Cc1ccc(O)cc1)NC(=O)c1ccc(F)cc1)c1ccc(-c2c3nc(c(-c4cc(S(=O)(=O)[O-])ccc4F)c4ccc([nH]4)c(-c4cc(S(=O)(=O)[O-])ccc4F)c4nc(c(-c5cc(S(=O)(=O)[O-])ccc5F)c5ccc2[nH]5)C=C4)C=C3)cc1
REMARK SMILES IDX 7 1 6 2 5 3 4 4 3 5 1 6 2 7 38 9 39 10 100 11 40 12 99 13
REMARK SMILES IDX 41 14 42 15 43 16 93 17 44 18 98 19 92 20 94 21 45 22 97 23
REMARK SMILES IDX 91 24 90 25 46 27 78 28 58 29 77 30 59 31 62 32 76 33 95 34
REMARK SMILES IDX 60 35 61 36 75 38 96 39 63 40 47 41 48 42 56 43 49 44 55 45
REMARK SMILES IDX 57 46 54 47 50 48 51 49 52 50 53 51 79 52 80 53 88 54 81 55
REMARK SMILES IDX 87 56 89 57 86 58 82 59 83 60 84 61 85 62 64 63 65 64 73 65
REMARK SMILES IDX 66 66 72 67 74 68 71 69 67 70 68 71 69 72 70 73 8 74 9 75
REMARK SMILES IDX 10 76 11 77 12 79 13 80 16 81 17 82 18 84 19 85 28 86 29 87
REMARK SMILES IDX 30 89 31 90 32 91 37 92 33 93 36 94 34 95 35 96 20 97 21 98
REMARK SMILES IDX 22 99 27 100 23 101 26 102 24 103 25 104 14 106 15 107
REMARK H PARENT 3 8 94 26 62 37 10 78 16 83 28 88 25 105 15 108
REMARK Flexibility Score: inf
ROOT
ATOM      1  C   UNL A   1      31.660  29.496  25.323  1.00  0.00     0.002 C 
ENDROOT
BRANCH   1   2
ATOM      2  C   UNL A   1      31.969  30.061  26.714  1.00  0.00     0.002 C 
BRANCH   2   3
ATOM      3  C   UNL A   1      31.816  31.577  26.831  1.00  0.00     0.021 C 
BRANCH   3   4
ATOM      4  C   UNL A   1      33.076  32.283  27.300  1.00  0.00     0.116 C 
BRANCH   4   5
ATOM      5  N   UNL A   1      32.813  33.672  27.630  1.00  0.00    -0.352 N 
ATOM      6  O   UNL A   1      32.857  35.489  28.972  1.00  0.00    -0.269 OA
ATOM      7  C   UNL A   1      33.332  34.398  28.669  1.00  0.00     0.251 C 
ATOM      8  H   UNL A   1      32.188  34.149  27.038  1.00  0.00     0.163 HD
BRANCH   7   9
ATOM      9  C   UNL A   1      34.469  33.830  29.417  1.00  0.00     0.039 A 
ATOM     10  C   UNL A   1      34.235  32.898  30.434  1.00  0.00     0.014 A 
ATOM     11  C   UNL A   1      35.767  34.242  29.107  1.00  0.00     0.014 A 
ATOM     12  C   UNL A   1      35.293  32.442  31.204  1.00  0.00     0.010 A 
ATOM     13  C   UNL A   1      36.839  33.708  29.820  1.00  0.00     0.010 A 
ATOM     14  C   UNL A   1      36.607  32.800  30.865  1.00  0.00    -0.014 A 
BRANCH  14  15
ATOM     15  C   UNL A   1      37.732  32.077  31.501  1.00  0.00     0.031 A 
ATOM     16  C   UNL A   1      38.194  32.400  32.886  1.00  0.00     0.074 A 
ATOM     17  C   UNL A   1      38.331  31.110  30.780  1.00  0.00     0.049 A 
ATOM     18  N   UNL A   1      39.191  31.884  33.555  1.00  0.00    -0.248 NA
ATOM     19  C   UNL A   1      37.446  33.436  33.611  1.00  0.00     0.031 C 
ATOM     20  C   UNL A   1      37.940  30.707  29.425  1.00  0.00     0.029 A 
ATOM     21  N   UNL A   1      39.373  30.277  31.085  1.00  0.00    -0.354 N 
ATOM     22  C   UNL A   1      39.197  32.529  34.785  1.00  0.00     0.074 A 
ATOM     23  C   UNL A   1      38.124  33.503  34.749  1.00  0.00     0.031 C 
ATOM     24  C   UNL A   1      38.685  29.663  29.044  1.00  0.00     0.029 A 
ATOM     25  C   UNL A   1      39.666  29.383  30.084  1.00  0.00     0.049 A 
ATOM     26  H   UNL A   1      39.863  30.313  31.938  1.00  0.00     0.167 HD
ATOM     27  C   UNL A   1      40.020  32.315  35.842  1.00  0.00     0.034 A 
ATOM     28  C   UNL A   1      40.633  28.453  29.995  1.00  0.00     0.034 A 
ATOM     29  C   UNL A   1      41.100  31.355  35.835  1.00  0.00     0.049 A 
ATOM     30  C   UNL A   1      41.591  28.303  31.135  1.00  0.00     0.074 A 
ATOM     31  C   UNL A   1      42.010  31.074  36.840  1.00  0.00     0.029 A 
ATOM     32  N   UNL A   1      41.426  30.524  34.767  1.00  0.00    -0.354 N 
ATOM     33  N   UNL A   1      41.624  28.958  32.272  1.00  0.00    -0.248 NA
ATOM     34  C   UNL A   1      42.644  27.295  30.982  1.00  0.00     0.031 C 
ATOM     35  C   UNL A   1      42.922  30.128  36.358  1.00  0.00     0.029 A 
ATOM     36  C   UNL A   1      42.534  29.749  35.082  1.00  0.00     0.049 A 
ATOM     37  H   UNL A   1      40.941  30.491  33.911  1.00  0.00     0.167 HD
ATOM     38  C   UNL A   1      42.687  28.420  32.986  1.00  0.00     0.074 A 
ATOM     39  C   UNL A   1      43.271  27.390  32.146  1.00  0.00     0.031 C 
ATOM     40  C   UNL A   1      43.124  28.741  34.231  1.00  0.00     0.034 A 
BRANCH  27  41
ATOM     41  C   UNL A   1      39.806  33.168  37.069  1.00  0.00     0.023 A 
ATOM     42  C   UNL A   1      40.668  34.232  37.387  1.00  0.00     0.031 A 
ATOM     43  C   UNL A   1      38.735  32.906  37.943  1.00  0.00     0.131 A 
ATOM     44  C   UNL A   1      40.483  34.953  38.576  1.00  0.00     0.055 A 
ATOM     45  C   UNL A   1      38.511  33.677  39.086  1.00  0.00     0.041 A 
ATOM     46  F   UNL A   1      37.892  31.889  37.705  1.00  0.00    -0.206 F 
ATOM     47  C   UNL A   1      39.396  34.700  39.415  1.00  0.00     0.022 A 
BRANCH  44  48
ATOM     48  S   UNL A   1      41.756  36.146  39.075  1.00  0.00     0.124 S 
ATOM     49  O   UNL A   1      42.981  35.382  38.850  1.00  0.00    -0.237 OA
ATOM     50  O   UNL A   1      41.522  37.259  38.163  1.00  0.00    -0.237 OA
ATOM     51  O   UNL A   1      41.445  36.414  40.478  1.00  0.00    -0.744 OA
ENDBRANCH  44  48
ENDBRANCH  27  41
BRANCH  28  52
ATOM     52  C   UNL A   1      40.712  27.611  28.775  1.00  0.00     0.023 A 
ATOM     53  C   UNL A   1      41.677  27.870  27.793  1.00  0.00     0.031 A 
ATOM     54  C   UNL A   1      39.892  26.478  28.625  1.00  0.00     0.131 A 
ATOM     55  C   UNL A   1      41.802  27.004  26.698  1.00  0.00     0.055 A 
ATOM     56  C   UNL A   1      40.044  25.599  27.553  1.00  0.00     0.041 A 
ATOM     57  F   UNL A   1      38.973  26.178  29.557  1.00  0.00    -0.206 F 
ATOM     58  C   UNL A   1      41.004  25.862  26.580  1.00  0.00     0.022 A 
BRANCH  55  59
ATOM     59  S   UNL A   1      43.042  27.379  25.430  1.00  0.00     0.124 S 
ATOM     60  O   UNL A   1      43.290  26.061  24.858  1.00  0.00    -0.237 OA
ATOM     61  O   UNL A   1      42.330  28.326  24.577  1.00  0.00    -0.237 OA
ATOM     62  O   UNL A   1      44.149  27.948  26.195  1.00  0.00    -0.744 OA
ENDBRANCH  55  59
ENDBRANCH  28  52
BRANCH  40  63
ATOM     63  C   UNL A   1      44.266  27.928  34.785  1.00  0.00     0.023 A 
ATOM     64  C   UNL A   1      45.606  28.325  34.634  1.00  0.00     0.031 A 
ATOM     65  C   UNL A   1      44.001  26.737  35.485  1.00  0.00     0.131 A 
ATOM     66  C   UNL A   1      46.633  27.515  35.142  1.00  0.00     0.055 A 
ATOM     67  C   UNL A   1      45.023  25.966  36.036  1.00  0.00     0.041 A 
ATOM     68  F   UNL A   1      42.739  26.309  35.651  1.00  0.00    -0.206 F 
ATOM     69  C   UNL A   1      46.349  26.349  35.858  1.00  0.00     0.022 A 
BRANCH  66  70
ATOM     70  S   UNL A   1      48.354  27.970  34.797  1.00  0.00     0.124 S 
ATOM     71  O   UNL A   1      48.236  28.641  33.507  1.00  0.00    -0.237 OA
ATOM     72  O   UNL A   1      48.688  28.824  35.933  1.00  0.00    -0.237 OA
ATOM     73  O   UNL A   1      49.049  26.684  34.766  1.00  0.00    -0.744 OA
ENDBRANCH  66  70
ENDBRANCH  40  63
ENDBRANCH  14  15
ENDBRANCH   7   9
ENDBRANCH   4   5
ENDBRANCH   3   4
ENDBRANCH   2   3
ENDBRANCH   1   2
BRANCH   1  74
ATOM     74  C   UNL A   1      32.888  29.299  24.429  1.00  0.00     0.021 C 
BRANCH  74  75
ATOM     75  C   UNL A   1      33.483  27.903  24.530  1.00  0.00     0.116 C 
BRANCH  75  76
ATOM     76  N   UNL A   1      33.776  27.383  23.211  1.00  0.00    -0.354 N 
ATOM     77  C   UNL A   1      33.175  26.401  22.489  1.00  0.00     0.244 C 
ATOM     78  H   UNL A   1      34.537  27.814  22.761  1.00  0.00     0.163 HD
ATOM     79  O   UNL A   1      33.646  26.142  21.380  1.00  0.00    -0.273 OA
BRANCH  77  80
ATOM     80  C   UNL A   1      31.887  25.732  22.984  1.00  0.00     0.197 C 
BRANCH  80  81
ATOM     81  N   UNL A   1      31.964  25.305  24.387  1.00  0.00    -0.340 N 
ATOM     82  C   UNL A   1      32.484  24.208  24.996  1.00  0.00     0.243 C 
ATOM     83  H   UNL A   1      31.554  25.944  25.014  1.00  0.00     0.164 HD
ATOM     84  O   UNL A   1      32.241  24.122  26.205  1.00  0.00    -0.273 OA
BRANCH  82  85
ATOM     85  C   UNL A   1      33.159  23.044  24.230  1.00  0.00     0.176 C 
BRANCH  85  86
ATOM     86  N   UNL A   1      32.388  22.474  23.120  1.00  0.00    -0.340 N 
ATOM     87  C   UNL A   1      32.155  21.187  22.705  1.00  0.00     0.251 C 
ATOM     88  H   UNL A   1      31.948  23.153  22.558  1.00  0.00     0.164 HD
ATOM     89  O   UNL A   1      31.713  21.033  21.565  1.00  0.00    -0.269 OA
BRANCH  87  90
ATOM     90  C   UNL A   1      32.369  19.970  23.549  1.00  0.00     0.040 A 
ATOM     91  C   UNL A   1      32.520  18.676  23.044  1.00  0.00     0.017 A 
ATOM     92  C   UNL A   1      32.567  20.160  24.927  1.00  0.00     0.017 A 
ATOM     93  C   UNL A   1      32.853  17.599  23.870  1.00  0.00     0.040 A 
ATOM     94  C   UNL A   1      32.897  19.084  25.762  1.00  0.00     0.040 A 
ATOM     95  C   UNL A   1      33.040  17.813  25.223  1.00  0.00     0.123 A 
ATOM     96  F   UNL A   1      33.381  16.788  26.013  1.00  0.00    -0.207 F 
ENDBRANCH  87  90
ENDBRANCH  85  86
BRANCH  85  97
ATOM     97  C   UNL A   1      34.595  23.410  23.778  1.00  0.00     0.070 C 
BRANCH  97  98
ATOM     98  C   UNL A   1      35.815  22.826  24.466  1.00  0.00    -0.045 A 
ATOM     99  C   UNL A   1      36.652  23.723  25.159  1.00  0.00     0.007 A 
ATOM    100  C   UNL A   1      36.195  21.479  24.411  1.00  0.00     0.007 A 
ATOM    101  C   UNL A   1      37.827  23.291  25.777  1.00  0.00     0.046 A 
ATOM    102  C   UNL A   1      37.369  21.044  25.034  1.00  0.00     0.046 A 
ATOM    103  C   UNL A   1      38.177  21.949  25.708  1.00  0.00     0.115 A 
BRANCH 103 104
ATOM    104  O   UNL A   1      39.320  21.482  26.286  1.00  0.00    -0.508 OA
ATOM    105  H   UNL A   1      40.153  21.800  26.000  1.00  0.00     0.293 HD
ENDBRANCH 103 104
ENDBRANCH  97  98
ENDBRANCH  85  97
ENDBRANCH  82  85
ENDBRANCH  80  81
BRANCH  80 106
ATOM    106  C   UNL A   1      30.707  26.683  22.692  1.00  0.00     0.191 C 
BRANCH 106 107
ATOM    107  O   UNL A   1      31.019  27.624  21.669  1.00  0.00    -0.394 OA
ATOM    108  H   UNL A   1      31.408  27.160  20.911  1.00  0.00     0.210 HD
ENDBRANCH 106 107
ENDBRANCH  80 106
ENDBRANCH  77  80
ENDBRANCH  75  76
ENDBRANCH  74  75
ENDBRANCH   1  74
TORSDOF 25
ENDMDL
MODEL 3
REMARK VINA RESULT:     -11.6      4.399      8.972
REMARK SMILES O=C(NCCCCCCNC(=O)[C@H](CO)NC(=O)[C@H](Cc1ccc(O)cc1)NC(=O)c1ccc(F)cc1)c1ccc(-c2c3nc(c(-c4cc(S(=O)(=O)[O-])ccc4F)c4ccc([nH]4)c(-c4cc(S(=O)(=O)[O-])ccc4F)c4nc(c(-c5cc(S(=O)(=O)[O-])ccc5F)c5ccc2[nH]5)C=C4)C=C3)cc1
REMARK SMILES IDX 7 1 6 2 5 3 4 4 3 5 1 6 2 7 38 9 39 10 100 11 40 12 99 13
REMARK SMILES IDX 41 14 42 15 43 16 93 17 44 18 98 19 92 20 94 21 45 22 97 23
REMARK SMILES IDX 91 24 90 25 46 27 78 28 58 29 77 30 59 31 62 32 76 33 95 34
REMARK SMILES IDX 60 35 61 36 75 38 96 39 63 40 47 41 48 42 56 43 49 44 55 45
REMARK SMILES IDX 57 46 54 47 50 48 51 49 52 50 53 51 79 52 80 53 88 54 81 55
REMARK SMILES IDX 87 56 89 57 86 58 82 59 83 60 84 61 85 62 64 63 65 64 73 65
REMARK SMILES IDX 66 66 72 67 74 68 71 69 67 70 68 71 69 72 70 73 8 74 9 75
REMARK SMILES IDX 10 76 11 77 12 79 13 80 16 81 17 82 18 84 19 85 28 86 29 87
REMARK SMILES IDX 30 89 31 90 32 91 37 92 33 93 36 94 34 95 35 96 20 97 21 98
REMARK SMILES IDX 22 99 27 100 23 101 26 102 24 103 25 104 14 106 15 107
REMARK H PARENT 3 8 94 26 62 37 10 78 16 83 28 88 25 105 15 108
REMARK Flexibility Score: inf
ROOT
ATOM      1  C   UNL A   1      34.596  25.121  23.191  1.00  0.00     0.002 C 
ENDROOT
BRANCH   1   2
ATOM      2  C   UNL A   1      34.832  24.219  24.408  1.00  0.00     0.002 C 
BRANCH   2   3
ATOM      3  C   UNL A   1      36.257  23.682  24.532  1.00  0.00     0.021 C 
BRANCH   3   4
ATOM      4  C   UNL A   1      36.752  23.591  25.965  1.00  0.00     0.116 C 
BRANCH   4   5
ATOM      5  N   UNL A   1      37.810  22.606  26.098  1.00  0.00    -0.352 N 
ATOM      6  O   UNL A   1      39.961  21.942  26.282  1.00  0.00    -0.269 OA
ATOM      7  C   UNL A   1      39.122  22.827  26.426  1.00  0.00     0.251 C 
ATOM      8  H   UNL A   1      37.556  21.669  25.933  1.00  0.00     0.163 HD
BRANCH   7   9
ATOM      9  C   UNL A   1      39.497  24.153  26.947  1.00  0.00     0.039 A 
ATOM     10  C   UNL A   1      39.294  24.450  28.299  1.00  0.00     0.014 A 
ATOM     11  C   UNL A   1      40.039  25.103  26.079  1.00  0.00     0.014 A 
ATOM     12  C   UNL A   1      39.551  25.728  28.767  1.00  0.00     0.010 A 
ATOM     13  C   UNL A   1      40.386  26.358  26.574  1.00  0.00     0.010 A 
ATOM     14  C   UNL A   1      40.152  26.674  27.921  1.00  0.00    -0.014 A 
BRANCH  14  15
ATOM     15  C   UNL A   1      40.688  27.922  28.509  1.00  0.00     0.031 A 
ATOM     16  C   UNL A   1      42.158  28.167  28.631  1.00  0.00     0.074 A 
ATOM     17  C   UNL A   1      39.797  28.837  28.936  1.00  0.00     0.049 A 
ATOM     18  N   UNL A   1      42.774  29.190  29.163  1.00  0.00    -0.248 NA
ATOM     19  C   UNL A   1      43.052  27.132  28.094  1.00  0.00     0.031 C 
ATOM     20  C   UNL A   1      38.340  28.699  28.841  1.00  0.00     0.029 A 
ATOM     21  N   UNL A   1      39.976  30.067  29.507  1.00  0.00    -0.354 N 
ATOM     22  C   UNL A   1      44.131  28.929  29.027  1.00  0.00     0.074 A 
ATOM     23  C   UNL A   1      44.244  27.629  28.397  1.00  0.00     0.031 C 
ATOM     24  C   UNL A   1      37.761  29.825  29.275  1.00  0.00     0.029 A 
ATOM     25  C   UNL A   1      38.798  30.725  29.763  1.00  0.00     0.049 A 
ATOM     26  H   UNL A   1      40.862  30.444  29.713  1.00  0.00     0.167 HD
ATOM     27  C   UNL A   1      45.178  29.712  29.391  1.00  0.00     0.034 A 
ATOM     28  C   UNL A   1      38.566  31.912  30.349  1.00  0.00     0.034 A 
ATOM     29  C   UNL A   1      45.032  30.991  30.046  1.00  0.00     0.049 A 
ATOM     30  C   UNL A   1      39.735  32.715  30.832  1.00  0.00     0.074 A 
ATOM     31  C   UNL A   1      46.023  31.855  30.481  1.00  0.00     0.029 A 
ATOM     32  N   UNL A   1      43.818  31.590  30.372  1.00  0.00    -0.354 N 
ATOM     33  N   UNL A   1      41.014  32.433  30.751  1.00  0.00    -0.248 NA
ATOM     34  C   UNL A   1      39.432  33.990  31.488  1.00  0.00     0.031 C 
ATOM     35  C   UNL A   1      45.413  32.938  31.125  1.00  0.00     0.029 A 
ATOM     36  C   UNL A   1      44.038  32.799  31.020  1.00  0.00     0.049 A 
ATOM     37  H   UNL A   1      42.932  31.212  30.171  1.00  0.00     0.167 HD
ATOM     38  C   UNL A   1      41.675  33.512  31.321  1.00  0.00     0.074 A 
ATOM     39  C   UNL A   1      40.650  34.447  31.747  1.00  0.00     0.031 C 
ATOM     40  C   UNL A   1      43.010  33.714  31.461  1.00  0.00     0.034 A 
BRANCH  27  41
ATOM     41  C   UNL A   1      46.565  29.178  29.127  1.00  0.00     0.023 A 
ATOM     42  C   UNL A   1      47.085  29.090  27.824  1.00  0.00     0.031 A 
ATOM     43  C   UNL A   1      47.375  28.738  30.189  1.00  0.00     0.131 A 
ATOM     44  C   UNL A   1      48.348  28.517  27.611  1.00  0.00     0.055 A 
ATOM     45  C   UNL A   1      48.662  28.239  29.977  1.00  0.00     0.041 A 
ATOM     46  F   UNL A   1      46.925  28.776  31.453  1.00  0.00    -0.206 F 
ATOM     47  C   UNL A   1      49.151  28.114  28.680  1.00  0.00     0.022 A 
BRANCH  44  48
ATOM     48  S   UNL A   1      48.876  28.190  25.905  1.00  0.00     0.124 S 
ATOM     49  O   UNL A   1      50.086  29.005  25.809  1.00  0.00    -0.237 OA
ATOM     50  O   UNL A   1      49.078  26.747  25.907  1.00  0.00    -0.237 OA
ATOM     51  O   UNL A   1      47.751  28.663  25.101  1.00  0.00    -0.744 OA
ENDBRANCH  44  48
ENDBRANCH  27  41
BRANCH  28  52
ATOM     52  C   UNL A   1      37.166  32.384  30.494  1.00  0.00     0.023 A 
ATOM     53  C   UNL A   1      36.541  33.088  29.456  1.00  0.00     0.031 A 
ATOM     54  C   UNL A   1      36.404  32.049  31.628  1.00  0.00     0.131 A 
ATOM     55  C   UNL A   1      35.188  33.436  29.571  1.00  0.00     0.055 A 
ATOM     56  C   UNL A   1      35.050  32.366  31.723  1.00  0.00     0.041 A 
ATOM     57  F   UNL A   1      36.957  31.351  32.634  1.00  0.00    -0.206 F 
ATOM     58  C   UNL A   1      34.435  33.066  30.688  1.00  0.00     0.022 A 
BRANCH  55  59
ATOM     59  S   UNL A   1      34.415  34.369  28.223  1.00  0.00     0.124 S 
ATOM     60  O   UNL A   1      35.349  34.137  27.128  1.00  0.00    -0.237 OA
ATOM     61  O   UNL A   1      33.114  33.718  28.107  1.00  0.00    -0.237 OA
ATOM     62  O   UNL A   1      34.377  35.737  28.734  1.00  0.00    -0.744 OA
ENDBRANCH  55  59
ENDBRANCH  28  52
BRANCH  40  63
ATOM     63  C   UNL A   1      43.444  35.029  32.058  1.00  0.00     0.023 A 
ATOM     64  C   UNL A   1      43.660  35.186  33.438  1.00  0.00     0.031 A 
ATOM     65  C   UNL A   1      43.652  36.141  31.223  1.00  0.00     0.131 A 
ATOM     66  C   UNL A   1      44.032  36.439  33.946  1.00  0.00     0.055 A 
ATOM     67  C   UNL A   1      44.077  37.369  31.727  1.00  0.00     0.041 A 
ATOM     68  F   UNL A   1      43.453  36.046  29.898  1.00  0.00    -0.206 F 
ATOM     69  C   UNL A   1      44.260  37.526  33.096  1.00  0.00     0.022 A 
BRANCH  66  70
ATOM     70  S   UNL A   1      44.151  36.654  35.742  1.00  0.00     0.124 S 
ATOM     71  O   UNL A   1      45.561  36.366  35.988  1.00  0.00    -0.237 OA
ATOM     72  O   UNL A   1      43.742  38.043  35.921  1.00  0.00    -0.237 OA
ATOM     73  O   UNL A   1      43.215  35.662  36.269  1.00  0.00    -0.744 OA
ENDBRANCH  66  70
ENDBRANCH  40  63
ENDBRANCH  14  15
ENDBRANCH   7   9
ENDBRANCH   4   5
ENDBRANCH   3   4
ENDBRANCH   2   3
ENDBRANCH   1   2
BRANCH   1  74
ATOM     74  C   UNL A   1      33.469  24.657  22.263  1.00  0.00     0.021 C 
BRANCH  74  75
ATOM     75  C   UNL A   1      32.870  25.787  21.440  1.00  0.00     0.116 C 
BRANCH  75  76
ATOM     76  N   UNL A   1      32.982  27.043  22.150  1.00  0.00    -0.354 N 
ATOM     77  C   UNL A   1      32.026  27.881  22.630  1.00  0.00     0.244 C 
ATOM     78  H   UNL A   1      33.906  27.340  22.315  1.00  0.00     0.163 HD
ATOM     79  O   UNL A   1      32.404  28.913  23.190  1.00  0.00    -0.273 OA
BRANCH  77  80
ATOM     80  C   UNL A   1      30.543  27.495  22.587  1.00  0.00     0.197 C 
BRANCH  80  81
ATOM     81  N   UNL A   1      30.321  26.050  22.727  1.00  0.00    -0.340 N 
ATOM     82  C   UNL A   1      30.301  25.213  23.795  1.00  0.00     0.243 C 
ATOM     83  H   UNL A   1      30.153  25.595  21.870  1.00  0.00     0.164 HD
ATOM     84  O   UNL A   1      30.214  24.013  23.513  1.00  0.00    -0.273 OA
BRANCH  82  85
ATOM     85  C   UNL A   1      30.563  25.676  25.249  1.00  0.00     0.176 C 
BRANCH  85  86
ATOM     86  N   UNL A   1      29.965  24.850  26.304  1.00  0.00    -0.340 N 
ATOM     87  C   UNL A   1      30.255  23.600  26.791  1.00  0.00     0.251 C 
ATOM     88  H   UNL A   1      29.200  25.278  26.751  1.00  0.00     0.164 HD
ATOM     89  O   UNL A   1      29.391  23.048  27.475  1.00  0.00    -0.269 OA
BRANCH  87  90
ATOM     90  C   UNL A   1      31.551  22.885  26.577  1.00  0.00     0.040 A 
ATOM     91  C   UNL A   1      32.606  22.871  27.494  1.00  0.00     0.017 A 
ATOM     92  C   UNL A   1      31.662  22.062  25.444  1.00  0.00     0.017 A 
ATOM     93  C   UNL A   1      33.738  22.075  27.301  1.00  0.00     0.040 A 
ATOM     94  C   UNL A   1      32.795  21.263  25.242  1.00  0.00     0.040 A 
ATOM     95  C   UNL A   1      33.822  21.276  26.176  1.00  0.00     0.123 A 
ATOM     96  F   UNL A   1      34.894  20.495  25.999  1.00  0.00    -0.207 F 
ENDBRANCH  87  90
ENDBRANCH  85  86
BRANCH  85  97
ATOM     97  C   UNL A   1      32.071  25.909  25.515  1.00  0.00     0.070 C 
BRANCH  97  98
ATOM     98  C   UNL A   1      32.572  27.175  26.186  1.00  0.00    -0.045 A 
ATOM     99  C   UNL A   1      31.601  28.059  26.696  1.00  0.00     0.007 A 
ATOM    100  C   UNL A   1      33.919  27.550  26.279  1.00  0.00     0.007 A 
ATOM    101  C   UNL A   1      31.960  29.275  27.281  1.00  0.00     0.046 A 
ATOM    102  C   UNL A   1      34.280  28.765  26.870  1.00  0.00     0.046 A 
ATOM    103  C   UNL A   1      33.302  29.618  27.362  1.00  0.00     0.115 A 
BRANCH 103 104
ATOM    104  O   UNL A   1      33.702  30.799  27.914  1.00  0.00    -0.508 OA
ATOM    105  H   UNL A   1      33.411  31.037  28.772  1.00  0.00     0.293 HD
ENDBRANCH 103 104
ENDBRANCH  97  98
ENDBRANCH  85  97
ENDBRANCH  82  85
ENDBRANCH  80  81
BRANCH  80 106
ATOM    106  C   UNL A   1      29.794  28.340  23.640  1.00  0.00     0.191 C 
BRANCH 106 107
ATOM    107  O   UNL A   1      29.784  29.724  23.305  1.00  0.00    -0.394 OA
ATOM    108  H   UNL A   1      29.405  29.841  22.420  1.00  0.00     0.210 HD
ENDBRANCH 106 107
ENDBRANCH  80 106
ENDBRANCH  77  80
ENDBRANCH  75  76
ENDBRANCH  74  75
ENDBRANCH   1  74
TORSDOF 25
ENDMDL
