MODEL 1
REMARK VINA RESULT:     -11.4      0.000      0.000
REMARK SMILES C[C@@H]1CCC[C@H](C)[N@H+]1Cc1cc2c(cc1Cl)C=C(C(=O)NCCCCCCNC(=O)c1ccc(-c3c4nc(c(-c5cc(S(=O)(=O)[O-])ccc5F)c5ccc([nH]5)c(-c5cc(S(=O)(=O)[O-])ccc5F)c5nc(c(-c6cc(S(=O)(=O)[O-])ccc6F)c6ccc3[nH]6)C=C5)C=C4)cc1)[C@@H](C(F)(F)F)O2
REMARK SMILES IDX 25 1 24 2 23 3 22 4 21 5 19 6 20 7 18 9 10 10 11 11 15 12
REMARK SMILES IDX 12 13 14 14 16 15 13 16 99 17 17 18 94 19 9 20 8 21 7 22
REMARK SMILES IDX 6 23 5 24 4 25 2 26 3 28 1 29 95 30 96 31 97 32 98 33 26 34
REMARK SMILES IDX 27 35 28 36 29 37 30 39 31 40 32 41 93 42 33 43 92 44 34 45
REMARK SMILES IDX 35 46 36 47 86 48 37 49 91 50 85 51 87 52 38 53 90 54 84 55
REMARK SMILES IDX 83 56 39 58 71 59 51 60 70 61 52 62 55 63 69 64 88 65 53 66
REMARK SMILES IDX 54 67 68 69 89 70 56 71 40 72 41 73 49 74 42 75 48 76 50 77
REMARK SMILES IDX 47 78 43 79 44 80 45 81 46 82 72 83 73 84 81 85 74 86 80 87
REMARK SMILES IDX 82 88 79 89 75 90 76 91 77 92 78 93 57 94 58 95 66 96 59 97
REMARK SMILES IDX 65 98 67 99 64 100 60 101 61 102 62 103 63 104
REMARK H PARENT 21 8 8 27 28 38 87 57 55 68
REMARK Flexibility Score: inf
ROOT
ATOM      1  C   UNL A   1      40.827  21.470  27.683  1.00  0.00     0.002 C 
ENDROOT
BRANCH   1   2
ATOM      2  C   UNL A   1      40.377  22.365  26.520  1.00  0.00     0.002 C 
BRANCH   2   3
ATOM      3  C   UNL A   1      39.364  23.447  26.895  1.00  0.00     0.021 C 
BRANCH   3   4
ATOM      4  C   UNL A   1      38.048  23.337  26.132  1.00  0.00     0.116 C 
BRANCH   4   5
ATOM      5  N   UNL A   1      37.743  21.956  25.801  1.00  0.00    -0.352 N 
ATOM      6  C   UNL A   1      36.672  21.262  25.352  1.00  0.00     0.251 C 
ATOM      7  O   UNL A   1      36.866  20.060  25.146  1.00  0.00    -0.270 OA
ATOM      8  H   UNL A   1      38.522  21.370  25.940  1.00  0.00     0.163 HD
BRANCH   6   9
ATOM      9  C   UNL A   1      35.320  21.840  25.112  1.00  0.00     0.067 C 
ATOM     10  C   UNL A   1      31.555  25.146  24.640  1.00  0.00     0.029 A 
ATOM     11  C   UNL A   1      31.942  23.993  23.941  1.00  0.00     0.058 A 
ATOM     12  C   UNL A   1      32.133  25.374  25.900  1.00  0.00     0.050 A 
ATOM     13  C   UNL A   1      33.023  23.239  24.378  1.00  0.00     0.128 A 
ATOM     14  C   UNL A   1      33.253  24.640  26.312  1.00  0.00     0.033 A 
ATOM     15  Cl  UNL A   1      31.547  26.583  26.987  1.00  0.00    -0.084 Cl
ATOM     16  C   UNL A   1      33.742  23.612  25.512  1.00  0.00     0.019 A 
ATOM     17  O   UNL A   1      33.397  22.198  23.584  1.00  0.00    -0.475 OA
ATOM     18  C   UNL A   1      35.030  22.978  25.769  1.00  0.00     0.025 C 
ATOM     19  C   UNL A   1      34.282  21.233  24.210  1.00  0.00     0.314 C 
BRANCH  10  20
ATOM     20  C   UNL A   1      30.655  26.136  23.930  1.00  0.00     0.301 C 
BRANCH  20  21
ATOM     21  N   UNL A   1      31.334  27.275  23.257  1.00  0.00    -0.327 N 
ATOM     22  C   UNL A   1      33.368  27.718  21.904  1.00  0.00     0.075 C 
ATOM     23  C   UNL A   1      32.807  27.226  23.249  1.00  0.00     0.181 C 
ATOM     24  C   UNL A   1      33.480  27.993  24.399  1.00  0.00     0.065 C 
ATOM     25  C   UNL A   1      32.916  29.392  24.605  1.00  0.00     0.012 C 
ATOM     26  C   UNL A   1      30.732  28.589  23.524  1.00  0.00     0.181 C 
ATOM     27  H   UNL A   1      31.125  27.125  22.271  1.00  0.00     0.348 HD
ATOM     28  C   UNL A   1      31.394  29.381  24.664  1.00  0.00     0.065 C 
ATOM     29  C   UNL A   1      30.653  29.435  22.246  1.00  0.00     0.075 C 
ENDBRANCH  20  21
ENDBRANCH  10  20
BRANCH  19  30
ATOM     30  C   UNL A   1      33.468  20.151  24.948  1.00  0.00     0.429 C 
ATOM     31  F   UNL A   1      32.184  20.138  24.522  1.00  0.00    -0.167 F 
ATOM     32  F   UNL A   1      33.961  18.907  24.732  1.00  0.00    -0.167 F 
ATOM     33  F   UNL A   1      33.454  20.333  26.289  1.00  0.00    -0.167 F 
ENDBRANCH  19  30
ENDBRANCH   6   9
ENDBRANCH   4   5
ENDBRANCH   3   4
ENDBRANCH   2   3
ENDBRANCH   1   2
BRANCH   1  34
ATOM     34  C   UNL A   1      41.164  20.027  27.302  1.00  0.00     0.021 C 
BRANCH  34  35
ATOM     35  C   UNL A   1      41.219  19.767  25.802  1.00  0.00     0.116 C 
BRANCH  35  36
ATOM     36  N   UNL A   1      42.508  19.237  25.387  1.00  0.00    -0.352 N 
ATOM     37  C   UNL A   1      43.696  19.893  25.176  1.00  0.00     0.251 C 
ATOM     38  H   UNL A   1      42.533  18.264  25.234  1.00  0.00     0.163 HD
ATOM     39  O   UNL A   1      44.626  19.308  24.626  1.00  0.00    -0.269 OA
BRANCH  37  40
ATOM     40  C   UNL A   1      43.834  21.306  25.585  1.00  0.00     0.039 A 
ATOM     41  C   UNL A   1      43.561  22.336  24.682  1.00  0.00     0.014 A 
ATOM     42  C   UNL A   1      44.260  21.604  26.882  1.00  0.00     0.014 A 
ATOM     43  C   UNL A   1      43.880  23.647  25.017  1.00  0.00     0.010 A 
ATOM     44  C   UNL A   1      44.486  22.934  27.247  1.00  0.00     0.010 A 
ATOM     45  C   UNL A   1      44.346  23.963  26.303  1.00  0.00    -0.014 A 
BRANCH  45  46
ATOM     46  C   UNL A   1      44.671  25.373  26.639  1.00  0.00     0.031 A 
ATOM     47  C   UNL A   1      43.628  26.285  27.228  1.00  0.00     0.074 A 
ATOM     48  C   UNL A   1      45.928  25.821  26.447  1.00  0.00     0.049 A 
ATOM     49  N   UNL A   1      43.743  27.535  27.594  1.00  0.00    -0.248 NA
ATOM     50  C   UNL A   1      42.280  25.727  27.426  1.00  0.00     0.031 C 
ATOM     51  C   UNL A   1      47.019  25.022  25.884  1.00  0.00     0.029 A 
ATOM     52  N   UNL A   1      46.509  27.035  26.714  1.00  0.00    -0.354 N 
ATOM     53  C   UNL A   1      42.486  27.919  28.051  1.00  0.00     0.074 A 
ATOM     54  C   UNL A   1      41.612  26.781  27.875  1.00  0.00     0.031 C 
ATOM     55  C   UNL A   1      48.144  25.748  25.896  1.00  0.00     0.029 A 
ATOM     56  C   UNL A   1      47.845  27.088  26.391  1.00  0.00     0.049 A 
ATOM     57  H   UNL A   1      46.015  27.795  27.099  1.00  0.00     0.167 HD
ATOM     58  C   UNL A   1      42.106  29.105  28.582  1.00  0.00     0.034 A 
ATOM     59  C   UNL A   1      48.731  28.104  26.466  1.00  0.00     0.034 A 
ATOM     60  C   UNL A   1      42.999  30.221  28.768  1.00  0.00     0.049 A 
ATOM     61  C   UNL A   1      48.274  29.424  27.028  1.00  0.00     0.074 A 
ATOM     62  C   UNL A   1      42.718  31.452  29.332  1.00  0.00     0.029 A 
ATOM     63  N   UNL A   1      44.338  30.249  28.401  1.00  0.00    -0.354 N 
ATOM     64  N   UNL A   1      47.096  29.751  27.505  1.00  0.00    -0.248 NA
ATOM     65  C   UNL A   1      49.259  30.513  27.069  1.00  0.00     0.031 C 
ATOM     66  C   UNL A   1      43.859  32.248  29.237  1.00  0.00     0.029 A 
ATOM     67  C   UNL A   1      44.884  31.487  28.697  1.00  0.00     0.049 A 
ATOM     68  H   UNL A   1      44.828  29.499  27.992  1.00  0.00     0.167 HD
ATOM     69  C   UNL A   1      47.204  31.075  27.923  1.00  0.00     0.074 A 
ATOM     70  C   UNL A   1      48.571  31.477  27.668  1.00  0.00     0.031 C 
ATOM     71  C   UNL A   1      46.254  31.881  28.459  1.00  0.00     0.034 A 
BRANCH  58  72
ATOM     72  C   UNL A   1      40.672  29.281  29.023  1.00  0.00     0.023 A 
ATOM     73  C   UNL A   1      40.348  29.238  30.393  1.00  0.00     0.031 A 
ATOM     74  C   UNL A   1      39.618  29.345  28.094  1.00  0.00     0.131 A 
ATOM     75  C   UNL A   1      39.006  29.211  30.792  1.00  0.00     0.055 A 
ATOM     76  C   UNL A   1      38.282  29.369  28.500  1.00  0.00     0.041 A 
ATOM     77  F   UNL A   1      39.871  29.386  26.776  1.00  0.00    -0.206 F 
ATOM     78  C   UNL A   1      37.971  29.286  29.853  1.00  0.00     0.022 A 
BRANCH  75  79
ATOM     79  S   UNL A   1      38.548  28.998  32.534  1.00  0.00     0.124 S 
ATOM     80  O   UNL A   1      37.090  28.913  32.453  1.00  0.00    -0.237 OA
ATOM     81  O   UNL A   1      39.226  27.752  32.877  1.00  0.00    -0.237 OA
ATOM     82  O   UNL A   1      39.063  30.198  33.183  1.00  0.00    -0.744 OA
ENDBRANCH  75  79
ENDBRANCH  58  72
BRANCH  59  83
ATOM     83  C   UNL A   1      50.140  27.868  26.033  1.00  0.00     0.023 A 
ATOM     84  C   UNL A   1      50.495  27.925  24.671  1.00  0.00     0.031 A 
ATOM     85  C   UNL A   1      51.120  27.461  26.952  1.00  0.00     0.131 A 
ATOM     86  C   UNL A   1      51.765  27.498  24.263  1.00  0.00     0.055 A 
ATOM     87  C   UNL A   1      52.412  27.116  26.548  1.00  0.00     0.041 A 
ATOM     88  F   UNL A   1      50.828  27.375  28.259  1.00  0.00    -0.206 F 
ATOM     89  C   UNL A   1      52.732  27.113  25.194  1.00  0.00     0.022 A 
BRANCH  86  90
ATOM     90  S   UNL A   1      52.148  27.283  22.502  1.00  0.00     0.124 S 
ATOM     91  O   UNL A   1      52.718  28.580  22.153  1.00  0.00    -0.237 OA
ATOM     92  O   UNL A   1      53.092  26.168  22.539  1.00  0.00    -0.237 OA
ATOM     93  O   UNL A   1      50.854  26.978  21.901  1.00  0.00    -0.744 OA
ENDBRANCH  86  90
ENDBRANCH  59  83
BRANCH  71  94
ATOM     94  C   UNL A   1      46.628  33.296  28.832  1.00  0.00     0.023 A 
ATOM     95  C   UNL A   1      46.529  34.323  27.872  1.00  0.00     0.031 A 
ATOM     96  C   UNL A   1      47.237  33.596  30.063  1.00  0.00     0.131 A 
ATOM     97  C   UNL A   1      47.080  35.583  28.138  1.00  0.00     0.055 A 
ATOM     98  C   UNL A   1      47.732  34.870  30.345  1.00  0.00     0.041 A 
ATOM     99  F   UNL A   1      47.367  32.651  31.006  1.00  0.00    -0.206 F 
ATOM    100  C   UNL A   1      47.672  35.866  29.373  1.00  0.00     0.022 A 
BRANCH  97 101
ATOM    101  S   UNL A   1      47.145  36.866  26.856  1.00  0.00     0.124 S 
ATOM    102  O   UNL A   1      47.866  36.184  25.783  1.00  0.00    -0.237 OA
ATOM    103  O   UNL A   1      45.729  37.111  26.596  1.00  0.00    -0.237 OA
ATOM    104  O   UNL A   1      47.867  37.963  27.490  1.00  0.00    -0.744 OA
ENDBRANCH  97 101
ENDBRANCH  71  94
ENDBRANCH  45  46
ENDBRANCH  37  40
ENDBRANCH  35  36
ENDBRANCH  34  35
ENDBRANCH   1  34
TORSDOF 19
ENDMDL
MODEL 2
REMARK VINA RESULT:     -11.1      0.673      7.433
REMARK SMILES C[C@@H]1CCC[C@H](C)[N@H+]1Cc1cc2c(cc1Cl)C=C(C(=O)NCCCCCCNC(=O)c1ccc(-c3c4nc(c(-c5cc(S(=O)(=O)[O-])ccc5F)c5ccc([nH]5)c(-c5cc(S(=O)(=O)[O-])ccc5F)c5nc(c(-c6cc(S(=O)(=O)[O-])ccc6F)c6ccc3[nH]6)C=C5)C=C4)cc1)[C@@H](C(F)(F)F)O2
REMARK SMILES IDX 25 1 24 2 23 3 22 4 21 5 19 6 20 7 18 9 10 10 11 11 15 12
REMARK SMILES IDX 12 13 14 14 16 15 13 16 99 17 17 18 94 19 9 20 8 21 7 22
REMARK SMILES IDX 6 23 5 24 4 25 2 26 3 28 1 29 95 30 96 31 97 32 98 33 26 34
REMARK SMILES IDX 27 35 28 36 29 37 30 39 31 40 32 41 93 42 33 43 92 44 34 45
REMARK SMILES IDX 35 46 36 47 86 48 37 49 91 50 85 51 87 52 38 53 90 54 84 55
REMARK SMILES IDX 83 56 39 58 71 59 51 60 70 61 52 62 55 63 69 64 88 65 53 66
REMARK SMILES IDX 54 67 68 69 89 70 56 71 40 72 41 73 49 74 42 75 48 76 50 77
REMARK SMILES IDX 47 78 43 79 44 80 45 81 46 82 72 83 73 84 81 85 74 86 80 87
REMARK SMILES IDX 82 88 79 89 75 90 76 91 77 92 78 93 57 94 58 95 66 96 59 97
REMARK SMILES IDX 65 98 67 99 64 100 60 101 61 102 62 103 63 104
REMARK H PARENT 21 8 8 27 28 38 87 57 55 68
REMARK Flexibility Score: inf
ROOT
ATOM      1  C   UNL A   1      40.530  22.535  27.748  1.00  0.00     0.002 C 
ENDROOT
BRANCH   1   2
ATOM      2  C   UNL A   1      39.815  23.169  26.547  1.00  0.00     0.002 C 
BRANCH   2   3
ATOM      3  C   UNL A   1      38.714  24.168  26.907  1.00  0.00     0.021 C 
BRANCH   3   4
ATOM      4  C   UNL A   1      37.411  23.933  26.150  1.00  0.00     0.116 C 
BRANCH   4   5
ATOM      5  N   UNL A   1      37.144  22.515  25.984  1.00  0.00    -0.352 N 
ATOM      6  C   UNL A   1      36.110  21.747  25.571  1.00  0.00     0.251 C 
ATOM      7  O   UNL A   1      36.332  20.533  25.533  1.00  0.00    -0.270 OA
ATOM      8  H   UNL A   1      37.921  21.968  26.240  1.00  0.00     0.163 HD
BRANCH   6   9
ATOM      9  C   UNL A   1      34.765  22.261  25.184  1.00  0.00     0.067 C 
ATOM     10  C   UNL A   1      30.779  25.288  24.668  1.00  0.00     0.029 A 
ATOM     11  C   UNL A   1      31.427  24.368  23.831  1.00  0.00     0.058 A 
ATOM     12  C   UNL A   1      31.079  25.252  26.041  1.00  0.00     0.050 A 
ATOM     13  C   UNL A   1      32.492  23.616  24.309  1.00  0.00     0.128 A 
ATOM     14  C   UNL A   1      32.184  24.528  26.507  1.00  0.00     0.033 A 
ATOM     15  Cl  UNL A   1      30.156  26.117  27.218  1.00  0.00    -0.084 Cl
ATOM     16  C   UNL A   1      32.935  23.761  25.622  1.00  0.00     0.019 A 
ATOM     17  O   UNL A   1      33.133  22.826  23.403  1.00  0.00    -0.475 OA
ATOM     18  C   UNL A   1      34.221  23.183  25.999  1.00  0.00     0.025 C 
ATOM     19  C   UNL A   1      33.996  21.810  23.975  1.00  0.00     0.314 C 
BRANCH  10  20
ATOM     20  C   UNL A   1      29.912  26.347  24.019  1.00  0.00     0.301 C 
BRANCH  20  21
ATOM     21  N   UNL A   1      30.561  27.659  23.763  1.00  0.00    -0.327 N 
ATOM     22  C   UNL A   1      30.670  29.390  21.986  1.00  0.00     0.075 C 
ATOM     23  C   UNL A   1      30.940  27.923  22.364  1.00  0.00     0.181 C 
ATOM     24  C   UNL A   1      32.393  27.561  22.014  1.00  0.00     0.065 C 
ATOM     25  C   UNL A   1      33.406  28.074  23.028  1.00  0.00     0.012 C 
ATOM     26  C   UNL A   1      31.535  28.069  24.785  1.00  0.00     0.181 C 
ATOM     27  H   UNL A   1      29.802  28.328  23.893  1.00  0.00     0.348 HD
ATOM     28  C   UNL A   1      32.998  27.727  24.454  1.00  0.00     0.065 C 
ATOM     29  C   UNL A   1      31.389  29.557  25.130  1.00  0.00     0.075 C 
ENDBRANCH  20  21
ENDBRANCH  10  20
BRANCH  19  30
ATOM     30  C   UNL A   1      33.198  20.524  24.271  1.00  0.00     0.429 C 
ATOM     31  F   UNL A   1      33.983  19.430  24.150  1.00  0.00    -0.167 F 
ATOM     32  F   UNL A   1      32.705  20.510  25.534  1.00  0.00    -0.167 F 
ATOM     33  F   UNL A   1      32.140  20.365  23.442  1.00  0.00    -0.167 F 
ENDBRANCH  19  30
ENDBRANCH   6   9
ENDBRANCH   4   5
ENDBRANCH   3   4
ENDBRANCH   2   3
ENDBRANCH   1   2
BRANCH   1  34
ATOM     34  C   UNL A   1      40.899  21.060  27.583  1.00  0.00     0.021 C 
BRANCH  34  35
ATOM     35  C   UNL A   1      40.636  20.496  26.192  1.00  0.00     0.116 C 
BRANCH  35  36
ATOM     36  N   UNL A   1      41.744  19.686  25.712  1.00  0.00    -0.352 N 
ATOM     37  C   UNL A   1      43.020  20.065  25.375  1.00  0.00     0.251 C 
ATOM     38  H   UNL A   1      41.552  18.725  25.614  1.00  0.00     0.163 HD
ATOM     39  O   UNL A   1      43.757  19.274  24.790  1.00  0.00    -0.269 OA
BRANCH  37  40
ATOM     40  C   UNL A   1      43.486  21.432  25.690  1.00  0.00     0.039 A 
ATOM     41  C   UNL A   1      44.212  21.682  26.857  1.00  0.00     0.014 A 
ATOM     42  C   UNL A   1      43.176  22.478  24.818  1.00  0.00     0.014 A 
ATOM     43  C   UNL A   1      44.474  22.993  27.237  1.00  0.00     0.010 A 
ATOM     44  C   UNL A   1      43.529  23.788  25.157  1.00  0.00     0.010 A 
ATOM     45  C   UNL A   1      44.136  24.063  26.392  1.00  0.00    -0.014 A 
BRANCH  45  46
ATOM     46  C   UNL A   1      44.435  25.455  26.816  1.00  0.00     0.031 A 
ATOM     47  C   UNL A   1      45.812  26.035  26.641  1.00  0.00     0.074 A 
ATOM     48  C   UNL A   1      43.444  26.212  27.328  1.00  0.00     0.049 A 
ATOM     49  N   UNL A   1      46.243  27.233  26.939  1.00  0.00    -0.248 NA
ATOM     50  C   UNL A   1      46.843  25.158  26.061  1.00  0.00     0.031 C 
ATOM     51  C   UNL A   1      42.070  25.752  27.541  1.00  0.00     0.029 A 
ATOM     52  N   UNL A   1      43.424  27.519  27.744  1.00  0.00    -0.354 N 
ATOM     53  C   UNL A   1      47.592  27.252  26.601  1.00  0.00     0.074 A 
ATOM     54  C   UNL A   1      47.920  25.931  26.113  1.00  0.00     0.031 C 
ATOM     55  C   UNL A   1      41.333  26.772  27.997  1.00  0.00     0.029 A 
ATOM     56  C   UNL A   1      42.190  27.938  28.186  1.00  0.00     0.049 A 
ATOM     57  H   UNL A   1      44.218  28.102  27.727  1.00  0.00     0.167 HD
ATOM     58  C   UNL A   1      48.467  28.283  26.675  1.00  0.00     0.034 A 
ATOM     59  C   UNL A   1      41.792  29.119  28.703  1.00  0.00     0.034 A 
ATOM     60  C   UNL A   1      48.115  29.599  27.145  1.00  0.00     0.049 A 
ATOM     61  C   UNL A   1      42.794  30.238  28.808  1.00  0.00     0.074 A 
ATOM     62  C   UNL A   1      48.922  30.720  27.222  1.00  0.00     0.029 A 
ATOM     63  N   UNL A   1      46.864  29.977  27.614  1.00  0.00    -0.354 N 
ATOM     64  N   UNL A   1      44.052  30.255  28.432  1.00  0.00    -0.248 NA
ATOM     65  C   UNL A   1      42.331  31.500  29.400  1.00  0.00     0.031 C 
ATOM     66  C   UNL A   1      48.185  31.749  27.807  1.00  0.00     0.029 A 
ATOM     67  C   UNL A   1      46.889  31.304  28.012  1.00  0.00     0.049 A 
ATOM     68  H   UNL A   1      46.075  29.389  27.656  1.00  0.00     0.167 HD
ATOM     69  C   UNL A   1      44.523  31.532  28.721  1.00  0.00     0.074 A 
ATOM     70  C   UNL A   1      43.407  32.268  29.277  1.00  0.00     0.031 C 
ATOM     71  C   UNL A   1      45.768  32.042  28.549  1.00  0.00     0.034 A 
BRANCH  58  72
ATOM     72  C   UNL A   1      49.895  28.062  26.231  1.00  0.00     0.023 A 
ATOM     73  C   UNL A   1      50.211  28.059  24.859  1.00  0.00     0.031 A 
ATOM     74  C   UNL A   1      50.905  27.712  27.145  1.00  0.00     0.131 A 
ATOM     75  C   UNL A   1      51.489  27.669  24.438  1.00  0.00     0.055 A 
ATOM     76  C   UNL A   1      52.192  27.373  26.723  1.00  0.00     0.041 A 
ATOM     77  F   UNL A   1      50.656  27.696  28.465  1.00  0.00    -0.206 F 
ATOM     78  C   UNL A   1      52.484  27.335  25.363  1.00  0.00     0.022 A 
BRANCH  75  79
ATOM     79  S   UNL A   1      51.887  27.502  22.676  1.00  0.00     0.124 S 
ATOM     80  O   UNL A   1      52.189  28.884  22.305  1.00  0.00    -0.237 OA
ATOM     81  O   UNL A   1      53.035  26.601  22.708  1.00  0.00    -0.237 OA
ATOM     82  O   UNL A   1      50.670  26.955  22.091  1.00  0.00    -0.744 OA
ENDBRANCH  75  79
ENDBRANCH  58  72
BRANCH  59  83
ATOM     83  C   UNL A   1      40.365  29.287  29.109  1.00  0.00     0.023 A 
ATOM     84  C   UNL A   1      39.990  29.232  30.465  1.00  0.00     0.031 A 
ATOM     85  C   UNL A   1      39.347  29.378  28.147  1.00  0.00     0.131 A 
ATOM     86  C   UNL A   1      38.634  29.181  30.811  1.00  0.00     0.055 A 
ATOM     87  C   UNL A   1      37.997  29.411  28.503  1.00  0.00     0.041 A 
ATOM     88  F   UNL A   1      39.652  29.419  26.840  1.00  0.00    -0.206 F 
ATOM     89  C   UNL A   1      37.635  29.290  29.841  1.00  0.00     0.022 A 
BRANCH  86  90
ATOM     90  S   UNL A   1      38.126  28.815  32.515  1.00  0.00     0.124 S 
ATOM     91  O   UNL A   1      39.008  29.683  33.289  1.00  0.00    -0.237 OA
ATOM     92  O   UNL A   1      36.718  29.204  32.494  1.00  0.00    -0.237 OA
ATOM     93  O   UNL A   1      38.371  27.383  32.648  1.00  0.00    -0.744 OA
ENDBRANCH  86  90
ENDBRANCH  59  83
BRANCH  71  94
ATOM     94  C   UNL A   1      46.029  33.475  28.948  1.00  0.00     0.023 A 
ATOM     95  C   UNL A   1      45.889  34.505  27.997  1.00  0.00     0.031 A 
ATOM     96  C   UNL A   1      46.575  33.800  30.202  1.00  0.00     0.131 A 
ATOM     97  C   UNL A   1      46.341  35.797  28.294  1.00  0.00     0.055 A 
ATOM     98  C   UNL A   1      46.971  35.103  30.514  1.00  0.00     0.041 A 
ATOM     99  F   UNL A   1      46.742  32.855  31.139  1.00  0.00    -0.206 F 
ATOM    100  C   UNL A   1      46.871  36.104  29.550  1.00  0.00     0.022 A 
BRANCH  97 101
ATOM    101  S   UNL A   1      46.356  37.097  27.028  1.00  0.00     0.124 S 
ATOM    102  O   UNL A   1      47.352  38.024  27.560  1.00  0.00    -0.237 OA
ATOM    103  O   UNL A   1      46.765  36.360  25.836  1.00  0.00    -0.237 OA
ATOM    104  O   UNL A   1      44.985  37.597  27.019  1.00  0.00    -0.744 OA
ENDBRANCH  97 101
ENDBRANCH  71  94
ENDBRANCH  45  46
ENDBRANCH  37  40
ENDBRANCH  35  36
ENDBRANCH  34  35
ENDBRANCH   1  34
TORSDOF 19
ENDMDL
MODEL 3
REMARK VINA RESULT:     -10.8      5.549     11.962
REMARK SMILES C[C@@H]1CCC[C@H](C)[N@H+]1Cc1cc2c(cc1Cl)C=C(C(=O)NCCCCCCNC(=O)c1ccc(-c3c4nc(c(-c5cc(S(=O)(=O)[O-])ccc5F)c5ccc([nH]5)c(-c5cc(S(=O)(=O)[O-])ccc5F)c5nc(c(-c6cc(S(=O)(=O)[O-])ccc6F)c6ccc3[nH]6)C=C5)C=C4)cc1)[C@@H](C(F)(F)F)O2
REMARK SMILES IDX 25 1 24 2 23 3 22 4 21 5 19 6 20 7 18 9 10 10 11 11 15 12
REMARK SMILES IDX 12 13 14 14 16 15 13 16 99 17 17 18 94 19 9 20 8 21 7 22
REMARK SMILES IDX 6 23 5 24 4 25 2 26 3 28 1 29 95 30 96 31 97 32 98 33 26 34
REMARK SMILES IDX 27 35 28 36 29 37 30 39 31 40 32 41 93 42 33 43 92 44 34 45
REMARK SMILES IDX 35 46 36 47 86 48 37 49 91 50 85 51 87 52 38 53 90 54 84 55
REMARK SMILES IDX 83 56 39 58 71 59 51 60 70 61 52 62 55 63 69 64 88 65 53 66
REMARK SMILES IDX 54 67 68 69 89 70 56 71 40 72 41 73 49 74 42 75 48 76 50 77
REMARK SMILES IDX 47 78 43 79 44 80 45 81 46 82 72 83 73 84 81 85 74 86 80 87
REMARK SMILES IDX 82 88 79 89 75 90 76 91 77 92 78 93 57 94 58 95 66 96 59 97
REMARK SMILES IDX 65 98 67 99 64 100 60 101 61 102 62 103 63 104
REMARK H PARENT 21 8 8 27 28 38 87 57 55 68
REMARK Flexibility Score: inf
ROOT
ATOM      1  C   UNL A   1      35.157  33.580  30.240  1.00  0.00     0.002 C 
ENDROOT
BRANCH   1   2
ATOM      2  C   UNL A   1      34.597  34.107  31.568  1.00  0.00     0.002 C 
BRANCH   2   3
ATOM      3  C   UNL A   1      34.458  33.056  32.670  1.00  0.00     0.021 C 
BRANCH   3   4
ATOM      4  C   UNL A   1      35.043  33.498  34.008  1.00  0.00     0.116 C 
BRANCH   4   5
ATOM      5  N   UNL A   1      36.157  34.411  33.821  1.00  0.00    -0.352 N 
ATOM      6  C   UNL A   1      37.507  34.329  33.799  1.00  0.00     0.251 C 
ATOM      7  O   UNL A   1      38.100  35.382  33.545  1.00  0.00    -0.270 OA
ATOM      8  H   UNL A   1      35.849  35.334  33.670  1.00  0.00     0.163 HD
BRANCH   6   9
ATOM      9  C   UNL A   1      38.293  33.091  34.066  1.00  0.00     0.067 C 
ATOM     10  C   UNL A   1      40.624  28.681  33.402  1.00  0.00     0.029 A 
ATOM     11  C   UNL A   1      40.918  29.847  34.123  1.00  0.00     0.058 A 
ATOM     12  C   UNL A   1      39.311  28.515  32.927  1.00  0.00     0.050 A 
ATOM     13  C   UNL A   1      40.007  30.895  34.160  1.00  0.00     0.128 A 
ATOM     14  C   UNL A   1      38.416  29.592  32.925  1.00  0.00     0.033 A 
ATOM     15  Cl  UNL A   1      38.737  27.019  32.282  1.00  0.00    -0.084 Cl
ATOM     16  C   UNL A   1      38.792  30.810  33.484  1.00  0.00     0.019 A 
ATOM     17  O   UNL A   1      40.415  32.030  34.793  1.00  0.00    -0.475 OA
ATOM     18  C   UNL A   1      38.002  32.022  33.301  1.00  0.00     0.025 C 
ATOM     19  C   UNL A   1      39.355  32.965  35.120  1.00  0.00     0.314 C 
BRANCH  10  20
ATOM     20  C   UNL A   1      41.770  27.751  33.060  1.00  0.00     0.301 C 
BRANCH  20  21
ATOM     21  N   UNL A   1      42.790  27.549  34.123  1.00  0.00    -0.327 N 
ATOM     22  C   UNL A   1      45.149  28.154  34.606  1.00  0.00     0.075 C 
ATOM     23  C   UNL A   1      44.182  27.424  33.658  1.00  0.00     0.181 C 
ATOM     24  C   UNL A   1      44.660  25.977  33.449  1.00  0.00     0.065 C 
ATOM     25  C   UNL A   1      44.318  25.053  34.610  1.00  0.00     0.012 C 
ATOM     26  C   UNL A   1      42.381  26.631  35.195  1.00  0.00     0.181 C 
ATOM     27  H   UNL A   1      42.819  28.452  34.596  1.00  0.00     0.348 HD
ATOM     28  C   UNL A   1      42.856  25.179  35.016  1.00  0.00     0.065 C 
ATOM     29  C   UNL A   1      42.785  27.169  36.574  1.00  0.00     0.075 C 
ENDBRANCH  20  21
ENDBRANCH  10  20
BRANCH  19  30
ATOM     30  C   UNL A   1      38.739  32.629  36.493  1.00  0.00     0.429 C 
ATOM     31  F   UNL A   1      39.637  31.999  37.285  1.00  0.00    -0.167 F 
ATOM     32  F   UNL A   1      38.346  33.741  37.162  1.00  0.00    -0.167 F 
ATOM     33  F   UNL A   1      37.649  31.833  36.395  1.00  0.00    -0.167 F 
ENDBRANCH  19  30
ENDBRANCH   6   9
ENDBRANCH   4   5
ENDBRANCH   3   4
ENDBRANCH   2   3
ENDBRANCH   1   2
BRANCH   1  34
ATOM     34  C   UNL A   1      34.474  32.324  29.697  1.00  0.00     0.021 C 
BRANCH  34  35
ATOM     35  C   UNL A   1      34.603  32.138  28.190  1.00  0.00     0.116 C 
BRANCH  35  36
ATOM     36  N   UNL A   1      34.186  30.811  27.766  1.00  0.00    -0.352 N 
ATOM     37  C   UNL A   1      34.934  29.672  27.599  1.00  0.00     0.251 C 
ATOM     38  H   UNL A   1      33.225  30.715  27.569  1.00  0.00     0.163 HD
ATOM     39  O   UNL A   1      34.443  28.698  27.034  1.00  0.00    -0.269 OA
BRANCH  37  40
ATOM     40  C   UNL A   1      36.333  29.638  28.074  1.00  0.00     0.039 A 
ATOM     41  C   UNL A   1      37.386  29.915  27.199  1.00  0.00     0.014 A 
ATOM     42  C   UNL A   1      36.595  29.308  29.406  1.00  0.00     0.014 A 
ATOM     43  C   UNL A   1      38.695  29.691  27.607  1.00  0.00     0.010 A 
ATOM     44  C   UNL A   1      37.917  29.180  29.839  1.00  0.00     0.010 A 
ATOM     45  C   UNL A   1      38.978  29.321  28.931  1.00  0.00    -0.014 A 
BRANCH  45  46
ATOM     46  C   UNL A   1      40.388  29.097  29.345  1.00  0.00     0.031 A 
ATOM     47  C   UNL A   1      41.092  27.808  29.017  1.00  0.00     0.074 A 
ATOM     48  C   UNL A   1      41.047  30.081  29.988  1.00  0.00     0.049 A 
ATOM     49  N   UNL A   1      42.321  27.452  29.286  1.00  0.00    -0.248 NA
ATOM     50  C   UNL A   1      40.318  26.781  28.299  1.00  0.00     0.031 C 
ATOM     51  C   UNL A   1      40.463  31.372  30.355  1.00  0.00     0.029 A 
ATOM     52  N   UNL A   1      42.344  30.166  30.429  1.00  0.00    -0.354 N 
ATOM     53  C   UNL A   1      42.465  26.160  28.788  1.00  0.00     0.074 A 
ATOM     54  C   UNL A   1      41.184  25.779  28.238  1.00  0.00     0.031 C 
ATOM     55  C   UNL A   1      41.408  32.137  30.917  1.00  0.00     0.029 A 
ATOM     56  C   UNL A   1      42.645  31.369  31.025  1.00  0.00     0.049 A 
ATOM     57  H   UNL A   1      42.996  29.434  30.329  1.00  0.00     0.167 HD
ATOM     58  C   UNL A   1      43.570  25.377  28.777  1.00  0.00     0.034 A 
ATOM     59  C   UNL A   1      43.781  31.804  31.610  1.00  0.00     0.034 A 
ATOM     60  C   UNL A   1      44.844  25.785  29.313  1.00  0.00     0.049 A 
ATOM     61  C   UNL A   1      44.985  30.900  31.616  1.00  0.00     0.074 A 
ATOM     62  C   UNL A   1      46.033  25.077  29.316  1.00  0.00     0.029 A 
ATOM     63  N   UNL A   1      45.103  26.999  29.936  1.00  0.00    -0.354 N 
ATOM     64  N   UNL A   1      45.118  29.704  31.092  1.00  0.00    -0.248 NA
ATOM     65  C   UNL A   1      46.194  31.397  32.285  1.00  0.00     0.031 C 
ATOM     66  C   UNL A   1      46.986  25.826  30.005  1.00  0.00     0.029 A 
ATOM     67  C   UNL A   1      46.423  27.043  30.355  1.00  0.00     0.049 A 
ATOM     68  H   UNL A   1      44.446  27.721  30.061  1.00  0.00     0.167 HD
ATOM     69  C   UNL A   1      46.430  29.316  31.349  1.00  0.00     0.074 A 
ATOM     70  C   UNL A   1      47.057  30.417  32.049  1.00  0.00     0.031 C 
ATOM     71  C   UNL A   1      47.052  28.151  31.038  1.00  0.00     0.034 A 
BRANCH  58  72
ATOM     72  C   UNL A   1      43.483  24.001  28.160  1.00  0.00     0.023 A 
ATOM     73  C   UNL A   1      44.068  23.756  26.903  1.00  0.00     0.031 A 
ATOM     74  C   UNL A   1      42.705  22.982  28.739  1.00  0.00     0.131 A 
ATOM     75  C   UNL A   1      43.829  22.543  26.246  1.00  0.00     0.055 A 
ATOM     76  C   UNL A   1      42.511  21.754  28.103  1.00  0.00     0.041 A 
ATOM     77  F   UNL A   1      42.123  23.164  29.936  1.00  0.00    -0.206 F 
ATOM     78  C   UNL A   1      43.061  21.536  26.843  1.00  0.00     0.022 A 
BRANCH  75  79
ATOM     79  S   UNL A   1      44.434  22.251  24.561  1.00  0.00     0.124 S 
ATOM     80  O   UNL A   1      44.367  20.794  24.467  1.00  0.00    -0.237 OA
ATOM     81  O   UNL A   1      43.454  22.973  23.757  1.00  0.00    -0.237 OA
ATOM     82  O   UNL A   1      45.780  22.810  24.570  1.00  0.00    -0.744 OA
ENDBRANCH  75  79
ENDBRANCH  58  72
BRANCH  59  83
ATOM     83  C   UNL A   1      43.815  33.180  32.188  1.00  0.00     0.023 A 
ATOM     84  C   UNL A   1      43.486  33.404  33.539  1.00  0.00     0.031 A 
ATOM     85  C   UNL A   1      44.053  34.299  31.374  1.00  0.00     0.131 A 
ATOM     86  C   UNL A   1      43.320  34.713  34.008  1.00  0.00     0.055 A 
ATOM     87  C   UNL A   1      43.967  35.603  31.869  1.00  0.00     0.041 A 
ATOM     88  F   UNL A   1      44.355  34.140  30.076  1.00  0.00    -0.206 F 
ATOM     89  C   UNL A   1      43.578  35.814  33.188  1.00  0.00     0.022 A 
BRANCH  86  90
ATOM     90  S   UNL A   1      42.614  35.025  35.652  1.00  0.00     0.124 S 
ATOM     91  O   UNL A   1      41.273  35.496  35.323  1.00  0.00    -0.237 OA
ATOM     92  O   UNL A   1      42.686  33.698  36.260  1.00  0.00    -0.237 OA
ATOM     93  O   UNL A   1      43.512  36.020  36.229  1.00  0.00    -0.744 OA
ENDBRANCH  86  90
ENDBRANCH  59  83
BRANCH  71  94
ATOM     94  C   UNL A   1      48.499  27.971  31.433  1.00  0.00     0.023 A 
ATOM     95  C   UNL A   1      48.821  27.514  32.726  1.00  0.00     0.031 A 
ATOM     96  C   UNL A   1      49.546  28.410  30.605  1.00  0.00     0.131 A 
ATOM     97  C   UNL A   1      50.148  27.558  33.172  1.00  0.00     0.055 A 
ATOM     98  C   UNL A   1      50.875  28.397  31.034  1.00  0.00     0.041 A 
ATOM     99  F   UNL A   1      49.292  28.866  29.369  1.00  0.00    -0.206 F 
ATOM    100  C   UNL A   1      51.178  27.987  32.330  1.00  0.00     0.022 A 
BRANCH  97 101
ATOM    101  S   UNL A   1      50.570  27.163  34.893  1.00  0.00     0.124 S 
ATOM    102  O   UNL A   1      52.031  27.180  34.856  1.00  0.00    -0.237 OA
ATOM    103  O   UNL A   1      49.952  28.266  35.621  1.00  0.00    -0.237 OA
ATOM    104  O   UNL A   1      49.971  25.851  35.110  1.00  0.00    -0.744 OA
ENDBRANCH  97 101
ENDBRANCH  71  94
ENDBRANCH  45  46
ENDBRANCH  37  40
ENDBRANCH  35  36
ENDBRANCH  34  35
ENDBRANCH   1  34
TORSDOF 19
ENDMDL
