MODEL 1
REMARK VINA RESULT:     -11.4      0.000      0.000
REMARK SMILES Cc1nc(CNC(=O)[C@H]2CCO[C@H]2C)sc1C(=O)NCCCCCCNC(=O)c1ccc(-c2c3nc(c(-c4cc(S(=O)(=O)[O-])ccc4F)c4ccc([nH]4)c(-c4cc(S(=O)(=O)[O-])ccc4F)c4nc(c(-c5cc(S(=O)(=O)[O-])ccc5F)c5ccc2[nH]5)C=C4)C=C3)cc1
REMARK SMILES IDX 22 1 21 2 20 3 19 4 17 5 18 6 16 8 1 9 2 10 3 11 4 12 15 13
REMARK SMILES IDX 5 14 6 15 7 16 8 18 9 19 10 20 13 21 11 22 12 23 14 24 23 25
REMARK SMILES IDX 24 26 25 27 26 28 27 29 28 31 29 32 30 33 91 34 31 35 90 36
REMARK SMILES IDX 32 37 33 38 34 39 84 40 35 41 89 42 83 43 85 44 36 45 88 46
REMARK SMILES IDX 82 47 81 48 37 50 69 51 49 52 68 53 50 54 53 55 67 56 86 57
REMARK SMILES IDX 51 58 52 59 66 61 87 62 54 63 38 64 39 65 47 66 40 67 46 68
REMARK SMILES IDX 48 69 45 70 41 71 42 72 43 73 44 74 70 75 71 76 79 77 72 78
REMARK SMILES IDX 78 79 80 80 77 81 73 82 74 83 75 84 76 85 55 86 56 87 64 88
REMARK SMILES IDX 57 89 63 90 65 91 62 92 58 93 59 94 60 95 61 96
REMARK H PARENT 19 7 6 17 26 30 85 49 53 60
REMARK Flexibility Score: inf
ROOT
ATOM      1  C   UNL A   1      32.589  30.321  27.242  1.00  0.00     0.002 C 
ENDROOT
BRANCH   1   2
ATOM      2  C   UNL A   1      32.551  28.795  27.101  1.00  0.00     0.021 C 
BRANCH   2   3
ATOM      3  C   UNL A   1      33.782  28.214  26.402  1.00  0.00     0.116 C 
BRANCH   3   4
ATOM      4  N   UNL A   1      33.905  28.769  25.076  1.00  0.00    -0.351 N 
ATOM      5  C   UNL A   1      33.313  28.498  23.872  1.00  0.00     0.263 C 
ATOM      6  O   UNL A   1      33.728  29.225  22.960  1.00  0.00    -0.268 OA
ATOM      7  H   UNL A   1      34.558  29.505  25.026  1.00  0.00     0.163 HD
BRANCH   5   8
ATOM      8  C   UNL A   1      32.270  27.500  23.653  1.00  0.00     0.115 A 
ATOM      9  C   UNL A   1      29.888  28.547  23.254  1.00  0.00     0.068 C 
ATOM     10  C   UNL A   1      30.901  27.470  23.392  1.00  0.00     0.061 A 
ATOM     11  N   UNL A   1      30.352  26.196  23.296  1.00  0.00    -0.244 NA
ATOM     12  C   UNL A   1      31.232  25.271  23.576  1.00  0.00     0.113 A 
ATOM     13  S   UNL A   1      32.813  25.844  23.826  1.00  0.00    -0.111 S 
BRANCH  12  14
ATOM     14  C   UNL A   1      30.908  23.812  23.693  1.00  0.00     0.183 C 
BRANCH  14  15
ATOM     15  N   UNL A   1      30.492  23.528  25.057  1.00  0.00    -0.349 N 
ATOM     16  C   UNL A   1      31.215  23.035  26.100  1.00  0.00     0.226 C 
ATOM     17  H   UNL A   1      29.547  23.719  25.255  1.00  0.00     0.163 HD
ATOM     18  O   UNL A   1      30.631  22.823  27.162  1.00  0.00    -0.275 OA
BRANCH  16  19
ATOM     19  C   UNL A   1      32.705  22.821  25.938  1.00  0.00     0.109 C 
ATOM     20  C   UNL A   1      33.422  22.460  27.225  1.00  0.00     0.044 C 
ATOM     21  C   UNL A   1      33.109  21.665  25.031  1.00  0.00     0.127 C 
ATOM     22  C   UNL A   1      34.729  21.900  26.706  1.00  0.00     0.161 C 
ATOM     23  O   UNL A   1      34.477  21.368  25.397  1.00  0.00    -0.378 OA
ATOM     24  C   UNL A   1      32.307  20.375  25.194  1.00  0.00     0.039 C 
ENDBRANCH  16  19
ENDBRANCH  14  15
ENDBRANCH  12  14
ENDBRANCH   5   8
ENDBRANCH   3   4
ENDBRANCH   2   3
ENDBRANCH   1   2
BRANCH   1  25
ATOM     25  C   UNL A   1      31.452  31.055  26.522  1.00  0.00     0.002 C 
BRANCH  25  26
ATOM     26  C   UNL A   1      31.492  32.584  26.629  1.00  0.00     0.021 C 
BRANCH  26  27
ATOM     27  C   UNL A   1      32.794  33.146  27.194  1.00  0.00     0.116 C 
BRANCH  27  28
ATOM     28  N   UNL A   1      32.595  34.465  27.773  1.00  0.00    -0.352 N 
ATOM     29  C   UNL A   1      33.136  35.005  28.913  1.00  0.00     0.251 C 
ATOM     30  H   UNL A   1      31.984  35.055  27.276  1.00  0.00     0.163 HD
ATOM     31  O   UNL A   1      32.645  36.021  29.395  1.00  0.00    -0.269 OA
BRANCH  29  32
ATOM     32  C   UNL A   1      34.299  34.358  29.560  1.00  0.00     0.039 A 
ATOM     33  C   UNL A   1      35.579  34.596  29.053  1.00  0.00     0.014 A 
ATOM     34  C   UNL A   1      34.124  33.491  30.643  1.00  0.00     0.014 A 
ATOM     35  C   UNL A   1      36.688  34.005  29.666  1.00  0.00     0.010 A 
ATOM     36  C   UNL A   1      35.234  32.956  31.292  1.00  0.00     0.010 A 
ATOM     37  C   UNL A   1      36.527  33.202  30.807  1.00  0.00    -0.014 A 
BRANCH  37  38
ATOM     38  C   UNL A   1      37.697  32.600  31.498  1.00  0.00     0.031 A 
ATOM     39  C   UNL A   1      38.438  31.453  30.864  1.00  0.00     0.074 A 
ATOM     40  C   UNL A   1      38.051  33.045  32.721  1.00  0.00     0.049 A 
ATOM     41  N   UNL A   1      39.422  30.736  31.344  1.00  0.00    -0.248 NA
ATOM     42  C   UNL A   1      37.991  31.041  29.525  1.00  0.00     0.031 C 
ATOM     43  C   UNL A   1      37.386  34.127  33.451  1.00  0.00     0.029 A 
ATOM     44  N   UNL A   1      39.047  32.635  33.571  1.00  0.00    -0.354 N 
ATOM     45  C   UNL A   1      39.702  29.778  30.374  1.00  0.00     0.074 A 
ATOM     46  C   UNL A   1      38.745  29.975  29.304  1.00  0.00     0.031 C 
ATOM     47  C   UNL A   1      38.004  34.306  34.629  1.00  0.00     0.029 A 
ATOM     48  C   UNL A   1      39.077  33.325  34.761  1.00  0.00     0.049 A 
ATOM     49  H   UNL A   1      39.681  31.915  33.351  1.00  0.00     0.167 HD
ATOM     50  C   UNL A   1      40.679  28.838  30.367  1.00  0.00     0.034 A 
ATOM     51  C   UNL A   1      39.868  33.175  35.842  1.00  0.00     0.034 A 
ATOM     52  C   UNL A   1      41.634  28.668  31.435  1.00  0.00     0.049 A 
ATOM     53  C   UNL A   1      40.936  32.111  35.819  1.00  0.00     0.074 A 
ATOM     54  C   UNL A   1      42.697  27.785  31.508  1.00  0.00     0.029 A 
ATOM     55  N   UNL A   1      41.640  29.393  32.620  1.00  0.00    -0.354 N 
ATOM     56  N   UNL A   1      41.218  31.243  34.872  1.00  0.00    -0.248 NA
ATOM     57  C   UNL A   1      41.800  32.012  37.002  1.00  0.00     0.031 C 
ATOM     58  C   UNL A   1      43.305  27.930  32.760  1.00  0.00     0.029 A 
ATOM     59  C   UNL A   1      42.670  28.958  33.440  1.00  0.00     0.049 A 
ATOM     60  H   UNL A   1      41.005  30.111  32.846  1.00  0.00     0.167 HD
ATOM     61  C   UNL A   1      42.315  30.522  35.335  1.00  0.00     0.074 A 
ATOM     62  C   UNL A   1      42.650  31.063  36.636  1.00  0.00     0.031 C 
ATOM     63  C   UNL A   1      42.988  29.506  34.738  1.00  0.00     0.034 A 
BRANCH  50  64
ATOM     64  C   UNL A   1      40.743  27.907  29.179  1.00  0.00     0.023 A 
ATOM     65  C   UNL A   1      41.688  28.081  28.153  1.00  0.00     0.031 A 
ATOM     66  C   UNL A   1      39.837  26.838  29.063  1.00  0.00     0.131 A 
ATOM     67  C   UNL A   1      41.660  27.248  27.025  1.00  0.00     0.055 A 
ATOM     68  C   UNL A   1      39.867  25.962  27.976  1.00  0.00     0.041 A 
ATOM     69  F   UNL A   1      38.899  26.632  30.000  1.00  0.00    -0.206 F 
ATOM     70  C   UNL A   1      40.773  26.173  26.942  1.00  0.00     0.022 A 
BRANCH  67  71
ATOM     71  S   UNL A   1      42.713  27.669  25.610  1.00  0.00     0.124 S 
ATOM     72  O   UNL A   1      41.970  28.775  25.010  1.00  0.00    -0.237 OA
ATOM     73  O   UNL A   1      43.976  28.021  26.248  1.00  0.00    -0.237 OA
ATOM     74  O   UNL A   1      42.733  26.440  24.819  1.00  0.00    -0.744 OA
ENDBRANCH  67  71
ENDBRANCH  50  64
BRANCH  51  75
ATOM     75  C   UNL A   1      39.682  34.038  37.045  1.00  0.00     0.023 A 
ATOM     76  C   UNL A   1      39.060  33.541  38.201  1.00  0.00     0.031 A 
ATOM     77  C   UNL A   1      40.080  35.386  37.039  1.00  0.00     0.131 A 
ATOM     78  C   UNL A   1      38.803  34.399  39.281  1.00  0.00     0.055 A 
ATOM     79  C   UNL A   1      39.873  36.222  38.138  1.00  0.00     0.041 A 
ATOM     80  F   UNL A   1      40.686  35.911  35.962  1.00  0.00    -0.206 F 
ATOM     81  C   UNL A   1      39.217  35.733  39.263  1.00  0.00     0.022 A 
BRANCH  78  82
ATOM     82  S   UNL A   1      37.833  33.769  40.679  1.00  0.00     0.124 S 
ATOM     83  O   UNL A   1      38.787  32.873  41.322  1.00  0.00    -0.237 OA
ATOM     84  O   UNL A   1      37.514  34.996  41.402  1.00  0.00    -0.237 OA
ATOM     85  O   UNL A   1      36.696  33.113  40.036  1.00  0.00    -0.744 OA
ENDBRANCH  78  82
ENDBRANCH  51  75
BRANCH  63  86
ATOM     86  C   UNL A   1      44.186  28.954  35.469  1.00  0.00     0.023 A 
ATOM     87  C   UNL A   1      44.078  27.876  36.365  1.00  0.00     0.031 A 
ATOM     88  C   UNL A   1      45.456  29.527  35.274  1.00  0.00     0.131 A 
ATOM     89  C   UNL A   1      45.208  27.441  37.074  1.00  0.00     0.055 A 
ATOM     90  C   UNL A   1      46.588  29.051  35.936  1.00  0.00     0.041 A 
ATOM     91  F   UNL A   1      45.617  30.560  34.430  1.00  0.00    -0.206 F 
ATOM     92  C   UNL A   1      46.466  28.010  36.852  1.00  0.00     0.022 A 
BRANCH  89  93
ATOM     93  S   UNL A   1      44.999  26.178  38.358  1.00  0.00     0.124 S 
ATOM     94  O   UNL A   1      43.575  26.287  38.661  1.00  0.00    -0.237 OA
ATOM     95  O   UNL A   1      45.413  24.960  37.670  1.00  0.00    -0.237 OA
ATOM     96  O   UNL A   1      45.895  26.620  39.425  1.00  0.00    -0.744 OA
ENDBRANCH  89  93
ENDBRANCH  63  86
ENDBRANCH  37  38
ENDBRANCH  29  32
ENDBRANCH  27  28
ENDBRANCH  26  27
ENDBRANCH  25  26
ENDBRANCH   1  25
TORSDOF 19
ENDMDL
MODEL 2
REMARK VINA RESULT:     -11.3      2.069      2.776
REMARK SMILES Cc1nc(CNC(=O)[C@H]2CCO[C@H]2C)sc1C(=O)NCCCCCCNC(=O)c1ccc(-c2c3nc(c(-c4cc(S(=O)(=O)[O-])ccc4F)c4ccc([nH]4)c(-c4cc(S(=O)(=O)[O-])ccc4F)c4nc(c(-c5cc(S(=O)(=O)[O-])ccc5F)c5ccc2[nH]5)C=C4)C=C3)cc1
REMARK SMILES IDX 22 1 21 2 20 3 19 4 17 5 18 6 16 8 1 9 2 10 3 11 4 12 15 13
REMARK SMILES IDX 5 14 6 15 7 16 8 18 9 19 10 20 13 21 11 22 12 23 14 24 23 25
REMARK SMILES IDX 24 26 25 27 26 28 27 29 28 31 29 32 30 33 91 34 31 35 90 36
REMARK SMILES IDX 32 37 33 38 34 39 84 40 35 41 89 42 83 43 85 44 36 45 88 46
REMARK SMILES IDX 82 47 81 48 37 50 69 51 49 52 68 53 50 54 53 55 67 56 86 57
REMARK SMILES IDX 51 58 52 59 66 61 87 62 54 63 38 64 39 65 47 66 40 67 46 68
REMARK SMILES IDX 48 69 45 70 41 71 42 72 43 73 44 74 70 75 71 76 79 77 72 78
REMARK SMILES IDX 78 79 80 80 77 81 73 82 74 83 75 84 76 85 55 86 56 87 64 88
REMARK SMILES IDX 57 89 63 90 65 91 62 92 58 93 59 94 60 95 61 96
REMARK H PARENT 19 7 6 17 26 30 85 49 53 60
REMARK Flexibility Score: inf
ROOT
ATOM      1  C   UNL A   1      32.077  29.514  27.242  1.00  0.00     0.002 C 
ENDROOT
BRANCH   1   2
ATOM      2  C   UNL A   1      33.481  28.976  26.944  1.00  0.00     0.021 C 
BRANCH   2   3
ATOM      3  C   UNL A   1      33.478  27.654  26.173  1.00  0.00     0.116 C 
BRANCH   3   4
ATOM      4  N   UNL A   1      32.293  26.898  26.493  1.00  0.00    -0.351 N 
ATOM      5  C   UNL A   1      31.897  25.607  26.267  1.00  0.00     0.263 C 
ATOM      6  O   UNL A   1      30.766  25.368  26.713  1.00  0.00    -0.268 OA
ATOM      7  H   UNL A   1      31.620  27.426  26.982  1.00  0.00     0.163 HD
BRANCH   5   8
ATOM      8  C   UNL A   1      32.705  24.580  25.616  1.00  0.00     0.115 A 
ATOM      9  C   UNL A   1      33.909  25.425  23.432  1.00  0.00     0.068 C 
ATOM     10  C   UNL A   1      33.529  24.462  24.498  1.00  0.00     0.061 A 
ATOM     11  N   UNL A   1      34.062  23.194  24.295  1.00  0.00    -0.244 NA
ATOM     12  C   UNL A   1      33.589  22.331  25.156  1.00  0.00     0.113 A 
ATOM     13  S   UNL A   1      32.593  22.999  26.361  1.00  0.00    -0.111 S 
BRANCH  12  14
ATOM     14  C   UNL A   1      33.866  20.859  25.106  1.00  0.00     0.183 C 
BRANCH  14  15
ATOM     15  N   UNL A   1      32.974  20.241  24.137  1.00  0.00    -0.349 N 
ATOM     16  C   UNL A   1      32.710  18.923  23.918  1.00  0.00     0.226 C 
ATOM     17  H   UNL A   1      32.491  20.869  23.553  1.00  0.00     0.163 HD
ATOM     18  O   UNL A   1      31.950  18.630  22.995  1.00  0.00    -0.275 OA
BRANCH  16  19
ATOM     19  C   UNL A   1      33.308  17.881  24.839  1.00  0.00     0.109 C 
ATOM     20  C   UNL A   1      32.349  16.770  25.220  1.00  0.00     0.044 C 
ATOM     21  C   UNL A   1      34.477  17.090  24.267  1.00  0.00     0.127 C 
ATOM     22  C   UNL A   1      33.294  15.709  25.742  1.00  0.00     0.161 C 
ATOM     23  O   UNL A   1      34.556  15.901  25.086  1.00  0.00    -0.378 OA
ATOM     24  C   UNL A   1      34.329  16.631  22.818  1.00  0.00     0.039 C 
ENDBRANCH  16  19
ENDBRANCH  14  15
ENDBRANCH  12  14
ENDBRANCH   5   8
ENDBRANCH   3   4
ENDBRANCH   2   3
ENDBRANCH   1   2
BRANCH   1  25
ATOM     25  C   UNL A   1      31.556  30.532  26.221  1.00  0.00     0.002 C 
BRANCH  25  26
ATOM     26  C   UNL A   1      31.481  31.979  26.722  1.00  0.00     0.021 C 
BRANCH  26  27
ATOM     27  C   UNL A   1      32.826  32.585  27.115  1.00  0.00     0.116 C 
BRANCH  27  28
ATOM     28  N   UNL A   1      32.667  33.927  27.653  1.00  0.00    -0.352 N 
ATOM     29  C   UNL A   1      33.250  34.496  28.758  1.00  0.00     0.251 C 
ATOM     30  H   UNL A   1      32.053  34.510  27.152  1.00  0.00     0.163 HD
ATOM     31  O   UNL A   1      32.790  35.537  29.216  1.00  0.00    -0.269 OA
BRANCH  29  32
ATOM     32  C   UNL A   1      34.419  33.850  29.395  1.00  0.00     0.039 A 
ATOM     33  C   UNL A   1      35.704  34.266  29.037  1.00  0.00     0.014 A 
ATOM     34  C   UNL A   1      34.248  32.814  30.317  1.00  0.00     0.014 A 
ATOM     35  C   UNL A   1      36.816  33.677  29.644  1.00  0.00     0.010 A 
ATOM     36  C   UNL A   1      35.355  32.274  30.969  1.00  0.00     0.010 A 
ATOM     37  C   UNL A   1      36.651  32.695  30.635  1.00  0.00    -0.014 A 
BRANCH  37  38
ATOM     38  C   UNL A   1      37.820  32.088  31.323  1.00  0.00     0.031 A 
ATOM     39  C   UNL A   1      38.570  30.954  30.674  1.00  0.00     0.074 A 
ATOM     40  C   UNL A   1      38.165  32.514  32.554  1.00  0.00     0.049 A 
ATOM     41  N   UNL A   1      39.554  30.235  31.148  1.00  0.00    -0.248 NA
ATOM     42  C   UNL A   1      38.132  30.562  29.327  1.00  0.00     0.031 C 
ATOM     43  C   UNL A   1      37.491  33.581  33.298  1.00  0.00     0.029 A 
ATOM     44  N   UNL A   1      39.158  32.096  33.404  1.00  0.00    -0.354 N 
ATOM     45  C   UNL A   1      39.844  29.294  30.165  1.00  0.00     0.074 A 
ATOM     46  C   UNL A   1      38.893  29.503  29.093  1.00  0.00     0.031 C 
ATOM     47  C   UNL A   1      38.101  33.744  34.483  1.00  0.00     0.029 A 
ATOM     48  C   UNL A   1      39.178  32.767  34.605  1.00  0.00     0.049 A 
ATOM     49  H   UNL A   1      39.796  31.382  33.176  1.00  0.00     0.167 HD
ATOM     50  C   UNL A   1      40.826  28.358  30.149  1.00  0.00     0.034 A 
ATOM     51  C   UNL A   1      39.964  32.603  35.688  1.00  0.00     0.034 A 
ATOM     52  C   UNL A   1      41.776  28.176  31.219  1.00  0.00     0.049 A 
ATOM     53  C   UNL A   1      41.037  31.544  35.653  1.00  0.00     0.074 A 
ATOM     54  C   UNL A   1      42.843  27.296  31.284  1.00  0.00     0.029 A 
ATOM     55  N   UNL A   1      41.771  28.881  32.416  1.00  0.00    -0.354 N 
ATOM     56  N   UNL A   1      41.328  30.693  34.695  1.00  0.00    -0.248 NA
ATOM     57  C   UNL A   1      41.895  31.430  36.840  1.00  0.00     0.031 C 
ATOM     58  C   UNL A   1      43.443  27.425  32.542  1.00  0.00     0.029 A 
ATOM     59  C   UNL A   1      42.799  28.438  33.234  1.00  0.00     0.049 A 
ATOM     60  H   UNL A   1      41.132  29.593  32.649  1.00  0.00     0.167 HD
ATOM     61  C   UNL A   1      42.426  29.970  35.152  1.00  0.00     0.074 A 
ATOM     62  C   UNL A   1      42.751  30.492  36.464  1.00  0.00     0.031 C 
ATOM     63  C   UNL A   1      43.107  28.966  34.543  1.00  0.00     0.034 A 
BRANCH  50  64
ATOM     64  C   UNL A   1      40.901  27.447  28.946  1.00  0.00     0.023 A 
ATOM     65  C   UNL A   1      41.862  27.632  27.937  1.00  0.00     0.031 A 
ATOM     66  C   UNL A   1      39.990  26.386  28.799  1.00  0.00     0.131 A 
ATOM     67  C   UNL A   1      41.845  26.817  26.795  1.00  0.00     0.055 A 
ATOM     68  C   UNL A   1      40.030  25.528  27.698  1.00  0.00     0.041 A 
ATOM     69  F   UNL A   1      39.037  26.171  29.719  1.00  0.00    -0.206 F 
ATOM     70  C   UNL A   1      40.952  25.750  26.681  1.00  0.00     0.022 A 
BRANCH  67  71
ATOM     71  S   UNL A   1      42.921  27.255  25.402  1.00  0.00     0.124 S 
ATOM     72  O   UNL A   1      44.135  27.683  26.092  1.00  0.00    -0.237 OA
ATOM     73  O   UNL A   1      43.013  26.000  24.666  1.00  0.00    -0.237 OA
ATOM     74  O   UNL A   1      42.187  28.324  24.725  1.00  0.00    -0.744 OA
ENDBRANCH  67  71
ENDBRANCH  50  64
BRANCH  51  75
ATOM     75  C   UNL A   1      39.767  33.445  36.903  1.00  0.00     0.023 A 
ATOM     76  C   UNL A   1      40.596  34.549  37.159  1.00  0.00     0.031 A 
ATOM     77  C   UNL A   1      38.779  33.130  37.852  1.00  0.00     0.131 A 
ATOM     78  C   UNL A   1      40.459  35.264  38.359  1.00  0.00     0.055 A 
ATOM     79  C   UNL A   1      38.610  33.879  39.019  1.00  0.00     0.041 A 
ATOM     80  F   UNL A   1      37.954  32.089  37.655  1.00  0.00    -0.206 F 
ATOM     81  C   UNL A   1      39.463  34.945  39.284  1.00  0.00     0.022 A 
BRANCH  78  82
ATOM     82  S   UNL A   1      41.667  36.564  38.737  1.00  0.00     0.124 S 
ATOM     83  O   UNL A   1      40.856  37.511  39.494  1.00  0.00    -0.237 OA
ATOM     84  O   UNL A   1      42.673  35.829  39.497  1.00  0.00    -0.237 OA
ATOM     85  O   UNL A   1      42.096  37.024  37.418  1.00  0.00    -0.744 OA
ENDBRANCH  78  82
ENDBRANCH  51  75
BRANCH  63  86
ATOM     86  C   UNL A   1      44.304  28.409  35.272  1.00  0.00     0.023 A 
ATOM     87  C   UNL A   1      44.170  27.476  36.314  1.00  0.00     0.031 A 
ATOM     88  C   UNL A   1      45.600  28.829  34.923  1.00  0.00     0.131 A 
ATOM     89  C   UNL A   1      45.307  27.036  37.009  1.00  0.00     0.055 A 
ATOM     90  C   UNL A   1      46.732  28.343  35.578  1.00  0.00     0.041 A 
ATOM     91  F   UNL A   1      45.787  29.720  33.936  1.00  0.00    -0.206 F 
ATOM     92  C   UNL A   1      46.589  27.451  36.636  1.00  0.00     0.022 A 
BRANCH  89  93
ATOM     93  S   UNL A   1      45.084  25.981  38.468  1.00  0.00     0.124 S 
ATOM     94  O   UNL A   1      46.402  26.043  39.091  1.00  0.00    -0.237 OA
ATOM     95  O   UNL A   1      44.009  26.660  39.183  1.00  0.00    -0.237 OA
ATOM     96  O   UNL A   1      44.726  24.682  37.901  1.00  0.00    -0.744 OA
ENDBRANCH  89  93
ENDBRANCH  63  86
ENDBRANCH  37  38
ENDBRANCH  29  32
ENDBRANCH  27  28
ENDBRANCH  26  27
ENDBRANCH  25  26
ENDBRANCH   1  25
TORSDOF 19
ENDMDL
MODEL 3
REMARK VINA RESULT:     -11.0      5.958     10.349
REMARK SMILES Cc1nc(CNC(=O)[C@H]2CCO[C@H]2C)sc1C(=O)NCCCCCCNC(=O)c1ccc(-c2c3nc(c(-c4cc(S(=O)(=O)[O-])ccc4F)c4ccc([nH]4)c(-c4cc(S(=O)(=O)[O-])ccc4F)c4nc(c(-c5cc(S(=O)(=O)[O-])ccc5F)c5ccc2[nH]5)C=C4)C=C3)cc1
REMARK SMILES IDX 22 1 21 2 20 3 19 4 17 5 18 6 16 8 1 9 2 10 3 11 4 12 15 13
REMARK SMILES IDX 5 14 6 15 7 16 8 18 9 19 10 20 13 21 11 22 12 23 14 24 23 25
REMARK SMILES IDX 24 26 25 27 26 28 27 29 28 31 29 32 30 33 91 34 31 35 90 36
REMARK SMILES IDX 32 37 33 38 34 39 84 40 35 41 89 42 83 43 85 44 36 45 88 46
REMARK SMILES IDX 82 47 81 48 37 50 69 51 49 52 68 53 50 54 53 55 67 56 86 57
REMARK SMILES IDX 51 58 52 59 66 61 87 62 54 63 38 64 39 65 47 66 40 67 46 68
REMARK SMILES IDX 48 69 45 70 41 71 42 72 43 73 44 74 70 75 71 76 79 77 72 78
REMARK SMILES IDX 78 79 80 80 77 81 73 82 74 83 75 84 76 85 55 86 56 87 64 88
REMARK SMILES IDX 57 89 63 90 65 91 62 92 58 93 59 94 60 95 61 96
REMARK H PARENT 19 7 6 17 26 30 85 49 53 60
REMARK Flexibility Score: inf
ROOT
ATOM      1  C   UNL A   1      39.660  22.307  26.360  1.00  0.00     0.002 C 
ENDROOT
BRANCH   1   2
ATOM      2  C   UNL A   1      38.910  23.617  26.619  1.00  0.00     0.021 C 
BRANCH   2   3
ATOM      3  C   UNL A   1      37.478  23.620  26.076  1.00  0.00     0.116 C 
BRANCH   3   4
ATOM      4  N   UNL A   1      37.487  23.346  24.660  1.00  0.00    -0.351 N 
ATOM      5  C   UNL A   1      36.527  22.984  23.755  1.00  0.00     0.263 C 
ATOM      6  O   UNL A   1      36.978  22.834  22.612  1.00  0.00    -0.268 OA
ATOM      7  H   UNL A   1      38.380  23.438  24.256  1.00  0.00     0.163 HD
BRANCH   5   8
ATOM      8  C   UNL A   1      35.106  22.826  24.053  1.00  0.00     0.115 A 
ATOM      9  C   UNL A   1      34.481  20.421  24.924  1.00  0.00     0.068 C 
ATOM     10  C   UNL A   1      34.250  21.834  24.529  1.00  0.00     0.061 A 
ATOM     11  N   UNL A   1      32.911  22.202  24.602  1.00  0.00    -0.244 NA
ATOM     12  C   UNL A   1      32.713  23.394  24.103  1.00  0.00     0.113 A 
ATOM     13  S   UNL A   1      34.128  24.221  23.650  1.00  0.00    -0.111 S 
BRANCH  12  14
ATOM     14  C   UNL A   1      31.360  24.010  23.913  1.00  0.00     0.183 C 
BRANCH  14  15
ATOM     15  N   UNL A   1      31.321  24.681  22.623  1.00  0.00    -0.349 N 
ATOM     16  C   UNL A   1      31.415  26.008  22.333  1.00  0.00     0.226 C 
ATOM     17  H   UNL A   1      31.210  24.089  21.846  1.00  0.00     0.163 HD
ATOM     18  O   UNL A   1      31.301  26.354  21.157  1.00  0.00    -0.275 OA
BRANCH  16  19
ATOM     19  C   UNL A   1      31.708  26.995  23.444  1.00  0.00     0.109 C 
ATOM     20  C   UNL A   1      32.512  28.202  23.001  1.00  0.00     0.044 C 
ATOM     21  C   UNL A   1      30.489  27.656  24.075  1.00  0.00     0.127 C 
ATOM     22  C   UNL A   1      32.277  29.167  24.144  1.00  0.00     0.161 C 
ATOM     23  O   UNL A   1      31.006  28.840  24.725  1.00  0.00    -0.378 OA
ATOM     24  C   UNL A   1      29.399  28.111  23.108  1.00  0.00     0.039 C 
ENDBRANCH  16  19
ENDBRANCH  14  15
ENDBRANCH  12  14
ENDBRANCH   5   8
ENDBRANCH   3   4
ENDBRANCH   2   3
ENDBRANCH   1   2
BRANCH   1  25
ATOM     25  C   UNL A   1      40.503  21.813  27.542  1.00  0.00     0.002 C 
BRANCH  25  26
ATOM     26  C   UNL A   1      41.064  20.394  27.395  1.00  0.00     0.021 C 
BRANCH  26  27
ATOM     27  C   UNL A   1      41.012  19.835  25.975  1.00  0.00     0.116 C 
BRANCH  27  28
ATOM     28  N   UNL A   1      42.300  19.294  25.570  1.00  0.00    -0.352 N 
ATOM     29  C   UNL A   1      43.469  19.953  25.282  1.00  0.00     0.251 C 
ATOM     30  H   UNL A   1      42.338  18.314  25.491  1.00  0.00     0.163 HD
ATOM     31  O   UNL A   1      44.368  19.362  24.693  1.00  0.00    -0.269 OA
BRANCH  29  32
ATOM     32  C   UNL A   1      43.636  21.370  25.673  1.00  0.00     0.039 A 
ATOM     33  C   UNL A   1      44.164  21.670  26.932  1.00  0.00     0.014 A 
ATOM     34  C   UNL A   1      43.242  22.400  24.814  1.00  0.00     0.014 A 
ATOM     35  C   UNL A   1      44.344  23.005  27.307  1.00  0.00     0.010 A 
ATOM     36  C   UNL A   1      43.483  23.727  25.163  1.00  0.00     0.010 A 
ATOM     37  C   UNL A   1      44.030  24.044  26.415  1.00  0.00    -0.014 A 
BRANCH  37  38
ATOM     38  C   UNL A   1      44.255  25.468  26.779  1.00  0.00     0.031 A 
ATOM     39  C   UNL A   1      45.630  26.068  26.650  1.00  0.00     0.074 A 
ATOM     40  C   UNL A   1      43.239  26.197  27.282  1.00  0.00     0.049 A 
ATOM     41  N   UNL A   1      46.049  27.258  26.997  1.00  0.00    -0.248 NA
ATOM     42  C   UNL A   1      46.675  25.204  26.081  1.00  0.00     0.031 C 
ATOM     43  C   UNL A   1      41.872  25.712  27.486  1.00  0.00     0.029 A 
ATOM     44  N   UNL A   1      43.199  27.495  27.725  1.00  0.00    -0.354 N 
ATOM     45  C   UNL A   1      47.410  27.281  26.705  1.00  0.00     0.074 A 
ATOM     46  C   UNL A   1      47.752  25.966  26.204  1.00  0.00     0.031 C 
ATOM     47  C   UNL A   1      41.126  26.704  27.997  1.00  0.00     0.029 A 
ATOM     48  C   UNL A   1      41.967  27.879  28.201  1.00  0.00     0.049 A 
ATOM     49  H   UNL A   1      43.980  28.095  27.706  1.00  0.00     0.167 HD
ATOM     50  C   UNL A   1      48.286  28.309  26.825  1.00  0.00     0.034 A 
ATOM     51  C   UNL A   1      41.563  29.042  28.752  1.00  0.00     0.034 A 
ATOM     52  C   UNL A   1      47.923  29.618  27.311  1.00  0.00     0.049 A 
ATOM     53  C   UNL A   1      42.560  30.165  28.890  1.00  0.00     0.074 A 
ATOM     54  C   UNL A   1      48.716  30.747  27.422  1.00  0.00     0.029 A 
ATOM     55  N   UNL A   1      46.662  29.974  27.773  1.00  0.00    -0.354 N 
ATOM     56  N   UNL A   1      43.833  30.185  28.564  1.00  0.00    -0.248 NA
ATOM     57  C   UNL A   1      42.065  31.425  29.458  1.00  0.00     0.031 C 
ATOM     58  C   UNL A   1      47.955  31.764  28.009  1.00  0.00     0.029 A 
ATOM     59  C   UNL A   1      46.664  31.295  28.194  1.00  0.00     0.049 A 
ATOM     60  H   UNL A   1      45.880  29.376  27.798  1.00  0.00     0.167 HD
ATOM     61  C   UNL A   1      44.278  31.471  28.857  1.00  0.00     0.074 A 
ATOM     62  C   UNL A   1      43.136  32.199  29.372  1.00  0.00     0.031 C 
ATOM     63  C   UNL A   1      45.517  32.005  28.710  1.00  0.00     0.034 A 
BRANCH  50  64
ATOM     64  C   UNL A   1      49.725  28.048  26.446  1.00  0.00     0.023 A 
ATOM     65  C   UNL A   1      50.157  28.089  25.109  1.00  0.00     0.031 A 
ATOM     66  C   UNL A   1      50.675  27.737  27.434  1.00  0.00     0.131 A 
ATOM     67  C   UNL A   1      51.482  27.756  24.790  1.00  0.00     0.055 A 
ATOM     68  C   UNL A   1      52.012  27.486  27.118  1.00  0.00     0.041 A 
ATOM     69  F   UNL A   1      50.319  27.662  28.726  1.00  0.00    -0.206 F 
ATOM     70  C   UNL A   1      52.419  27.480  25.788  1.00  0.00     0.022 A 
BRANCH  67  71
ATOM     71  S   UNL A   1      51.930  27.561  23.044  1.00  0.00     0.124 S 
ATOM     72  O   UNL A   1      50.628  27.302  22.433  1.00  0.00    -0.237 OA
ATOM     73  O   UNL A   1      52.539  28.848  22.727  1.00  0.00    -0.237 OA
ATOM     74  O   UNL A   1      52.845  26.421  23.049  1.00  0.00    -0.744 OA
ENDBRANCH  67  71
ENDBRANCH  50  64
BRANCH  51  75
ATOM     75  C   UNL A   1      40.159  29.209  29.228  1.00  0.00     0.023 A 
ATOM     76  C   UNL A   1      39.835  29.066  30.586  1.00  0.00     0.031 A 
ATOM     77  C   UNL A   1      39.113  29.467  28.325  1.00  0.00     0.131 A 
ATOM     78  C   UNL A   1      38.495  29.125  30.996  1.00  0.00     0.055 A 
ATOM     79  C   UNL A   1      37.786  29.580  28.746  1.00  0.00     0.041 A 
ATOM     80  F   UNL A   1      39.367  29.619  27.015  1.00  0.00    -0.206 F 
ATOM     81  C   UNL A   1      37.470  29.395  30.087  1.00  0.00     0.022 A 
BRANCH  78  82
ATOM     82  S   UNL A   1      38.099  28.751  32.726  1.00  0.00     0.124 S 
ATOM     83  O   UNL A   1      38.141  27.293  32.731  1.00  0.00    -0.237 OA
ATOM     84  O   UNL A   1      39.179  29.427  33.436  1.00  0.00    -0.237 OA
ATOM     85  O   UNL A   1      36.773  29.337  32.907  1.00  0.00    -0.744 OA
ENDBRANCH  78  82
ENDBRANCH  51  75
BRANCH  63  86
ATOM     86  C   UNL A   1      45.682  33.462  29.063  1.00  0.00     0.023 A 
ATOM     87  C   UNL A   1      45.441  34.485  28.129  1.00  0.00     0.031 A 
ATOM     88  C   UNL A   1      46.097  33.832  30.355  1.00  0.00     0.131 A 
ATOM     89  C   UNL A   1      45.672  35.823  28.483  1.00  0.00     0.055 A 
ATOM     90  C   UNL A   1      46.268  35.167  30.719  1.00  0.00     0.041 A 
ATOM     91  F   UNL A   1      46.342  32.896  31.287  1.00  0.00    -0.206 F 
ATOM     92  C   UNL A   1      46.068  36.172  29.777  1.00  0.00     0.022 A 
BRANCH  89  93
ATOM     93  S   UNL A   1      45.536  37.099  27.201  1.00  0.00     0.124 S 
ATOM     94  O   UNL A   1      46.389  36.562  26.146  1.00  0.00    -0.237 OA
ATOM     95  O   UNL A   1      44.105  37.110  26.921  1.00  0.00    -0.237 OA
ATOM     96  O   UNL A   1      46.047  38.302  27.858  1.00  0.00    -0.744 OA
ENDBRANCH  89  93
ENDBRANCH  63  86
ENDBRANCH  37  38
ENDBRANCH  29  32
ENDBRANCH  27  28
ENDBRANCH  26  27
ENDBRANCH  25  26
ENDBRANCH   1  25
TORSDOF 19
ENDMDL
