MODEL 1
REMARK VINA RESULT:     -10.5      0.000      0.000
REMARK SMILES CCCc1cc(OC(F)(F)F)cc2c1O[C@H](C(F)(F)F)C(C(=O)NCCCCCCNC(=O)c1ccc(-c3c4nc(c(-c5cc(S(=O)(=O)[O-])ccc5F)c5ccc([nH]5)c(-c5cc(S(=O)(=O)[O-])ccc5F)c5nc(c(-c6cc(S(=O)(=O)[O-])ccc6F)c6ccc3[nH]6)C=C5)C=C4)cc1)=C2
REMARK SMILES IDX 28 1 27 2 26 3 25 4 24 5 22 6 23 7 21 9 4 10 5 11 14 12 6 13
REMARK SMILES IDX 13 14 15 15 12 16 97 17 16 18 3 19 2 20 1 21 7 22 8 23 9 24
REMARK SMILES IDX 10 25 11 26 17 27 18 28 19 29 20 30 29 31 30 32 31 33 32 34
REMARK SMILES IDX 33 36 34 37 35 38 96 39 36 40 95 41 37 42 38 43 39 44 89 45
REMARK SMILES IDX 40 46 94 47 88 48 90 49 41 50 93 51 87 52 86 53 42 55 74 56
REMARK SMILES IDX 54 57 73 58 55 59 58 60 72 61 91 62 56 63 57 64 71 66 92 67
REMARK SMILES IDX 59 68 43 69 44 70 52 71 45 72 51 73 53 74 50 75 46 76 47 77
REMARK SMILES IDX 48 78 49 79 75 80 76 81 84 82 77 83 83 84 85 85 82 86 78 87
REMARK SMILES IDX 79 88 80 89 81 90 60 91 61 92 69 93 62 94 68 95 70 96 67 97
REMARK SMILES IDX 63 98 64 99 65 100 66 101
REMARK H PARENT 24 8 31 35 90 54 58 65
REMARK Flexibility Score: inf
ROOT
ATOM      1  C   UNL A   1      35.540  32.615  27.994  1.00  0.00     0.002 C 
ENDROOT
BRANCH   1   2
ATOM      2  C   UNL A   1      34.616  31.390  27.952  1.00  0.00     0.002 C 
BRANCH   2   3
ATOM      3  C   UNL A   1      35.306  30.060  28.284  1.00  0.00     0.021 C 
BRANCH   3   4
ATOM      4  C   UNL A   1      35.285  29.074  27.115  1.00  0.00     0.116 C 
BRANCH   4   5
ATOM      5  N   UNL A   1      34.324  29.505  26.120  1.00  0.00    -0.352 N 
ATOM      6  C   UNL A   1      33.525  28.836  25.254  1.00  0.00     0.251 C 
ATOM      7  O   UNL A   1      32.804  29.511  24.518  1.00  0.00    -0.270 OA
ATOM      8  H   UNL A   1      34.233  30.483  26.060  1.00  0.00     0.163 HD
BRANCH   6   9
ATOM      9  C   UNL A   1      33.387  27.350  25.238  1.00  0.00     0.067 C 
ATOM     10  C   UNL A   1      32.852  23.287  26.182  1.00  0.00    -0.002 A 
ATOM     11  C   UNL A   1      33.708  22.339  25.589  1.00  0.00     0.054 A 
ATOM     12  C   UNL A   1      33.018  24.642  25.857  1.00  0.00     0.131 A 
ATOM     13  C   UNL A   1      34.735  22.734  24.731  1.00  0.00     0.130 A 
ATOM     14  C   UNL A   1      34.018  25.044  24.965  1.00  0.00     0.021 A 
ATOM     15  O   UNL A   1      32.220  25.554  26.498  1.00  0.00    -0.475 OA
ATOM     16  C   UNL A   1      34.877  24.087  24.415  1.00  0.00     0.058 A 
ATOM     17  C   UNL A   1      34.236  26.464  24.700  1.00  0.00     0.025 C 
ATOM     18  C   UNL A   1      32.100  26.861  25.876  1.00  0.00     0.314 C 
BRANCH  10  19
ATOM     19  C   UNL A   1      31.763  22.824  27.128  1.00  0.00     0.039 C 
BRANCH  19  20
ATOM     20  C   UNL A   1      30.428  22.483  26.456  1.00  0.00     0.001 C 
ATOM     21  C   UNL A   1      29.222  23.057  27.186  1.00  0.00     0.004 C 
ENDBRANCH  19  20
ENDBRANCH  10  19
BRANCH  13  22
ATOM     22  O   UNL A   1      35.665  21.920  24.147  1.00  0.00    -0.406 OA
BRANCH  22  23
ATOM     23  C   UNL A   1      36.959  21.870  24.723  1.00  0.00     0.573 C 
ATOM     24  F   UNL A   1      36.898  21.902  26.072  1.00  0.00    -0.132 F 
ATOM     25  F   UNL A   1      37.616  20.756  24.331  1.00  0.00    -0.132 F 
ATOM     26  F   UNL A   1      37.665  22.943  24.308  1.00  0.00    -0.132 F 
ENDBRANCH  22  23
ENDBRANCH  13  22
BRANCH  18  27
ATOM     27  C   UNL A   1      30.917  26.866  24.887  1.00  0.00     0.429 C 
ATOM     28  F   UNL A   1      30.337  28.093  24.834  1.00  0.00    -0.167 F 
ATOM     29  F   UNL A   1      31.270  26.552  23.621  1.00  0.00    -0.167 F 
ATOM     30  F   UNL A   1      29.947  25.989  25.248  1.00  0.00    -0.167 F 
ENDBRANCH  18  27
ENDBRANCH   6   9
ENDBRANCH   4   5
ENDBRANCH   3   4
ENDBRANCH   2   3
ENDBRANCH   1   2
BRANCH   1  31
ATOM     31  C   UNL A   1      34.818  33.961  28.101  1.00  0.00     0.021 C 
BRANCH  31  32
ATOM     32  C   UNL A   1      33.346  33.849  28.484  1.00  0.00     0.116 C 
BRANCH  32  33
ATOM     33  N   UNL A   1      32.962  34.896  29.417  1.00  0.00    -0.352 N 
ATOM     34  C   UNL A   1      33.354  35.083  30.719  1.00  0.00     0.251 C 
ATOM     35  H   UNL A   1      32.333  35.566  29.064  1.00  0.00     0.163 HD
ATOM     36  O   UNL A   1      32.726  35.849  31.440  1.00  0.00    -0.269 OA
BRANCH  34  37
ATOM     37  C   UNL A   1      34.525  34.349  31.245  1.00  0.00     0.039 A 
ATOM     38  C   UNL A   1      34.344  33.072  31.779  1.00  0.00     0.014 A 
ATOM     39  C   UNL A   1      35.798  34.930  31.227  1.00  0.00     0.014 A 
ATOM     40  C   UNL A   1      35.446  32.356  32.250  1.00  0.00     0.010 A 
ATOM     41  C   UNL A   1      36.904  34.188  31.632  1.00  0.00     0.010 A 
ATOM     42  C   UNL A   1      36.740  32.895  32.154  1.00  0.00    -0.014 A 
BRANCH  42  43
ATOM     43  C   UNL A   1      37.931  32.126  32.600  1.00  0.00     0.031 A 
ATOM     44  C   UNL A   1      38.563  32.426  33.934  1.00  0.00     0.074 A 
ATOM     45  C   UNL A   1      38.475  31.204  31.780  1.00  0.00     0.049 A 
ATOM     46  N   UNL A   1      39.647  31.922  34.466  1.00  0.00    -0.248 NA
ATOM     47  C   UNL A   1      37.904  33.444  34.768  1.00  0.00     0.031 C 
ATOM     48  C   UNL A   1      37.969  30.854  30.449  1.00  0.00     0.029 A 
ATOM     49  N   UNL A   1      39.576  30.399  31.935  1.00  0.00    -0.354 N 
ATOM     50  C   UNL A   1      39.810  32.572  35.685  1.00  0.00     0.074 A 
ATOM     51  C   UNL A   1      38.740  33.540  35.791  1.00  0.00     0.031 C 
ATOM     52  C   UNL A   1      38.744  29.894  29.922  1.00  0.00     0.029 A 
ATOM     53  C   UNL A   1      39.831  29.592  30.848  1.00  0.00     0.049 A 
ATOM     54  H   UNL A   1      40.131  30.398  32.748  1.00  0.00     0.167 HD
ATOM     55  C   UNL A   1      40.755  32.365  36.634  1.00  0.00     0.034 A 
ATOM     56  C   UNL A   1      40.836  28.723  30.619  1.00  0.00     0.034 A 
ATOM     57  C   UNL A   1      41.799  31.376  36.524  1.00  0.00     0.049 A 
ATOM     58  C   UNL A   1      41.884  28.528  31.688  1.00  0.00     0.074 A 
ATOM     59  C   UNL A   1      42.764  31.037  37.457  1.00  0.00     0.029 A 
ATOM     60  N   UNL A   1      42.022  30.574  35.413  1.00  0.00    -0.354 N 
ATOM     61  N   UNL A   1      41.985  29.107  32.862  1.00  0.00    -0.248 NA
ATOM     62  C   UNL A   1      42.947  27.554  31.407  1.00  0.00     0.031 C 
ATOM     63  C   UNL A   1      43.613  30.086  36.885  1.00  0.00     0.029 A 
ATOM     64  C   UNL A   1      43.130  29.767  35.625  1.00  0.00     0.049 A 
ATOM     65  H   UNL A   1      41.475  30.576  34.596  1.00  0.00     0.167 HD
ATOM     66  C   UNL A   1      43.098  28.535  33.473  1.00  0.00     0.074 A 
ATOM     67  C   UNL A   1      43.623  27.555  32.545  1.00  0.00     0.031 C 
ATOM     68  C   UNL A   1      43.639  28.792  34.691  1.00  0.00     0.034 A 
BRANCH  55  69
ATOM     69  C   UNL A   1      40.724  33.239  37.865  1.00  0.00     0.023 A 
ATOM     70  C   UNL A   1      40.012  32.872  39.019  1.00  0.00     0.031 A 
ATOM     71  C   UNL A   1      41.440  34.449  37.889  1.00  0.00     0.131 A 
ATOM     72  C   UNL A   1      39.990  33.728  40.130  1.00  0.00     0.055 A 
ATOM     73  C   UNL A   1      41.475  35.262  39.024  1.00  0.00     0.041 A 
ATOM     74  F   UNL A   1      42.122  34.862  36.809  1.00  0.00    -0.206 F 
ATOM     75  C   UNL A   1      40.738  34.908  40.150  1.00  0.00     0.022 A 
BRANCH  72  76
ATOM     76  S   UNL A   1      38.885  33.332  41.513  1.00  0.00     0.124 S 
ATOM     77  O   UNL A   1      39.509  34.068  42.609  1.00  0.00    -0.237 OA
ATOM     78  O   UNL A   1      37.601  33.845  41.047  1.00  0.00    -0.237 OA
ATOM     79  O   UNL A   1      38.974  31.877  41.617  1.00  0.00    -0.744 OA
ENDBRANCH  72  76
ENDBRANCH  55  69
BRANCH  56  80
ATOM     80  C   UNL A   1      40.928  27.981  29.326  1.00  0.00     0.023 A 
ATOM     81  C   UNL A   1      41.876  28.338  28.354  1.00  0.00     0.031 A 
ATOM     82  C   UNL A   1      40.017  26.959  29.008  1.00  0.00     0.131 A 
ATOM     83  C   UNL A   1      41.845  27.733  27.087  1.00  0.00     0.055 A 
ATOM     84  C   UNL A   1      40.033  26.312  27.770  1.00  0.00     0.041 A 
ATOM     85  F   UNL A   1      39.090  26.572  29.899  1.00  0.00    -0.206 F 
ATOM     86  C   UNL A   1      40.938  26.713  26.793  1.00  0.00     0.022 A 
BRANCH  83  87
ATOM     87  S   UNL A   1      42.918  28.397  25.785  1.00  0.00     0.124 S 
ATOM     88  O   UNL A   1      42.278  27.880  24.580  1.00  0.00    -0.237 OA
ATOM     89  O   UNL A   1      42.806  29.835  26.005  1.00  0.00    -0.237 OA
ATOM     90  O   UNL A   1      44.225  27.820  26.094  1.00  0.00    -0.744 OA
ENDBRANCH  83  87
ENDBRANCH  56  80
BRANCH  68  91
ATOM     91  C   UNL A   1      44.825  27.958  35.107  1.00  0.00     0.023 A 
ATOM     92  C   UNL A   1      44.673  26.744  35.799  1.00  0.00     0.031 A 
ATOM     93  C   UNL A   1      46.130  28.392  34.813  1.00  0.00     0.131 A 
ATOM     94  C   UNL A   1      45.806  26.037  36.227  1.00  0.00     0.055 A 
ATOM     95  C   UNL A   1      47.253  27.650  35.183  1.00  0.00     0.041 A 
ATOM     96  F   UNL A   1      46.336  29.545  34.155  1.00  0.00    -0.206 F 
ATOM     97  C   UNL A   1      47.095  26.473  35.907  1.00  0.00     0.022 A 
BRANCH  94  98
ATOM     98  S   UNL A   1      45.577  24.587  37.292  1.00  0.00     0.124 S 
ATOM     99  O   UNL A   1      46.911  24.411  37.857  1.00  0.00    -0.237 OA
ATOM    100  O   UNL A   1      44.547  25.042  38.221  1.00  0.00    -0.237 OA
ATOM    101  O   UNL A   1      45.154  23.542  36.362  1.00  0.00    -0.744 OA
ENDBRANCH  94  98
ENDBRANCH  68  91
ENDBRANCH  42  43
ENDBRANCH  34  37
ENDBRANCH  32  33
ENDBRANCH  31  32
ENDBRANCH   1  31
TORSDOF 21
ENDMDL
MODEL 2
REMARK VINA RESULT:      -9.9      2.795      8.449
REMARK SMILES CCCc1cc(OC(F)(F)F)cc2c1O[C@H](C(F)(F)F)C(C(=O)NCCCCCCNC(=O)c1ccc(-c3c4nc(c(-c5cc(S(=O)(=O)[O-])ccc5F)c5ccc([nH]5)c(-c5cc(S(=O)(=O)[O-])ccc5F)c5nc(c(-c6cc(S(=O)(=O)[O-])ccc6F)c6ccc3[nH]6)C=C5)C=C4)cc1)=C2
REMARK SMILES IDX 28 1 27 2 26 3 25 4 24 5 22 6 23 7 21 9 4 10 5 11 14 12 6 13
REMARK SMILES IDX 13 14 15 15 12 16 97 17 16 18 3 19 2 20 1 21 7 22 8 23 9 24
REMARK SMILES IDX 10 25 11 26 17 27 18 28 19 29 20 30 29 31 30 32 31 33 32 34
REMARK SMILES IDX 33 36 34 37 35 38 96 39 36 40 95 41 37 42 38 43 39 44 89 45
REMARK SMILES IDX 40 46 94 47 88 48 90 49 41 50 93 51 87 52 86 53 42 55 74 56
REMARK SMILES IDX 54 57 73 58 55 59 58 60 72 61 91 62 56 63 57 64 71 66 92 67
REMARK SMILES IDX 59 68 43 69 44 70 52 71 45 72 51 73 53 74 50 75 46 76 47 77
REMARK SMILES IDX 48 78 49 79 75 80 76 81 84 82 77 83 83 84 85 85 82 86 78 87
REMARK SMILES IDX 79 88 80 89 81 90 60 91 61 92 69 93 62 94 68 95 70 96 67 97
REMARK SMILES IDX 63 98 64 99 65 100 66 101
REMARK H PARENT 24 8 31 35 90 54 58 65
REMARK Flexibility Score: inf
ROOT
ATOM      1  C   UNL A   1      42.181  26.267  26.176  1.00  0.00     0.002 C 
ENDROOT
BRANCH   1   2
ATOM      2  C   UNL A   1      41.040  25.854  27.115  1.00  0.00     0.002 C 
BRANCH   2   3
ATOM      3  C   UNL A   1      39.902  25.080  26.435  1.00  0.00     0.021 C 
BRANCH   3   4
ATOM      4  C   UNL A   1      39.281  24.017  27.343  1.00  0.00     0.116 C 
BRANCH   4   5
ATOM      5  N   UNL A   1      39.295  22.729  26.679  1.00  0.00    -0.352 N 
ATOM      6  C   UNL A   1      38.383  22.065  25.928  1.00  0.00     0.251 C 
ATOM      7  O   UNL A   1      38.709  20.957  25.500  1.00  0.00    -0.270 OA
ATOM      8  H   UNL A   1      40.138  22.235  26.799  1.00  0.00     0.163 HD
BRANCH   6   9
ATOM      9  C   UNL A   1      37.081  22.653  25.500  1.00  0.00     0.067 C 
ATOM     10  C   UNL A   1      33.827  24.260  23.375  1.00  0.00    -0.002 A 
ATOM     11  C   UNL A   1      33.155  25.375  23.914  1.00  0.00     0.054 A 
ATOM     12  C   UNL A   1      34.903  23.712  24.089  1.00  0.00     0.131 A 
ATOM     13  C   UNL A   1      33.573  25.959  25.109  1.00  0.00     0.130 A 
ATOM     14  C   UNL A   1      35.304  24.266  25.310  1.00  0.00     0.021 A 
ATOM     15  O   UNL A   1      35.586  22.671  23.515  1.00  0.00    -0.475 OA
ATOM     16  C   UNL A   1      34.642  25.392  25.807  1.00  0.00     0.058 A 
ATOM     17  C   UNL A   1      36.479  23.740  26.002  1.00  0.00     0.025 C 
ATOM     18  C   UNL A   1      36.397  21.857  24.403  1.00  0.00     0.314 C 
BRANCH  10  19
ATOM     19  C   UNL A   1      33.359  23.666  22.062  1.00  0.00     0.039 C 
BRANCH  19  20
ATOM     20  C   UNL A   1      32.613  22.332  22.188  1.00  0.00     0.001 C 
ATOM     21  C   UNL A   1      31.541  22.341  23.268  1.00  0.00     0.004 C 
ENDBRANCH  19  20
ENDBRANCH  10  19
BRANCH  13  22
ATOM     22  O   UNL A   1      33.047  27.075  25.697  1.00  0.00    -0.406 OA
BRANCH  22  23
ATOM     23  C   UNL A   1      31.664  27.074  26.006  1.00  0.00     0.573 C 
ATOM     24  F   UNL A   1      31.422  27.692  27.181  1.00  0.00    -0.132 F 
ATOM     25  F   UNL A   1      30.954  27.679  25.027  1.00  0.00    -0.132 F 
ATOM     26  F   UNL A   1      31.239  25.797  26.106  1.00  0.00    -0.132 F 
ENDBRANCH  22  23
ENDBRANCH  13  22
BRANCH  18  27
ATOM     27  C   UNL A   1      35.555  20.693  24.964  1.00  0.00     0.429 C 
ATOM     28  F   UNL A   1      34.381  20.580  24.292  1.00  0.00    -0.167 F 
ATOM     29  F   UNL A   1      36.167  19.492  24.875  1.00  0.00    -0.167 F 
ATOM     30  F   UNL A   1      35.243  20.874  26.272  1.00  0.00    -0.167 F 
ENDBRANCH  18  27
ENDBRANCH   6   9
ENDBRANCH   4   5
ENDBRANCH   3   4
ENDBRANCH   2   3
ENDBRANCH   1   2
BRANCH   1  31
ATOM     31  C   UNL A   1      42.837  25.112  25.416  1.00  0.00     0.021 C 
BRANCH  31  32
ATOM     32  C   UNL A   1      44.280  25.380  24.999  1.00  0.00     0.116 C 
BRANCH  32  33
ATOM     33  N   UNL A   1      45.186  24.400  25.574  1.00  0.00    -0.352 N 
ATOM     34  C   UNL A   1      45.747  24.368  26.827  1.00  0.00     0.251 C 
ATOM     35  H   UNL A   1      45.431  23.652  24.982  1.00  0.00     0.163 HD
ATOM     36  O   UNL A   1      46.698  23.626  27.049  1.00  0.00    -0.269 OA
BRANCH  34  37
ATOM     37  C   UNL A   1      45.208  25.237  27.894  1.00  0.00     0.039 A 
ATOM     38  C   UNL A   1      45.587  26.581  27.933  1.00  0.00     0.014 A 
ATOM     39  C   UNL A   1      44.344  24.721  28.866  1.00  0.00     0.014 A 
ATOM     40  C   UNL A   1      45.059  27.419  28.918  1.00  0.00     0.010 A 
ATOM     41  C   UNL A   1      43.766  25.573  29.803  1.00  0.00     0.010 A 
ATOM     42  C   UNL A   1      44.122  26.930  29.843  1.00  0.00    -0.014 A 
BRANCH  42  43
ATOM     43  C   UNL A   1      43.510  27.820  30.864  1.00  0.00     0.031 A 
ATOM     44  C   UNL A   1      44.193  28.025  32.190  1.00  0.00     0.074 A 
ATOM     45  C   UNL A   1      42.314  28.394  30.617  1.00  0.00     0.049 A 
ATOM     46  N   UNL A   1      43.783  28.698  33.235  1.00  0.00    -0.248 NA
ATOM     47  C   UNL A   1      45.496  27.367  32.375  1.00  0.00     0.031 C 
ATOM     48  C   UNL A   1      41.542  28.239  29.381  1.00  0.00     0.029 A 
ATOM     49  N   UNL A   1      41.531  29.212  31.393  1.00  0.00    -0.354 N 
ATOM     50  C   UNL A   1      44.766  28.529  34.205  1.00  0.00     0.074 A 
ATOM     51  C   UNL A   1      45.768  27.652  33.640  1.00  0.00     0.031 C 
ATOM     52  C   UNL A   1      40.410  28.955  29.475  1.00  0.00     0.029 A 
ATOM     53  C   UNL A   1      40.347  29.579  30.793  1.00  0.00     0.049 A 
ATOM     54  H   UNL A   1      41.793  29.510  32.294  1.00  0.00     0.167 HD
ATOM     55  C   UNL A   1      44.832  29.072  35.445  1.00  0.00     0.034 A 
ATOM     56  C   UNL A   1      39.321  30.319  31.259  1.00  0.00     0.034 A 
ATOM     57  C   UNL A   1      43.837  29.967  35.983  1.00  0.00     0.049 A 
ATOM     58  C   UNL A   1      39.417  30.895  32.652  1.00  0.00     0.074 A 
ATOM     59  C   UNL A   1      43.843  30.628  37.199  1.00  0.00     0.029 A 
ATOM     60  N   UNL A   1      42.656  30.320  35.345  1.00  0.00    -0.354 N 
ATOM     61  N   UNL A   1      40.384  30.776  33.531  1.00  0.00    -0.248 NA
ATOM     62  C   UNL A   1      38.287  31.715  33.110  1.00  0.00     0.031 C 
ATOM     63  C   UNL A   1      42.635  31.319  37.329  1.00  0.00     0.029 A 
ATOM     64  C   UNL A   1      41.911  31.162  36.158  1.00  0.00     0.049 A 
ATOM     65  H   UNL A   1      42.386  30.020  34.448  1.00  0.00     0.167 HD
ATOM     66  C   UNL A   1      39.996  31.541  34.628  1.00  0.00     0.074 A 
ATOM     67  C   UNL A   1      38.716  32.128  34.293  1.00  0.00     0.031 C 
ATOM     68  C   UNL A   1      40.637  31.742  35.807  1.00  0.00     0.034 A 
BRANCH  55  69
ATOM     69  C   UNL A   1      46.004  28.696  36.320  1.00  0.00     0.023 A 
ATOM     70  C   UNL A   1      45.949  27.609  37.209  1.00  0.00     0.031 A 
ATOM     71  C   UNL A   1      47.204  29.425  36.243  1.00  0.00     0.131 A 
ATOM     72  C   UNL A   1      47.055  27.313  38.021  1.00  0.00     0.055 A 
ATOM     73  C   UNL A   1      48.325  29.080  37.000  1.00  0.00     0.041 A 
ATOM     74  F   UNL A   1      47.308  30.486  35.427  1.00  0.00    -0.206 F 
ATOM     75  C   UNL A   1      48.251  28.025  37.904  1.00  0.00     0.022 A 
BRANCH  72  76
ATOM     76  S   UNL A   1      46.873  26.051  39.310  1.00  0.00     0.124 S 
ATOM     77  O   UNL A   1      45.620  25.409  38.922  1.00  0.00    -0.237 OA
ATOM     78  O   UNL A   1      48.081  25.250  39.140  1.00  0.00    -0.237 OA
ATOM     79  O   UNL A   1      46.811  26.828  40.546  1.00  0.00    -0.744 OA
ENDBRANCH  72  76
ENDBRANCH  55  69
BRANCH  56  80
ATOM     80  C   UNL A   1      38.102  30.550  30.428  1.00  0.00     0.023 A 
ATOM     81  C   UNL A   1      37.804  31.825  29.922  1.00  0.00     0.031 A 
ATOM     82  C   UNL A   1      37.172  29.520  30.197  1.00  0.00     0.131 A 
ATOM     83  C   UNL A   1      36.577  32.056  29.278  1.00  0.00     0.055 A 
ATOM     84  C   UNL A   1      35.985  29.739  29.496  1.00  0.00     0.041 A 
ATOM     85  F   UNL A   1      37.405  28.279  30.654  1.00  0.00    -0.206 F 
ATOM     86  C   UNL A   1      35.672  31.018  29.049  1.00  0.00     0.022 A 
BRANCH  83  87
ATOM     87  S   UNL A   1      36.125  33.763  28.865  1.00  0.00     0.124 S 
ATOM     88  O   UNL A   1      35.599  33.612  27.513  1.00  0.00    -0.237 OA
ATOM     89  O   UNL A   1      35.148  34.076  29.903  1.00  0.00    -0.237 OA
ATOM     90  O   UNL A   1      37.392  34.484  28.965  1.00  0.00    -0.744 OA
ENDBRANCH  83  87
ENDBRANCH  56  80
BRANCH  68  91
ATOM     91  C   UNL A   1      39.988  32.683  36.792  1.00  0.00     0.023 A 
ATOM     92  C   UNL A   1      39.101  32.227  37.782  1.00  0.00     0.031 A 
ATOM     93  C   UNL A   1      40.255  34.063  36.729  1.00  0.00     0.131 A 
ATOM     94  C   UNL A   1      38.468  33.147  38.630  1.00  0.00     0.055 A 
ATOM     95  C   UNL A   1      39.673  34.966  37.619  1.00  0.00     0.041 A 
ATOM     96  F   UNL A   1      41.093  34.555  35.803  1.00  0.00    -0.206 F 
ATOM     97  C   UNL A   1      38.762  34.512  38.568  1.00  0.00     0.022 A 
BRANCH  94  98
ATOM     98  S   UNL A   1      37.178  32.547  39.756  1.00  0.00     0.124 S 
ATOM     99  O   UNL A   1      37.757  31.300  40.244  1.00  0.00    -0.237 OA
ATOM    100  O   UNL A   1      37.085  33.631  40.730  1.00  0.00    -0.237 OA
ATOM    101  O   UNL A   1      36.011  32.392  38.889  1.00  0.00    -0.744 OA
ENDBRANCH  94  98
ENDBRANCH  68  91
ENDBRANCH  42  43
ENDBRANCH  34  37
ENDBRANCH  32  33
ENDBRANCH  31  32
ENDBRANCH   1  31
TORSDOF 21
ENDMDL
MODEL 3
REMARK VINA RESULT:      -9.9      5.939     11.194
REMARK SMILES CCCc1cc(OC(F)(F)F)cc2c1O[C@H](C(F)(F)F)C(C(=O)NCCCCCCNC(=O)c1ccc(-c3c4nc(c(-c5cc(S(=O)(=O)[O-])ccc5F)c5ccc([nH]5)c(-c5cc(S(=O)(=O)[O-])ccc5F)c5nc(c(-c6cc(S(=O)(=O)[O-])ccc6F)c6ccc3[nH]6)C=C5)C=C4)cc1)=C2
REMARK SMILES IDX 28 1 27 2 26 3 25 4 24 5 22 6 23 7 21 9 4 10 5 11 14 12 6 13
REMARK SMILES IDX 13 14 15 15 12 16 97 17 16 18 3 19 2 20 1 21 7 22 8 23 9 24
REMARK SMILES IDX 10 25 11 26 17 27 18 28 19 29 20 30 29 31 30 32 31 33 32 34
REMARK SMILES IDX 33 36 34 37 35 38 96 39 36 40 95 41 37 42 38 43 39 44 89 45
REMARK SMILES IDX 40 46 94 47 88 48 90 49 41 50 93 51 87 52 86 53 42 55 74 56
REMARK SMILES IDX 54 57 73 58 55 59 58 60 72 61 91 62 56 63 57 64 71 66 92 67
REMARK SMILES IDX 59 68 43 69 44 70 52 71 45 72 51 73 53 74 50 75 46 76 47 77
REMARK SMILES IDX 48 78 49 79 75 80 76 81 84 82 77 83 83 84 85 85 82 86 78 87
REMARK SMILES IDX 79 88 80 89 81 90 60 91 61 92 69 93 62 94 68 95 70 96 67 97
REMARK SMILES IDX 63 98 64 99 65 100 66 101
REMARK H PARENT 24 8 31 35 90 54 58 65
REMARK Flexibility Score: inf
ROOT
ATOM      1  C   UNL A   1      38.686  20.997  25.360  1.00  0.00     0.002 C 
ENDROOT
BRANCH   1   2
ATOM      2  C   UNL A   1      37.442  21.833  25.694  1.00  0.00     0.002 C 
BRANCH   2   3
ATOM      3  C   UNL A   1      37.399  23.211  25.019  1.00  0.00     0.021 C 
BRANCH   3   4
ATOM      4  C   UNL A   1      36.455  23.254  23.817  1.00  0.00     0.116 C 
BRANCH   4   5
ATOM      5  N   UNL A   1      35.371  22.310  24.005  1.00  0.00    -0.352 N 
ATOM      6  C   UNL A   1      34.064  22.456  24.334  1.00  0.00     0.251 C 
ATOM      7  O   UNL A   1      33.389  21.429  24.419  1.00  0.00    -0.270 OA
ATOM      8  H   UNL A   1      35.638  21.373  23.866  1.00  0.00     0.163 HD
BRANCH   6   9
ATOM      9  C   UNL A   1      33.390  23.780  24.471  1.00  0.00     0.067 C 
ATOM     10  C   UNL A   1      31.874  27.666  23.938  1.00  0.00    -0.002 A 
ATOM     11  C   UNL A   1      31.936  28.567  25.019  1.00  0.00     0.054 A 
ATOM     12  C   UNL A   1      32.365  26.364  24.118  1.00  0.00     0.131 A 
ATOM     13  C   UNL A   1      32.515  28.197  26.233  1.00  0.00     0.130 A 
ATOM     14  C   UNL A   1      32.910  25.970  25.345  1.00  0.00     0.021 A 
ATOM     15  O   UNL A   1      32.358  25.525  23.034  1.00  0.00    -0.475 OA
ATOM     16  C   UNL A   1      32.990  26.893  26.392  1.00  0.00     0.058 A 
ATOM     17  C   UNL A   1      33.495  24.640  25.493  1.00  0.00     0.025 C 
ATOM     18  C   UNL A   1      32.465  24.103  23.312  1.00  0.00     0.314 C 
BRANCH  10  19
ATOM     19  C   UNL A   1      31.259  28.110  22.627  1.00  0.00     0.039 C 
BRANCH  19  20
ATOM     20  C   UNL A   1      29.782  28.510  22.710  1.00  0.00     0.001 C 
ATOM     21  C   UNL A   1      29.502  29.902  22.164  1.00  0.00     0.004 C 
ENDBRANCH  19  20
ENDBRANCH  10  19
BRANCH  13  22
ATOM     22  O   UNL A   1      32.691  28.996  27.328  1.00  0.00    -0.406 OA
BRANCH  22  23
ATOM     23  C   UNL A   1      33.812  29.864  27.343  1.00  0.00     0.573 C 
ATOM     24  F   UNL A   1      33.661  30.846  28.259  1.00  0.00    -0.132 F 
ATOM     25  F   UNL A   1      34.946  29.179  27.605  1.00  0.00    -0.132 F 
ATOM     26  F   UNL A   1      33.938  30.438  26.128  1.00  0.00    -0.132 F 
ENDBRANCH  22  23
ENDBRANCH  13  22
BRANCH  18  27
ATOM     27  C   UNL A   1      31.059  23.498  23.499  1.00  0.00     0.429 C 
ATOM     28  F   UNL A   1      30.099  24.382  23.125  1.00  0.00    -0.167 F 
ATOM     29  F   UNL A   1      30.853  22.376  22.775  1.00  0.00    -0.167 F 
ATOM     30  F   UNL A   1      30.812  23.174  24.794  1.00  0.00    -0.167 F 
ENDBRANCH  18  27
ENDBRANCH   6   9
ENDBRANCH   4   5
ENDBRANCH   3   4
ENDBRANCH   2   3
ENDBRANCH   1   2
BRANCH   1  31
ATOM     31  C   UNL A   1      39.895  21.257  26.261  1.00  0.00     0.021 C 
BRANCH  31  32
ATOM     32  C   UNL A   1      40.353  20.037  27.054  1.00  0.00     0.116 C 
BRANCH  32  33
ATOM     33  N   UNL A   1      41.421  19.331  26.365  1.00  0.00    -0.352 N 
ATOM     34  C   UNL A   1      42.541  19.838  25.753  1.00  0.00     0.251 C 
ATOM     35  H   UNL A   1      41.329  18.352  26.334  1.00  0.00     0.163 HD
ATOM     36  O   UNL A   1      43.187  19.132  24.987  1.00  0.00    -0.269 OA
BRANCH  34  37
ATOM     37  C   UNL A   1      42.952  21.234  26.015  1.00  0.00     0.039 A 
ATOM     38  C   UNL A   1      42.968  22.147  24.958  1.00  0.00     0.014 A 
ATOM     39  C   UNL A   1      43.338  21.635  27.297  1.00  0.00     0.014 A 
ATOM     40  C   UNL A   1      43.323  23.476  25.198  1.00  0.00     0.010 A 
ATOM     41  C   UNL A   1      43.624  22.975  27.548  1.00  0.00     0.010 A 
ATOM     42  C   UNL A   1      43.626  23.909  26.501  1.00  0.00    -0.014 A 
BRANCH  42  43
ATOM     43  C   UNL A   1      43.954  25.330  26.784  1.00  0.00     0.031 A 
ATOM     44  C   UNL A   1      45.350  25.842  26.545  1.00  0.00     0.074 A 
ATOM     45  C   UNL A   1      43.012  26.140  27.309  1.00  0.00     0.049 A 
ATOM     46  N   UNL A   1      45.852  27.023  26.802  1.00  0.00    -0.248 NA
ATOM     47  C   UNL A   1      46.315  24.894  25.965  1.00  0.00     0.031 C 
ATOM     48  C   UNL A   1      41.634  25.744  27.616  1.00  0.00     0.029 A 
ATOM     49  N   UNL A   1      43.068  27.457  27.690  1.00  0.00    -0.354 N 
ATOM     50  C   UNL A   1      47.192  26.955  26.433  1.00  0.00     0.074 A 
ATOM     51  C   UNL A   1      47.434  25.603  25.980  1.00  0.00     0.031 C 
ATOM     52  C   UNL A   1      40.973  26.800  28.116  1.00  0.00     0.029 A 
ATOM     53  C   UNL A   1      41.887  27.934  28.215  1.00  0.00     0.049 A 
ATOM     54  H   UNL A   1      43.876  28.010  27.595  1.00  0.00     0.167 HD
ATOM     55  C   UNL A   1      48.125  27.937  26.455  1.00  0.00     0.034 A 
ATOM     56  C   UNL A   1      41.583  29.141  28.734  1.00  0.00     0.034 A 
ATOM     57  C   UNL A   1      47.859  29.288  26.884  1.00  0.00     0.049 A 
ATOM     58  C   UNL A   1      42.650  30.208  28.760  1.00  0.00     0.074 A 
ATOM     59  C   UNL A   1      48.715  30.376  26.878  1.00  0.00     0.029 A 
ATOM     60  N   UNL A   1      46.652  29.735  27.402  1.00  0.00    -0.354 N 
ATOM     61  N   UNL A   1      43.895  30.143  28.348  1.00  0.00    -0.248 NA
ATOM     62  C   UNL A   1      42.268  31.516  29.311  1.00  0.00     0.031 C 
ATOM     63  C   UNL A   1      48.051  31.459  27.461  1.00  0.00     0.029 A 
ATOM     64  C   UNL A   1      46.752  31.073  27.753  1.00  0.00     0.049 A 
ATOM     65  H   UNL A   1      45.842  29.185  27.506  1.00  0.00     0.167 HD
ATOM     66  C   UNL A   1      44.429  31.413  28.552  1.00  0.00     0.074 A 
ATOM     67  C   UNL A   1      43.367  32.226  29.107  1.00  0.00     0.031 C 
ATOM     68  C   UNL A   1      45.682  31.870  28.303  1.00  0.00     0.034 A 
BRANCH  55  69
ATOM     69  C   UNL A   1      49.530  27.586  26.027  1.00  0.00     0.023 A 
ATOM     70  C   UNL A   1      50.538  27.288  26.960  1.00  0.00     0.031 A 
ATOM     71  C   UNL A   1      49.858  27.525  24.661  1.00  0.00     0.131 A 
ATOM     72  C   UNL A   1      51.836  26.992  26.517  1.00  0.00     0.055 A 
ATOM     73  C   UNL A   1      51.132  27.158  24.225  1.00  0.00     0.041 A 
ATOM     74  F   UNL A   1      48.942  27.819  23.725  1.00  0.00    -0.206 F 
ATOM     75  C   UNL A   1      52.134  26.900  25.155  1.00  0.00     0.022 A 
BRANCH  72  76
ATOM     76  S   UNL A   1      53.160  26.834  27.747  1.00  0.00     0.124 S 
ATOM     77  O   UNL A   1      52.406  26.863  28.998  1.00  0.00    -0.237 OA
ATOM     78  O   UNL A   1      53.766  25.554  27.395  1.00  0.00    -0.237 OA
ATOM     79  O   UNL A   1      53.997  28.006  27.504  1.00  0.00    -0.744 OA
ENDBRANCH  72  76
ENDBRANCH  55  69
BRANCH  56  80
ATOM     80  C   UNL A   1      40.225  29.416  29.292  1.00  0.00     0.023 A 
ATOM     81  C   UNL A   1      39.990  29.371  30.675  1.00  0.00     0.031 A 
ATOM     82  C   UNL A   1      39.124  29.645  28.447  1.00  0.00     0.131 A 
ATOM     83  C   UNL A   1      38.679  29.477  31.168  1.00  0.00     0.055 A 
ATOM     84  C   UNL A   1      37.832  29.819  28.946  1.00  0.00     0.041 A 
ATOM     85  F   UNL A   1      39.289  29.702  27.115  1.00  0.00    -0.206 F 
ATOM     86  C   UNL A   1      37.600  29.714  30.314  1.00  0.00     0.022 A 
BRANCH  83  87
ATOM     87  S   UNL A   1      38.390  29.163  32.931  1.00  0.00     0.124 S 
ATOM     88  O   UNL A   1      39.475  28.243  33.251  1.00  0.00    -0.237 OA
ATOM     89  O   UNL A   1      38.496  30.504  33.497  1.00  0.00    -0.237 OA
ATOM     90  O   UNL A   1      37.049  28.581  32.957  1.00  0.00    -0.744 OA
ENDBRANCH  83  87
ENDBRANCH  56  80
BRANCH  68  91
ATOM     91  C   UNL A   1      45.949  33.330  28.576  1.00  0.00     0.023 A 
ATOM     92  C   UNL A   1      46.437  33.777  29.815  1.00  0.00     0.031 A 
ATOM     93  C   UNL A   1      45.701  34.290  27.577  1.00  0.00     0.131 A 
ATOM     94  C   UNL A   1      46.604  35.151  30.046  1.00  0.00     0.055 A 
ATOM     95  C   UNL A   1      45.932  35.649  27.790  1.00  0.00     0.041 A 
ATOM     96  F   UNL A   1      45.233  33.920  26.374  1.00  0.00    -0.206 F 
ATOM     97  C   UNL A   1      46.373  36.088  29.035  1.00  0.00     0.022 A 
BRANCH  94  98
ATOM     98  S   UNL A   1      47.037  35.706  31.718  1.00  0.00     0.124 S 
ATOM     99  O   UNL A   1      46.943  37.157  31.589  1.00  0.00    -0.237 OA
ATOM    100  O   UNL A   1      46.008  35.071  32.534  1.00  0.00    -0.237 OA
ATOM    101  O   UNL A   1      48.389  35.187  31.912  1.00  0.00    -0.744 OA
ENDBRANCH  94  98
ENDBRANCH  68  91
ENDBRANCH  42  43
ENDBRANCH  34  37
ENDBRANCH  32  33
ENDBRANCH  31  32
ENDBRANCH   1  31
TORSDOF 21
ENDMDL
