MODEL 1
REMARK VINA RESULT:     -12.2      0.000      0.000
REMARK SMILES C[C@@H](C(=O)NCCCCCCNC(=O)c1ccc(-c2c3nc(c(-c4cc(S(=O)(=O)[O-])ccc4F)c4ccc([nH]4)c(-c4cc(S(=O)(=O)[O-])ccc4F)c4nc(c(-c5cc(S(=O)(=O)[O-])ccc5F)c5ccc2[nH]5)C=C4)C=C3)cc1)S(=O)(=O)N[C@@]12C[C@@H]3C[C@@](C)(C[C@@](C)(C3)C1)C2
REMARK SMILES IDX 8 1 7 2 6 3 5 4 3 5 4 6 2 8 1 9 78 10 79 11 80 12 81 13
REMARK SMILES IDX 82 15 83 16 92 17 93 18 84 19 89 20 86 21 91 22 85 23 88 24
REMARK SMILES IDX 90 25 87 26 9 27 10 28 11 29 12 30 13 31 14 33 15 34 16 35
REMARK SMILES IDX 77 36 17 37 76 38 18 39 19 40 20 41 70 42 21 43 75 44 69 45
REMARK SMILES IDX 71 46 22 47 74 48 68 49 67 50 23 52 55 53 35 54 54 55 36 56
REMARK SMILES IDX 39 57 53 58 72 59 37 60 38 61 52 63 73 64 40 65 24 66 25 67
REMARK SMILES IDX 33 68 26 69 32 70 34 71 31 72 27 73 28 74 29 75 30 76 56 77
REMARK SMILES IDX 57 78 65 79 58 80 64 81 66 82 63 83 59 84 60 85 61 86 62 87
REMARK SMILES IDX 41 88 42 89 50 90 43 91 49 92 51 93 48 94 44 95 45 96 46 97
REMARK SMILES IDX 47 98
REMARK H PARENT 5 7 81 14 12 32 71 51 39 62
REMARK Flexibility Score: inf
ROOT
ATOM      1  C   UNL A   1      32.772  28.772  26.589  1.00  0.00     0.002 C 
ENDROOT
BRANCH   1   2
ATOM      2  C   UNL A   1      31.572  27.864  26.908  1.00  0.00     0.021 C 
BRANCH   2   3
ATOM      3  C   UNL A   1      31.540  26.597  26.046  1.00  0.00     0.116 C 
BRANCH   3   4
ATOM      4  N   UNL A   1      30.898  26.894  24.780  1.00  0.00    -0.355 N 
ATOM      5  C   UNL A   1      31.418  27.259  23.571  1.00  0.00     0.239 C 
ATOM      6  O   UNL A   1      30.616  27.781  22.792  1.00  0.00    -0.274 OA
ATOM      7  H   UNL A   1      29.917  26.818  24.793  1.00  0.00     0.163 HD
BRANCH   5   8
ATOM      8  C   UNL A   1      32.865  26.960  23.212  1.00  0.00     0.209 C 
ATOM      9  C   UNL A   1      33.695  28.063  22.563  1.00  0.00     0.037 C 
BRANCH   8  10
ATOM     10  S   UNL A   1      32.943  25.396  22.268  1.00  0.00     0.223 S 
ATOM     11  O   UNL A   1      31.785  24.595  22.602  1.00  0.00    -0.212 OA
ATOM     12  O   UNL A   1      33.159  25.735  20.873  1.00  0.00    -0.212 OA
BRANCH  10  13
ATOM     13  N   UNL A   1      34.311  24.537  22.722  1.00  0.00    -0.208 NA
ATOM     14  H   UNL A   1      34.999  25.249  22.965  1.00  0.00     0.141 HD
BRANCH  13  15
ATOM     15  C   UNL A   1      34.417  23.524  23.796  1.00  0.00     0.034 C 
ATOM     16  C   UNL A   1      34.120  24.195  25.167  1.00  0.00     0.027 C 
ATOM     17  C   UNL A   1      33.315  22.463  23.604  1.00  0.00     0.030 C 
ATOM     18  C   UNL A   1      35.826  22.922  23.917  1.00  0.00     0.030 C 
ATOM     19  C   UNL A   1      34.172  23.144  26.305  1.00  0.00    -0.008 C 
ATOM     20  C   UNL A   1      33.397  21.369  24.684  1.00  0.00    -0.030 C 
ATOM     21  C   UNL A   1      35.886  21.832  25.000  1.00  0.00    -0.030 C 
ATOM     22  C   UNL A   1      33.132  22.037  26.049  1.00  0.00     0.010 C 
ATOM     23  C   UNL A   1      35.568  22.496  26.354  1.00  0.00     0.010 C 
ATOM     24  C   UNL A   1      34.817  20.759  24.690  1.00  0.00     0.013 C 
ATOM     25  C   UNL A   1      32.358  20.281  24.395  1.00  0.00     0.011 C 
ATOM     26  C   UNL A   1      37.282  21.201  25.010  1.00  0.00     0.011 C 
ENDBRANCH  13  15
ENDBRANCH  10  13
ENDBRANCH   8  10
ENDBRANCH   5   8
ENDBRANCH   3   4
ENDBRANCH   2   3
ENDBRANCH   1   2
BRANCH   1  27
ATOM     27  C   UNL A   1      32.427  30.024  25.771  1.00  0.00     0.002 C 
BRANCH  27  28
ATOM     28  C   UNL A   1      31.917  31.207  26.597  1.00  0.00     0.021 C 
BRANCH  28  29
ATOM     29  C   UNL A   1      32.997  31.898  27.425  1.00  0.00     0.116 C 
BRANCH  29  30
ATOM     30  N   UNL A   1      32.703  33.311  27.611  1.00  0.00    -0.352 N 
ATOM     31  C   UNL A   1      33.219  34.191  28.530  1.00  0.00     0.251 C 
ATOM     32  H   UNL A   1      32.038  33.690  26.989  1.00  0.00     0.163 HD
ATOM     33  O   UNL A   1      32.678  35.276  28.713  1.00  0.00    -0.269 OA
BRANCH  31  34
ATOM     34  C   UNL A   1      34.417  33.811  29.308  1.00  0.00     0.039 A 
ATOM     35  C   UNL A   1      34.266  33.014  30.444  1.00  0.00     0.014 A 
ATOM     36  C   UNL A   1      35.688  34.229  28.902  1.00  0.00     0.014 A 
ATOM     37  C   UNL A   1      35.399  32.566  31.128  1.00  0.00     0.010 A 
ATOM     38  C   UNL A   1      36.817  33.732  29.547  1.00  0.00     0.010 A 
ATOM     39  C   UNL A   1      36.684  32.882  30.656  1.00  0.00    -0.014 A 
BRANCH  39  40
ATOM     40  C   UNL A   1      37.903  32.292  31.272  1.00  0.00     0.031 A 
ATOM     41  C   UNL A   1      38.623  31.161  30.593  1.00  0.00     0.074 A 
ATOM     42  C   UNL A   1      38.296  32.719  32.491  1.00  0.00     0.049 A 
ATOM     43  N   UNL A   1      39.628  30.445  31.027  1.00  0.00    -0.248 NA
ATOM     44  C   UNL A   1      38.135  30.765  29.263  1.00  0.00     0.031 C 
ATOM     45  C   UNL A   1      37.649  33.784  33.261  1.00  0.00     0.029 A 
ATOM     46  N   UNL A   1      39.315  32.296  33.308  1.00  0.00    -0.354 N 
ATOM     47  C   UNL A   1      39.880  29.501  30.036  1.00  0.00     0.074 A 
ATOM     48  C   UNL A   1      38.900  29.717  28.993  1.00  0.00     0.031 C 
ATOM     49  C   UNL A   1      38.288  33.933  34.432  1.00  0.00     0.029 A 
ATOM     50  C   UNL A   1      39.353  32.940  34.525  1.00  0.00     0.049 A 
ATOM     51  H   UNL A   1      39.960  31.599  33.048  1.00  0.00     0.167 HD
ATOM     52  C   UNL A   1      40.847  28.553  30.003  1.00  0.00     0.034 A 
ATOM     53  C   UNL A   1      40.131  32.733  35.607  1.00  0.00     0.034 A 
ATOM     54  C   UNL A   1      41.830  28.372  31.042  1.00  0.00     0.049 A 
ATOM     55  C   UNL A   1      41.177  31.645  35.550  1.00  0.00     0.074 A 
ATOM     56  C   UNL A   1      42.919  27.518  31.053  1.00  0.00     0.029 A 
ATOM     57  N   UNL A   1      41.836  29.039  32.260  1.00  0.00    -0.354 N 
ATOM     58  N   UNL A   1      41.461  30.826  34.563  1.00  0.00    -0.248 NA
ATOM     59  C   UNL A   1      42.005  31.453  36.748  1.00  0.00     0.031 C 
ATOM     60  C   UNL A   1      43.529  27.604  32.308  1.00  0.00     0.029 A 
ATOM     61  C   UNL A   1      42.872  28.570  33.052  1.00  0.00     0.049 A 
ATOM     62  H   UNL A   1      41.198  29.740  32.522  1.00  0.00     0.167 HD
ATOM     63  C   UNL A   1      42.516  30.039  35.017  1.00  0.00     0.074 A 
ATOM     64  C   UNL A   1      42.831  30.496  36.354  1.00  0.00     0.031 C 
ATOM     65  C   UNL A   1      43.163  29.026  34.389  1.00  0.00     0.034 A 
BRANCH  52  66
ATOM     66  C   UNL A   1      40.878  27.610  28.827  1.00  0.00     0.023 A 
ATOM     67  C   UNL A   1      41.830  27.730  27.801  1.00  0.00     0.031 A 
ATOM     68  C   UNL A   1      39.960  26.546  28.756  1.00  0.00     0.131 A 
ATOM     69  C   UNL A   1      41.816  26.825  26.727  1.00  0.00     0.055 A 
ATOM     70  C   UNL A   1      39.994  25.611  27.721  1.00  0.00     0.041 A 
ATOM     71  F   UNL A   1      39.017  26.396  29.700  1.00  0.00    -0.206 F 
ATOM     72  C   UNL A   1      40.922  25.752  26.694  1.00  0.00     0.022 A 
BRANCH  69  73
ATOM     73  S   UNL A   1      42.927  27.124  25.324  1.00  0.00     0.124 S 
ATOM     74  O   UNL A   1      42.887  25.835  24.638  1.00  0.00    -0.237 OA
ATOM     75  O   UNL A   1      42.277  28.234  24.639  1.00  0.00    -0.237 OA
ATOM     76  O   UNL A   1      44.203  27.444  25.960  1.00  0.00    -0.744 OA
ENDBRANCH  69  73
ENDBRANCH  52  66
BRANCH  53  77
ATOM     77  C   UNL A   1      39.929  33.522  36.858  1.00  0.00     0.023 A 
ATOM     78  C   UNL A   1      39.226  32.985  37.948  1.00  0.00     0.031 A 
ATOM     79  C   UNL A   1      40.364  34.857  36.952  1.00  0.00     0.131 A 
ATOM     80  C   UNL A   1      38.923  33.795  39.054  1.00  0.00     0.055 A 
ATOM     81  C   UNL A   1      40.118  35.638  38.082  1.00  0.00     0.041 A 
ATOM     82  F   UNL A   1      41.040  35.426  35.939  1.00  0.00    -0.206 F 
ATOM     83  C   UNL A   1      39.377  35.112  39.135  1.00  0.00     0.022 A 
BRANCH  80  84
ATOM     84  S   UNL A   1      37.813  33.137  40.329  1.00  0.00     0.124 S 
ATOM     85  O   UNL A   1      38.543  31.956  40.776  1.00  0.00    -0.237 OA
ATOM     86  O   UNL A   1      37.748  34.248  41.273  1.00  0.00    -0.237 OA
ATOM     87  O   UNL A   1      36.577  32.868  39.597  1.00  0.00    -0.744 OA
ENDBRANCH  80  84
ENDBRANCH  53  77
BRANCH  65  88
ATOM     88  C   UNL A   1      44.292  28.364  35.137  1.00  0.00     0.023 A 
ATOM     89  C   UNL A   1      44.083  27.206  35.907  1.00  0.00     0.031 A 
ATOM     90  C   UNL A   1      45.594  28.892  35.074  1.00  0.00     0.131 A 
ATOM     91  C   UNL A   1      45.151  26.639  36.618  1.00  0.00     0.055 A 
ATOM     92  C   UNL A   1      46.664  28.288  35.735  1.00  0.00     0.041 A 
ATOM     93  F   UNL A   1      45.849  29.998  34.355  1.00  0.00    -0.206 F 
ATOM     94  C   UNL A   1      46.444  27.161  36.522  1.00  0.00     0.022 A 
BRANCH  91  95
ATOM     95  S   UNL A   1      44.814  25.245  37.728  1.00  0.00     0.124 S 
ATOM     96  O   UNL A   1      45.359  24.120  36.975  1.00  0.00    -0.237 OA
ATOM     97  O   UNL A   1      45.546  25.619  38.934  1.00  0.00    -0.237 OA
ATOM     98  O   UNL A   1      43.357  25.257  37.860  1.00  0.00    -0.744 OA
ENDBRANCH  91  95
ENDBRANCH  65  88
ENDBRANCH  39  40
ENDBRANCH  31  34
ENDBRANCH  29  30
ENDBRANCH  28  29
ENDBRANCH  27  28
ENDBRANCH   1  27
TORSDOF 19
ENDMDL
MODEL 2
REMARK VINA RESULT:     -11.8      1.551      2.236
REMARK SMILES C[C@@H](C(=O)NCCCCCCNC(=O)c1ccc(-c2c3nc(c(-c4cc(S(=O)(=O)[O-])ccc4F)c4ccc([nH]4)c(-c4cc(S(=O)(=O)[O-])ccc4F)c4nc(c(-c5cc(S(=O)(=O)[O-])ccc5F)c5ccc2[nH]5)C=C4)C=C3)cc1)S(=O)(=O)N[C@@]12C[C@@H]3C[C@@](C)(C[C@@](C)(C3)C1)C2
REMARK SMILES IDX 8 1 7 2 6 3 5 4 3 5 4 6 2 8 1 9 78 10 79 11 80 12 81 13
REMARK SMILES IDX 82 15 83 16 92 17 93 18 84 19 89 20 86 21 91 22 85 23 88 24
REMARK SMILES IDX 90 25 87 26 9 27 10 28 11 29 12 30 13 31 14 33 15 34 16 35
REMARK SMILES IDX 77 36 17 37 76 38 18 39 19 40 20 41 70 42 21 43 75 44 69 45
REMARK SMILES IDX 71 46 22 47 74 48 68 49 67 50 23 52 55 53 35 54 54 55 36 56
REMARK SMILES IDX 39 57 53 58 72 59 37 60 38 61 52 63 73 64 40 65 24 66 25 67
REMARK SMILES IDX 33 68 26 69 32 70 34 71 31 72 27 73 28 74 29 75 30 76 56 77
REMARK SMILES IDX 57 78 65 79 58 80 64 81 66 82 63 83 59 84 60 85 61 86 62 87
REMARK SMILES IDX 41 88 42 89 50 90 43 91 49 92 51 93 48 94 44 95 45 96 46 97
REMARK SMILES IDX 47 98
REMARK H PARENT 5 7 81 14 12 32 71 51 39 62
REMARK Flexibility Score: inf
ROOT
ATOM      1  C   UNL A   1      32.295  30.257  26.524  1.00  0.00     0.002 C 
ENDROOT
BRANCH   1   2
ATOM      2  C   UNL A   1      31.782  29.053  27.331  1.00  0.00     0.021 C 
BRANCH   2   3
ATOM      3  C   UNL A   1      32.528  27.755  27.003  1.00  0.00     0.116 C 
BRANCH   3   4
ATOM      4  N   UNL A   1      31.577  26.663  26.915  1.00  0.00    -0.355 N 
ATOM      5  C   UNL A   1      30.699  26.312  25.931  1.00  0.00     0.239 C 
ATOM      6  O   UNL A   1      29.786  25.562  26.286  1.00  0.00    -0.274 OA
ATOM      7  H   UNL A   1      31.563  26.073  27.701  1.00  0.00     0.163 HD
BRANCH   5   8
ATOM      8  C   UNL A   1      30.901  26.767  24.494  1.00  0.00     0.209 C 
ATOM      9  C   UNL A   1      29.781  27.547  23.814  1.00  0.00     0.037 C 
BRANCH   8  10
ATOM     10  S   UNL A   1      31.459  25.348  23.483  1.00  0.00     0.223 S 
ATOM     11  O   UNL A   1      30.768  24.158  23.934  1.00  0.00    -0.212 OA
ATOM     12  O   UNL A   1      31.330  25.725  22.087  1.00  0.00    -0.212 OA
BRANCH  10  13
ATOM     13  N   UNL A   1      33.102  25.107  23.717  1.00  0.00    -0.208 NA
ATOM     14  H   UNL A   1      33.431  25.963  24.164  1.00  0.00     0.141 HD
BRANCH  13  15
ATOM     15  C   UNL A   1      33.748  24.012  24.475  1.00  0.00     0.034 C 
ATOM     16  C   UNL A   1      33.705  22.707  23.630  1.00  0.00     0.027 C 
ATOM     17  C   UNL A   1      35.244  24.337  24.663  1.00  0.00     0.030 C 
ATOM     18  C   UNL A   1      33.027  23.686  25.793  1.00  0.00     0.030 C 
ATOM     19  C   UNL A   1      34.423  21.556  24.379  1.00  0.00    -0.008 C 
ATOM     20  C   UNL A   1      35.959  23.238  25.469  1.00  0.00    -0.030 C 
ATOM     21  C   UNL A   1      33.757  22.587  26.582  1.00  0.00    -0.030 C 
ATOM     22  C   UNL A   1      35.892  21.935  24.647  1.00  0.00     0.010 C 
ATOM     23  C   UNL A   1      33.733  21.302  25.732  1.00  0.00     0.010 C 
ATOM     24  C   UNL A   1      35.222  23.024  26.811  1.00  0.00     0.013 C 
ATOM     25  C   UNL A   1      37.412  23.650  25.727  1.00  0.00     0.011 C 
ATOM     26  C   UNL A   1      33.052  22.372  27.926  1.00  0.00     0.011 C 
ENDBRANCH  13  15
ENDBRANCH  10  13
ENDBRANCH   8  10
ENDBRANCH   5   8
ENDBRANCH   3   4
ENDBRANCH   2   3
ENDBRANCH   1   2
BRANCH   1  27
ATOM     27  C   UNL A   1      31.195  31.189  25.997  1.00  0.00     0.002 C 
BRANCH  27  28
ATOM     28  C   UNL A   1      31.301  32.638  26.477  1.00  0.00     0.021 C 
BRANCH  28  29
ATOM     29  C   UNL A   1      32.602  32.958  27.208  1.00  0.00     0.116 C 
BRANCH  29  30
ATOM     30  N   UNL A   1      32.554  34.273  27.830  1.00  0.00    -0.352 N 
ATOM     31  C   UNL A   1      33.276  34.756  28.893  1.00  0.00     0.251 C 
ATOM     32  H   UNL A   1      31.911  34.905  27.432  1.00  0.00     0.163 HD
ATOM     33  O   UNL A   1      32.932  35.794  29.448  1.00  0.00    -0.269 OA
BRANCH  31  34
ATOM     34  C   UNL A   1      34.456  34.005  29.373  1.00  0.00     0.039 A 
ATOM     35  C   UNL A   1      35.706  34.268  28.810  1.00  0.00     0.014 A 
ATOM     36  C   UNL A   1      34.325  33.054  30.390  1.00  0.00     0.014 A 
ATOM     37  C   UNL A   1      36.841  33.637  29.325  1.00  0.00     0.010 A 
ATOM     38  C   UNL A   1      35.463  32.474  30.943  1.00  0.00     0.010 A 
ATOM     39  C   UNL A   1      36.734  32.772  30.427  1.00  0.00    -0.014 A 
BRANCH  39  40
ATOM     40  C   UNL A   1      37.941  32.211  31.091  1.00  0.00     0.031 A 
ATOM     41  C   UNL A   1      38.698  31.079  30.454  1.00  0.00     0.074 A 
ATOM     42  C   UNL A   1      38.289  32.664  32.313  1.00  0.00     0.049 A 
ATOM     43  N   UNL A   1      39.699  30.386  30.933  1.00  0.00    -0.248 NA
ATOM     44  C   UNL A   1      38.258  30.653  29.117  1.00  0.00     0.031 C 
ATOM     45  C   UNL A   1      37.602  33.733  33.044  1.00  0.00     0.029 A 
ATOM     46  N   UNL A   1      39.287  32.271  33.170  1.00  0.00    -0.354 N 
ATOM     47  C   UNL A   1      39.996  29.429  29.967  1.00  0.00     0.074 A 
ATOM     48  C   UNL A   1      39.047  29.612  28.890  1.00  0.00     0.031 C 
ATOM     49  C   UNL A   1      38.201  33.911  34.232  1.00  0.00     0.029 A 
ATOM     50  C   UNL A   1      39.276  32.936  34.376  1.00  0.00     0.049 A 
ATOM     51  H   UNL A   1      39.950  31.579  32.943  1.00  0.00     0.167 HD
ATOM     52  C   UNL A   1      40.977  28.495  29.981  1.00  0.00     0.034 A 
ATOM     53  C   UNL A   1      40.023  32.759  35.485  1.00  0.00     0.034 A 
ATOM     54  C   UNL A   1      41.929  28.347  31.054  1.00  0.00     0.049 A 
ATOM     55  C   UNL A   1      41.085  31.686  35.481  1.00  0.00     0.074 A 
ATOM     56  C   UNL A   1      43.029  27.509  31.114  1.00  0.00     0.029 A 
ATOM     57  N   UNL A   1      41.887  29.034  32.259  1.00  0.00    -0.354 N 
ATOM     58  N   UNL A   1      41.413  30.855  34.518  1.00  0.00    -0.248 NA
ATOM     59  C   UNL A   1      41.877  31.527  36.708  1.00  0.00     0.031 C 
ATOM     60  C   UNL A   1      43.598  27.626  32.386  1.00  0.00     0.029 A 
ATOM     61  C   UNL A   1      42.904  28.594  33.092  1.00  0.00     0.049 A 
ATOM     62  H   UNL A   1      41.230  29.730  32.489  1.00  0.00     0.167 HD
ATOM     63  C   UNL A   1      42.464  30.091  35.019  1.00  0.00     0.074 A 
ATOM     64  C   UNL A   1      42.730  30.575  36.356  1.00  0.00     0.031 C 
ATOM     65  C   UNL A   1      43.146  29.077  34.429  1.00  0.00     0.034 A 
BRANCH  52  66
ATOM     66  C   UNL A   1      41.059  27.533  28.823  1.00  0.00     0.023 A 
ATOM     67  C   UNL A   1      42.042  27.649  27.826  1.00  0.00     0.031 A 
ATOM     68  C   UNL A   1      40.160  26.453  28.743  1.00  0.00     0.131 A 
ATOM     69  C   UNL A   1      42.075  26.726  26.769  1.00  0.00     0.055 A 
ATOM     70  C   UNL A   1      40.241  25.502  27.725  1.00  0.00     0.041 A 
ATOM     71  F   UNL A   1      39.189  26.305  29.659  1.00  0.00    -0.206 F 
ATOM     72  C   UNL A   1      41.198  25.639  26.726  1.00  0.00     0.022 A 
BRANCH  69  73
ATOM     73  S   UNL A   1      43.225  27.018  25.396  1.00  0.00     0.124 S 
ATOM     74  O   UNL A   1      43.432  25.662  24.892  1.00  0.00    -0.237 OA
ATOM     75  O   UNL A   1      42.465  27.912  24.532  1.00  0.00    -0.237 OA
ATOM     76  O   UNL A   1      44.388  27.617  26.046  1.00  0.00    -0.744 OA
ENDBRANCH  69  73
ENDBRANCH  52  66
BRANCH  53  77
ATOM     77  C   UNL A   1      39.769  33.566  36.715  1.00  0.00     0.023 A 
ATOM     78  C   UNL A   1      40.546  34.697  37.012  1.00  0.00     0.031 A 
ATOM     79  C   UNL A   1      38.798  33.173  37.654  1.00  0.00     0.131 A 
ATOM     80  C   UNL A   1      40.385  35.354  38.243  1.00  0.00     0.055 A 
ATOM     81  C   UNL A   1      38.596  33.870  38.846  1.00  0.00     0.041 A 
ATOM     82  F   UNL A   1      38.025  32.098  37.425  1.00  0.00    -0.206 F 
ATOM     83  C   UNL A   1      39.406  34.957  39.155  1.00  0.00     0.022 A 
BRANCH  80  84
ATOM     84  S   UNL A   1      41.566  36.657  38.688  1.00  0.00     0.124 S 
ATOM     85  O   UNL A   1      42.382  35.986  39.695  1.00  0.00    -0.237 OA
ATOM     86  O   UNL A   1      42.215  36.925  37.410  1.00  0.00    -0.237 OA
ATOM     87  O   UNL A   1      40.712  37.731  39.191  1.00  0.00    -0.744 OA
ENDBRANCH  80  84
ENDBRANCH  53  77
BRANCH  65  88
ATOM     88  C   UNL A   1      44.259  28.445  35.224  1.00  0.00     0.023 A 
ATOM     89  C   UNL A   1      44.005  27.437  36.170  1.00  0.00     0.031 A 
ATOM     90  C   UNL A   1      45.592  28.849  35.029  1.00  0.00     0.131 A 
ATOM     91  C   UNL A   1      45.063  26.897  36.917  1.00  0.00     0.055 A 
ATOM     92  C   UNL A   1      46.647  28.267  35.731  1.00  0.00     0.041 A 
ATOM     93  F   UNL A   1      45.890  29.811  34.139  1.00  0.00    -0.206 F 
ATOM     94  C   UNL A   1      46.385  27.292  36.690  1.00  0.00     0.022 A 
BRANCH  91  95
ATOM     95  S   UNL A   1      44.681  25.717  38.240  1.00  0.00     0.124 S 
ATOM     96  O   UNL A   1      43.517  26.332  38.867  1.00  0.00    -0.237 OA
ATOM     97  O   UNL A   1      44.429  24.485  37.499  1.00  0.00    -0.237 OA
ATOM     98  O   UNL A   1      45.896  25.711  39.054  1.00  0.00    -0.744 OA
ENDBRANCH  91  95
ENDBRANCH  65  88
ENDBRANCH  39  40
ENDBRANCH  31  34
ENDBRANCH  29  30
ENDBRANCH  28  29
ENDBRANCH  27  28
ENDBRANCH   1  27
TORSDOF 19
ENDMDL
MODEL 3
REMARK VINA RESULT:     -11.8      1.436      2.085
REMARK SMILES C[C@@H](C(=O)NCCCCCCNC(=O)c1ccc(-c2c3nc(c(-c4cc(S(=O)(=O)[O-])ccc4F)c4ccc([nH]4)c(-c4cc(S(=O)(=O)[O-])ccc4F)c4nc(c(-c5cc(S(=O)(=O)[O-])ccc5F)c5ccc2[nH]5)C=C4)C=C3)cc1)S(=O)(=O)N[C@@]12C[C@@H]3C[C@@](C)(C[C@@](C)(C3)C1)C2
REMARK SMILES IDX 8 1 7 2 6 3 5 4 3 5 4 6 2 8 1 9 78 10 79 11 80 12 81 13
REMARK SMILES IDX 82 15 83 16 92 17 93 18 84 19 89 20 86 21 91 22 85 23 88 24
REMARK SMILES IDX 90 25 87 26 9 27 10 28 11 29 12 30 13 31 14 33 15 34 16 35
REMARK SMILES IDX 77 36 17 37 76 38 18 39 19 40 20 41 70 42 21 43 75 44 69 45
REMARK SMILES IDX 71 46 22 47 74 48 68 49 67 50 23 52 55 53 35 54 54 55 36 56
REMARK SMILES IDX 39 57 53 58 72 59 37 60 38 61 52 63 73 64 40 65 24 66 25 67
REMARK SMILES IDX 33 68 26 69 32 70 34 71 31 72 27 73 28 74 29 75 30 76 56 77
REMARK SMILES IDX 57 78 65 79 58 80 64 81 66 82 63 83 59 84 60 85 61 86 62 87
REMARK SMILES IDX 41 88 42 89 50 90 43 91 49 92 51 93 48 94 44 95 45 96 46 97
REMARK SMILES IDX 47 98
REMARK H PARENT 5 7 81 14 12 32 71 51 39 62
REMARK Flexibility Score: inf
ROOT
ATOM      1  C   UNL A   1      33.203  29.365  27.326  1.00  0.00     0.002 C 
ENDROOT
BRANCH   1   2
ATOM      2  C   UNL A   1      34.313  28.754  26.453  1.00  0.00     0.021 C 
BRANCH   2   3
ATOM      3  C   UNL A   1      33.766  27.856  25.338  1.00  0.00     0.116 C 
BRANCH   3   4
ATOM      4  N   UNL A   1      34.124  28.418  24.050  1.00  0.00    -0.355 N 
ATOM      5  C   UNL A   1      33.711  28.108  22.786  1.00  0.00     0.239 C 
ATOM      6  O   UNL A   1      34.446  28.509  21.881  1.00  0.00    -0.274 OA
ATOM      7  H   UNL A   1      34.779  29.151  24.094  1.00  0.00     0.163 HD
BRANCH   5   8
ATOM      8  C   UNL A   1      32.396  27.386  22.542  1.00  0.00     0.209 C 
ATOM      9  C   UNL A   1      31.273  27.553  23.561  1.00  0.00     0.037 C 
BRANCH   8  10
ATOM     10  S   UNL A   1      32.732  25.625  22.175  1.00  0.00     0.223 S 
ATOM     11  O   UNL A   1      31.584  24.841  22.580  1.00  0.00    -0.212 OA
ATOM     12  O   UNL A   1      33.164  25.539  20.792  1.00  0.00    -0.212 OA
BRANCH  10  13
ATOM     13  N   UNL A   1      34.050  25.109  23.075  1.00  0.00    -0.208 NA
ATOM     14  H   UNL A   1      34.300  25.909  23.656  1.00  0.00     0.141 HD
BRANCH  13  15
ATOM     15  C   UNL A   1      34.112  23.944  23.985  1.00  0.00     0.034 C 
ATOM     16  C   UNL A   1      33.628  22.674  23.230  1.00  0.00     0.027 C 
ATOM     17  C   UNL A   1      35.583  23.671  24.360  1.00  0.00     0.030 C 
ATOM     18  C   UNL A   1      33.190  24.087  25.207  1.00  0.00     0.030 C 
ATOM     19  C   UNL A   1      33.733  21.428  24.146  1.00  0.00    -0.008 C 
ATOM     20  C   UNL A   1      35.701  22.480  25.329  1.00  0.00    -0.030 C 
ATOM     21  C   UNL A   1      33.324  22.888  26.161  1.00  0.00    -0.030 C 
ATOM     22  C   UNL A   1      35.193  21.223  24.592  1.00  0.00     0.010 C 
ATOM     23  C   UNL A   1      32.866  21.628  25.402  1.00  0.00     0.010 C 
ATOM     24  C   UNL A   1      34.808  22.733  26.565  1.00  0.00     0.013 C 
ATOM     25  C   UNL A   1      37.161  22.309  25.761  1.00  0.00     0.011 C 
ATOM     26  C   UNL A   1      32.459  23.128  27.403  1.00  0.00     0.011 C 
ENDBRANCH  13  15
ENDBRANCH  10  13
ENDBRANCH   8  10
ENDBRANCH   5   8
ENDBRANCH   3   4
ENDBRANCH   2   3
ENDBRANCH   1   2
BRANCH   1  27
ATOM     27  C   UNL A   1      32.013  29.933  26.541  1.00  0.00     0.002 C 
BRANCH  27  28
ATOM     28  C   UNL A   1      31.800  31.440  26.704  1.00  0.00     0.021 C 
BRANCH  28  29
ATOM     29  C   UNL A   1      32.975  32.167  27.352  1.00  0.00     0.116 C 
BRANCH  29  30
ATOM     30  N   UNL A   1      32.679  33.577  27.559  1.00  0.00    -0.352 N 
ATOM     31  C   UNL A   1      33.183  34.439  28.502  1.00  0.00     0.251 C 
ATOM     32  H   UNL A   1      32.024  33.968  26.935  1.00  0.00     0.163 HD
ATOM     33  O   UNL A   1      32.639  35.522  28.696  1.00  0.00    -0.269 OA
BRANCH  31  34
ATOM     34  C   UNL A   1      34.369  34.043  29.291  1.00  0.00     0.039 A 
ATOM     35  C   UNL A   1      34.191  33.318  30.470  1.00  0.00     0.014 A 
ATOM     36  C   UNL A   1      35.655  34.375  28.852  1.00  0.00     0.014 A 
ATOM     37  C   UNL A   1      35.308  32.853  31.169  1.00  0.00     0.010 A 
ATOM     38  C   UNL A   1      36.764  33.859  29.515  1.00  0.00     0.010 A 
ATOM     39  C   UNL A   1      36.602  33.079  30.670  1.00  0.00    -0.014 A 
BRANCH  39  40
ATOM     40  C   UNL A   1      37.796  32.464  31.308  1.00  0.00     0.031 A 
ATOM     41  C   UNL A   1      38.509  31.321  30.639  1.00  0.00     0.074 A 
ATOM     42  C   UNL A   1      38.173  32.879  32.536  1.00  0.00     0.049 A 
ATOM     43  N   UNL A   1      39.491  30.585  31.091  1.00  0.00    -0.248 NA
ATOM     44  C   UNL A   1      38.040  30.939  29.298  1.00  0.00     0.031 C 
ATOM     45  C   UNL A   1      37.531  33.954  33.297  1.00  0.00     0.029 A 
ATOM     46  N   UNL A   1      39.167  32.435  33.372  1.00  0.00    -0.354 N 
ATOM     47  C   UNL A   1      39.745  29.640  30.102  1.00  0.00     0.074 A 
ATOM     48  C   UNL A   1      38.791  29.878  29.040  1.00  0.00     0.031 C 
ATOM     49  C   UNL A   1      38.148  34.087  34.481  1.00  0.00     0.029 A 
ATOM     50  C   UNL A   1      39.192  33.073  34.592  1.00  0.00     0.049 A 
ATOM     51  H   UNL A   1      39.804  31.726  33.123  1.00  0.00     0.167 HD
ATOM     52  C   UNL A   1      40.694  28.674  30.085  1.00  0.00     0.034 A 
ATOM     53  C   UNL A   1      39.945  32.848  35.688  1.00  0.00     0.034 A 
ATOM     54  C   UNL A   1      41.653  28.471  31.143  1.00  0.00     0.049 A 
ATOM     55  C   UNL A   1      40.970  31.741  35.649  1.00  0.00     0.074 A 
ATOM     56  C   UNL A   1      42.725  27.596  31.173  1.00  0.00     0.029 A 
ATOM     57  N   UNL A   1      41.647  29.134  32.363  1.00  0.00    -0.354 N 
ATOM     58  N   UNL A   1      41.259  30.920  34.665  1.00  0.00    -0.248 NA
ATOM     59  C   UNL A   1      41.770  31.529  36.863  1.00  0.00     0.031 C 
ATOM     60  C   UNL A   1      43.311  27.667  32.440  1.00  0.00     0.029 A 
ATOM     61  C   UNL A   1      42.657  28.643  33.174  1.00  0.00     0.049 A 
ATOM     62  H   UNL A   1      41.016  29.846  32.615  1.00  0.00     0.167 HD
ATOM     63  C   UNL A   1      42.289  30.111  35.137  1.00  0.00     0.074 A 
ATOM     64  C   UNL A   1      42.586  30.558  36.481  1.00  0.00     0.031 C 
ATOM     65  C   UNL A   1      42.930  29.088  34.518  1.00  0.00     0.034 A 
BRANCH  52  66
ATOM     66  C   UNL A   1      40.731  27.734  28.906  1.00  0.00     0.023 A 
ATOM     67  C   UNL A   1      41.668  27.877  27.869  1.00  0.00     0.031 A 
ATOM     68  C   UNL A   1      39.836  26.651  28.844  1.00  0.00     0.131 A 
ATOM     69  C   UNL A   1      41.661  26.974  26.793  1.00  0.00     0.055 A 
ATOM     70  C   UNL A   1      39.878  25.719  27.806  1.00  0.00     0.041 A 
ATOM     71  F   UNL A   1      38.908  26.478  29.799  1.00  0.00    -0.206 F 
ATOM     72  C   UNL A   1      40.789  25.882  26.768  1.00  0.00     0.022 A 
BRANCH  69  73
ATOM     73  S   UNL A   1      42.747  27.300  25.378  1.00  0.00     0.124 S 
ATOM     74  O   UNL A   1      44.016  27.591  26.041  1.00  0.00    -0.237 OA
ATOM     75  O   UNL A   1      42.685  26.046  24.638  1.00  0.00    -0.237 OA
ATOM     76  O   UNL A   1      42.119  28.444  24.720  1.00  0.00    -0.744 OA
ENDBRANCH  69  73
ENDBRANCH  52  66
BRANCH  53  77
ATOM     77  C   UNL A   1      39.732  33.637  36.938  1.00  0.00     0.023 A 
ATOM     78  C   UNL A   1      39.117  33.063  38.061  1.00  0.00     0.031 A 
ATOM     79  C   UNL A   1      40.066  35.003  37.000  1.00  0.00     0.131 A 
ATOM     80  C   UNL A   1      38.797  33.863  39.170  1.00  0.00     0.055 A 
ATOM     81  C   UNL A   1      39.806  35.778  38.131  1.00  0.00     0.041 A 
ATOM     82  F   UNL A   1      40.656  35.607  35.954  1.00  0.00    -0.206 F 
ATOM     83  C   UNL A   1      39.150  35.212  39.218  1.00  0.00     0.022 A 
BRANCH  80  84
ATOM     84  S   UNL A   1      37.792  33.140  40.497  1.00  0.00     0.124 S 
ATOM     85  O   UNL A   1      38.498  31.889  40.754  1.00  0.00    -0.237 OA
ATOM     86  O   UNL A   1      37.889  34.158  41.537  1.00  0.00    -0.237 OA
ATOM     87  O   UNL A   1      36.473  32.997  39.884  1.00  0.00    -0.744 OA
ENDBRANCH  80  84
ENDBRANCH  53  77
BRANCH  65  88
ATOM     88  C   UNL A   1      44.031  28.402  35.286  1.00  0.00     0.023 A 
ATOM     89  C   UNL A   1      45.369  28.820  35.181  1.00  0.00     0.031 A 
ATOM     90  C   UNL A   1      43.738  27.324  36.140  1.00  0.00     0.131 A 
ATOM     91  C   UNL A   1      46.371  28.134  35.885  1.00  0.00     0.055 A 
ATOM     92  C   UNL A   1      44.730  26.684  36.883  1.00  0.00     0.041 A 
ATOM     93  F   UNL A   1      42.476  26.883  36.275  1.00  0.00    -0.206 F 
ATOM     94  C   UNL A   1      46.058  27.082  36.750  1.00  0.00     0.022 A 
BRANCH  91  95
ATOM     95  S   UNL A   1      48.102  28.594  35.602  1.00  0.00     0.124 S 
ATOM     96  O   UNL A   1      48.356  29.512  36.707  1.00  0.00    -0.237 OA
ATOM     97  O   UNL A   1      48.785  27.306  35.675  1.00  0.00    -0.237 OA
ATOM     98  O   UNL A   1      48.081  29.209  34.275  1.00  0.00    -0.744 OA
ENDBRANCH  91  95
ENDBRANCH  65  88
ENDBRANCH  39  40
ENDBRANCH  31  34
ENDBRANCH  29  30
ENDBRANCH  28  29
ENDBRANCH  27  28
ENDBRANCH   1  27
TORSDOF 19
ENDMDL
