MODEL 1
REMARK VINA RESULT:     -11.1      0.000      0.000
REMARK SMILES Cc1nc(C)c(C(=O)N[C@@H](CCS(C)(=O)=O)C(=O)NCCCCCCNC(=O)c2ccc(-c3c4nc(c(-c5cc(S(=O)(=O)[O-])ccc5F)c5ccc([nH]5)c(-c5cc(S(=O)(=O)[O-])ccc5F)c5nc(c(-c6cc(S(=O)(=O)[O-])ccc6F)c6ccc3[nH]6)C=C5)C=C4)cc2)s1
REMARK SMILES IDX 22 1 21 2 20 3 19 4 17 5 18 6 10 8 9 9 7 10 8 11 6 13 1 14
REMARK SMILES IDX 2 15 3 16 92 17 4 18 5 19 11 20 12 21 13 22 14 23 15 24
REMARK SMILES IDX 16 25 23 26 24 27 25 28 26 29 27 30 28 32 29 33 30 34 91 35
REMARK SMILES IDX 31 36 90 37 32 38 33 39 34 40 84 41 35 42 89 43 83 44 85 45
REMARK SMILES IDX 36 46 88 47 82 48 81 49 37 51 69 52 49 53 68 54 50 55 53 56
REMARK SMILES IDX 67 57 86 58 51 59 52 60 66 62 87 63 54 64 38 65 39 66 47 67
REMARK SMILES IDX 40 68 46 69 48 70 45 71 41 72 42 73 43 74 44 75 70 76 71 77
REMARK SMILES IDX 79 78 72 79 78 80 80 81 77 82 73 83 74 84 75 85 76 86 55 87
REMARK SMILES IDX 56 88 64 89 57 90 63 91 65 92 62 93 58 94 59 95 60 96 61 97
REMARK H PARENT 19 7 9 12 26 31 85 50 53 61
REMARK Flexibility Score: inf
ROOT
ATOM      1  C   UNL A   1      32.000  29.430  26.730  1.00  0.00     0.002 C 
ENDROOT
BRANCH   1   2
ATOM      2  C   UNL A   1      32.976  28.453  26.060  1.00  0.00     0.021 C 
BRANCH   2   3
ATOM      3  C   UNL A   1      32.878  27.000  26.513  1.00  0.00     0.116 C 
BRANCH   3   4
ATOM      4  N   UNL A   1      31.516  26.553  26.722  1.00  0.00    -0.354 N 
ATOM      5  C   UNL A   1      30.602  26.025  25.867  1.00  0.00     0.242 C 
ATOM      6  O   UNL A   1      29.631  25.433  26.355  1.00  0.00    -0.273 OA
ATOM      7  H   UNL A   1      31.196  26.649  27.649  1.00  0.00     0.163 HD
BRANCH   5   8
ATOM      8  C   UNL A   1      30.757  26.054  24.336  1.00  0.00     0.172 C 
BRANCH   8   9
ATOM      9  N   UNL A   1      30.897  24.723  23.743  1.00  0.00    -0.339 N 
ATOM     10  C   UNL A   1      31.699  23.639  24.050  1.00  0.00     0.263 C 
ATOM     11  O   UNL A   1      31.253  22.577  23.601  1.00  0.00    -0.268 OA
ATOM     12  H   UNL A   1      30.302  24.569  22.973  1.00  0.00     0.164 HD
BRANCH  10  13
ATOM     13  C   UNL A   1      32.974  23.687  24.771  1.00  0.00     0.115 A 
ATOM     14  C   UNL A   1      36.791  23.856  25.599  1.00  0.00     0.079 C 
ATOM     15  C   UNL A   1      35.309  23.752  25.520  1.00  0.00     0.091 A 
ATOM     16  N   UNL A   1      34.535  23.440  26.530  1.00  0.00    -0.246 NA
ATOM     17  S   UNL A   1      34.500  23.984  24.044  1.00  0.00    -0.113 S 
ATOM     18  C   UNL A   1      33.204  23.377  26.117  1.00  0.00     0.061 A 
ATOM     19  C   UNL A   1      32.236  22.936  27.162  1.00  0.00     0.068 C 
ENDBRANCH  10  13
ENDBRANCH   8   9
BRANCH   8  20
ATOM     20  C   UNL A   1      29.853  26.993  23.509  1.00  0.00     0.051 C 
BRANCH  20  21
ATOM     21  C   UNL A   1      30.153  28.478  23.370  1.00  0.00     0.139 C 
BRANCH  21  22
ATOM     22  S   UNL A   1      28.887  29.493  22.603  1.00  0.00     0.147 S 
ATOM     23  C   UNL A   1      28.823  31.002  23.533  1.00  0.00     0.158 C 
ATOM     24  O   UNL A   1      29.367  29.827  21.273  1.00  0.00    -0.229 OA
ATOM     25  O   UNL A   1      27.601  28.862  22.766  1.00  0.00    -0.229 OA
ENDBRANCH  21  22
ENDBRANCH  20  21
ENDBRANCH   8  20
ENDBRANCH   5   8
ENDBRANCH   3   4
ENDBRANCH   2   3
ENDBRANCH   1   2
BRANCH   1  26
ATOM     26  C   UNL A   1      31.583  30.661  25.920  1.00  0.00     0.002 C 
BRANCH  26  27
ATOM     27  C   UNL A   1      31.466  31.977  26.684  1.00  0.00     0.021 C 
BRANCH  27  28
ATOM     28  C   UNL A   1      32.768  32.491  27.278  1.00  0.00     0.116 C 
BRANCH  28  29
ATOM     29  N   UNL A   1      32.683  33.874  27.714  1.00  0.00    -0.352 N 
ATOM     30  C   UNL A   1      33.410  34.524  28.678  1.00  0.00     0.251 C 
ATOM     31  H   UNL A   1      32.007  34.422  27.252  1.00  0.00     0.163 HD
ATOM     32  O   UNL A   1      33.099  35.664  29.012  1.00  0.00    -0.269 OA
BRANCH  30  33
ATOM     33  C   UNL A   1      34.544  33.836  29.332  1.00  0.00     0.039 A 
ATOM     34  C   UNL A   1      35.842  34.268  29.056  1.00  0.00     0.014 A 
ATOM     35  C   UNL A   1      34.331  32.776  30.219  1.00  0.00     0.014 A 
ATOM     36  C   UNL A   1      36.922  33.670  29.707  1.00  0.00     0.010 A 
ATOM     37  C   UNL A   1      35.399  32.244  30.934  1.00  0.00     0.010 A 
ATOM     38  C   UNL A   1      36.709  32.675  30.675  1.00  0.00    -0.014 A 
BRANCH  38  39
ATOM     39  C   UNL A   1      37.848  32.054  31.400  1.00  0.00     0.031 A 
ATOM     40  C   UNL A   1      38.649  30.961  30.744  1.00  0.00     0.074 A 
ATOM     41  C   UNL A   1      38.134  32.448  32.657  1.00  0.00     0.049 A 
ATOM     42  N   UNL A   1      39.646  30.263  31.224  1.00  0.00    -0.248 NA
ATOM     43  C   UNL A   1      38.254  30.579  29.380  1.00  0.00     0.031 C 
ATOM     44  C   UNL A   1      37.403  33.471  33.408  1.00  0.00     0.029 A 
ATOM     45  N   UNL A   1      39.114  32.038  33.526  1.00  0.00    -0.354 N 
ATOM     46  C   UNL A   1      39.992  29.358  30.226  1.00  0.00     0.074 A 
ATOM     47  C   UNL A   1      39.048  29.546  29.146  1.00  0.00     0.031 C 
ATOM     48  C   UNL A   1      37.984  33.634  34.608  1.00  0.00     0.029 A 
ATOM     49  C   UNL A   1      39.092  32.695  34.735  1.00  0.00     0.049 A 
ATOM     50  H   UNL A   1      39.772  31.339  33.305  1.00  0.00     0.167 HD
ATOM     51  C   UNL A   1      41.018  28.473  30.200  1.00  0.00     0.034 A 
ATOM     52  C   UNL A   1      39.872  32.549  35.825  1.00  0.00     0.034 A 
ATOM     53  C   UNL A   1      41.956  28.308  31.285  1.00  0.00     0.049 A 
ATOM     54  C   UNL A   1      40.988  31.535  35.786  1.00  0.00     0.074 A 
ATOM     55  C   UNL A   1      43.057  27.474  31.352  1.00  0.00     0.029 A 
ATOM     56  N   UNL A   1      41.897  28.985  32.498  1.00  0.00    -0.354 N 
ATOM     57  N   UNL A   1      41.331  30.718  34.814  1.00  0.00    -0.248 NA
ATOM     58  C   UNL A   1      41.832  31.434  36.982  1.00  0.00     0.031 C 
ATOM     59  C   UNL A   1      43.616  27.586  32.629  1.00  0.00     0.029 A 
ATOM     60  C   UNL A   1      42.923  28.561  33.329  1.00  0.00     0.049 A 
ATOM     61  H   UNL A   1      41.225  29.665  32.733  1.00  0.00     0.167 HD
ATOM     62  C   UNL A   1      42.456  30.036  35.272  1.00  0.00     0.074 A 
ATOM     63  C   UNL A   1      42.739  30.550  36.596  1.00  0.00     0.031 C 
ATOM     64  C   UNL A   1      43.192  29.077  34.652  1.00  0.00     0.034 A 
BRANCH  51  65
ATOM     65  C   UNL A   1      41.160  27.604  28.972  1.00  0.00     0.023 A 
ATOM     66  C   UNL A   1      42.176  27.819  28.024  1.00  0.00     0.031 A 
ATOM     67  C   UNL A   1      40.249  26.560  28.729  1.00  0.00     0.131 A 
ATOM     68  C   UNL A   1      42.211  27.058  26.846  1.00  0.00     0.055 A 
ATOM     69  C   UNL A   1      40.344  25.747  27.598  1.00  0.00     0.041 A 
ATOM     70  F   UNL A   1      39.241  26.319  29.583  1.00  0.00    -0.206 F 
ATOM     71  C   UNL A   1      41.319  26.003  26.640  1.00  0.00     0.022 A 
BRANCH  68  72
ATOM     72  S   UNL A   1      43.340  27.565  25.520  1.00  0.00     0.124 S 
ATOM     73  O   UNL A   1      42.409  28.104  24.532  1.00  0.00    -0.237 OA
ATOM     74  O   UNL A   1      44.197  28.536  26.189  1.00  0.00    -0.237 OA
ATOM     75  O   UNL A   1      43.995  26.316  25.133  1.00  0.00    -0.744 OA
ENDBRANCH  68  72
ENDBRANCH  51  65
BRANCH  52  76
ATOM     76  C   UNL A   1      39.630  33.370  37.047  1.00  0.00     0.023 A 
ATOM     77  C   UNL A   1      38.932  32.846  38.147  1.00  0.00     0.031 A 
ATOM     78  C   UNL A   1      40.047  34.712  37.114  1.00  0.00     0.131 A 
ATOM     79  C   UNL A   1      38.623  33.672  39.240  1.00  0.00     0.055 A 
ATOM     80  C   UNL A   1      39.794  35.511  38.230  1.00  0.00     0.041 A 
ATOM     81  F   UNL A   1      40.720  35.266  36.092  1.00  0.00    -0.206 F 
ATOM     82  C   UNL A   1      39.063  34.996  39.296  1.00  0.00     0.022 A 
BRANCH  79  83
ATOM     83  S   UNL A   1      37.542  33.020  40.544  1.00  0.00     0.124 S 
ATOM     84  O   UNL A   1      37.658  34.053  41.567  1.00  0.00    -0.237 OA
ATOM     85  O   UNL A   1      36.257  32.936  39.858  1.00  0.00    -0.237 OA
ATOM     86  O   UNL A   1      38.153  31.736  40.880  1.00  0.00    -0.744 OA
ENDBRANCH  79  83
ENDBRANCH  52  76
BRANCH  64  87
ATOM     87  C   UNL A   1      44.411  28.566  35.384  1.00  0.00     0.023 A 
ATOM     88  C   UNL A   1      44.318  27.607  36.408  1.00  0.00     0.031 A 
ATOM     89  C   UNL A   1      45.685  29.066  35.062  1.00  0.00     0.131 A 
ATOM     90  C   UNL A   1      45.466  27.232  37.121  1.00  0.00     0.055 A 
ATOM     91  C   UNL A   1      46.835  28.632  35.725  1.00  0.00     0.041 A 
ATOM     92  F   UNL A   1      45.837  29.986  34.096  1.00  0.00    -0.206 F 
ATOM     93  C   UNL A   1      46.727  27.723  36.773  1.00  0.00     0.022 A 
BRANCH  90  94
ATOM     94  S   UNL A   1      45.275  26.185  38.589  1.00  0.00     0.124 S 
ATOM     95  O   UNL A   1      46.339  26.682  39.456  1.00  0.00    -0.237 OA
ATOM     96  O   UNL A   1      43.913  26.489  39.014  1.00  0.00    -0.237 OA
ATOM     97  O   UNL A   1      45.477  24.832  38.075  1.00  0.00    -0.744 OA
ENDBRANCH  90  94
ENDBRANCH  64  87
ENDBRANCH  38  39
ENDBRANCH  30  33
ENDBRANCH  28  29
ENDBRANCH  27  28
ENDBRANCH  26  27
ENDBRANCH   1  26
TORSDOF 21
ENDMDL
MODEL 2
REMARK VINA RESULT:     -11.0      1.712      2.233
REMARK SMILES Cc1nc(C)c(C(=O)N[C@@H](CCS(C)(=O)=O)C(=O)NCCCCCCNC(=O)c2ccc(-c3c4nc(c(-c5cc(S(=O)(=O)[O-])ccc5F)c5ccc([nH]5)c(-c5cc(S(=O)(=O)[O-])ccc5F)c5nc(c(-c6cc(S(=O)(=O)[O-])ccc6F)c6ccc3[nH]6)C=C5)C=C4)cc2)s1
REMARK SMILES IDX 22 1 21 2 20 3 19 4 17 5 18 6 10 8 9 9 7 10 8 11 6 13 1 14
REMARK SMILES IDX 2 15 3 16 92 17 4 18 5 19 11 20 12 21 13 22 14 23 15 24
REMARK SMILES IDX 16 25 23 26 24 27 25 28 26 29 27 30 28 32 29 33 30 34 91 35
REMARK SMILES IDX 31 36 90 37 32 38 33 39 34 40 84 41 35 42 89 43 83 44 85 45
REMARK SMILES IDX 36 46 88 47 82 48 81 49 37 51 69 52 49 53 68 54 50 55 53 56
REMARK SMILES IDX 67 57 86 58 51 59 52 60 66 62 87 63 54 64 38 65 39 66 47 67
REMARK SMILES IDX 40 68 46 69 48 70 45 71 41 72 42 73 43 74 44 75 70 76 71 77
REMARK SMILES IDX 79 78 72 79 78 80 80 81 77 82 73 83 74 84 75 85 76 86 55 87
REMARK SMILES IDX 56 88 64 89 57 90 63 91 65 92 62 93 58 94 59 95 60 96 61 97
REMARK H PARENT 19 7 9 12 26 31 85 50 53 61
REMARK Flexibility Score: inf
ROOT
ATOM      1  C   UNL A   1      32.521  29.508  26.697  1.00  0.00     0.002 C 
ENDROOT
BRANCH   1   2
ATOM      2  C   UNL A   1      33.692  28.950  25.876  1.00  0.00     0.021 C 
BRANCH   2   3
ATOM      3  C   UNL A   1      33.600  29.146  24.366  1.00  0.00     0.116 C 
BRANCH   3   4
ATOM      4  N   UNL A   1      33.763  27.917  23.616  1.00  0.00    -0.354 N 
ATOM      5  C   UNL A   1      32.851  27.055  23.094  1.00  0.00     0.242 C 
ATOM      6  O   UNL A   1      33.240  26.261  22.228  1.00  0.00    -0.273 OA
ATOM      7  H   UNL A   1      34.701  27.663  23.454  1.00  0.00     0.163 HD
BRANCH   5   8
ATOM      8  C   UNL A   1      31.357  27.075  23.463  1.00  0.00     0.172 C 
BRANCH   8   9
ATOM      9  N   UNL A   1      31.101  26.728  24.861  1.00  0.00    -0.339 N 
ATOM     10  C   UNL A   1      31.574  25.717  25.678  1.00  0.00     0.263 C 
ATOM     11  O   UNL A   1      31.456  25.985  26.880  1.00  0.00    -0.268 OA
ATOM     12  H   UNL A   1      30.467  27.334  25.309  1.00  0.00     0.164 HD
BRANCH  10  13
ATOM     13  C   UNL A   1      32.110  24.429  25.232  1.00  0.00     0.115 A 
ATOM     14  C   UNL A   1      32.429  20.665  24.225  1.00  0.00     0.079 C 
ATOM     15  C   UNL A   1      32.549  22.102  24.589  1.00  0.00     0.091 A 
ATOM     16  N   UNL A   1      33.686  22.733  24.746  1.00  0.00    -0.246 NA
ATOM     17  S   UNL A   1      31.163  23.038  24.890  1.00  0.00    -0.113 S 
ATOM     18  C   UNL A   1      33.456  24.053  25.134  1.00  0.00     0.061 A 
ATOM     19  C   UNL A   1      34.682  24.847  25.437  1.00  0.00     0.068 C 
ENDBRANCH  10  13
ENDBRANCH   8   9
BRANCH   8  20
ATOM     20  C   UNL A   1      30.478  28.238  22.957  1.00  0.00     0.051 C 
BRANCH  20  21
ATOM     21  C   UNL A   1      28.960  28.203  23.066  1.00  0.00     0.139 C 
BRANCH  21  22
ATOM     22  S   UNL A   1      28.081  29.707  22.635  1.00  0.00     0.147 S 
ATOM     23  C   UNL A   1      29.012  31.048  23.326  1.00  0.00     0.158 C 
ATOM     24  O   UNL A   1      28.152  29.834  21.189  1.00  0.00    -0.229 OA
ATOM     25  O   UNL A   1      26.799  29.720  23.295  1.00  0.00    -0.229 OA
ENDBRANCH  21  22
ENDBRANCH  20  21
ENDBRANCH   8  20
ENDBRANCH   5   8
ENDBRANCH   3   4
ENDBRANCH   2   3
ENDBRANCH   1   2
BRANCH   1  26
ATOM     26  C   UNL A   1      31.550  30.446  25.975  1.00  0.00     0.002 C 
BRANCH  26  27
ATOM     27  C   UNL A   1      31.363  31.836  26.577  1.00  0.00     0.021 C 
BRANCH  27  28
ATOM     28  C   UNL A   1      32.636  32.483  27.101  1.00  0.00     0.116 C 
BRANCH  28  29
ATOM     29  N   UNL A   1      32.444  33.869  27.493  1.00  0.00    -0.352 N 
ATOM     30  C   UNL A   1      33.097  34.594  28.456  1.00  0.00     0.251 C 
ATOM     31  H   UNL A   1      31.745  34.356  26.997  1.00  0.00     0.163 HD
ATOM     32  O   UNL A   1      32.699  35.718  28.748  1.00  0.00    -0.269 OA
BRANCH  30  33
ATOM     33  C   UNL A   1      34.256  34.003  29.160  1.00  0.00     0.039 A 
ATOM     34  C   UNL A   1      34.026  33.027  30.132  1.00  0.00     0.014 A 
ATOM     35  C   UNL A   1      35.563  34.401  28.860  1.00  0.00     0.014 A 
ATOM     36  C   UNL A   1      35.109  32.415  30.766  1.00  0.00     0.010 A 
ATOM     37  C   UNL A   1      36.640  33.726  29.426  1.00  0.00     0.010 A 
ATOM     38  C   UNL A   1      36.425  32.737  30.397  1.00  0.00    -0.014 A 
BRANCH  38  39
ATOM     39  C   UNL A   1      37.587  32.068  31.039  1.00  0.00     0.031 A 
ATOM     40  C   UNL A   1      38.365  31.026  30.282  1.00  0.00     0.074 A 
ATOM     41  C   UNL A   1      37.913  32.372  32.311  1.00  0.00     0.049 A 
ATOM     42  N   UNL A   1      39.378  30.298  30.679  1.00  0.00    -0.248 NA
ATOM     43  C   UNL A   1      37.927  30.742  28.907  1.00  0.00     0.031 C 
ATOM     44  C   UNL A   1      37.208  33.338  33.156  1.00  0.00     0.029 A 
ATOM     45  N   UNL A   1      38.920  31.903  33.117  1.00  0.00    -0.354 N 
ATOM     46  C   UNL A   1      39.690  29.466  29.608  1.00  0.00     0.074 A 
ATOM     47  C   UNL A   1      38.712  29.730  28.575  1.00  0.00     0.031 C 
ATOM     48  C   UNL A   1      37.826  33.416  34.345  1.00  0.00     0.029 A 
ATOM     49  C   UNL A   1      38.938  32.472  34.370  1.00  0.00     0.049 A 
ATOM     50  H   UNL A   1      39.570  31.223  32.825  1.00  0.00     0.167 HD
ATOM     51  C   UNL A   1      40.715  28.587  29.486  1.00  0.00     0.034 A 
ATOM     52  C   UNL A   1      39.752  32.250  35.421  1.00  0.00     0.034 A 
ATOM     53  C   UNL A   1      41.686  28.347  30.527  1.00  0.00     0.049 A 
ATOM     54  C   UNL A   1      40.866  31.244  35.274  1.00  0.00     0.074 A 
ATOM     55  C   UNL A   1      42.789  27.512  30.498  1.00  0.00     0.029 A 
ATOM     56  N   UNL A   1      41.667  28.935  31.785  1.00  0.00    -0.354 N 
ATOM     57  N   UNL A   1      41.177  30.499  34.236  1.00  0.00    -0.248 NA
ATOM     58  C   UNL A   1      41.747  31.059  36.432  1.00  0.00     0.031 C 
ATOM     59  C   UNL A   1      43.389  27.534  31.762  1.00  0.00     0.029 A 
ATOM     60  C   UNL A   1      42.719  28.455  32.551  1.00  0.00     0.049 A 
ATOM     61  H   UNL A   1      41.004  29.596  32.090  1.00  0.00     0.167 HD
ATOM     62  C   UNL A   1      42.315  29.788  34.608  1.00  0.00     0.074 A 
ATOM     63  C   UNL A   1      42.641  30.206  35.955  1.00  0.00     0.031 C 
ATOM     64  C   UNL A   1      43.030  28.876  33.898  1.00  0.00     0.034 A 
BRANCH  51  65
ATOM     65  C   UNL A   1      40.816  27.808  28.195  1.00  0.00     0.023 A 
ATOM     66  C   UNL A   1      40.238  26.535  28.050  1.00  0.00     0.031 A 
ATOM     67  C   UNL A   1      41.524  28.335  27.099  1.00  0.00     0.131 A 
ATOM     68  C   UNL A   1      40.442  25.800  26.872  1.00  0.00     0.055 A 
ATOM     69  C   UNL A   1      41.647  27.635  25.897  1.00  0.00     0.041 A 
ATOM     70  F   UNL A   1      42.121  29.534  27.182  1.00  0.00    -0.206 F 
ATOM     71  C   UNL A   1      41.118  26.354  25.783  1.00  0.00     0.022 A 
BRANCH  68  72
ATOM     72  S   UNL A   1      39.945  24.056  26.842  1.00  0.00     0.124 S 
ATOM     73  O   UNL A   1      39.728  23.787  28.262  1.00  0.00    -0.237 OA
ATOM     74  O   UNL A   1      38.750  24.082  26.007  1.00  0.00    -0.237 OA
ATOM     75  O   UNL A   1      41.102  23.381  26.257  1.00  0.00    -0.744 OA
ENDBRANCH  68  72
ENDBRANCH  51  65
BRANCH  52  76
ATOM     76  C   UNL A   1      39.549  32.982  36.706  1.00  0.00     0.023 A 
ATOM     77  C   UNL A   1      38.724  32.461  37.715  1.00  0.00     0.031 A 
ATOM     78  C   UNL A   1      40.137  34.241  36.923  1.00  0.00     0.131 A 
ATOM     79  C   UNL A   1      38.464  33.218  38.869  1.00  0.00     0.055 A 
ATOM     80  C   UNL A   1      39.927  34.962  38.100  1.00  0.00     0.041 A 
ATOM     81  F   UNL A   1      40.936  34.788  35.993  1.00  0.00    -0.206 F 
ATOM     82  C   UNL A   1      39.072  34.459  39.075  1.00  0.00     0.022 A 
BRANCH  79  83
ATOM     83  S   UNL A   1      37.230  32.606  40.051  1.00  0.00     0.124 S 
ATOM     84  O   UNL A   1      37.174  33.701  41.012  1.00  0.00    -0.237 OA
ATOM     85  O   UNL A   1      36.056  32.435  39.202  1.00  0.00    -0.237 OA
ATOM     86  O   UNL A   1      37.824  31.367  40.549  1.00  0.00    -0.744 OA
ENDBRANCH  79  83
ENDBRANCH  52  76
BRANCH  64  87
ATOM     87  C   UNL A   1      44.272  28.316  34.553  1.00  0.00     0.023 A 
ATOM     88  C   UNL A   1      44.248  27.127  35.302  1.00  0.00     0.031 A 
ATOM     89  C   UNL A   1      45.496  29.000  34.439  1.00  0.00     0.131 A 
ATOM     90  C   UNL A   1      45.405  26.696  35.967  1.00  0.00     0.055 A 
ATOM     91  C   UNL A   1      46.662  28.525  35.041  1.00  0.00     0.041 A 
ATOM     92  F   UNL A   1      45.580  30.143  33.740  1.00  0.00    -0.206 F 
ATOM     93  C   UNL A   1      46.617  27.376  35.825  1.00  0.00     0.022 A 
BRANCH  90  94
ATOM     94  S   UNL A   1      45.278  25.302  37.119  1.00  0.00     0.124 S 
ATOM     95  O   UNL A   1      44.379  24.400  36.406  1.00  0.00    -0.237 OA
ATOM     96  O   UNL A   1      46.664  24.862  37.232  1.00  0.00    -0.237 OA
ATOM     97  O   UNL A   1      44.718  25.906  38.328  1.00  0.00    -0.744 OA
ENDBRANCH  90  94
ENDBRANCH  64  87
ENDBRANCH  38  39
ENDBRANCH  30  33
ENDBRANCH  28  29
ENDBRANCH  27  28
ENDBRANCH  26  27
ENDBRANCH   1  26
TORSDOF 21
ENDMDL
MODEL 3
REMARK VINA RESULT:     -10.9      2.031      7.468
REMARK SMILES Cc1nc(C)c(C(=O)N[C@@H](CCS(C)(=O)=O)C(=O)NCCCCCCNC(=O)c2ccc(-c3c4nc(c(-c5cc(S(=O)(=O)[O-])ccc5F)c5ccc([nH]5)c(-c5cc(S(=O)(=O)[O-])ccc5F)c5nc(c(-c6cc(S(=O)(=O)[O-])ccc6F)c6ccc3[nH]6)C=C5)C=C4)cc2)s1
REMARK SMILES IDX 22 1 21 2 20 3 19 4 17 5 18 6 10 8 9 9 7 10 8 11 6 13 1 14
REMARK SMILES IDX 2 15 3 16 92 17 4 18 5 19 11 20 12 21 13 22 14 23 15 24
REMARK SMILES IDX 16 25 23 26 24 27 25 28 26 29 27 30 28 32 29 33 30 34 91 35
REMARK SMILES IDX 31 36 90 37 32 38 33 39 34 40 84 41 35 42 89 43 83 44 85 45
REMARK SMILES IDX 36 46 88 47 82 48 81 49 37 51 69 52 49 53 68 54 50 55 53 56
REMARK SMILES IDX 67 57 86 58 51 59 52 60 66 62 87 63 54 64 38 65 39 66 47 67
REMARK SMILES IDX 40 68 46 69 48 70 45 71 41 72 42 73 43 74 44 75 70 76 71 77
REMARK SMILES IDX 79 78 72 79 78 80 80 81 77 82 73 83 74 84 75 85 76 86 55 87
REMARK SMILES IDX 56 88 64 89 57 90 63 91 65 92 62 93 58 94 59 95 60 96 61 97
REMARK H PARENT 19 7 9 12 26 31 85 50 53 61
REMARK Flexibility Score: inf
ROOT
ATOM      1  C   UNL A   1      32.845  29.629  26.899  1.00  0.00     0.002 C 
ENDROOT
BRANCH   1   2
ATOM      2  C   UNL A   1      33.602  28.627  26.017  1.00  0.00     0.021 C 
BRANCH   2   3
ATOM      3  C   UNL A   1      33.394  27.154  26.354  1.00  0.00     0.116 C 
BRANCH   3   4
ATOM      4  N   UNL A   1      32.016  26.822  26.655  1.00  0.00    -0.354 N 
ATOM      5  C   UNL A   1      30.973  26.495  25.848  1.00  0.00     0.242 C 
ATOM      6  O   UNL A   1      29.993  25.947  26.367  1.00  0.00    -0.273 OA
ATOM      7  H   UNL A   1      31.797  26.836  27.615  1.00  0.00     0.163 HD
BRANCH   5   8
ATOM      8  C   UNL A   1      30.987  26.695  24.322  1.00  0.00     0.172 C 
BRANCH   8   9
ATOM      9  N   UNL A   1      30.637  25.485  23.576  1.00  0.00    -0.339 N 
ATOM     10  C   UNL A   1      31.204  24.224  23.515  1.00  0.00     0.263 C 
ATOM     11  O   UNL A   1      30.410  23.367  23.108  1.00  0.00    -0.268 OA
ATOM     12  H   UNL A   1      29.841  25.588  23.006  1.00  0.00     0.164 HD
BRANCH  10  13
ATOM     13  C   UNL A   1      32.596  23.889  23.826  1.00  0.00     0.115 A 
ATOM     14  C   UNL A   1      36.386  22.995  23.486  1.00  0.00     0.079 C 
ATOM     15  C   UNL A   1      34.974  23.289  23.851  1.00  0.00     0.091 A 
ATOM     16  N   UNL A   1      34.471  23.128  25.049  1.00  0.00    -0.246 NA
ATOM     17  S   UNL A   1      33.868  23.820  22.675  1.00  0.00    -0.113 S 
ATOM     18  C   UNL A   1      33.113  23.444  25.049  1.00  0.00     0.061 A 
ATOM     19  C   UNL A   1      32.407  23.207  26.341  1.00  0.00     0.068 C 
ENDBRANCH  10  13
ENDBRANCH   8   9
BRANCH   8  20
ATOM     20  C   UNL A   1      30.359  27.974  23.729  1.00  0.00     0.051 C 
BRANCH  20  21
ATOM     21  C   UNL A   1      28.913  28.012  23.255  1.00  0.00     0.139 C 
BRANCH  21  22
ATOM     22  S   UNL A   1      28.268  29.608  22.746  1.00  0.00     0.147 S 
ATOM     23  C   UNL A   1      29.218  30.830  23.609  1.00  0.00     0.158 C 
ATOM     24  O   UNL A   1      28.569  29.749  21.331  1.00  0.00    -0.229 OA
ATOM     25  O   UNL A   1      26.910  29.748  23.210  1.00  0.00    -0.229 OA
ENDBRANCH  21  22
ENDBRANCH  20  21
ENDBRANCH   8  20
ENDBRANCH   5   8
ENDBRANCH   3   4
ENDBRANCH   2   3
ENDBRANCH   1   2
BRANCH   1  26
ATOM     26  C   UNL A   1      31.778  30.489  26.217  1.00  0.00     0.002 C 
BRANCH  26  27
ATOM     27  C   UNL A   1      31.555  31.887  26.787  1.00  0.00     0.021 C 
BRANCH  27  28
ATOM     28  C   UNL A   1      32.823  32.696  27.013  1.00  0.00     0.116 C 
BRANCH  28  29
ATOM     29  N   UNL A   1      32.566  33.991  27.617  1.00  0.00    -0.352 N 
ATOM     30  C   UNL A   1      33.178  34.581  28.694  1.00  0.00     0.251 C 
ATOM     31  H   UNL A   1      31.851  34.521  27.194  1.00  0.00     0.163 HD
ATOM     32  O   UNL A   1      32.728  35.626  29.155  1.00  0.00    -0.269 OA
BRANCH  30  33
ATOM     33  C   UNL A   1      34.356  33.935  29.313  1.00  0.00     0.039 A 
ATOM     34  C   UNL A   1      34.152  32.964  30.295  1.00  0.00     0.014 A 
ATOM     35  C   UNL A   1      35.655  34.277  28.923  1.00  0.00     0.014 A 
ATOM     36  C   UNL A   1      35.248  32.301  30.850  1.00  0.00     0.010 A 
ATOM     37  C   UNL A   1      36.738  33.553  29.410  1.00  0.00     0.010 A 
ATOM     38  C   UNL A   1      36.549  32.568  30.390  1.00  0.00    -0.014 A 
BRANCH  38  39
ATOM     39  C   UNL A   1      37.721  31.845  30.948  1.00  0.00     0.031 A 
ATOM     40  C   UNL A   1      38.213  32.170  32.333  1.00  0.00     0.074 A 
ATOM     41  C   UNL A   1      38.362  30.928  30.195  1.00  0.00     0.049 A 
ATOM     42  N   UNL A   1      39.243  31.687  32.981  1.00  0.00    -0.248 NA
ATOM     43  C   UNL A   1      37.468  33.197  33.076  1.00  0.00     0.031 C 
ATOM     44  C   UNL A   1      37.999  30.558  28.825  1.00  0.00     0.029 A 
ATOM     45  N   UNL A   1      39.450  30.140  30.471  1.00  0.00    -0.354 N 
ATOM     46  C   UNL A   1      39.272  32.356  34.200  1.00  0.00     0.074 A 
ATOM     47  C   UNL A   1      38.203  33.330  34.168  1.00  0.00     0.031 C 
ATOM     48  C   UNL A   1      38.825  29.590  28.397  1.00  0.00     0.029 A 
ATOM     49  C   UNL A   1      39.807  29.305  29.437  1.00  0.00     0.049 A 
ATOM     50  H   UNL A   1      39.931  30.168  31.331  1.00  0.00     0.167 HD
ATOM     51  C   UNL A   1      40.095  32.156  35.259  1.00  0.00     0.034 A 
ATOM     52  C   UNL A   1      40.818  28.420  29.336  1.00  0.00     0.034 A 
ATOM     53  C   UNL A   1      41.150  31.171  35.273  1.00  0.00     0.049 A 
ATOM     54  C   UNL A   1      41.741  28.237  30.515  1.00  0.00     0.074 A 
ATOM     55  C   UNL A   1      42.017  30.853  36.304  1.00  0.00     0.029 A 
ATOM     56  N   UNL A   1      41.488  30.350  34.204  1.00  0.00    -0.354 N 
ATOM     57  N   UNL A   1      41.727  28.846  31.680  1.00  0.00    -0.248 NA
ATOM     58  C   UNL A   1      42.807  27.238  30.372  1.00  0.00     0.031 C 
ATOM     59  C   UNL A   1      42.926  29.900  35.834  1.00  0.00     0.029 A 
ATOM     60  C   UNL A   1      42.570  29.551  34.540  1.00  0.00     0.049 A 
ATOM     61  H   UNL A   1      41.027  30.338  33.334  1.00  0.00     0.167 HD
ATOM     62  C   UNL A   1      42.757  28.271  32.420  1.00  0.00     0.074 A 
ATOM     63  C   UNL A   1      43.359  27.261  31.576  1.00  0.00     0.031 C 
ATOM     64  C   UNL A   1      43.166  28.550  33.685  1.00  0.00     0.034 A 
BRANCH  51  65
ATOM     65  C   UNL A   1      39.899  33.038  36.471  1.00  0.00     0.023 A 
ATOM     66  C   UNL A   1      40.658  34.205  36.669  1.00  0.00     0.031 A 
ATOM     67  C   UNL A   1      38.957  32.693  37.457  1.00  0.00     0.131 A 
ATOM     68  C   UNL A   1      40.519  34.940  37.856  1.00  0.00     0.055 A 
ATOM     69  C   UNL A   1      38.761  33.479  38.595  1.00  0.00     0.041 A 
ATOM     70  F   UNL A   1      38.220  31.578  37.339  1.00  0.00    -0.206 F 
ATOM     71  C   UNL A   1      39.555  34.601  38.808  1.00  0.00     0.022 A 
BRANCH  68  72
ATOM     72  S   UNL A   1      41.721  36.252  38.208  1.00  0.00     0.124 S 
ATOM     73  O   UNL A   1      40.862  37.296  38.763  1.00  0.00    -0.237 OA
ATOM     74  O   UNL A   1      42.629  35.605  39.148  1.00  0.00    -0.237 OA
ATOM     75  O   UNL A   1      42.291  36.555  36.897  1.00  0.00    -0.744 OA
ENDBRANCH  68  72
ENDBRANCH  51  65
BRANCH  52  76
ATOM     76  C   UNL A   1      41.022  27.640  28.080  1.00  0.00     0.023 A 
ATOM     77  C   UNL A   1      40.692  26.277  28.010  1.00  0.00     0.031 A 
ATOM     78  C   UNL A   1      41.600  28.235  26.943  1.00  0.00     0.131 A 
ATOM     79  C   UNL A   1      40.994  25.541  26.853  1.00  0.00     0.055 A 
ATOM     80  C   UNL A   1      41.840  27.513  25.772  1.00  0.00     0.041 A 
ATOM     81  F   UNL A   1      41.935  29.535  26.952  1.00  0.00    -0.206 F 
ATOM     82  C   UNL A   1      41.551  26.153  25.728  1.00  0.00     0.022 A 
BRANCH  79  83
ATOM     83  S   UNL A   1      40.746  23.744  26.877  1.00  0.00     0.124 S 
ATOM     84  O   UNL A   1      39.337  23.635  26.516  1.00  0.00    -0.237 OA
ATOM     85  O   UNL A   1      41.704  23.292  25.874  1.00  0.00    -0.237 OA
ATOM     86  O   UNL A   1      41.068  23.376  28.254  1.00  0.00    -0.744 OA
ENDBRANCH  79  83
ENDBRANCH  52  76
BRANCH  64  87
ATOM     87  C   UNL A   1      44.284  27.703  34.249  1.00  0.00     0.023 A 
ATOM     88  C   UNL A   1      44.040  26.470  34.878  1.00  0.00     0.031 A 
ATOM     89  C   UNL A   1      45.614  28.152  34.170  1.00  0.00     0.131 A 
ATOM     90  C   UNL A   1      45.099  25.764  35.466  1.00  0.00     0.055 A 
ATOM     91  C   UNL A   1      46.674  27.408  34.691  1.00  0.00     0.041 A 
ATOM     92  F   UNL A   1      45.909  29.324  33.584  1.00  0.00    -0.206 F 
ATOM     93  C   UNL A   1      46.418  26.215  35.360  1.00  0.00     0.022 A 
BRANCH  90  94
ATOM     94  S   UNL A   1      44.719  24.309  36.480  1.00  0.00     0.124 S 
ATOM     95  O   UNL A   1      44.125  24.914  37.668  1.00  0.00    -0.237 OA
ATOM     96  O   UNL A   1      43.806  23.562  35.622  1.00  0.00    -0.237 OA
ATOM     97  O   UNL A   1      46.025  23.685  36.688  1.00  0.00    -0.744 OA
ENDBRANCH  90  94
ENDBRANCH  64  87
ENDBRANCH  38  39
ENDBRANCH  30  33
ENDBRANCH  28  29
ENDBRANCH  27  28
ENDBRANCH  26  27
ENDBRANCH   1  26
TORSDOF 21
ENDMDL
