MODEL 1
REMARK VINA RESULT:     -11.5      0.000      0.000
REMARK SMILES COc1cc2c(cc1OC)[C@@H](CC(=O)NCCCCCCNC(=O)c1ccc(-c3c4nc(c(-c5cc(S(=O)(=O)[O-])ccc5F)c5ccc([nH]5)c(-c5cc(S(=O)(=O)[O-])ccc5F)c5nc(c(-c6cc(S(=O)(=O)[O-])ccc6F)c6ccc3[nH]6)C=C5)C=C4)cc1)N(C(=O)Nc1ccc(Cl)cc1)CC2
REMARK SMILES IDX 18 1 17 2 16 3 15 4 13 5 14 6 12 8 11 9 3 10 4 11 8 12 5 13
REMARK SMILES IDX 7 14 6 15 100 16 99 17 88 18 2 19 1 20 9 21 10 22 89 23
REMARK SMILES IDX 90 24 91 25 92 27 93 28 98 29 94 30 97 31 95 32 96 33 19 34
REMARK SMILES IDX 20 35 21 36 22 37 23 38 24 40 25 41 26 42 87 43 27 44 86 45
REMARK SMILES IDX 28 46 29 47 30 48 80 49 31 50 85 51 79 52 81 53 32 54 84 55
REMARK SMILES IDX 78 56 77 57 33 59 65 60 45 61 64 62 46 63 49 64 63 65 82 66
REMARK SMILES IDX 47 67 48 68 62 70 83 71 50 72 34 73 35 74 43 75 36 76 42 77
REMARK SMILES IDX 44 78 41 79 37 80 38 81 39 82 40 83 66 84 67 85 75 86 68 87
REMARK SMILES IDX 74 88 76 89 73 90 69 91 70 92 71 93 72 94 51 95 52 96 60 97
REMARK SMILES IDX 53 98 59 99 61 100 58 101 54 102 55 103 56 104 57 105
REMARK H PARENT 15 7 91 26 22 39 81 58 49 69
REMARK Flexibility Score: inf
ROOT
ATOM      1  C   UNL A   1      40.312  22.647  26.565  1.00  0.00     0.002 C 
ENDROOT
BRANCH   1   2
ATOM      2  C   UNL A   1      38.821  22.963  26.443  1.00  0.00     0.021 C 
BRANCH   2   3
ATOM      3  C   UNL A   1      37.934  21.904  25.767  1.00  0.00     0.116 C 
BRANCH   3   4
ATOM      4  N   UNL A   1      37.541  22.339  24.426  1.00  0.00    -0.356 N 
ATOM      5  C   UNL A   1      36.460  23.011  23.942  1.00  0.00     0.222 C 
ATOM      6  O   UNL A   1      36.345  23.100  22.715  1.00  0.00    -0.275 OA
ATOM      7  H   UNL A   1      38.194  22.096  23.729  1.00  0.00     0.163 HD
BRANCH   5   8
ATOM      8  C   UNL A   1      35.464  23.723  24.843  1.00  0.00     0.130 C 
BRANCH   8   9
ATOM      9  C   UNL A   1      33.991  23.422  24.447  1.00  0.00     0.127 C 
ATOM     10  C   UNL A   1      31.663  26.420  22.264  1.00  0.00     0.161 A 
ATOM     11  C   UNL A   1      31.048  25.346  22.878  1.00  0.00     0.054 A 
ATOM     12  C   UNL A   1      33.062  26.509  22.212  1.00  0.00     0.161 A 
ATOM     13  C   UNL A   1      31.832  24.388  23.521  1.00  0.00    -0.037 A 
ATOM     14  C   UNL A   1      33.851  25.510  22.828  1.00  0.00     0.056 A 
ATOM     15  C   UNL A   1      33.252  24.463  23.550  1.00  0.00    -0.018 A 
ATOM     16  C   UNL A   1      31.155  23.414  24.439  1.00  0.00     0.057 C 
ATOM     17  C   UNL A   1      31.827  23.699  25.769  1.00  0.00     0.127 C 
ATOM     18  N   UNL A   1      33.215  23.227  25.716  1.00  0.00    -0.317 N 
BRANCH  10  19
ATOM     19  O   UNL A   1      30.838  27.453  21.898  1.00  0.00    -0.493 OA
ATOM     20  C   UNL A   1      30.092  27.946  23.002  1.00  0.00     0.278 C 
ENDBRANCH  10  19
BRANCH  12  21
ATOM     21  O   UNL A   1      33.547  27.627  21.585  1.00  0.00    -0.493 OA
ATOM     22  C   UNL A   1      34.063  28.668  22.397  1.00  0.00     0.278 C 
ENDBRANCH  12  21
BRANCH  18  23
ATOM     23  C   UNL A   1      33.440  22.138  26.537  1.00  0.00     0.322 C 
ATOM     24  O   UNL A   1      34.233  22.155  27.474  1.00  0.00    -0.248 OA
ATOM     25  N   UNL A   1      32.708  21.055  26.093  1.00  0.00    -0.308 N 
ATOM     26  H   UNL A   1      31.726  21.132  26.113  1.00  0.00     0.171 HD
BRANCH  25  27
ATOM     27  C   UNL A   1      33.251  19.854  25.615  1.00  0.00     0.042 A 
ATOM     28  C   UNL A   1      32.384  18.760  25.517  1.00  0.00     0.028 A 
ATOM     29  C   UNL A   1      34.530  19.787  25.060  1.00  0.00     0.028 A 
ATOM     30  C   UNL A   1      32.758  17.638  24.779  1.00  0.00     0.022 A 
ATOM     31  C   UNL A   1      34.900  18.666  24.316  1.00  0.00     0.022 A 
ATOM     32  C   UNL A   1      34.001  17.614  24.149  1.00  0.00     0.041 A 
ATOM     33  Cl  UNL A   1      34.415  16.307  23.113  1.00  0.00    -0.084 Cl
ENDBRANCH  25  27
ENDBRANCH  18  23
ENDBRANCH   8   9
ENDBRANCH   5   8
ENDBRANCH   3   4
ENDBRANCH   2   3
ENDBRANCH   1   2
BRANCH   1  34
ATOM     34  C   UNL A   1      40.731  21.763  27.743  1.00  0.00     0.002 C 
BRANCH  34  35
ATOM     35  C   UNL A   1      41.162  20.324  27.430  1.00  0.00     0.021 C 
BRANCH  35  36
ATOM     36  C   UNL A   1      41.174  19.904  25.956  1.00  0.00     0.116 C 
BRANCH  36  37
ATOM     37  N   UNL A   1      42.477  19.458  25.501  1.00  0.00    -0.352 N 
ATOM     38  C   UNL A   1      43.661  20.134  25.329  1.00  0.00     0.251 C 
ATOM     39  H   UNL A   1      42.522  18.501  25.274  1.00  0.00     0.163 HD
ATOM     40  O   UNL A   1      44.593  19.558  24.772  1.00  0.00    -0.269 OA
BRANCH  38  41
ATOM     41  C   UNL A   1      43.837  21.540  25.770  1.00  0.00     0.039 A 
ATOM     42  C   UNL A   1      44.250  21.776  27.087  1.00  0.00     0.014 A 
ATOM     43  C   UNL A   1      43.526  22.625  24.947  1.00  0.00     0.014 A 
ATOM     44  C   UNL A   1      44.428  23.086  27.552  1.00  0.00     0.010 A 
ATOM     45  C   UNL A   1      43.739  23.931  25.404  1.00  0.00     0.010 A 
ATOM     46  C   UNL A   1      44.214  24.179  26.701  1.00  0.00    -0.014 A 
BRANCH  46  47
ATOM     47  C   UNL A   1      44.541  25.571  27.126  1.00  0.00     0.031 A 
ATOM     48  C   UNL A   1      43.493  26.475  27.718  1.00  0.00     0.074 A 
ATOM     49  C   UNL A   1      45.786  26.046  26.914  1.00  0.00     0.049 A 
ATOM     50  N   UNL A   1      43.593  27.729  28.081  1.00  0.00    -0.248 NA
ATOM     51  C   UNL A   1      42.157  25.896  27.915  1.00  0.00     0.031 C 
ATOM     52  C   UNL A   1      46.888  25.283  26.326  1.00  0.00     0.029 A 
ATOM     53  N   UNL A   1      46.333  27.284  27.154  1.00  0.00    -0.354 N 
ATOM     54  C   UNL A   1      42.334  28.095  28.548  1.00  0.00     0.074 A 
ATOM     55  C   UNL A   1      41.479  26.937  28.379  1.00  0.00     0.031 C 
ATOM     56  C   UNL A   1      47.979  26.062  26.263  1.00  0.00     0.029 A 
ATOM     57  C   UNL A   1      47.647  27.395  26.756  1.00  0.00     0.049 A 
ATOM     58  H   UNL A   1      45.834  28.022  27.573  1.00  0.00     0.167 HD
ATOM     59  C   UNL A   1      41.934  29.279  29.081  1.00  0.00     0.034 A 
ATOM     60  C   UNL A   1      48.484  28.451  26.759  1.00  0.00     0.034 A 
ATOM     61  C   UNL A   1      42.795  30.428  29.241  1.00  0.00     0.049 A 
ATOM     62  C   UNL A   1      47.996  29.776  27.288  1.00  0.00     0.074 A 
ATOM     63  C   UNL A   1      42.507  31.645  29.839  1.00  0.00     0.029 A 
ATOM     64  N   UNL A   1      44.102  30.517  28.782  1.00  0.00    -0.354 N 
ATOM     65  N   UNL A   1      46.820  30.083  27.784  1.00  0.00    -0.248 NA
ATOM     66  C   UNL A   1      48.946  30.895  27.255  1.00  0.00     0.031 C 
ATOM     67  C   UNL A   1      43.608  32.492  29.670  1.00  0.00     0.029 A 
ATOM     68  C   UNL A   1      44.614  31.783  29.034  1.00  0.00     0.049 A 
ATOM     69  H   UNL A   1      44.595  29.788  28.340  1.00  0.00     0.167 HD
ATOM     70  C   UNL A   1      46.896  31.427  28.135  1.00  0.00     0.074 A 
ATOM     71  C   UNL A   1      48.238  31.866  27.813  1.00  0.00     0.031 C 
ATOM     72  C   UNL A   1      45.942  32.225  28.679  1.00  0.00     0.034 A 
BRANCH  59  73
ATOM     73  C   UNL A   1      40.489  29.402  29.504  1.00  0.00     0.023 A 
ATOM     74  C   UNL A   1      40.117  29.481  30.857  1.00  0.00     0.031 A 
ATOM     75  C   UNL A   1      39.466  29.444  28.538  1.00  0.00     0.131 A 
ATOM     76  C   UNL A   1      38.760  29.528  31.210  1.00  0.00     0.055 A 
ATOM     77  C   UNL A   1      38.121  29.565  28.893  1.00  0.00     0.041 A 
ATOM     78  F   UNL A   1      39.758  29.360  27.229  1.00  0.00    -0.206 F 
ATOM     79  C   UNL A   1      37.759  29.595  30.237  1.00  0.00     0.022 A 
BRANCH  76  80
ATOM     80  S   UNL A   1      38.311  29.374  32.961  1.00  0.00     0.124 S 
ATOM     81  O   UNL A   1      37.323  28.300  32.920  1.00  0.00    -0.237 OA
ATOM     82  O   UNL A   1      39.587  29.046  33.585  1.00  0.00    -0.237 OA
ATOM     83  O   UNL A   1      37.774  30.692  33.295  1.00  0.00    -0.744 OA
ENDBRANCH  76  80
ENDBRANCH  59  73
BRANCH  60  84
ATOM     84  C   UNL A   1      49.862  28.319  26.206  1.00  0.00     0.023 A 
ATOM     85  C   UNL A   1      50.110  28.454  24.831  1.00  0.00     0.031 A 
ATOM     86  C   UNL A   1      50.949  28.015  27.045  1.00  0.00     0.131 A 
ATOM     87  C   UNL A   1      51.405  28.250  24.330  1.00  0.00     0.055 A 
ATOM     88  C   UNL A   1      52.245  27.863  26.549  1.00  0.00     0.041 A 
ATOM     89  F   UNL A   1      50.770  27.877  28.369  1.00  0.00    -0.206 F 
ATOM     90  C   UNL A   1      52.476  27.969  25.182  1.00  0.00     0.022 A 
BRANCH  87  91
ATOM     91  S   UNL A   1      51.658  28.283  22.534  1.00  0.00     0.124 S 
ATOM     92  O   UNL A   1      51.215  29.631  22.197  1.00  0.00    -0.237 OA
ATOM     93  O   UNL A   1      53.091  28.030  22.426  1.00  0.00    -0.237 OA
ATOM     94  O   UNL A   1      50.799  27.203  22.052  1.00  0.00    -0.744 OA
ENDBRANCH  87  91
ENDBRANCH  60  84
BRANCH  72  95
ATOM     95  C   UNL A   1      46.327  33.655  28.967  1.00  0.00     0.023 A 
ATOM     96  C   UNL A   1      46.213  34.659  27.988  1.00  0.00     0.031 A 
ATOM     97  C   UNL A   1      46.818  34.019  30.233  1.00  0.00     0.131 A 
ATOM     98  C   UNL A   1      46.627  35.968  28.278  1.00  0.00     0.055 A 
ATOM     99  C   UNL A   1      47.177  35.334  30.533  1.00  0.00     0.041 A 
ATOM    100  F   UNL A   1      46.952  33.100  31.203  1.00  0.00    -0.206 F 
ATOM    101  C   UNL A   1      47.092  36.315  29.549  1.00  0.00     0.022 A 
BRANCH  98 102
ATOM    102  S   UNL A   1      46.614  37.202  26.948  1.00  0.00     0.124 S 
ATOM    103  O   UNL A   1      45.334  37.868  27.163  1.00  0.00    -0.237 OA
ATOM    104  O   UNL A   1      47.803  37.995  27.243  1.00  0.00    -0.237 OA
ATOM    105  O   UNL A   1      46.697  36.395  25.732  1.00  0.00    -0.744 OA
ENDBRANCH  98 102
ENDBRANCH  72  95
ENDBRANCH  46  47
ENDBRANCH  38  41
ENDBRANCH  36  37
ENDBRANCH  35  36
ENDBRANCH  34  35
ENDBRANCH   1  34
TORSDOF 21
ENDMDL
MODEL 2
REMARK VINA RESULT:     -11.3      1.442      7.197
REMARK SMILES COc1cc2c(cc1OC)[C@@H](CC(=O)NCCCCCCNC(=O)c1ccc(-c3c4nc(c(-c5cc(S(=O)(=O)[O-])ccc5F)c5ccc([nH]5)c(-c5cc(S(=O)(=O)[O-])ccc5F)c5nc(c(-c6cc(S(=O)(=O)[O-])ccc6F)c6ccc3[nH]6)C=C5)C=C4)cc1)N(C(=O)Nc1ccc(Cl)cc1)CC2
REMARK SMILES IDX 18 1 17 2 16 3 15 4 13 5 14 6 12 8 11 9 3 10 4 11 8 12 5 13
REMARK SMILES IDX 7 14 6 15 100 16 99 17 88 18 2 19 1 20 9 21 10 22 89 23
REMARK SMILES IDX 90 24 91 25 92 27 93 28 98 29 94 30 97 31 95 32 96 33 19 34
REMARK SMILES IDX 20 35 21 36 22 37 23 38 24 40 25 41 26 42 87 43 27 44 86 45
REMARK SMILES IDX 28 46 29 47 30 48 80 49 31 50 85 51 79 52 81 53 32 54 84 55
REMARK SMILES IDX 78 56 77 57 33 59 65 60 45 61 64 62 46 63 49 64 63 65 82 66
REMARK SMILES IDX 47 67 48 68 62 70 83 71 50 72 34 73 35 74 43 75 36 76 42 77
REMARK SMILES IDX 44 78 41 79 37 80 38 81 39 82 40 83 66 84 67 85 75 86 68 87
REMARK SMILES IDX 74 88 76 89 73 90 69 91 70 92 71 93 72 94 51 95 52 96 60 97
REMARK SMILES IDX 53 98 59 99 61 100 58 101 54 102 55 103 56 104 57 105
REMARK H PARENT 15 7 91 26 22 39 81 58 49 69
REMARK Flexibility Score: inf
ROOT
ATOM      1  C   UNL A   1      40.422  22.299  26.515  1.00  0.00     0.002 C 
ENDROOT
BRANCH   1   2
ATOM      2  C   UNL A   1      38.955  22.700  26.359  1.00  0.00     0.021 C 
BRANCH   2   3
ATOM      3  C   UNL A   1      38.020  21.685  25.680  1.00  0.00     0.116 C 
BRANCH   3   4
ATOM      4  N   UNL A   1      37.646  22.144  24.341  1.00  0.00    -0.356 N 
ATOM      5  C   UNL A   1      36.565  22.813  23.852  1.00  0.00     0.222 C 
ATOM      6  O   UNL A   1      36.471  22.926  22.625  1.00  0.00    -0.275 OA
ATOM      7  H   UNL A   1      38.314  21.924  23.652  1.00  0.00     0.163 HD
BRANCH   5   8
ATOM      8  C   UNL A   1      35.544  23.493  24.749  1.00  0.00     0.130 C 
BRANCH   8   9
ATOM      9  C   UNL A   1      34.082  23.169  24.331  1.00  0.00     0.127 C 
ATOM     10  C   UNL A   1      31.702  26.175  22.215  1.00  0.00     0.161 A 
ATOM     11  C   UNL A   1      31.107  25.068  22.791  1.00  0.00     0.054 A 
ATOM     12  C   UNL A   1      33.099  26.299  22.179  1.00  0.00     0.161 A 
ATOM     13  C   UNL A   1      31.909  24.111  23.413  1.00  0.00    -0.037 A 
ATOM     14  C   UNL A   1      33.906  25.301  22.773  1.00  0.00     0.056 A 
ATOM     15  C   UNL A   1      33.326  24.219  23.458  1.00  0.00    -0.018 A 
ATOM     16  C   UNL A   1      31.247  23.094  24.296  1.00  0.00     0.057 C 
ATOM     17  C   UNL A   1      31.900  23.355  25.640  1.00  0.00     0.127 C 
ATOM     18  N   UNL A   1      33.300  22.919  25.586  1.00  0.00    -0.317 N 
BRANCH  10  19
ATOM     19  O   UNL A   1      30.856  27.198  21.871  1.00  0.00    -0.493 OA
ATOM     20  C   UNL A   1      30.425  27.929  23.012  1.00  0.00     0.278 C 
ENDBRANCH  10  19
BRANCH  12  21
ATOM     21  O   UNL A   1      33.562  27.446  21.590  1.00  0.00    -0.493 OA
ATOM     22  C   UNL A   1      34.245  28.380  22.409  1.00  0.00     0.278 C 
ENDBRANCH  12  21
BRANCH  18  23
ATOM     23  C   UNL A   1      33.545  21.811  26.376  1.00  0.00     0.322 C 
ATOM     24  O   UNL A   1      34.424  21.777  27.231  1.00  0.00    -0.248 OA
ATOM     25  N   UNL A   1      32.714  20.773  26.001  1.00  0.00    -0.308 N 
ATOM     26  H   UNL A   1      31.745  20.903  26.117  1.00  0.00     0.171 HD
BRANCH  25  27
ATOM     27  C   UNL A   1      33.142  19.550  25.467  1.00  0.00     0.042 A 
ATOM     28  C   UNL A   1      34.378  19.543  24.809  1.00  0.00     0.028 A 
ATOM     29  C   UNL A   1      32.491  18.348  25.749  1.00  0.00     0.028 A 
ATOM     30  C   UNL A   1      35.009  18.333  24.524  1.00  0.00     0.022 A 
ATOM     31  C   UNL A   1      33.127  17.138  25.469  1.00  0.00     0.022 A 
ATOM     32  C   UNL A   1      34.396  17.136  24.891  1.00  0.00     0.041 A 
ATOM     33  Cl  UNL A   1      35.226  15.646  24.684  1.00  0.00    -0.084 Cl
ENDBRANCH  25  27
ENDBRANCH  18  23
ENDBRANCH   8   9
ENDBRANCH   5   8
ENDBRANCH   3   4
ENDBRANCH   2   3
ENDBRANCH   1   2
BRANCH   1  34
ATOM     34  C   UNL A   1      40.758  21.367  27.682  1.00  0.00     0.002 C 
BRANCH  34  35
ATOM     35  C   UNL A   1      41.231  19.947  27.340  1.00  0.00     0.021 C 
BRANCH  35  36
ATOM     36  C   UNL A   1      41.284  19.567  25.857  1.00  0.00     0.116 C 
BRANCH  36  37
ATOM     37  N   UNL A   1      42.604  19.146  25.424  1.00  0.00    -0.352 N 
ATOM     38  C   UNL A   1      43.758  19.858  25.200  1.00  0.00     0.251 C 
ATOM     39  H   UNL A   1      42.687  18.178  25.261  1.00  0.00     0.163 HD
ATOM     40  O   UNL A   1      44.711  19.285  24.676  1.00  0.00    -0.269 OA
BRANCH  38  41
ATOM     41  C   UNL A   1      43.876  21.296  25.544  1.00  0.00     0.039 A 
ATOM     42  C   UNL A   1      44.235  21.638  26.854  1.00  0.00     0.014 A 
ATOM     43  C   UNL A   1      43.561  22.310  24.636  1.00  0.00     0.014 A 
ATOM     44  C   UNL A   1      44.358  22.982  27.229  1.00  0.00     0.010 A 
ATOM     45  C   UNL A   1      43.719  23.651  25.005  1.00  0.00     0.010 A 
ATOM     46  C   UNL A   1      44.141  24.005  26.296  1.00  0.00    -0.014 A 
BRANCH  46  47
ATOM     47  C   UNL A   1      44.412  25.433  26.631  1.00  0.00     0.031 A 
ATOM     48  C   UNL A   1      45.797  26.014  26.520  1.00  0.00     0.074 A 
ATOM     49  C   UNL A   1      43.407  26.198  27.104  1.00  0.00     0.049 A 
ATOM     50  N   UNL A   1      46.217  27.215  26.831  1.00  0.00    -0.248 NA
ATOM     51  C   UNL A   1      46.846  25.124  26.004  1.00  0.00     0.031 C 
ATOM     52  C   UNL A   1      42.024  25.752  27.284  1.00  0.00     0.029 A 
ATOM     53  N   UNL A   1      43.390  27.503  27.533  1.00  0.00    -0.354 N 
ATOM     54  C   UNL A   1      47.580  27.229  26.553  1.00  0.00     0.074 A 
ATOM     55  C   UNL A   1      47.920  25.898  26.089  1.00  0.00     0.031 C 
ATOM     56  C   UNL A   1      41.293  26.766  27.772  1.00  0.00     0.029 A 
ATOM     57  C   UNL A   1      42.160  27.921  27.991  1.00  0.00     0.049 A 
ATOM     58  H   UNL A   1      44.183  28.087  27.514  1.00  0.00     0.167 HD
ATOM     59  C   UNL A   1      48.461  28.257  26.660  1.00  0.00     0.034 A 
ATOM     60  C   UNL A   1      41.773  29.086  28.548  1.00  0.00     0.034 A 
ATOM     61  C   UNL A   1      48.112  29.578  27.129  1.00  0.00     0.049 A 
ATOM     62  C   UNL A   1      42.786  30.189  28.725  1.00  0.00     0.074 A 
ATOM     63  C   UNL A   1      48.912  30.707  27.200  1.00  0.00     0.029 A 
ATOM     64  N   UNL A   1      46.869  29.947  27.628  1.00  0.00    -0.354 N 
ATOM     65  N   UNL A   1      44.056  30.202  28.395  1.00  0.00    -0.248 NA
ATOM     66  C   UNL A   1      42.312  31.430  29.350  1.00  0.00     0.031 C 
ATOM     67  C   UNL A   1      48.179  31.730  27.814  1.00  0.00     0.029 A 
ATOM     68  C   UNL A   1      46.897  31.266  28.058  1.00  0.00     0.049 A 
ATOM     69  H   UNL A   1      46.082  29.357  27.671  1.00  0.00     0.167 HD
ATOM     70  C   UNL A   1      44.528  31.459  28.760  1.00  0.00     0.074 A 
ATOM     71  C   UNL A   1      43.403  32.182  29.316  1.00  0.00     0.031 C 
ATOM     72  C   UNL A   1      45.781  31.970  28.643  1.00  0.00     0.034 A 
BRANCH  59  73
ATOM     73  C   UNL A   1      49.901  27.985  26.292  1.00  0.00     0.023 A 
ATOM     74  C   UNL A   1      50.901  27.849  27.269  1.00  0.00     0.031 A 
ATOM     75  C   UNL A   1      50.279  27.859  24.942  1.00  0.00     0.131 A 
ATOM     76  C   UNL A   1      52.238  27.663  26.884  1.00  0.00     0.055 A 
ATOM     77  C   UNL A   1      51.599  27.600  24.567  1.00  0.00     0.041 A 
ATOM     78  F   UNL A   1      49.370  27.991  23.962  1.00  0.00    -0.206 F 
ATOM     79  C   UNL A   1      52.591  27.514  25.540  1.00  0.00     0.022 A 
BRANCH  76  80
ATOM     80  S   UNL A   1      53.529  27.744  28.156  1.00  0.00     0.124 S 
ATOM     81  O   UNL A   1      53.982  29.128  28.030  1.00  0.00    -0.237 OA
ATOM     82  O   UNL A   1      52.793  27.421  29.372  1.00  0.00    -0.237 OA
ATOM     83  O   UNL A   1      54.498  26.738  27.726  1.00  0.00    -0.744 OA
ENDBRANCH  76  80
ENDBRANCH  59  73
BRANCH  60  84
ATOM     84  C   UNL A   1      40.371  29.262  29.022  1.00  0.00     0.023 A 
ATOM     85  C   UNL A   1      40.048  29.176  30.385  1.00  0.00     0.031 A 
ATOM     86  C   UNL A   1      39.324  29.483  28.108  1.00  0.00     0.131 A 
ATOM     87  C   UNL A   1      38.708  29.272  30.793  1.00  0.00     0.055 A 
ATOM     88  C   UNL A   1      38.000  29.628  28.524  1.00  0.00     0.041 A 
ATOM     89  F   UNL A   1      39.577  29.577  26.793  1.00  0.00    -0.206 F 
ATOM     90  C   UNL A   1      37.684  29.511  29.874  1.00  0.00     0.022 A 
BRANCH  87  91
ATOM     91  S   UNL A   1      38.312  29.004  32.543  1.00  0.00     0.124 S 
ATOM     92  O   UNL A   1      38.954  27.719  32.800  1.00  0.00    -0.237 OA
ATOM     93  O   UNL A   1      38.925  30.168  33.174  1.00  0.00    -0.237 OA
ATOM     94  O   UNL A   1      36.850  28.987  32.560  1.00  0.00    -0.744 OA
ENDBRANCH  87  91
ENDBRANCH  60  84
BRANCH  72  95
ATOM     95  C   UNL A   1      45.990  33.386  29.118  1.00  0.00     0.023 A 
ATOM     96  C   UNL A   1      45.793  34.485  28.261  1.00  0.00     0.031 A 
ATOM     97  C   UNL A   1      46.395  33.642  30.439  1.00  0.00     0.131 A 
ATOM     98  C   UNL A   1      46.045  35.786  28.724  1.00  0.00     0.055 A 
ATOM     99  C   UNL A   1      46.592  34.942  30.910  1.00  0.00     0.041 A 
ATOM    100  F   UNL A   1      46.603  32.631  31.298  1.00  0.00    -0.206 F 
ATOM    101  C   UNL A   1      46.426  36.022  30.047  1.00  0.00     0.022 A 
BRANCH  98 102
ATOM    102  S   UNL A   1      45.934  37.166  27.551  1.00  0.00     0.124 S 
ATOM    103  O   UNL A   1      46.969  36.823  26.581  1.00  0.00    -0.237 OA
ATOM    104  O   UNL A   1      44.558  37.066  27.078  1.00  0.00    -0.237 OA
ATOM    105  O   UNL A   1      46.220  38.339  28.375  1.00  0.00    -0.744 OA
ENDBRANCH  98 102
ENDBRANCH  72  95
ENDBRANCH  46  47
ENDBRANCH  38  41
ENDBRANCH  36  37
ENDBRANCH  35  36
ENDBRANCH  34  35
ENDBRANCH   1  34
TORSDOF 21
ENDMDL
MODEL 3
REMARK VINA RESULT:     -11.1      6.284     12.110
REMARK SMILES COc1cc2c(cc1OC)[C@@H](CC(=O)NCCCCCCNC(=O)c1ccc(-c3c4nc(c(-c5cc(S(=O)(=O)[O-])ccc5F)c5ccc([nH]5)c(-c5cc(S(=O)(=O)[O-])ccc5F)c5nc(c(-c6cc(S(=O)(=O)[O-])ccc6F)c6ccc3[nH]6)C=C5)C=C4)cc1)N(C(=O)Nc1ccc(Cl)cc1)CC2
REMARK SMILES IDX 18 1 17 2 16 3 15 4 13 5 14 6 12 8 11 9 3 10 4 11 8 12 5 13
REMARK SMILES IDX 7 14 6 15 100 16 99 17 88 18 2 19 1 20 9 21 10 22 89 23
REMARK SMILES IDX 90 24 91 25 92 27 93 28 98 29 94 30 97 31 95 32 96 33 19 34
REMARK SMILES IDX 20 35 21 36 22 37 23 38 24 40 25 41 26 42 87 43 27 44 86 45
REMARK SMILES IDX 28 46 29 47 30 48 80 49 31 50 85 51 79 52 81 53 32 54 84 55
REMARK SMILES IDX 78 56 77 57 33 59 65 60 45 61 64 62 46 63 49 64 63 65 82 66
REMARK SMILES IDX 47 67 48 68 62 70 83 71 50 72 34 73 35 74 43 75 36 76 42 77
REMARK SMILES IDX 44 78 41 79 37 80 38 81 39 82 40 83 66 84 67 85 75 86 68 87
REMARK SMILES IDX 74 88 76 89 73 90 69 91 70 92 71 93 72 94 51 95 52 96 60 97
REMARK SMILES IDX 53 98 59 99 61 100 58 101 54 102 55 103 56 104 57 105
REMARK H PARENT 15 7 91 26 22 39 81 58 49 69
REMARK Flexibility Score: inf
ROOT
ATOM      1  C   UNL A   1      34.064  31.676  28.205  1.00  0.00     0.002 C 
ENDROOT
BRANCH   1   2
ATOM      2  C   UNL A   1      35.273  30.796  27.889  1.00  0.00     0.021 C 
BRANCH   2   3
ATOM      3  C   UNL A   1      34.996  29.433  27.232  1.00  0.00     0.116 C 
BRANCH   3   4
ATOM      4  N   UNL A   1      33.667  28.943  27.602  1.00  0.00    -0.356 N 
ATOM      5  C   UNL A   1      32.740  28.182  26.956  1.00  0.00     0.222 C 
ATOM      6  O   UNL A   1      31.631  28.061  27.488  1.00  0.00    -0.275 OA
ATOM      7  H   UNL A   1      33.385  29.219  28.504  1.00  0.00     0.163 HD
BRANCH   5   8
ATOM      8  C   UNL A   1      33.049  27.417  25.680  1.00  0.00     0.130 C 
BRANCH   8   9
ATOM      9  C   UNL A   1      32.524  25.955  25.728  1.00  0.00     0.127 C 
ATOM     10  C   UNL A   1      35.253  22.630  24.905  1.00  0.00     0.161 A 
ATOM     11  C   UNL A   1      33.883  22.447  24.905  1.00  0.00     0.054 A 
ATOM     12  C   UNL A   1      35.811  23.856  25.297  1.00  0.00     0.161 A 
ATOM     13  C   UNL A   1      33.053  23.522  25.220  1.00  0.00    -0.037 A 
ATOM     14  C   UNL A   1      34.962  24.928  25.659  1.00  0.00     0.056 A 
ATOM     15  C   UNL A   1      33.565  24.803  25.566  1.00  0.00    -0.018 A 
ATOM     16  C   UNL A   1      31.589  23.403  24.914  1.00  0.00     0.057 C 
ATOM     17  C   UNL A   1      31.365  24.547  23.943  1.00  0.00     0.127 C 
ATOM     18  N   UNL A   1      31.472  25.819  24.667  1.00  0.00    -0.317 N 
BRANCH  10  19
ATOM     19  O   UNL A   1      35.991  21.629  24.326  1.00  0.00    -0.493 OA
ATOM     20  C   UNL A   1      35.719  20.366  24.918  1.00  0.00     0.278 C 
ENDBRANCH  10  19
BRANCH  12  21
ATOM     21  O   UNL A   1      37.179  23.912  25.243  1.00  0.00    -0.493 OA
ATOM     22  C   UNL A   1      37.899  23.660  26.437  1.00  0.00     0.278 C 
ENDBRANCH  12  21
BRANCH  18  23
ATOM     23  C   UNL A   1      30.262  26.481  24.765  1.00  0.00     0.322 C 
ATOM     24  O   UNL A   1      29.206  25.915  25.030  1.00  0.00    -0.248 OA
ATOM     25  N   UNL A   1      30.431  27.816  24.453  1.00  0.00    -0.308 N 
ATOM     26  H   UNL A   1      31.010  28.350  25.044  1.00  0.00     0.171 HD
BRANCH  25  27
ATOM     27  C   UNL A   1      29.842  28.470  23.362  1.00  0.00     0.042 A 
ATOM     28  C   UNL A   1      28.444  28.546  23.347  1.00  0.00     0.028 A 
ATOM     29  C   UNL A   1      30.593  29.198  22.438  1.00  0.00     0.028 A 
ATOM     30  C   UNL A   1      27.803  29.426  22.477  1.00  0.00     0.022 A 
ATOM     31  C   UNL A   1      29.950  30.084  21.573  1.00  0.00     0.022 A 
ATOM     32  C   UNL A   1      28.564  30.220  21.620  1.00  0.00     0.041 A 
ATOM     33  Cl  UNL A   1      27.800  31.416  20.651  1.00  0.00    -0.084 Cl
ENDBRANCH  25  27
ENDBRANCH  18  23
ENDBRANCH   8   9
ENDBRANCH   5   8
ENDBRANCH   3   4
ENDBRANCH   2   3
ENDBRANCH   1   2
BRANCH   1  34
ATOM     34  C   UNL A   1      34.347  33.151  28.498  1.00  0.00     0.002 C 
BRANCH  34  35
ATOM     35  C   UNL A   1      33.187  34.142  28.329  1.00  0.00     0.021 C 
BRANCH  35  36
ATOM     36  C   UNL A   1      33.382  35.550  28.901  1.00  0.00     0.116 C 
BRANCH  36  37
ATOM     37  N   UNL A   1      32.667  35.763  30.146  1.00  0.00    -0.352 N 
ATOM     38  C   UNL A   1      32.903  35.307  31.421  1.00  0.00     0.251 C 
ATOM     39  H   UNL A   1      31.871  36.336  30.063  1.00  0.00     0.163 HD
ATOM     40  O   UNL A   1      32.049  35.500  32.284  1.00  0.00    -0.269 OA
BRANCH  38  41
ATOM     41  C   UNL A   1      34.139  34.567  31.777  1.00  0.00     0.039 A 
ATOM     42  C   UNL A   1      35.374  35.136  31.440  1.00  0.00     0.014 A 
ATOM     43  C   UNL A   1      34.109  33.295  32.353  1.00  0.00     0.014 A 
ATOM     44  C   UNL A   1      36.569  34.477  31.753  1.00  0.00     0.010 A 
ATOM     45  C   UNL A   1      35.306  32.655  32.695  1.00  0.00     0.010 A 
ATOM     46  C   UNL A   1      36.550  33.245  32.422  1.00  0.00    -0.014 A 
BRANCH  46  47
ATOM     47  C   UNL A   1      37.807  32.599  32.897  1.00  0.00     0.031 A 
ATOM     48  C   UNL A   1      38.448  31.475  32.128  1.00  0.00     0.074 A 
ATOM     49  C   UNL A   1      38.341  32.987  34.074  1.00  0.00     0.049 A 
ATOM     50  N   UNL A   1      39.504  30.762  32.431  1.00  0.00    -0.248 NA
ATOM     51  C   UNL A   1      37.812  31.097  30.858  1.00  0.00     0.031 C 
ATOM     52  C   UNL A   1      37.804  34.046  34.931  1.00  0.00     0.029 A 
ATOM     53  N   UNL A   1      39.440  32.532  34.761  1.00  0.00    -0.354 N 
ATOM     54  C   UNL A   1      39.661  29.848  31.394  1.00  0.00     0.074 A 
ATOM     55  C   UNL A   1      38.562  30.072  30.476  1.00  0.00     0.031 C 
ATOM     56  C   UNL A   1      38.581  34.168  36.019  1.00  0.00     0.029 A 
ATOM     57  C   UNL A   1      39.640  33.165  35.968  1.00  0.00     0.049 A 
ATOM     58  H   UNL A   1      40.031  31.821  34.422  1.00  0.00     0.167 HD
ATOM     59  C   UNL A   1      40.637  28.920  31.217  1.00  0.00     0.034 A 
ATOM     60  C   UNL A   1      40.551  32.949  36.938  1.00  0.00     0.034 A 
ATOM     61  C   UNL A   1      41.726  28.701  32.142  1.00  0.00     0.049 A 
ATOM     62  C   UNL A   1      41.581  31.864  36.753  1.00  0.00     0.074 A 
ATOM     63  C   UNL A   1      42.805  27.841  32.015  1.00  0.00     0.029 A 
ATOM     64  N   UNL A   1      41.866  29.327  33.373  1.00  0.00    -0.354 N 
ATOM     65  N   UNL A   1      41.750  31.053  35.735  1.00  0.00    -0.248 NA
ATOM     66  C   UNL A   1      42.539  31.664  37.847  1.00  0.00     0.031 C 
ATOM     67  C   UNL A   1      43.549  27.889  33.200  1.00  0.00     0.029 A 
ATOM     68  C   UNL A   1      42.980  28.834  34.038  1.00  0.00     0.049 A 
ATOM     69  H   UNL A   1      41.261  30.020  33.725  1.00  0.00     0.167 HD
ATOM     70  C   UNL A   1      42.844  30.257  36.062  1.00  0.00     0.074 A 
ATOM     71  C   UNL A   1      43.306  30.699  37.361  1.00  0.00     0.031 C 
ATOM     72  C   UNL A   1      43.416  29.254  35.349  1.00  0.00     0.034 A 
BRANCH  59  73
ATOM     73  C   UNL A   1      40.555  28.044  29.988  1.00  0.00     0.023 A 
ATOM     74  C   UNL A   1      41.423  28.218  28.897  1.00  0.00     0.031 A 
ATOM     75  C   UNL A   1      39.594  27.020  29.907  1.00  0.00     0.131 A 
ATOM     76  C   UNL A   1      41.271  27.427  27.747  1.00  0.00     0.055 A 
ATOM     77  C   UNL A   1      39.495  26.188  28.790  1.00  0.00     0.041 A 
ATOM     78  F   UNL A   1      38.728  26.814  30.913  1.00  0.00    -0.206 F 
ATOM     79  C   UNL A   1      40.329  26.397  27.695  1.00  0.00     0.022 A 
BRANCH  76  80
ATOM     80  S   UNL A   1      42.239  27.846  26.270  1.00  0.00     0.124 S 
ATOM     81  O   UNL A   1      41.639  26.971  25.266  1.00  0.00    -0.237 OA
ATOM     82  O   UNL A   1      41.976  29.271  26.115  1.00  0.00    -0.237 OA
ATOM     83  O   UNL A   1      43.608  27.501  26.648  1.00  0.00    -0.744 OA
ENDBRANCH  76  80
ENDBRANCH  59  73
BRANCH  60  84
ATOM     84  C   UNL A   1      40.510  33.748  38.197  1.00  0.00     0.023 A 
ATOM     85  C   UNL A   1      39.569  33.475  39.201  1.00  0.00     0.031 A 
ATOM     86  C   UNL A   1      41.394  34.825  38.395  1.00  0.00     0.131 A 
ATOM     87  C   UNL A   1      39.507  34.291  40.341  1.00  0.00     0.055 A 
ATOM     88  C   UNL A   1      41.361  35.602  39.554  1.00  0.00     0.041 A 
ATOM     89  F   UNL A   1      42.316  35.128  37.468  1.00  0.00    -0.206 F 
ATOM     90  C   UNL A   1      40.405  35.344  40.531  1.00  0.00     0.022 A 
BRANCH  87  91
ATOM     91  S   UNL A   1      38.180  34.003  41.545  1.00  0.00     0.124 S 
ATOM     92  O   UNL A   1      37.809  35.365  41.910  1.00  0.00    -0.237 OA
ATOM     93  O   UNL A   1      37.207  33.261  40.749  1.00  0.00    -0.237 OA
ATOM     94  O   UNL A   1      38.840  33.230  42.596  1.00  0.00    -0.744 OA
ENDBRANCH  87  91
ENDBRANCH  60  84
BRANCH  72  95
ATOM     95  C   UNL A   1      44.615  28.575  35.962  1.00  0.00     0.023 A 
ATOM     96  C   UNL A   1      44.484  27.403  36.729  1.00  0.00     0.031 A 
ATOM     97  C   UNL A   1      45.904  29.107  35.783  1.00  0.00     0.131 A 
ATOM     98  C   UNL A   1      45.617  26.826  37.324  1.00  0.00     0.055 A 
ATOM     99  C   UNL A   1      47.034  28.499  36.332  1.00  0.00     0.041 A 
ATOM    100  F   UNL A   1      46.086  30.227  35.064  1.00  0.00    -0.206 F 
ATOM    101  C   UNL A   1      46.892  27.357  37.116  1.00  0.00     0.022 A 
BRANCH  98 102
ATOM    102  S   UNL A   1      45.393  25.408  38.434  1.00  0.00     0.124 S 
ATOM    103  O   UNL A   1      44.186  24.789  37.895  1.00  0.00    -0.237 OA
ATOM    104  O   UNL A   1      46.632  24.662  38.243  1.00  0.00    -0.237 OA
ATOM    105  O   UNL A   1      45.240  26.025  39.750  1.00  0.00    -0.744 OA
ENDBRANCH  98 102
ENDBRANCH  72  95
ENDBRANCH  46  47
ENDBRANCH  38  41
ENDBRANCH  36  37
ENDBRANCH  35  36
ENDBRANCH  34  35
ENDBRANCH   1  34
TORSDOF 21
ENDMDL
