MODEL 1
REMARK VINA RESULT:     -11.2      0.000      0.000
REMARK SMILES COc1ccc(C(=O)c2ccccc2)cc1[C@@H](C)C(=O)NCCCCCCNC(=O)c1ccc(-c2c3nc(c(-c4cc(S(=O)(=O)[O-])ccc4F)c4ccc([nH]4)c(-c4cc(S(=O)(=O)[O-])ccc4F)c4nc(c(-c5cc(S(=O)(=O)[O-])ccc5F)c5ccc2[nH]5)C=C4)C=C3)cc1
REMARK SMILES IDX 24 1 23 2 22 3 21 4 19 5 20 6 17 8 18 9 16 10 3 11 4 12 5 13
REMARK SMILES IDX 15 14 6 15 2 16 1 17 7 18 8 19 9 20 10 21 14 22 11 23 13 24
REMARK SMILES IDX 12 25 25 26 26 27 27 28 28 29 29 30 30 32 31 33 32 34 93 35
REMARK SMILES IDX 33 36 92 37 34 38 35 39 36 40 86 41 37 42 91 43 85 44 87 45
REMARK SMILES IDX 38 46 90 47 84 48 83 49 39 51 71 52 51 53 70 54 52 55 55 56
REMARK SMILES IDX 69 57 88 58 53 59 54 60 68 62 89 63 56 64 40 65 41 66 49 67
REMARK SMILES IDX 42 68 48 69 50 70 47 71 43 72 44 73 45 74 46 75 72 76 73 77
REMARK SMILES IDX 81 78 74 79 80 80 82 81 79 82 75 83 76 84 77 85 78 86 57 87
REMARK SMILES IDX 58 88 66 89 59 90 65 91 67 92 64 93 60 94 61 95 62 96 63 97
REMARK H PARENT 21 7 28 31 87 50 55 61
REMARK Flexibility Score: inf
ROOT
ATOM      1  C   UNL A   1      33.941  23.901  26.348  1.00  0.00     0.002 C 
ENDROOT
BRANCH   1   2
ATOM      2  C   UNL A   1      34.057  25.314  25.765  1.00  0.00     0.021 C 
BRANCH   2   3
ATOM      3  C   UNL A   1      32.848  26.225  25.994  1.00  0.00     0.116 C 
BRANCH   3   4
ATOM      4  N   UNL A   1      32.669  27.174  24.910  1.00  0.00    -0.356 N 
ATOM      5  C   UNL A   1      31.983  27.133  23.737  1.00  0.00     0.227 C 
ATOM      6  O   UNL A   1      32.109  28.132  23.015  1.00  0.00    -0.274 OA
ATOM      7  H   UNL A   1      33.143  28.024  25.056  1.00  0.00     0.163 HD
BRANCH   5   8
ATOM      8  C   UNL A   1      31.108  25.958  23.264  1.00  0.00     0.109 C 
ATOM      9  C   UNL A   1      29.797  25.757  24.021  1.00  0.00     0.023 C 
BRANCH   8  10
ATOM     10  C   UNL A   1      31.895  24.680  23.007  1.00  0.00     0.007 A 
ATOM     11  C   UNL A   1      32.902  24.617  22.029  1.00  0.00     0.122 A 
ATOM     12  C   UNL A   1      33.628  23.442  21.812  1.00  0.00     0.047 A 
ATOM     13  C   UNL A   1      33.377  22.312  22.587  1.00  0.00     0.016 A 
ATOM     14  C   UNL A   1      31.646  23.516  23.757  1.00  0.00     0.020 A 
ATOM     15  C   UNL A   1      32.374  22.334  23.561  1.00  0.00     0.023 A 
BRANCH  11  16
ATOM     16  O   UNL A   1      33.128  25.656  21.166  1.00  0.00    -0.496 OA
ATOM     17  C   UNL A   1      32.505  25.435  19.902  1.00  0.00     0.278 C 
ENDBRANCH  11  16
BRANCH  15  18
ATOM     18  C   UNL A   1      32.182  21.109  24.390  1.00  0.00     0.193 C 
ATOM     19  O   UNL A   1      31.411  21.156  25.348  1.00  0.00    -0.289 OA
BRANCH  18  20
ATOM     20  C   UNL A   1      32.813  19.803  24.078  1.00  0.00     0.022 A 
ATOM     21  C   UNL A   1      32.185  19.007  23.115  1.00  0.00     0.012 A 
ATOM     22  C   UNL A   1      33.951  19.326  24.738  1.00  0.00     0.012 A 
ATOM     23  C   UNL A   1      32.704  17.755  22.802  1.00  0.00     0.001 A 
ATOM     24  C   UNL A   1      34.485  18.080  24.395  1.00  0.00     0.001 A 
ATOM     25  C   UNL A   1      33.860  17.294  23.428  1.00  0.00     0.000 A 
ENDBRANCH  18  20
ENDBRANCH  15  18
ENDBRANCH   8  10
ENDBRANCH   5   8
ENDBRANCH   3   4
ENDBRANCH   2   3
ENDBRANCH   1   2
BRANCH   1  26
ATOM     26  C   UNL A   1      35.218  23.049  26.324  1.00  0.00     0.002 C 
BRANCH  26  27
ATOM     27  C   UNL A   1      35.909  22.887  24.963  1.00  0.00     0.021 C 
BRANCH  27  28
ATOM     28  C   UNL A   1      37.409  23.194  24.935  1.00  0.00     0.116 C 
BRANCH  28  29
ATOM     29  N   UNL A   1      38.217  22.130  25.503  1.00  0.00    -0.352 N 
ATOM     30  C   UNL A   1      39.349  22.209  26.286  1.00  0.00     0.251 C 
ATOM     31  H   UNL A   1      37.912  21.215  25.299  1.00  0.00     0.163 HD
ATOM     32  O   UNL A   1      39.971  21.182  26.545  1.00  0.00    -0.269 OA
BRANCH  30  33
ATOM     33  C   UNL A   1      39.842  23.516  26.795  1.00  0.00     0.039 A 
ATOM     34  C   UNL A   1      39.789  24.632  25.957  1.00  0.00     0.014 A 
ATOM     35  C   UNL A   1      40.405  23.646  28.066  1.00  0.00     0.014 A 
ATOM     36  C   UNL A   1      40.241  25.879  26.412  1.00  0.00     0.010 A 
ATOM     37  C   UNL A   1      40.796  24.907  28.545  1.00  0.00     0.010 A 
ATOM     38  C   UNL A   1      40.718  26.045  27.725  1.00  0.00    -0.014 A 
BRANCH  38  39
ATOM     39  C   UNL A   1      41.121  27.399  28.225  1.00  0.00     0.031 A 
ATOM     40  C   UNL A   1      42.569  27.831  28.245  1.00  0.00     0.074 A 
ATOM     41  C   UNL A   1      40.182  28.262  28.673  1.00  0.00     0.049 A 
ATOM     42  N   UNL A   1      43.088  28.971  28.633  1.00  0.00    -0.248 NA
ATOM     43  C   UNL A   1      43.560  26.851  27.783  1.00  0.00     0.031 C 
ATOM     44  C   UNL A   1      38.747  27.984  28.743  1.00  0.00     0.029 A 
ATOM     45  N   UNL A   1      40.290  29.550  29.145  1.00  0.00    -0.354 N 
ATOM     46  C   UNL A   1      44.464  28.847  28.462  1.00  0.00     0.074 A 
ATOM     47  C   UNL A   1      44.699  27.495  27.996  1.00  0.00     0.031 C 
ATOM     48  C   UNL A   1      38.107  29.076  29.191  1.00  0.00     0.029 A 
ATOM     49  C   UNL A   1      39.084  30.121  29.488  1.00  0.00     0.049 A 
ATOM     50  H   UNL A   1      41.150  30.020  29.232  1.00  0.00     0.167 HD
ATOM     51  C   UNL A   1      45.441  29.772  28.649  1.00  0.00     0.034 A 
ATOM     52  C   UNL A   1      38.788  31.337  29.991  1.00  0.00     0.034 A 
ATOM     53  C   UNL A   1      45.213  31.124  29.108  1.00  0.00     0.049 A 
ATOM     54  C   UNL A   1      39.896  32.331  30.245  1.00  0.00     0.074 A 
ATOM     55  C   UNL A   1      46.136  32.144  29.275  1.00  0.00     0.029 A 
ATOM     56  N   UNL A   1      43.983  31.645  29.484  1.00  0.00    -0.354 N 
ATOM     57  N   UNL A   1      41.185  32.205  30.028  1.00  0.00    -0.248 NA
ATOM     58  C   UNL A   1      39.507  33.633  30.805  1.00  0.00     0.031 C 
ATOM     59  C   UNL A   1      45.480  33.252  29.820  1.00  0.00     0.029 A 
ATOM     60  C   UNL A   1      44.132  32.956  29.919  1.00  0.00     0.049 A 
ATOM     61  H   UNL A   1      43.129  31.156  29.450  1.00  0.00     0.167 HD
ATOM     62  C   UNL A   1      41.751  33.425  30.395  1.00  0.00     0.074 A 
ATOM     63  C   UNL A   1      40.665  34.276  30.830  1.00  0.00     0.031 C 
ATOM     64  C   UNL A   1      43.054  33.805  30.369  1.00  0.00     0.034 A 
BRANCH  51  65
ATOM     65  C   UNL A   1      46.865  29.347  28.371  1.00  0.00     0.023 A 
ATOM     66  C   UNL A   1      47.683  28.806  29.380  1.00  0.00     0.031 A 
ATOM     67  C   UNL A   1      47.415  29.482  27.083  1.00  0.00     0.131 A 
ATOM     68  C   UNL A   1      49.020  28.489  29.103  1.00  0.00     0.055 A 
ATOM     69  C   UNL A   1      48.722  29.088  26.794  1.00  0.00     0.041 A 
ATOM     70  F   UNL A   1      46.689  30.004  26.082  1.00  0.00    -0.206 F 
ATOM     71  C   UNL A   1      49.539  28.601  27.811  1.00  0.00     0.022 A 
BRANCH  68  72
ATOM     72  S   UNL A   1      50.111  28.059  30.486  1.00  0.00     0.124 S 
ATOM     73  O   UNL A   1      49.146  27.743  31.536  1.00  0.00    -0.237 OA
ATOM     74  O   UNL A   1      50.867  26.932  29.953  1.00  0.00    -0.237 OA
ATOM     75  O   UNL A   1      50.883  29.280  30.708  1.00  0.00    -0.744 OA
ENDBRANCH  68  72
ENDBRANCH  51  65
BRANCH  52  76
ATOM     76  C   UNL A   1      37.377  31.700  30.317  1.00  0.00     0.023 A 
ATOM     77  C   UNL A   1      36.503  32.179  29.328  1.00  0.00     0.031 A 
ATOM     78  C   UNL A   1      36.903  31.637  31.639  1.00  0.00     0.131 A 
ATOM     79  C   UNL A   1      35.221  32.628  29.683  1.00  0.00     0.055 A 
ATOM     80  C   UNL A   1      35.607  32.030  31.979  1.00  0.00     0.041 A 
ATOM     81  F   UNL A   1      37.696  31.187  32.626  1.00  0.00    -0.206 F 
ATOM     82  C   UNL A   1      34.763  32.542  31.000  1.00  0.00     0.022 A 
BRANCH  79  83
ATOM     83  S   UNL A   1      34.193  33.418  28.415  1.00  0.00     0.124 S 
ATOM     84  O   UNL A   1      33.470  32.277  27.866  1.00  0.00    -0.237 OA
ATOM     85  O   UNL A   1      33.405  34.357  29.207  1.00  0.00    -0.237 OA
ATOM     86  O   UNL A   1      35.170  34.029  27.518  1.00  0.00    -0.744 OA
ENDBRANCH  79  83
ENDBRANCH  52  76
BRANCH  64  87
ATOM     87  C   UNL A   1      43.370  35.223  30.784  1.00  0.00     0.023 A 
ATOM     88  C   UNL A   1      43.377  36.285  29.861  1.00  0.00     0.031 A 
ATOM     89  C   UNL A   1      43.686  35.515  32.124  1.00  0.00     0.131 A 
ATOM     90  C   UNL A   1      43.744  37.575  30.279  1.00  0.00     0.055 A 
ATOM     91  C   UNL A   1      43.993  36.811  32.544  1.00  0.00     0.041 A 
ATOM     92  F   UNL A   1      43.699  34.543  33.050  1.00  0.00    -0.206 F 
ATOM     93  C   UNL A   1      44.036  37.847  31.617  1.00  0.00     0.022 A 
BRANCH  90  94
ATOM     94  S   UNL A   1      43.926  38.879  29.029  1.00  0.00     0.124 S 
ATOM     95  O   UNL A   1      43.243  38.296  27.878  1.00  0.00    -0.237 OA
ATOM     96  O   UNL A   1      43.257  40.012  29.660  1.00  0.00    -0.237 OA
ATOM     97  O   UNL A   1      45.374  39.017  28.885  1.00  0.00    -0.744 OA
ENDBRANCH  90  94
ENDBRANCH  64  87
ENDBRANCH  38  39
ENDBRANCH  30  33
ENDBRANCH  28  29
ENDBRANCH  27  28
ENDBRANCH  26  27
ENDBRANCH   1  26
TORSDOF 20
ENDMDL
MODEL 2
REMARK VINA RESULT:     -11.2      1.789      2.087
REMARK SMILES COc1ccc(C(=O)c2ccccc2)cc1[C@@H](C)C(=O)NCCCCCCNC(=O)c1ccc(-c2c3nc(c(-c4cc(S(=O)(=O)[O-])ccc4F)c4ccc([nH]4)c(-c4cc(S(=O)(=O)[O-])ccc4F)c4nc(c(-c5cc(S(=O)(=O)[O-])ccc5F)c5ccc2[nH]5)C=C4)C=C3)cc1
REMARK SMILES IDX 24 1 23 2 22 3 21 4 19 5 20 6 17 8 18 9 16 10 3 11 4 12 5 13
REMARK SMILES IDX 15 14 6 15 2 16 1 17 7 18 8 19 9 20 10 21 14 22 11 23 13 24
REMARK SMILES IDX 12 25 25 26 26 27 27 28 28 29 29 30 30 32 31 33 32 34 93 35
REMARK SMILES IDX 33 36 92 37 34 38 35 39 36 40 86 41 37 42 91 43 85 44 87 45
REMARK SMILES IDX 38 46 90 47 84 48 83 49 39 51 71 52 51 53 70 54 52 55 55 56
REMARK SMILES IDX 69 57 88 58 53 59 54 60 68 62 89 63 56 64 40 65 41 66 49 67
REMARK SMILES IDX 42 68 48 69 50 70 47 71 43 72 44 73 45 74 46 75 72 76 73 77
REMARK SMILES IDX 81 78 74 79 80 80 82 81 79 82 75 83 76 84 77 85 78 86 57 87
REMARK SMILES IDX 58 88 66 89 59 90 65 91 67 92 64 93 60 94 61 95 62 96 63 97
REMARK H PARENT 21 7 28 31 87 50 55 61
REMARK Flexibility Score: inf
ROOT
ATOM      1  C   UNL A   1      33.936  23.795  26.446  1.00  0.00     0.002 C 
ENDROOT
BRANCH   1   2
ATOM      2  C   UNL A   1      34.014  25.200  25.838  1.00  0.00     0.021 C 
BRANCH   2   3
ATOM      3  C   UNL A   1      32.786  26.088  26.065  1.00  0.00     0.116 C 
BRANCH   3   4
ATOM      4  N   UNL A   1      32.665  27.118  25.051  1.00  0.00    -0.356 N 
ATOM      5  C   UNL A   1      32.015  27.183  23.859  1.00  0.00     0.227 C 
ATOM      6  O   UNL A   1      32.188  28.229  23.216  1.00  0.00    -0.274 OA
ATOM      7  H   UNL A   1      33.155  27.942  25.273  1.00  0.00     0.163 HD
BRANCH   5   8
ATOM      8  C   UNL A   1      31.125  26.071  23.273  1.00  0.00     0.109 C 
ATOM      9  C   UNL A   1      29.766  25.883  23.945  1.00  0.00     0.023 C 
BRANCH   8  10
ATOM     10  C   UNL A   1      31.878  24.777  22.992  1.00  0.00     0.007 A 
ATOM     11  C   UNL A   1      32.859  24.697  21.989  1.00  0.00     0.122 A 
ATOM     12  C   UNL A   1      33.554  23.509  21.749  1.00  0.00     0.047 A 
ATOM     13  C   UNL A   1      33.296  22.379  22.524  1.00  0.00     0.016 A 
ATOM     14  C   UNL A   1      31.621  23.615  23.741  1.00  0.00     0.020 A 
ATOM     15  C   UNL A   1      32.318  22.418  23.522  1.00  0.00     0.023 A 
BRANCH  11  16
ATOM     16  O   UNL A   1      33.087  25.736  21.127  1.00  0.00    -0.496 OA
ATOM     17  C   UNL A   1      32.503  25.496  19.847  1.00  0.00     0.278 C 
ENDBRANCH  11  16
BRANCH  15  18
ATOM     18  C   UNL A   1      32.119  21.193  24.349  1.00  0.00     0.193 C 
ATOM     19  O   UNL A   1      31.316  21.230  25.280  1.00  0.00    -0.289 OA
BRANCH  18  20
ATOM     20  C   UNL A   1      32.782  19.897  24.064  1.00  0.00     0.022 A 
ATOM     21  C   UNL A   1      32.180  19.071  23.110  1.00  0.00     0.012 A 
ATOM     22  C   UNL A   1      33.925  19.457  24.740  1.00  0.00     0.012 A 
ATOM     23  C   UNL A   1      32.729  17.826  22.821  1.00  0.00     0.001 A 
ATOM     24  C   UNL A   1      34.491  18.218  24.421  1.00  0.00     0.001 A 
ATOM     25  C   UNL A   1      33.891  17.402  23.463  1.00  0.00     0.000 A 
ENDBRANCH  18  20
ENDBRANCH  15  18
ENDBRANCH   8  10
ENDBRANCH   5   8
ENDBRANCH   3   4
ENDBRANCH   2   3
ENDBRANCH   1   2
BRANCH   1  26
ATOM     26  C   UNL A   1      35.245  22.992  26.471  1.00  0.00     0.002 C 
BRANCH  26  27
ATOM     27  C   UNL A   1      35.895  22.697  25.112  1.00  0.00     0.021 C 
BRANCH  27  28
ATOM     28  C   UNL A   1      37.397  22.976  25.017  1.00  0.00     0.116 C 
BRANCH  28  29
ATOM     29  N   UNL A   1      38.208  21.916  25.590  1.00  0.00    -0.352 N 
ATOM     30  C   UNL A   1      39.348  22.002  26.361  1.00  0.00     0.251 C 
ATOM     31  H   UNL A   1      37.899  21.000  25.399  1.00  0.00     0.163 HD
ATOM     32  O   UNL A   1      39.970  20.976  26.626  1.00  0.00    -0.269 OA
BRANCH  30  33
ATOM     33  C   UNL A   1      39.848  23.313  26.850  1.00  0.00     0.039 A 
ATOM     34  C   UNL A   1      39.608  24.457  26.085  1.00  0.00     0.014 A 
ATOM     35  C   UNL A   1      40.599  23.424  28.022  1.00  0.00     0.014 A 
ATOM     36  C   UNL A   1      40.063  25.709  26.525  1.00  0.00     0.010 A 
ATOM     37  C   UNL A   1      40.997  24.686  28.496  1.00  0.00     0.010 A 
ATOM     38  C   UNL A   1      40.732  25.850  27.754  1.00  0.00    -0.014 A 
BRANCH  38  39
ATOM     39  C   UNL A   1      41.140  27.203  28.250  1.00  0.00     0.031 A 
ATOM     40  C   UNL A   1      42.591  27.627  28.276  1.00  0.00     0.074 A 
ATOM     41  C   UNL A   1      40.205  28.073  28.690  1.00  0.00     0.049 A 
ATOM     42  N   UNL A   1      43.115  28.765  28.663  1.00  0.00    -0.248 NA
ATOM     43  C   UNL A   1      43.579  26.639  27.824  1.00  0.00     0.031 C 
ATOM     44  C   UNL A   1      38.767  27.804  28.753  1.00  0.00     0.029 A 
ATOM     45  N   UNL A   1      40.318  29.363  29.157  1.00  0.00    -0.354 N 
ATOM     46  C   UNL A   1      44.491  28.632  28.500  1.00  0.00     0.074 A 
ATOM     47  C   UNL A   1      44.720  27.277  28.040  1.00  0.00     0.031 C 
ATOM     48  C   UNL A   1      38.132  28.902  29.193  1.00  0.00     0.029 A 
ATOM     49  C   UNL A   1      39.113  29.943  29.490  1.00  0.00     0.049 A 
ATOM     50  H   UNL A   1      41.180  29.828  29.246  1.00  0.00     0.167 HD
ATOM     51  C   UNL A   1      45.472  29.553  28.688  1.00  0.00     0.034 A 
ATOM     52  C   UNL A   1      38.822  31.163  29.987  1.00  0.00     0.034 A 
ATOM     53  C   UNL A   1      45.250  30.907  29.139  1.00  0.00     0.049 A 
ATOM     54  C   UNL A   1      39.935  32.151  30.242  1.00  0.00     0.074 A 
ATOM     55  C   UNL A   1      46.178  31.922  29.306  1.00  0.00     0.029 A 
ATOM     56  N   UNL A   1      44.021  31.438  29.507  1.00  0.00    -0.354 N 
ATOM     57  N   UNL A   1      41.224  32.016  30.033  1.00  0.00    -0.248 NA
ATOM     58  C   UNL A   1      39.550  33.458  30.795  1.00  0.00     0.031 C 
ATOM     59  C   UNL A   1      45.526  33.037  29.844  1.00  0.00     0.029 A 
ATOM     60  C   UNL A   1      44.176  32.749  29.936  1.00  0.00     0.049 A 
ATOM     61  H   UNL A   1      43.165  30.954  29.470  1.00  0.00     0.167 HD
ATOM     62  C   UNL A   1      41.795  33.234  30.398  1.00  0.00     0.074 A 
ATOM     63  C   UNL A   1      40.712  34.093  30.824  1.00  0.00     0.031 C 
ATOM     64  C   UNL A   1      43.100  33.607  30.377  1.00  0.00     0.034 A 
BRANCH  51  65
ATOM     65  C   UNL A   1      46.895  29.118  28.419  1.00  0.00     0.023 A 
ATOM     66  C   UNL A   1      47.353  28.859  27.115  1.00  0.00     0.031 A 
ATOM     67  C   UNL A   1      47.808  28.959  29.478  1.00  0.00     0.131 A 
ATOM     68  C   UNL A   1      48.658  28.389  26.910  1.00  0.00     0.055 A 
ATOM     69  C   UNL A   1      49.130  28.569  29.260  1.00  0.00     0.041 A 
ATOM     70  F   UNL A   1      47.427  29.177  30.746  1.00  0.00    -0.206 F 
ATOM     71  C   UNL A   1      49.559  28.266  27.971  1.00  0.00     0.022 A 
BRANCH  68  72
ATOM     72  S   UNL A   1      49.118  27.807  25.255  1.00  0.00     0.124 S 
ATOM     73  O   UNL A   1      49.159  26.360  25.453  1.00  0.00    -0.237 OA
ATOM     74  O   UNL A   1      48.027  28.308  24.429  1.00  0.00    -0.237 OA
ATOM     75  O   UNL A   1      50.418  28.432  25.020  1.00  0.00    -0.744 OA
ENDBRANCH  68  72
ENDBRANCH  51  65
BRANCH  52  76
ATOM     76  C   UNL A   1      37.411  31.535  30.304  1.00  0.00     0.023 A 
ATOM     77  C   UNL A   1      36.533  31.972  29.300  1.00  0.00     0.031 A 
ATOM     78  C   UNL A   1      36.942  31.524  31.629  1.00  0.00     0.131 A 
ATOM     79  C   UNL A   1      35.251  32.432  29.642  1.00  0.00     0.055 A 
ATOM     80  C   UNL A   1      35.647  31.927  31.958  1.00  0.00     0.041 A 
ATOM     81  F   UNL A   1      37.740  31.115  32.630  1.00  0.00    -0.206 F 
ATOM     82  C   UNL A   1      34.798  32.399  30.962  1.00  0.00     0.022 A 
BRANCH  79  83
ATOM     83  S   UNL A   1      34.216  33.169  28.347  1.00  0.00     0.124 S 
ATOM     84  O   UNL A   1      35.211  33.844  27.521  1.00  0.00    -0.237 OA
ATOM     85  O   UNL A   1      33.584  31.993  27.758  1.00  0.00    -0.237 OA
ATOM     86  O   UNL A   1      33.318  34.050  29.090  1.00  0.00    -0.744 OA
ENDBRANCH  79  83
ENDBRANCH  52  76
BRANCH  64  87
ATOM     87  C   UNL A   1      43.423  35.025  30.788  1.00  0.00     0.023 A 
ATOM     88  C   UNL A   1      43.516  35.405  32.138  1.00  0.00     0.031 A 
ATOM     89  C   UNL A   1      43.625  36.017  29.810  1.00  0.00     0.131 A 
ATOM     90  C   UNL A   1      43.749  36.749  32.475  1.00  0.00     0.055 A 
ATOM     91  C   UNL A   1      43.915  37.340  30.150  1.00  0.00     0.041 A 
ATOM     92  F   UNL A   1      43.545  35.715  28.503  1.00  0.00    -0.206 F 
ATOM     93  C   UNL A   1      43.965  37.715  31.489  1.00  0.00     0.022 A 
BRANCH  90  94
ATOM     94  S   UNL A   1      43.675  37.239  34.221  1.00  0.00     0.124 S 
ATOM     95  O   UNL A   1      42.699  36.298  34.760  1.00  0.00    -0.237 OA
ATOM     96  O   UNL A   1      45.054  37.047  34.658  1.00  0.00    -0.237 OA
ATOM     97  O   UNL A   1      43.231  38.630  34.169  1.00  0.00    -0.744 OA
ENDBRANCH  90  94
ENDBRANCH  64  87
ENDBRANCH  38  39
ENDBRANCH  30  33
ENDBRANCH  28  29
ENDBRANCH  27  28
ENDBRANCH  26  27
ENDBRANCH   1  26
TORSDOF 20
ENDMDL
MODEL 3
REMARK VINA RESULT:     -11.0      2.817      7.745
REMARK SMILES COc1ccc(C(=O)c2ccccc2)cc1[C@@H](C)C(=O)NCCCCCCNC(=O)c1ccc(-c2c3nc(c(-c4cc(S(=O)(=O)[O-])ccc4F)c4ccc([nH]4)c(-c4cc(S(=O)(=O)[O-])ccc4F)c4nc(c(-c5cc(S(=O)(=O)[O-])ccc5F)c5ccc2[nH]5)C=C4)C=C3)cc1
REMARK SMILES IDX 24 1 23 2 22 3 21 4 19 5 20 6 17 8 18 9 16 10 3 11 4 12 5 13
REMARK SMILES IDX 15 14 6 15 2 16 1 17 7 18 8 19 9 20 10 21 14 22 11 23 13 24
REMARK SMILES IDX 12 25 25 26 26 27 27 28 28 29 29 30 30 32 31 33 32 34 93 35
REMARK SMILES IDX 33 36 92 37 34 38 35 39 36 40 86 41 37 42 91 43 85 44 87 45
REMARK SMILES IDX 38 46 90 47 84 48 83 49 39 51 71 52 51 53 70 54 52 55 55 56
REMARK SMILES IDX 69 57 88 58 53 59 54 60 68 62 89 63 56 64 40 65 41 66 49 67
REMARK SMILES IDX 42 68 48 69 50 70 47 71 43 72 44 73 45 74 46 75 72 76 73 77
REMARK SMILES IDX 81 78 74 79 80 80 82 81 79 82 75 83 76 84 77 85 78 86 57 87
REMARK SMILES IDX 58 88 66 89 59 90 65 91 67 92 64 93 60 94 61 95 62 96 63 97
REMARK H PARENT 21 7 28 31 87 50 55 61
REMARK Flexibility Score: inf
ROOT
ATOM      1  C   UNL A   1      34.783  23.675  26.292  1.00  0.00     0.002 C 
ENDROOT
BRANCH   1   2
ATOM      2  C   UNL A   1      35.153  24.368  24.977  1.00  0.00     0.021 C 
BRANCH   2   3
ATOM      3  C   UNL A   1      34.076  25.284  24.386  1.00  0.00     0.116 C 
BRANCH   3   4
ATOM      4  N   UNL A   1      33.938  25.105  22.952  1.00  0.00    -0.356 N 
ATOM      5  C   UNL A   1      32.970  24.560  22.169  1.00  0.00     0.227 C 
ATOM      6  O   UNL A   1      33.226  24.527  20.956  1.00  0.00    -0.274 OA
ATOM      7  H   UNL A   1      34.704  25.451  22.441  1.00  0.00     0.163 HD
BRANCH   5   8
ATOM      8  C   UNL A   1      31.634  23.988  22.679  1.00  0.00     0.109 C 
ATOM      9  C   UNL A   1      30.632  25.011  23.210  1.00  0.00     0.023 C 
BRANCH   8  10
ATOM     10  C   UNL A   1      31.799  22.749  23.549  1.00  0.00     0.007 A 
ATOM     11  C   UNL A   1      31.595  22.790  24.939  1.00  0.00     0.122 A 
ATOM     12  C   UNL A   1      31.735  21.643  25.725  1.00  0.00     0.047 A 
ATOM     13  C   UNL A   1      32.062  20.425  25.133  1.00  0.00     0.016 A 
ATOM     14  C   UNL A   1      32.152  21.510  22.983  1.00  0.00     0.020 A 
ATOM     15  C   UNL A   1      32.285  20.349  23.755  1.00  0.00     0.023 A 
BRANCH  11  16
ATOM     16  O   UNL A   1      31.374  23.971  25.595  1.00  0.00    -0.496 OA
ATOM     17  C   UNL A   1      30.451  23.810  26.671  1.00  0.00     0.278 C 
ENDBRANCH  11  16
BRANCH  15  18
ATOM     18  C   UNL A   1      32.586  19.009  23.173  1.00  0.00     0.193 C 
ATOM     19  O   UNL A   1      32.325  18.805  21.987  1.00  0.00    -0.289 OA
BRANCH  18  20
ATOM     20  C   UNL A   1      33.259  17.922  23.925  1.00  0.00     0.022 A 
ATOM     21  C   UNL A   1      32.442  16.938  24.489  1.00  0.00     0.012 A 
ATOM     22  C   UNL A   1      34.642  17.879  24.134  1.00  0.00     0.012 A 
ATOM     23  C   UNL A   1      33.006  15.911  25.238  1.00  0.00     0.001 A 
ATOM     24  C   UNL A   1      35.206  16.826  24.861  1.00  0.00     0.001 A 
ATOM     25  C   UNL A   1      34.387  15.842  25.415  1.00  0.00     0.000 A 
ENDBRANCH  18  20
ENDBRANCH  15  18
ENDBRANCH   8  10
ENDBRANCH   5   8
ENDBRANCH   3   4
ENDBRANCH   2   3
ENDBRANCH   1   2
BRANCH   1  26
ATOM     26  C   UNL A   1      35.222  22.210  26.435  1.00  0.00     0.002 C 
BRANCH  26  27
ATOM     27  C   UNL A   1      35.516  21.452  25.133  1.00  0.00     0.021 C 
BRANCH  27  28
ATOM     28  C   UNL A   1      36.959  21.530  24.627  1.00  0.00     0.116 C 
BRANCH  28  29
ATOM     29  N   UNL A   1      37.806  20.479  25.163  1.00  0.00    -0.352 N 
ATOM     30  C   UNL A   1      39.022  20.572  25.805  1.00  0.00     0.251 C 
ATOM     31  H   UNL A   1      37.460  19.563  25.050  1.00  0.00     0.163 HD
ATOM     32  O   UNL A   1      39.649  19.545  26.052  1.00  0.00    -0.269 OA
BRANCH  30  33
ATOM     33  C   UNL A   1      39.597  21.892  26.174  1.00  0.00     0.039 A 
ATOM     34  C   UNL A   1      40.830  21.934  26.829  1.00  0.00     0.014 A 
ATOM     35  C   UNL A   1      38.913  23.086  25.935  1.00  0.00     0.014 A 
ATOM     36  C   UNL A   1      41.400  23.165  27.183  1.00  0.00     0.010 A 
ATOM     37  C   UNL A   1      39.514  24.321  26.231  1.00  0.00     0.010 A 
ATOM     38  C   UNL A   1      40.770  24.380  26.858  1.00  0.00    -0.014 A 
BRANCH  38  39
ATOM     39  C   UNL A   1      41.428  25.689  27.170  1.00  0.00     0.031 A 
ATOM     40  C   UNL A   1      40.730  26.742  27.999  1.00  0.00     0.074 A 
ATOM     41  C   UNL A   1      42.670  25.949  26.705  1.00  0.00     0.049 A 
ATOM     42  N   UNL A   1      41.161  27.924  28.372  1.00  0.00    -0.248 NA
ATOM     43  C   UNL A   1      39.369  26.434  28.454  1.00  0.00     0.031 C 
ATOM     44  C   UNL A   1      43.464  25.047  25.870  1.00  0.00     0.029 A 
ATOM     45  N   UNL A   1      43.488  27.043  26.875  1.00  0.00    -0.354 N 
ATOM     46  C   UNL A   1      40.128  28.499  29.105  1.00  0.00     0.074 A 
ATOM     47  C   UNL A   1      39.026  27.559  29.067  1.00  0.00     0.031 C 
ATOM     48  C   UNL A   1      44.663  25.604  25.634  1.00  0.00     0.029 A 
ATOM     49  C   UNL A   1      44.714  26.924  26.258  1.00  0.00     0.049 A 
ATOM     50  H   UNL A   1      43.222  27.838  27.390  1.00  0.00     0.167 HD
ATOM     51  C   UNL A   1      40.100  29.683  29.770  1.00  0.00     0.034 A 
ATOM     52  C   UNL A   1      45.759  27.774  26.186  1.00  0.00     0.034 A 
ATOM     53  C   UNL A   1      41.198  30.622  29.818  1.00  0.00     0.049 A 
ATOM     54  C   UNL A   1      45.685  29.110  26.886  1.00  0.00     0.074 A 
ATOM     55  C   UNL A   1      41.277  31.820  30.511  1.00  0.00     0.029 A 
ATOM     56  N   UNL A   1      42.402  30.481  29.143  1.00  0.00    -0.354 N 
ATOM     57  N   UNL A   1      44.713  29.609  27.614  1.00  0.00    -0.248 NA
ATOM     58  C   UNL A   1      46.853  29.993  26.759  1.00  0.00     0.031 C 
ATOM     59  C   UNL A   1      42.492  32.436  30.195  1.00  0.00     0.029 A 
ATOM     60  C   UNL A   1      43.210  31.588  29.371  1.00  0.00     0.049 A 
ATOM     61  H   UNL A   1      42.647  29.710  28.582  1.00  0.00     0.167 HD
ATOM     62  C   UNL A   1      45.171  30.849  28.056  1.00  0.00     0.074 A 
ATOM     63  C   UNL A   1      46.507  31.014  27.528  1.00  0.00     0.031 C 
ATOM     64  C   UNL A   1      44.539  31.765  28.834  1.00  0.00     0.034 A 
BRANCH  51  65
ATOM     65  C   UNL A   1      38.824  30.044  30.495  1.00  0.00     0.023 A 
ATOM     66  C   UNL A   1      37.903  30.960  29.955  1.00  0.00     0.031 A 
ATOM     67  C   UNL A   1      38.520  29.468  31.742  1.00  0.00     0.131 A 
ATOM     68  C   UNL A   1      36.765  31.326  30.688  1.00  0.00     0.055 A 
ATOM     69  C   UNL A   1      37.344  29.774  32.430  1.00  0.00     0.041 A 
ATOM     70  F   UNL A   1      39.365  28.597  32.316  1.00  0.00    -0.206 F 
ATOM     71  C   UNL A   1      36.465  30.720  31.910  1.00  0.00     0.022 A 
BRANCH  68  72
ATOM     72  S   UNL A   1      35.755  32.706  30.086  1.00  0.00     0.124 S 
ATOM     73  O   UNL A   1      35.546  33.475  31.311  1.00  0.00    -0.237 OA
ATOM     74  O   UNL A   1      36.622  33.320  29.087  1.00  0.00    -0.237 OA
ATOM     75  O   UNL A   1      34.560  32.053  29.558  1.00  0.00    -0.744 OA
ENDBRANCH  68  72
ENDBRANCH  51  65
BRANCH  52  76
ATOM     76  C   UNL A   1      46.979  27.412  25.405  1.00  0.00     0.023 A 
ATOM     77  C   UNL A   1      47.147  27.844  24.080  1.00  0.00     0.031 A 
ATOM     78  C   UNL A   1      47.962  26.568  25.952  1.00  0.00     0.131 A 
ATOM     79  C   UNL A   1      48.242  27.390  23.328  1.00  0.00     0.055 A 
ATOM     80  C   UNL A   1      49.079  26.165  25.220  1.00  0.00     0.041 A 
ATOM     81  F   UNL A   1      47.851  26.123  27.214  1.00  0.00    -0.206 F 
ATOM     82  C   UNL A   1      49.217  26.564  23.895  1.00  0.00     0.022 A 
BRANCH  79  83
ATOM     83  S   UNL A   1      48.325  27.812  21.566  1.00  0.00     0.124 S 
ATOM     84  O   UNL A   1      49.419  28.776  21.544  1.00  0.00    -0.237 OA
ATOM     85  O   UNL A   1      48.601  26.515  20.957  1.00  0.00    -0.237 OA
ATOM     86  O   UNL A   1      47.001  28.361  21.286  1.00  0.00    -0.744 OA
ENDBRANCH  79  83
ENDBRANCH  52  76
BRANCH  64  87
ATOM     87  C   UNL A   1      45.310  33.014  29.198  1.00  0.00     0.023 A 
ATOM     88  C   UNL A   1      45.224  34.190  28.432  1.00  0.00     0.031 A 
ATOM     89  C   UNL A   1      46.157  33.021  30.321  1.00  0.00     0.131 A 
ATOM     90  C   UNL A   1      46.011  35.305  28.767  1.00  0.00     0.055 A 
ATOM     91  C   UNL A   1      46.892  34.152  30.684  1.00  0.00     0.041 A 
ATOM     92  F   UNL A   1      46.284  31.926  31.089  1.00  0.00    -0.206 F 
ATOM     93  C   UNL A   1      46.832  35.298  29.897  1.00  0.00     0.022 A 
BRANCH  90  94
ATOM     94  S   UNL A   1      46.018  36.737  27.651  1.00  0.00     0.124 S 
ATOM     95  O   UNL A   1      46.809  36.244  26.528  1.00  0.00    -0.237 OA
ATOM     96  O   UNL A   1      44.596  36.936  27.390  1.00  0.00    -0.237 OA
ATOM     97  O   UNL A   1      46.655  37.786  28.444  1.00  0.00    -0.744 OA
ENDBRANCH  90  94
ENDBRANCH  64  87
ENDBRANCH  38  39
ENDBRANCH  30  33
ENDBRANCH  28  29
ENDBRANCH  27  28
ENDBRANCH  26  27
ENDBRANCH   1  26
TORSDOF 20
ENDMDL
