MODEL 1
REMARK VINA RESULT:     -12.9      0.000      0.000
REMARK SMILES Cc1cccc(-n2c(C)cc(/C=N\c3ccc(O)c(C(=O)NCCCCCCNC(=O)c4ccc(-c5c6nc(c(-c7cc(S(=O)(=O)[O-])ccc7F)c7ccc([nH]7)c(-c7cc(S(=O)(=O)[O-])ccc7F)c7nc(c(-c8cc(S(=O)(=O)[O-])ccc8F)c8ccc5[nH]8)C=C7)C=C6)cc4)c3)c2C)c1
REMARK SMILES IDX 25 1 24 2 23 3 22 4 20 5 21 6 19 8 14 9 15 10 95 11 16 12
REMARK SMILES IDX 17 13 13 14 12 15 11 16 7 17 8 18 96 19 9 20 10 21 97 22
REMARK SMILES IDX 6 23 1 24 2 25 3 26 98 27 4 28 5 29 18 30 26 32 27 33 28 34
REMARK SMILES IDX 29 35 30 36 31 38 32 39 33 40 94 41 34 42 93 43 35 44 36 45
REMARK SMILES IDX 37 46 87 47 38 48 92 49 86 50 88 51 39 52 91 53 85 54 84 55
REMARK SMILES IDX 40 57 72 58 52 59 71 60 53 61 56 62 70 63 89 64 54 65 55 66
REMARK SMILES IDX 69 68 90 69 57 70 41 71 42 72 50 73 43 74 49 75 51 76 48 77
REMARK SMILES IDX 44 78 45 79 46 80 47 81 73 82 74 83 82 84 75 85 81 86 83 87
REMARK SMILES IDX 80 88 76 89 77 90 78 91 79 92 58 93 59 94 67 95 60 96 66 97
REMARK SMILES IDX 68 98 65 99 61 100 62 101 63 102 64 103
REMARK H PARENT 22 7 18 31 29 37 88 56 56 67
REMARK Flexibility Score: inf
ROOT
ATOM      1  C   UNL A   1      32.249  29.759  25.224  1.00  0.00     0.002 C 
ENDROOT
BRANCH   1   2
ATOM      2  C   UNL A   1      33.446  29.286  24.393  1.00  0.00     0.021 C 
BRANCH   2   3
ATOM      3  C   UNL A   1      33.332  29.225  22.874  1.00  0.00     0.116 C 
BRANCH   3   4
ATOM      4  N   UNL A   1      32.034  29.518  22.303  1.00  0.00    -0.352 N 
ATOM      5  C   UNL A   1      30.888  28.761  22.193  1.00  0.00     0.255 C 
ATOM      6  O   UNL A   1      29.888  29.326  21.740  1.00  0.00    -0.269 OA
ATOM      7  H   UNL A   1      31.956  30.424  21.925  1.00  0.00     0.163 HD
BRANCH   5   8
ATOM      8  C   UNL A   1      30.769  27.312  22.569  1.00  0.00     0.083 A 
ATOM      9  C   UNL A   1      29.992  25.749  24.300  1.00  0.00     0.064 A 
ATOM     10  C   UNL A   1      30.435  24.671  23.541  1.00  0.00     0.032 A 
ATOM     11  C   UNL A   1      30.044  27.040  23.749  1.00  0.00     0.046 A 
ATOM     12  C   UNL A   1      31.151  24.908  22.374  1.00  0.00     0.049 A 
ATOM     13  C   UNL A   1      31.411  26.222  21.972  1.00  0.00     0.128 A 
BRANCH   9  14
ATOM     14  N   UNL A   1      29.527  25.588  25.608  1.00  0.00    -0.256 NA
ATOM     15  C   UNL A   1      30.188  24.938  26.525  1.00  0.00     0.121 C 
BRANCH  15  16
ATOM     16  C   UNL A   1      31.480  24.245  26.487  1.00  0.00     0.014 A 
ATOM     17  N   UNL A   1      33.616  23.577  26.140  1.00  0.00    -0.318 N 
ATOM     18  C   UNL A   1      32.969  22.538  26.789  1.00  0.00     0.021 A 
ATOM     19  C   UNL A   1      32.759  24.682  26.134  1.00  0.00     0.029 A 
ATOM     20  C   UNL A   1      33.654  21.295  27.247  1.00  0.00     0.065 C 
ATOM     21  C   UNL A   1      31.655  22.914  26.971  1.00  0.00     0.033 A 
ATOM     22  C   UNL A   1      33.225  26.034  25.721  1.00  0.00     0.065 C 
BRANCH  17  23
ATOM     23  C   UNL A   1      34.899  23.492  25.521  1.00  0.00     0.046 A 
ATOM     24  C   UNL A   1      38.543  24.069  26.498  1.00  0.00     0.044 C 
ATOM     25  C   UNL A   1      37.316  23.703  25.715  1.00  0.00    -0.049 A 
ATOM     26  C   UNL A   1      37.455  23.095  24.462  1.00  0.00     0.003 A 
ATOM     27  C   UNL A   1      36.031  23.905  26.242  1.00  0.00     0.030 A 
ATOM     28  C   UNL A   1      36.329  22.726  23.728  1.00  0.00     0.002 A 
ATOM     29  C   UNL A   1      35.053  22.933  24.250  1.00  0.00     0.026 A 
ENDBRANCH  17  23
ENDBRANCH  15  16
ENDBRANCH   9  14
BRANCH  13  30
ATOM     30  O   UNL A   1      32.475  26.332  21.122  1.00  0.00    -0.507 OA
ATOM     31  H   UNL A   1      32.466  25.883  20.299  1.00  0.00     0.293 HD
ENDBRANCH  13  30
ENDBRANCH   5   8
ENDBRANCH   3   4
ENDBRANCH   2   3
ENDBRANCH   1   2
BRANCH   1  32
ATOM     32  C   UNL A   1      32.439  30.219  26.675  1.00  0.00     0.002 C 
BRANCH  32  33
ATOM     33  C   UNL A   1      33.785  29.979  27.354  1.00  0.00     0.021 C 
BRANCH  33  34
ATOM     34  C   UNL A   1      34.615  31.218  27.668  1.00  0.00     0.116 C 
BRANCH  34  35
ATOM     35  N   UNL A   1      33.858  32.369  28.155  1.00  0.00    -0.352 N 
ATOM     36  C   UNL A   1      34.227  33.276  29.130  1.00  0.00     0.251 C 
ATOM     37  H   UNL A   1      32.978  32.516  27.737  1.00  0.00     0.163 HD
ATOM     38  O   UNL A   1      33.478  34.184  29.480  1.00  0.00    -0.269 OA
BRANCH  36  39
ATOM     39  C   UNL A   1      35.600  33.201  29.690  1.00  0.00     0.039 A 
ATOM     40  C   UNL A   1      36.649  33.725  28.925  1.00  0.00     0.014 A 
ATOM     41  C   UNL A   1      35.867  32.444  30.829  1.00  0.00     0.014 A 
ATOM     42  C   UNL A   1      37.951  33.296  29.168  1.00  0.00     0.010 A 
ATOM     43  C   UNL A   1      37.145  31.946  31.012  1.00  0.00     0.010 A 
ATOM     44  C   UNL A   1      38.173  32.318  30.139  1.00  0.00    -0.014 A 
BRANCH  44  45
ATOM     45  C   UNL A   1      39.398  31.527  30.206  1.00  0.00     0.031 A 
ATOM     46  C   UNL A   1      39.436  30.128  29.733  1.00  0.00     0.074 A 
ATOM     47  C   UNL A   1      40.530  32.095  30.679  1.00  0.00     0.049 A 
ATOM     48  N   UNL A   1      40.348  29.276  30.067  1.00  0.00    -0.248 NA
ATOM     49  C   UNL A   1      38.383  29.540  28.910  1.00  0.00     0.031 C 
ATOM     50  C   UNL A   1      41.894  31.585  30.574  1.00  0.00     0.029 A 
ATOM     51  N   UNL A   1      40.617  33.125  31.613  1.00  0.00    -0.354 N 
ATOM     52  C   UNL A   1      40.196  28.171  29.267  1.00  0.00     0.074 A 
ATOM     53  C   UNL A   1      38.881  28.317  28.700  1.00  0.00     0.031 C 
ATOM     54  C   UNL A   1      42.628  32.099  31.573  1.00  0.00     0.029 A 
ATOM     55  C   UNL A   1      41.726  32.843  32.432  1.00  0.00     0.049 A 
ATOM     56  H   UNL A   1      40.016  33.901  31.688  1.00  0.00     0.167 HD
ATOM     57  C   UNL A   1      41.271  27.360  29.059  1.00  0.00     0.034 A 
ATOM     58  C   UNL A   1      41.586  32.661  33.776  1.00  0.00     0.034 A 
ATOM     59  C   UNL A   1      42.322  27.604  30.056  1.00  0.00     0.049 A 
ATOM     60  C   UNL A   1      42.054  31.307  34.260  1.00  0.00     0.074 A 
ATOM     61  C   UNL A   1      43.590  28.156  30.001  1.00  0.00     0.029 A 
ATOM     62  N   UNL A   1      42.022  27.458  31.411  1.00  0.00    -0.354 N 
ATOM     63  N   UNL A   1      42.285  30.288  33.478  1.00  0.00    -0.248 NA
ATOM     64  C   UNL A   1      42.282  30.991  35.667  1.00  0.00     0.031 C 
ATOM     65  C   UNL A   1      44.009  28.429  31.334  1.00  0.00     0.029 A 
ATOM     66  C   UNL A   1      43.020  27.996  32.202  1.00  0.00     0.049 A 
ATOM     67  H   UNL A   1      41.208  27.028  31.759  1.00  0.00     0.167 HD
ATOM     68  C   UNL A   1      42.655  29.201  34.230  1.00  0.00     0.074 A 
ATOM     69  C   UNL A   1      42.667  29.704  35.593  1.00  0.00     0.031 C 
ATOM     70  C   UNL A   1      42.905  27.982  33.660  1.00  0.00     0.034 A 
BRANCH  57  71
ATOM     71  C   UNL A   1      41.488  26.495  27.818  1.00  0.00     0.023 A 
ATOM     72  C   UNL A   1      41.897  25.150  27.983  1.00  0.00     0.031 A 
ATOM     73  C   UNL A   1      41.461  26.939  26.475  1.00  0.00     0.131 A 
ATOM     74  C   UNL A   1      42.271  24.349  26.881  1.00  0.00     0.055 A 
ATOM     75  C   UNL A   1      41.780  26.126  25.380  1.00  0.00     0.041 A 
ATOM     76  F   UNL A   1      41.184  28.198  26.128  1.00  0.00    -0.206 F 
ATOM     77  C   UNL A   1      42.199  24.826  25.578  1.00  0.00     0.022 A 
BRANCH  74  78
ATOM     78  S   UNL A   1      42.940  22.685  27.166  1.00  0.00     0.124 S 
ATOM     79  O   UNL A   1      42.652  22.018  25.900  1.00  0.00    -0.237 OA
ATOM     80  O   UNL A   1      44.343  22.957  27.455  1.00  0.00    -0.237 OA
ATOM     81  O   UNL A   1      42.162  22.198  28.305  1.00  0.00    -0.744 OA
ENDBRANCH  74  78
ENDBRANCH  57  71
BRANCH  58  82
ATOM     82  C   UNL A   1      40.482  33.472  34.365  1.00  0.00     0.023 A 
ATOM     83  C   UNL A   1      39.479  32.764  35.064  1.00  0.00     0.031 A 
ATOM     84  C   UNL A   1      40.610  34.844  34.610  1.00  0.00     0.131 A 
ATOM     85  C   UNL A   1      38.777  33.380  36.105  1.00  0.00     0.055 A 
ATOM     86  C   UNL A   1      39.843  35.478  35.598  1.00  0.00     0.041 A 
ATOM     87  F   UNL A   1      41.561  35.564  33.998  1.00  0.00    -0.206 F 
ATOM     88  C   UNL A   1      38.959  34.736  36.385  1.00  0.00     0.022 A 
BRANCH  85  89
ATOM     89  S   UNL A   1      37.850  32.341  37.278  1.00  0.00     0.124 S 
ATOM     90  O   UNL A   1      37.746  31.080  36.552  1.00  0.00    -0.237 OA
ATOM     91  O   UNL A   1      38.710  32.323  38.459  1.00  0.00    -0.237 OA
ATOM     92  O   UNL A   1      36.601  33.076  37.458  1.00  0.00    -0.744 OA
ENDBRANCH  85  89
ENDBRANCH  58  82
BRANCH  70  93
ATOM     93  C   UNL A   1      43.143  26.681  34.409  1.00  0.00     0.023 A 
ATOM     94  C   UNL A   1      44.416  26.155  34.684  1.00  0.00     0.031 A 
ATOM     95  C   UNL A   1      42.057  25.943  34.946  1.00  0.00     0.131 A 
ATOM     96  C   UNL A   1      44.575  24.930  35.363  1.00  0.00     0.055 A 
ATOM     97  C   UNL A   1      42.219  24.766  35.684  1.00  0.00     0.041 A 
ATOM     98  F   UNL A   1      40.786  26.340  34.783  1.00  0.00    -0.206 F 
ATOM     99  C   UNL A   1      43.485  24.241  35.882  1.00  0.00     0.022 A 
BRANCH  96 100
ATOM    100  S   UNL A   1      46.242  24.230  35.501  1.00  0.00     0.124 S 
ATOM    101  O   UNL A   1      46.510  23.817  34.126  1.00  0.00    -0.237 OA
ATOM    102  O   UNL A   1      47.021  25.365  35.984  1.00  0.00    -0.237 OA
ATOM    103  O   UNL A   1      46.081  23.135  36.457  1.00  0.00    -0.744 OA
ENDBRANCH  96 100
ENDBRANCH  70  93
ENDBRANCH  44  45
ENDBRANCH  36  39
ENDBRANCH  34  35
ENDBRANCH  33  34
ENDBRANCH  32  33
ENDBRANCH   1  32
TORSDOF 20
ENDMDL
MODEL 2
REMARK VINA RESULT:     -12.8      4.745     10.455
REMARK SMILES Cc1cccc(-n2c(C)cc(/C=N\c3ccc(O)c(C(=O)NCCCCCCNC(=O)c4ccc(-c5c6nc(c(-c7cc(S(=O)(=O)[O-])ccc7F)c7ccc([nH]7)c(-c7cc(S(=O)(=O)[O-])ccc7F)c7nc(c(-c8cc(S(=O)(=O)[O-])ccc8F)c8ccc5[nH]8)C=C7)C=C6)cc4)c3)c2C)c1
REMARK SMILES IDX 25 1 24 2 23 3 22 4 20 5 21 6 19 8 14 9 15 10 95 11 16 12
REMARK SMILES IDX 17 13 13 14 12 15 11 16 7 17 8 18 96 19 9 20 10 21 97 22
REMARK SMILES IDX 6 23 1 24 2 25 3 26 98 27 4 28 5 29 18 30 26 32 27 33 28 34
REMARK SMILES IDX 29 35 30 36 31 38 32 39 33 40 94 41 34 42 93 43 35 44 36 45
REMARK SMILES IDX 37 46 87 47 38 48 92 49 86 50 88 51 39 52 91 53 85 54 84 55
REMARK SMILES IDX 40 57 72 58 52 59 71 60 53 61 56 62 70 63 89 64 54 65 55 66
REMARK SMILES IDX 69 68 90 69 57 70 41 71 42 72 50 73 43 74 49 75 51 76 48 77
REMARK SMILES IDX 44 78 45 79 46 80 47 81 73 82 74 83 82 84 75 85 81 86 83 87
REMARK SMILES IDX 80 88 76 89 77 90 78 91 79 92 58 93 59 94 67 95 60 96 66 97
REMARK SMILES IDX 68 98 65 99 61 100 62 101 63 102 64 103
REMARK H PARENT 22 7 18 31 29 37 88 56 56 67
REMARK Flexibility Score: inf
ROOT
ATOM      1  C   UNL A   1      40.479  19.663  26.267  1.00  0.00     0.002 C 
ENDROOT
BRANCH   1   2
ATOM      2  C   UNL A   1      40.017  21.121  26.363  1.00  0.00     0.021 C 
BRANCH   2   3
ATOM      3  C   UNL A   1      38.761  21.564  25.621  1.00  0.00     0.116 C 
BRANCH   3   4
ATOM      4  N   UNL A   1      38.321  22.927  25.836  1.00  0.00    -0.352 N 
ATOM      5  C   UNL A   1      37.084  23.521  25.711  1.00  0.00     0.255 C 
ATOM      6  O   UNL A   1      36.994  24.699  26.068  1.00  0.00    -0.269 OA
ATOM      7  H   UNL A   1      39.035  23.540  26.124  1.00  0.00     0.163 HD
BRANCH   5   8
ATOM      8  C   UNL A   1      35.853  22.852  25.170  1.00  0.00     0.083 A 
ATOM      9  C   UNL A   1      34.264  22.795  23.295  1.00  0.00     0.064 A 
ATOM     10  C   UNL A   1      33.542  21.786  23.923  1.00  0.00     0.032 A 
ATOM     11  C   UNL A   1      35.477  23.220  23.860  1.00  0.00     0.046 A 
ATOM     12  C   UNL A   1      33.889  21.401  25.213  1.00  0.00     0.049 A 
ATOM     13  C   UNL A   1      34.961  22.024  25.860  1.00  0.00     0.128 A 
BRANCH   9  14
ATOM     14  N   UNL A   1      33.800  23.421  22.135  1.00  0.00    -0.256 NA
ATOM     15  C   UNL A   1      33.160  24.556  22.145  1.00  0.00     0.121 C 
BRANCH  15  16
ATOM     16  C   UNL A   1      32.765  25.442  23.245  1.00  0.00     0.014 A 
ATOM     17  N   UNL A   1      32.534  27.108  24.762  1.00  0.00    -0.318 N 
ATOM     18  C   UNL A   1      31.690  26.082  25.157  1.00  0.00     0.021 A 
ATOM     19  C   UNL A   1      33.036  26.790  23.496  1.00  0.00     0.029 A 
ATOM     20  C   UNL A   1      30.748  26.185  26.308  1.00  0.00     0.065 C 
ATOM     21  C   UNL A   1      31.850  25.044  24.265  1.00  0.00     0.033 A 
ATOM     22  C   UNL A   1      33.791  27.779  22.679  1.00  0.00     0.065 C 
BRANCH  17  23
ATOM     23  C   UNL A   1      32.881  28.243  25.554  1.00  0.00     0.046 A 
ATOM     24  C   UNL A   1      31.368  31.635  26.433  1.00  0.00     0.044 C 
ATOM     25  C   UNL A   1      32.286  30.449  26.396  1.00  0.00    -0.049 A 
ATOM     26  C   UNL A   1      33.364  30.383  27.286  1.00  0.00     0.003 A 
ATOM     27  C   UNL A   1      32.049  29.374  25.525  1.00  0.00     0.030 A 
ATOM     28  C   UNL A   1      34.215  29.279  27.284  1.00  0.00     0.002 A 
ATOM     29  C   UNL A   1      33.982  28.215  26.413  1.00  0.00     0.026 A 
ENDBRANCH  17  23
ENDBRANCH  15  16
ENDBRANCH   9  14
BRANCH  13  30
ATOM     30  O   UNL A   1      34.913  21.917  27.221  1.00  0.00    -0.507 OA
ATOM     31  H   UNL A   1      34.968  21.074  27.627  1.00  0.00     0.293 HD
ENDBRANCH  13  30
ENDBRANCH   5   8
ENDBRANCH   3   4
ENDBRANCH   2   3
ENDBRANCH   1   2
BRANCH   1  32
ATOM     32  C   UNL A   1      41.667  19.163  27.099  1.00  0.00     0.002 C 
BRANCH  32  33
ATOM     33  C   UNL A   1      42.933  18.708  26.375  1.00  0.00     0.021 C 
BRANCH  33  34
ATOM     34  C   UNL A   1      43.337  19.514  25.147  1.00  0.00     0.116 C 
BRANCH  34  35
ATOM     35  N   UNL A   1      44.739  19.924  25.104  1.00  0.00    -0.352 N 
ATOM     36  C   UNL A   1      45.256  21.195  25.269  1.00  0.00     0.251 C 
ATOM     37  H   UNL A   1      45.394  19.207  24.938  1.00  0.00     0.163 HD
ATOM     38  O   UNL A   1      46.460  21.416  25.169  1.00  0.00    -0.269 OA
BRANCH  36  39
ATOM     39  C   UNL A   1      44.340  22.292  25.671  1.00  0.00     0.039 A 
ATOM     40  C   UNL A   1      44.387  23.484  24.940  1.00  0.00     0.014 A 
ATOM     41  C   UNL A   1      43.622  22.223  26.863  1.00  0.00     0.014 A 
ATOM     42  C   UNL A   1      43.911  24.659  25.518  1.00  0.00     0.010 A 
ATOM     43  C   UNL A   1      43.235  23.401  27.476  1.00  0.00     0.010 A 
ATOM     44  C   UNL A   1      43.443  24.626  26.832  1.00  0.00    -0.014 A 
BRANCH  44  45
ATOM     45  C   UNL A   1      43.296  25.823  27.655  1.00  0.00     0.031 A 
ATOM     46  C   UNL A   1      42.138  26.726  27.497  1.00  0.00     0.074 A 
ATOM     47  C   UNL A   1      44.220  26.094  28.604  1.00  0.00     0.049 A 
ATOM     48  N   UNL A   1      42.108  27.945  27.921  1.00  0.00    -0.248 NA
ATOM     49  C   UNL A   1      40.937  26.354  26.754  1.00  0.00     0.031 C 
ATOM     50  C   UNL A   1      44.120  27.059  29.695  1.00  0.00     0.029 A 
ATOM     51  N   UNL A   1      45.567  25.735  28.581  1.00  0.00    -0.354 N 
ATOM     52  C   UNL A   1      40.815  28.392  27.812  1.00  0.00     0.074 A 
ATOM     53  C   UNL A   1      40.180  27.441  26.938  1.00  0.00     0.031 C 
ATOM     54  C   UNL A   1      45.357  27.422  30.068  1.00  0.00     0.029 A 
ATOM     55  C   UNL A   1      46.285  26.809  29.136  1.00  0.00     0.049 A 
ATOM     56  H   UNL A   1      45.943  24.892  28.240  1.00  0.00     0.167 HD
ATOM     57  C   UNL A   1      40.406  29.418  28.610  1.00  0.00     0.034 A 
ATOM     58  C   UNL A   1      47.235  27.473  28.417  1.00  0.00     0.034 A 
ATOM     59  C   UNL A   1      41.553  30.133  29.186  1.00  0.00     0.049 A 
ATOM     60  C   UNL A   1      46.955  28.951  28.255  1.00  0.00     0.074 A 
ATOM     61  C   UNL A   1      42.071  30.248  30.465  1.00  0.00     0.029 A 
ATOM     62  N   UNL A   1      42.499  30.702  28.333  1.00  0.00    -0.354 N 
ATOM     63  N   UNL A   1      45.801  29.510  28.496  1.00  0.00    -0.248 NA
ATOM     64  C   UNL A   1      47.953  29.912  27.794  1.00  0.00     0.031 C 
ATOM     65  C   UNL A   1      43.377  30.803  30.361  1.00  0.00     0.029 A 
ATOM     66  C   UNL A   1      43.634  31.074  29.027  1.00  0.00     0.049 A 
ATOM     67  H   UNL A   1      42.375  30.822  27.364  1.00  0.00     0.167 HD
ATOM     68  C   UNL A   1      45.868  30.851  28.214  1.00  0.00     0.074 A 
ATOM     69  C   UNL A   1      47.248  31.057  27.806  1.00  0.00     0.031 C 
ATOM     70  C   UNL A   1      44.775  31.667  28.329  1.00  0.00     0.034 A 
BRANCH  57  71
ATOM     71  C   UNL A   1      38.967  29.650  29.068  1.00  0.00     0.023 A 
ATOM     72  C   UNL A   1      38.334  30.874  28.744  1.00  0.00     0.031 A 
ATOM     73  C   UNL A   1      38.217  28.812  29.925  1.00  0.00     0.131 A 
ATOM     74  C   UNL A   1      37.070  31.219  29.273  1.00  0.00     0.055 A 
ATOM     75  C   UNL A   1      36.940  29.132  30.405  1.00  0.00     0.041 A 
ATOM     76  F   UNL A   1      38.682  27.658  30.409  1.00  0.00    -0.206 F 
ATOM     77  C   UNL A   1      36.362  30.344  30.090  1.00  0.00     0.022 A 
BRANCH  74  78
ATOM     78  S   UNL A   1      36.380  32.867  28.952  1.00  0.00     0.124 S 
ATOM     79  O   UNL A   1      35.389  32.996  30.016  1.00  0.00    -0.237 OA
ATOM     80  O   UNL A   1      37.556  33.722  29.050  1.00  0.00    -0.237 OA
ATOM     81  O   UNL A   1      35.820  32.744  27.606  1.00  0.00    -0.744 OA
ENDBRANCH  74  78
ENDBRANCH  57  71
BRANCH  58  82
ATOM     82  C   UNL A   1      47.944  26.601  27.438  1.00  0.00     0.023 A 
ATOM     83  C   UNL A   1      47.686  26.842  26.070  1.00  0.00     0.031 A 
ATOM     84  C   UNL A   1      49.101  25.888  27.771  1.00  0.00     0.131 A 
ATOM     85  C   UNL A   1      48.656  26.548  25.106  1.00  0.00     0.055 A 
ATOM     86  C   UNL A   1      50.033  25.519  26.791  1.00  0.00     0.041 A 
ATOM     87  F   UNL A   1      49.415  25.652  29.054  1.00  0.00    -0.206 F 
ATOM     88  C   UNL A   1      49.838  25.894  25.460  1.00  0.00     0.022 A 
BRANCH  85  89
ATOM     89  S   UNL A   1      48.503  27.285  23.449  1.00  0.00     0.124 S 
ATOM     90  O   UNL A   1      48.377  26.105  22.600  1.00  0.00    -0.237 OA
ATOM     91  O   UNL A   1      47.306  28.115  23.562  1.00  0.00    -0.237 OA
ATOM     92  O   UNL A   1      49.744  28.042  23.305  1.00  0.00    -0.744 OA
ENDBRANCH  85  89
ENDBRANCH  58  82
BRANCH  70  93
ATOM     93  C   UNL A   1      44.693  33.116  27.874  1.00  0.00     0.023 A 
ATOM     94  C   UNL A   1      45.133  34.205  28.643  1.00  0.00     0.031 A 
ATOM     95  C   UNL A   1      44.214  33.443  26.580  1.00  0.00     0.131 A 
ATOM     96  C   UNL A   1      45.010  35.530  28.178  1.00  0.00     0.055 A 
ATOM     97  C   UNL A   1      44.161  34.753  26.091  1.00  0.00     0.041 A 
ATOM     98  F   UNL A   1      43.784  32.502  25.727  1.00  0.00    -0.206 F 
ATOM     99  C   UNL A   1      44.544  35.811  26.898  1.00  0.00     0.022 A 
BRANCH  96 100
ATOM    100  S   UNL A   1      45.420  36.884  29.312  1.00  0.00     0.124 S 
ATOM    101  O   UNL A   1      46.814  36.593  29.637  1.00  0.00    -0.237 OA
ATOM    102  O   UNL A   1      45.197  38.065  28.486  1.00  0.00    -0.237 OA
ATOM    103  O   UNL A   1      44.477  36.711  30.416  1.00  0.00    -0.744 OA
ENDBRANCH  96 100
ENDBRANCH  70  93
ENDBRANCH  44  45
ENDBRANCH  36  39
ENDBRANCH  34  35
ENDBRANCH  33  34
ENDBRANCH  32  33
ENDBRANCH   1  32
TORSDOF 20
ENDMDL
MODEL 3
REMARK VINA RESULT:     -12.5      3.884      9.609
REMARK SMILES Cc1cccc(-n2c(C)cc(/C=N\c3ccc(O)c(C(=O)NCCCCCCNC(=O)c4ccc(-c5c6nc(c(-c7cc(S(=O)(=O)[O-])ccc7F)c7ccc([nH]7)c(-c7cc(S(=O)(=O)[O-])ccc7F)c7nc(c(-c8cc(S(=O)(=O)[O-])ccc8F)c8ccc5[nH]8)C=C7)C=C6)cc4)c3)c2C)c1
REMARK SMILES IDX 25 1 24 2 23 3 22 4 20 5 21 6 19 8 14 9 15 10 95 11 16 12
REMARK SMILES IDX 17 13 13 14 12 15 11 16 7 17 8 18 96 19 9 20 10 21 97 22
REMARK SMILES IDX 6 23 1 24 2 25 3 26 98 27 4 28 5 29 18 30 26 32 27 33 28 34
REMARK SMILES IDX 29 35 30 36 31 38 32 39 33 40 94 41 34 42 93 43 35 44 36 45
REMARK SMILES IDX 37 46 87 47 38 48 92 49 86 50 88 51 39 52 91 53 85 54 84 55
REMARK SMILES IDX 40 57 72 58 52 59 71 60 53 61 56 62 70 63 89 64 54 65 55 66
REMARK SMILES IDX 69 68 90 69 57 70 41 71 42 72 50 73 43 74 49 75 51 76 48 77
REMARK SMILES IDX 44 78 45 79 46 80 47 81 73 82 74 83 82 84 75 85 81 86 83 87
REMARK SMILES IDX 80 88 76 89 77 90 78 91 79 92 58 93 59 94 67 95 60 96 66 97
REMARK SMILES IDX 68 98 65 99 61 100 62 101 63 102 64 103
REMARK H PARENT 22 7 18 31 29 37 88 56 56 67
REMARK Flexibility Score: inf
ROOT
ATOM      1  C   UNL A   1      36.644  23.130  24.619  1.00  0.00     0.002 C 
ENDROOT
BRANCH   1   2
ATOM      2  C   UNL A   1      36.204  23.955  25.834  1.00  0.00     0.021 C 
BRANCH   2   3
ATOM      3  C   UNL A   1      35.042  24.932  25.700  1.00  0.00     0.116 C 
BRANCH   3   4
ATOM      4  N   UNL A   1      33.817  24.590  26.392  1.00  0.00    -0.352 N 
ATOM      5  C   UNL A   1      32.815  23.693  26.095  1.00  0.00     0.255 C 
ATOM      6  O   UNL A   1      31.929  23.546  26.942  1.00  0.00    -0.269 OA
ATOM      7  H   UNL A   1      33.674  25.091  27.228  1.00  0.00     0.163 HD
BRANCH   5   8
ATOM      8  C   UNL A   1      32.717  22.895  24.826  1.00  0.00     0.083 A 
ATOM      9  C   UNL A   1      32.984  22.974  22.384  1.00  0.00     0.064 A 
ATOM     10  C   UNL A   1      32.595  21.643  22.287  1.00  0.00     0.032 A 
ATOM     11  C   UNL A   1      33.167  23.541  23.655  1.00  0.00     0.046 A 
ATOM     12  C   UNL A   1      32.147  20.980  23.423  1.00  0.00     0.049 A 
ATOM     13  C   UNL A   1      32.100  21.652  24.648  1.00  0.00     0.128 A 
BRANCH   9  14
ATOM     14  N   UNL A   1      33.167  23.773  21.252  1.00  0.00    -0.256 NA
ATOM     15  C   UNL A   1      32.807  25.024  21.197  1.00  0.00     0.121 C 
BRANCH  15  16
ATOM     16  C   UNL A   1      32.167  25.898  22.186  1.00  0.00     0.014 A 
ATOM     17  N   UNL A   1      31.666  27.357  23.844  1.00  0.00    -0.318 N 
ATOM     18  C   UNL A   1      30.471  26.792  23.429  1.00  0.00     0.021 A 
ATOM     19  C   UNL A   1      32.667  26.954  22.954  1.00  0.00     0.029 A 
ATOM     20  C   UNL A   1      29.136  27.212  23.944  1.00  0.00     0.065 C 
ATOM     21  C   UNL A   1      30.765  25.871  22.447  1.00  0.00     0.033 A 
ATOM     22  C   UNL A   1      34.025  27.561  22.972  1.00  0.00     0.065 C 
BRANCH  17  23
ATOM     23  C   UNL A   1      31.843  28.144  25.021  1.00  0.00     0.046 A 
ATOM     24  C   UNL A   1      31.245  31.752  26.116  1.00  0.00     0.044 C 
ATOM     25  C   UNL A   1      31.601  30.294  26.138  1.00  0.00    -0.049 A 
ATOM     26  C   UNL A   1      31.909  29.678  27.357  1.00  0.00     0.003 A 
ATOM     27  C   UNL A   1      31.573  29.521  24.967  1.00  0.00     0.030 A 
ATOM     28  C   UNL A   1      32.220  28.321  27.404  1.00  0.00     0.002 A 
ATOM     29  C   UNL A   1      32.198  27.556  26.238  1.00  0.00     0.026 A 
ENDBRANCH  17  23
ENDBRANCH  15  16
ENDBRANCH   9  14
BRANCH  13  30
ATOM     30  O   UNL A   1      31.238  21.089  25.547  1.00  0.00    -0.507 OA
ATOM     31  H   UNL A   1      30.494  21.572  25.848  1.00  0.00     0.293 HD
ENDBRANCH  13  30
ENDBRANCH   5   8
ENDBRANCH   3   4
ENDBRANCH   2   3
ENDBRANCH   1   2
BRANCH   1  32
ATOM     32  C   UNL A   1      37.125  21.683  24.790  1.00  0.00     0.002 C 
BRANCH  32  33
ATOM     33  C   UNL A   1      38.496  21.432  25.414  1.00  0.00     0.021 C 
BRANCH  33  34
ATOM     34  C   UNL A   1      39.066  22.555  26.271  1.00  0.00     0.116 C 
BRANCH  34  35
ATOM     35  N   UNL A   1      40.520  22.690  26.235  1.00  0.00    -0.352 N 
ATOM     36  C   UNL A   1      41.270  23.834  26.431  1.00  0.00     0.251 C 
ATOM     37  H   UNL A   1      41.026  21.866  26.050  1.00  0.00     0.163 HD
ATOM     38  O   UNL A   1      42.495  23.824  26.334  1.00  0.00    -0.269 OA
BRANCH  36  39
ATOM     39  C   UNL A   1      40.579  25.075  26.863  1.00  0.00     0.039 A 
ATOM     40  C   UNL A   1      40.840  26.251  26.149  1.00  0.00     0.014 A 
ATOM     41  C   UNL A   1      39.874  25.121  28.064  1.00  0.00     0.014 A 
ATOM     42  C   UNL A   1      40.598  27.483  26.752  1.00  0.00     0.010 A 
ATOM     43  C   UNL A   1      39.720  26.339  28.700  1.00  0.00     0.010 A 
ATOM     44  C   UNL A   1      40.147  27.515  28.072  1.00  0.00    -0.014 A 
BRANCH  44  45
ATOM     45  C   UNL A   1      40.235  28.704  28.915  1.00  0.00     0.031 A 
ATOM     46  C   UNL A   1      39.196  29.753  28.873  1.00  0.00     0.074 A 
ATOM     47  C   UNL A   1      41.269  28.832  29.776  1.00  0.00     0.049 A 
ATOM     48  N   UNL A   1      39.367  30.958  29.308  1.00  0.00    -0.248 NA
ATOM     49  C   UNL A   1      37.894  29.558  28.242  1.00  0.00     0.031 C 
ATOM     50  C   UNL A   1      41.397  29.779  30.880  1.00  0.00     0.029 A 
ATOM     51  N   UNL A   1      42.548  28.301  29.625  1.00  0.00    -0.354 N 
ATOM     52  C   UNL A   1      38.140  31.572  29.324  1.00  0.00     0.074 A 
ATOM     53  C   UNL A   1      37.308  30.730  28.504  1.00  0.00     0.031 C 
ATOM     54  C   UNL A   1      42.700  29.969  31.139  1.00  0.00     0.029 A 
ATOM     55  C   UNL A   1      43.450  29.260  30.120  1.00  0.00     0.049 A 
ATOM     56  H   UNL A   1      42.777  27.423  29.244  1.00  0.00     0.167 HD
ATOM     57  C   UNL A   1      37.944  32.626  30.165  1.00  0.00     0.034 A 
ATOM     58  C   UNL A   1      44.410  29.808  29.321  1.00  0.00     0.034 A 
ATOM     59  C   UNL A   1      39.223  33.172  30.638  1.00  0.00     0.049 A 
ATOM     60  C   UNL A   1      44.315  31.313  29.199  1.00  0.00     0.074 A 
ATOM     61  C   UNL A   1      39.866  33.192  31.865  1.00  0.00     0.029 A 
ATOM     62  N   UNL A   1      40.155  33.630  29.705  1.00  0.00    -0.354 N 
ATOM     63  N   UNL A   1      43.271  32.013  29.550  1.00  0.00    -0.248 NA
ATOM     64  C   UNL A   1      45.384  32.144  28.655  1.00  0.00     0.031 C 
ATOM     65  C   UNL A   1      41.220  33.574  31.644  1.00  0.00     0.029 A 
ATOM     66  C   UNL A   1      41.388  33.836  30.294  1.00  0.00     0.049 A 
ATOM     67  H   UNL A   1      39.960  33.786  28.753  1.00  0.00     0.167 HD
ATOM     68  C   UNL A   1      43.488  33.340  29.275  1.00  0.00     0.074 A 
ATOM     69  C   UNL A   1      44.841  33.371  28.743  1.00  0.00     0.031 C 
ATOM     70  C   UNL A   1      42.528  34.289  29.499  1.00  0.00     0.034 A 
BRANCH  57  71
ATOM     71  C   UNL A   1      36.596  33.035  30.756  1.00  0.00     0.023 A 
ATOM     72  C   UNL A   1      35.721  33.831  29.980  1.00  0.00     0.031 A 
ATOM     73  C   UNL A   1      36.166  32.819  32.087  1.00  0.00     0.131 A 
ATOM     74  C   UNL A   1      34.537  34.379  30.524  1.00  0.00     0.055 A 
ATOM     75  C   UNL A   1      34.965  33.317  32.607  1.00  0.00     0.041 A 
ATOM     76  F   UNL A   1      36.898  32.166  32.994  1.00  0.00    -0.206 F 
ATOM     77  C   UNL A   1      34.147  34.111  31.830  1.00  0.00     0.022 A 
BRANCH  74  78
ATOM     78  S   UNL A   1      33.537  35.523  29.530  1.00  0.00     0.124 S 
ATOM     79  O   UNL A   1      32.357  34.717  29.230  1.00  0.00    -0.237 OA
ATOM     80  O   UNL A   1      33.346  36.644  30.442  1.00  0.00    -0.237 OA
ATOM     81  O   UNL A   1      34.392  35.807  28.377  1.00  0.00    -0.744 OA
ENDBRANCH  74  78
ENDBRANCH  57  71
BRANCH  58  82
ATOM     82  C   UNL A   1      44.906  28.871  28.273  1.00  0.00     0.023 A 
ATOM     83  C   UNL A   1      45.784  27.851  28.700  1.00  0.00     0.031 A 
ATOM     84  C   UNL A   1      44.251  28.704  27.048  1.00  0.00     0.131 A 
ATOM     85  C   UNL A   1      45.838  26.634  28.012  1.00  0.00     0.055 A 
ATOM     86  C   UNL A   1      44.374  27.515  26.317  1.00  0.00     0.041 A 
ATOM     87  F   UNL A   1      43.384  29.626  26.603  1.00  0.00    -0.206 F 
ATOM     88  C   UNL A   1      45.129  26.454  26.823  1.00  0.00     0.022 A 
BRANCH  85  89
ATOM     89  S   UNL A   1      46.598  25.194  28.828  1.00  0.00     0.124 S 
ATOM     90  O   UNL A   1      45.720  24.107  28.409  1.00  0.00    -0.237 OA
ATOM     91  O   UNL A   1      47.948  25.169  28.270  1.00  0.00    -0.237 OA
ATOM     92  O   UNL A   1      46.542  25.547  30.244  1.00  0.00    -0.744 OA
ENDBRANCH  85  89
ENDBRANCH  58  82
BRANCH  70  93
ATOM     93  C   UNL A   1      42.597  35.745  29.066  1.00  0.00     0.023 A 
ATOM     94  C   UNL A   1      43.351  36.726  29.730  1.00  0.00     0.031 A 
ATOM     95  C   UNL A   1      41.936  36.184  27.890  1.00  0.00     0.131 A 
ATOM     96  C   UNL A   1      43.358  38.067  29.295  1.00  0.00     0.055 A 
ATOM     97  C   UNL A   1      42.004  37.499  27.418  1.00  0.00     0.041 A 
ATOM     98  F   UNL A   1      41.200  35.350  27.141  1.00  0.00    -0.206 F 
ATOM     99  C   UNL A   1      42.704  38.457  28.132  1.00  0.00     0.022 A 
BRANCH  96 100
ATOM    100  S   UNL A   1      44.197  39.303  30.324  1.00  0.00     0.124 S 
ATOM    101  O   UNL A   1      45.539  39.314  29.745  1.00  0.00    -0.237 OA
ATOM    102  O   UNL A   1      43.398  40.500  30.091  1.00  0.00    -0.237 OA
ATOM    103  O   UNL A   1      44.109  38.749  31.674  1.00  0.00    -0.744 OA
ENDBRANCH  96 100
ENDBRANCH  70  93
ENDBRANCH  44  45
ENDBRANCH  36  39
ENDBRANCH  34  35
ENDBRANCH  33  34
ENDBRANCH  32  33
ENDBRANCH   1  32
TORSDOF 20
ENDMDL
