MODEL 1
REMARK VINA RESULT:     -11.3      0.000      0.000
REMARK SMILES COc1ccc(-c2sc(N)nc2C(=O)NCCCCCCNC(=O)c2ccc(-c3c4nc(c(-c5cc(S(=O)(=O)[O-])ccc5F)c5ccc([nH]5)c(-c5cc(S(=O)(=O)[O-])ccc5F)c5nc(c(-c6cc(S(=O)(=O)[O-])ccc6F)c6ccc3[nH]6)C=C5)C=C4)cc2)cc1OC
REMARK SMILES IDX 19 1 18 2 17 3 16 4 15 5 13 6 14 7 12 9 7 10 8 11 9 12 11 13
REMARK SMILES IDX 6 14 3 15 4 16 89 17 5 18 88 19 2 20 1 21 90 22 91 23 10 24
REMARK SMILES IDX 20 27 21 28 22 29 23 30 24 32 25 33 26 34 87 35 27 36 86 37
REMARK SMILES IDX 28 38 29 39 30 40 80 41 31 42 85 43 79 44 81 45 32 46 84 47
REMARK SMILES IDX 78 48 77 49 33 51 65 52 45 53 64 54 46 55 49 56 63 57 82 58
REMARK SMILES IDX 47 59 48 60 62 62 83 63 50 64 34 65 35 66 43 67 36 68 42 69
REMARK SMILES IDX 44 70 41 71 37 72 38 73 39 74 40 75 66 76 67 77 75 78 68 79
REMARK SMILES IDX 74 80 76 81 73 82 69 83 70 84 71 85 72 86 51 87 52 88 60 89
REMARK SMILES IDX 53 90 59 91 61 92 58 93 54 94 55 95 56 96 57 97
REMARK H PARENT 15 8 10 25 10 26 22 31 81 50 49 61
REMARK Flexibility Score: inf
ROOT
ATOM      1  C   UNL A   1      31.163  27.021  26.561  1.00  0.00     0.002 C 
ENDROOT
BRANCH   1   2
ATOM      2  C   UNL A   1      32.071  25.786  26.573  1.00  0.00     0.002 C 
BRANCH   2   3
ATOM      3  C   UNL A   1      31.341  24.439  26.553  1.00  0.00     0.021 C 
BRANCH   3   4
ATOM      4  C   UNL A   1      32.207  23.242  26.941  1.00  0.00     0.116 C 
BRANCH   4   5
ATOM      5  N   UNL A   1      31.860  22.065  26.167  1.00  0.00    -0.351 N 
ATOM      6  C   UNL A   1      32.553  21.327  25.242  1.00  0.00     0.271 C 
ATOM      7  O   UNL A   1      31.942  20.366  24.763  1.00  0.00    -0.267 OA
ATOM      8  H   UNL A   1      30.949  21.732  26.339  1.00  0.00     0.163 HD
BRANCH   6   9
ATOM      9  C   UNL A   1      33.939  21.655  24.861  1.00  0.00     0.149 A 
ATOM     10  C   UNL A   1      34.309  22.756  24.086  1.00  0.00     0.069 A 
ATOM     11  S   UNL A   1      36.011  22.732  23.816  1.00  0.00    -0.096 S 
ATOM     12  C   UNL A   1      36.141  21.300  24.737  1.00  0.00     0.181 A 
ATOM     13  N   UNL A   1      35.017  20.847  25.218  1.00  0.00    -0.215 NA
BRANCH  10  14
ATOM     14  C   UNL A   1      33.507  23.851  23.533  1.00  0.00    -0.002 A 
ATOM     15  C   UNL A   1      31.926  26.016  22.677  1.00  0.00     0.160 A 
ATOM     16  C   UNL A   1      31.460  24.699  22.551  1.00  0.00     0.051 A 
ATOM     17  C   UNL A   1      33.189  26.263  23.225  1.00  0.00     0.161 A 
ATOM     18  C   UNL A   1      32.246  23.623  22.973  1.00  0.00     0.014 A 
ATOM     19  C   UNL A   1      33.971  25.171  23.625  1.00  0.00     0.060 A 
BRANCH  15  20
ATOM     20  O   UNL A   1      31.054  27.023  22.362  1.00  0.00    -0.493 OA
ATOM     21  C   UNL A   1      29.946  27.062  23.260  1.00  0.00     0.278 C 
ENDBRANCH  15  20
BRANCH  17  22
ATOM     22  O   UNL A   1      33.807  27.458  23.470  1.00  0.00    -0.493 OA
ATOM     23  C   UNL A   1      34.028  28.358  22.398  1.00  0.00     0.278 C 
ENDBRANCH  17  22
ENDBRANCH  10  14
BRANCH  12  24
ATOM     24  N   UNL A   1      37.307  20.684  24.946  1.00  0.00    -0.375 N 
ATOM     25  H   UNL A   1      37.878  20.952  25.702  1.00  0.00     0.159 HD
ATOM     26  H   UNL A   1      37.596  19.959  24.345  1.00  0.00     0.159 HD
ENDBRANCH  12  24
ENDBRANCH   6   9
ENDBRANCH   4   5
ENDBRANCH   3   4
ENDBRANCH   2   3
ENDBRANCH   1   2
BRANCH   1  27
ATOM     27  C   UNL A   1      31.725  28.246  27.285  1.00  0.00     0.021 C 
BRANCH  27  28
ATOM     28  C   UNL A   1      32.722  29.060  26.469  1.00  0.00     0.116 C 
BRANCH  28  29
ATOM     29  N   UNL A   1      32.429  30.484  26.515  1.00  0.00    -0.352 N 
ATOM     30  C   UNL A   1      33.133  31.486  27.137  1.00  0.00     0.251 C 
ATOM     31  H   UNL A   1      31.618  30.768  26.035  1.00  0.00     0.163 HD
ATOM     32  O   UNL A   1      32.642  32.605  27.257  1.00  0.00    -0.269 OA
BRANCH  30  33
ATOM     33  C   UNL A   1      34.475  31.192  27.684  1.00  0.00     0.039 A 
ATOM     34  C   UNL A   1      35.396  32.231  27.835  1.00  0.00     0.014 A 
ATOM     35  C   UNL A   1      34.806  29.892  28.077  1.00  0.00     0.014 A 
ATOM     36  C   UNL A   1      36.625  31.980  28.451  1.00  0.00     0.010 A 
ATOM     37  C   UNL A   1      35.998  29.660  28.755  1.00  0.00     0.010 A 
ATOM     38  C   UNL A   1      36.919  30.701  28.952  1.00  0.00    -0.014 A 
BRANCH  38  39
ATOM     39  C   UNL A   1      38.181  30.416  29.683  1.00  0.00     0.031 A 
ATOM     40  C   UNL A   1      39.171  29.440  29.105  1.00  0.00     0.074 A 
ATOM     41  C   UNL A   1      38.394  30.958  30.900  1.00  0.00     0.049 A 
ATOM     42  N   UNL A   1      40.246  28.932  29.648  1.00  0.00    -0.248 NA
ATOM     43  C   UNL A   1      38.889  28.949  27.747  1.00  0.00     0.031 C 
ATOM     44  C   UNL A   1      37.500  31.903  31.572  1.00  0.00     0.029 A 
ATOM     45  N   UNL A   1      39.417  30.776  31.798  1.00  0.00    -0.354 N 
ATOM     46  C   UNL A   1      40.762  28.047  28.707  1.00  0.00     0.074 A 
ATOM     47  C   UNL A   1      39.847  28.048  27.585  1.00  0.00     0.031 C 
ATOM     48  C   UNL A   1      38.020  32.227  32.766  1.00  0.00     0.029 A 
ATOM     49  C   UNL A   1      39.249  31.467  32.977  1.00  0.00     0.049 A 
ATOM     50  H   UNL A   1      40.199  30.205  31.615  1.00  0.00     0.167 HD
ATOM     51  C   UNL A   1      41.901  27.314  28.768  1.00  0.00     0.034 A 
ATOM     52  C   UNL A   1      39.981  31.466  34.109  1.00  0.00     0.034 A 
ATOM     53  C   UNL A   1      42.804  27.335  29.893  1.00  0.00     0.049 A 
ATOM     54  C   UNL A   1      41.217  30.600  34.176  1.00  0.00     0.074 A 
ATOM     55  C   UNL A   1      44.011  26.673  30.038  1.00  0.00     0.029 A 
ATOM     56  N   UNL A   1      42.597  28.046  31.068  1.00  0.00    -0.354 N 
ATOM     57  N   UNL A   1      41.710  29.793  33.265  1.00  0.00    -0.248 NA
ATOM     58  C   UNL A   1      41.997  30.645  35.421  1.00  0.00     0.031 C 
ATOM     59  C   UNL A   1      44.490  26.915  31.328  1.00  0.00     0.029 A 
ATOM     60  C   UNL A   1      43.634  27.805  31.957  1.00  0.00     0.049 A 
ATOM     61  H   UNL A   1      41.827  28.632  31.246  1.00  0.00     0.167 HD
ATOM     62  C   UNL A   1      42.878  29.269  33.812  1.00  0.00     0.074 A 
ATOM     63  C   UNL A   1      43.018  29.852  35.130  1.00  0.00     0.031 C 
ATOM     64  C   UNL A   1      43.762  28.395  33.269  1.00  0.00     0.034 A 
BRANCH  51  65
ATOM     65  C   UNL A   1      42.212  26.405  27.604  1.00  0.00     0.023 A 
ATOM     66  C   UNL A   1      41.809  25.059  27.585  1.00  0.00     0.031 A 
ATOM     67  C   UNL A   1      42.936  26.890  26.498  1.00  0.00     0.131 A 
ATOM     68  C   UNL A   1      42.194  24.227  26.523  1.00  0.00     0.055 A 
ATOM     69  C   UNL A   1      43.240  26.078  25.404  1.00  0.00     0.041 A 
ATOM     70  F   UNL A   1      43.370  28.160  26.468  1.00  0.00    -0.206 F 
ATOM     71  C   UNL A   1      42.881  24.734  25.419  1.00  0.00     0.022 A 
BRANCH  68  72
ATOM     72  S   UNL A   1      41.910  22.443  26.676  1.00  0.00     0.124 S 
ATOM     73  O   UNL A   1      42.280  21.970  25.345  1.00  0.00    -0.237 OA
ATOM     74  O   UNL A   1      42.813  22.071  27.759  1.00  0.00    -0.237 OA
ATOM     75  O   UNL A   1      40.486  22.347  26.991  1.00  0.00    -0.744 OA
ENDBRANCH  68  72
ENDBRANCH  51  65
BRANCH  52  76
ATOM     76  C   UNL A   1      39.561  32.281  35.286  1.00  0.00     0.023 A 
ATOM     77  C   UNL A   1      38.842  31.708  36.345  1.00  0.00     0.031 A 
ATOM     78  C   UNL A   1      39.828  33.662  35.345  1.00  0.00     0.131 A 
ATOM     79  C   UNL A   1      38.369  32.516  37.391  1.00  0.00     0.055 A 
ATOM     80  C   UNL A   1      39.410  34.451  36.419  1.00  0.00     0.041 A 
ATOM     81  F   UNL A   1      40.510  34.266  34.359  1.00  0.00    -0.206 F 
ATOM     82  C   UNL A   1      38.662  33.880  37.444  1.00  0.00     0.022 A 
BRANCH  79  83
ATOM     83  S   UNL A   1      37.270  31.777  38.631  1.00  0.00     0.124 S 
ATOM     84  O   UNL A   1      38.072  31.897  39.844  1.00  0.00    -0.237 OA
ATOM     85  O   UNL A   1      36.095  32.639  38.549  1.00  0.00    -0.237 OA
ATOM     86  O   UNL A   1      37.076  30.413  38.142  1.00  0.00    -0.744 OA
ENDBRANCH  79  83
ENDBRANCH  52  76
BRANCH  64  87
ATOM     87  C   UNL A   1      44.999  28.063  34.069  1.00  0.00     0.023 A 
ATOM     88  C   UNL A   1      45.056  26.958  34.933  1.00  0.00     0.031 A 
ATOM     89  C   UNL A   1      46.152  28.857  33.931  1.00  0.00     0.131 A 
ATOM     90  C   UNL A   1      46.233  26.695  35.652  1.00  0.00     0.055 A 
ATOM     91  C   UNL A   1      47.338  28.557  34.601  1.00  0.00     0.041 A 
ATOM     92  F   UNL A   1      46.152  29.928  33.120  1.00  0.00    -0.206 F 
ATOM     93  C   UNL A   1      47.380  27.474  35.476  1.00  0.00     0.022 A 
BRANCH  90  94
ATOM     94  S   UNL A   1      46.230  25.355  36.875  1.00  0.00     0.124 S 
ATOM     95  O   UNL A   1      45.258  25.839  37.851  1.00  0.00    -0.237 OA
ATOM     96  O   UNL A   1      45.817  24.205  36.079  1.00  0.00    -0.237 OA
ATOM     97  O   UNL A   1      47.614  25.317  37.345  1.00  0.00    -0.744 OA
ENDBRANCH  90  94
ENDBRANCH  64  87
ENDBRANCH  38  39
ENDBRANCH  30  33
ENDBRANCH  28  29
ENDBRANCH  27  28
ENDBRANCH   1  27
TORSDOF 20
ENDMDL
MODEL 2
REMARK VINA RESULT:     -11.2      1.901      2.205
REMARK SMILES COc1ccc(-c2sc(N)nc2C(=O)NCCCCCCNC(=O)c2ccc(-c3c4nc(c(-c5cc(S(=O)(=O)[O-])ccc5F)c5ccc([nH]5)c(-c5cc(S(=O)(=O)[O-])ccc5F)c5nc(c(-c6cc(S(=O)(=O)[O-])ccc6F)c6ccc3[nH]6)C=C5)C=C4)cc2)cc1OC
REMARK SMILES IDX 19 1 18 2 17 3 16 4 15 5 13 6 14 7 12 9 7 10 8 11 9 12 11 13
REMARK SMILES IDX 6 14 3 15 4 16 89 17 5 18 88 19 2 20 1 21 90 22 91 23 10 24
REMARK SMILES IDX 20 27 21 28 22 29 23 30 24 32 25 33 26 34 87 35 27 36 86 37
REMARK SMILES IDX 28 38 29 39 30 40 80 41 31 42 85 43 79 44 81 45 32 46 84 47
REMARK SMILES IDX 78 48 77 49 33 51 65 52 45 53 64 54 46 55 49 56 63 57 82 58
REMARK SMILES IDX 47 59 48 60 62 62 83 63 50 64 34 65 35 66 43 67 36 68 42 69
REMARK SMILES IDX 44 70 41 71 37 72 38 73 39 74 40 75 66 76 67 77 75 78 68 79
REMARK SMILES IDX 74 80 76 81 73 82 69 83 70 84 71 85 72 86 51 87 52 88 60 89
REMARK SMILES IDX 53 90 59 91 61 92 58 93 54 94 55 95 56 96 57 97
REMARK H PARENT 15 8 10 25 10 26 22 31 81 50 49 61
REMARK Flexibility Score: inf
ROOT
ATOM      1  C   UNL A   1      31.594  28.190  25.566  1.00  0.00     0.002 C 
ENDROOT
BRANCH   1   2
ATOM      2  C   UNL A   1      32.661  27.354  26.282  1.00  0.00     0.002 C 
BRANCH   2   3
ATOM      3  C   UNL A   1      33.627  26.602  25.360  1.00  0.00     0.021 C 
BRANCH   3   4
ATOM      4  C   UNL A   1      33.949  25.177  25.806  1.00  0.00     0.116 C 
BRANCH   4   5
ATOM      5  N   UNL A   1      32.909  24.645  26.667  1.00  0.00    -0.351 N 
ATOM      6  C   UNL A   1      32.114  23.530  26.579  1.00  0.00     0.271 C 
ATOM      7  O   UNL A   1      31.312  23.376  27.506  1.00  0.00    -0.267 OA
ATOM      8  H   UNL A   1      32.741  25.191  27.469  1.00  0.00     0.163 HD
BRANCH   6   9
ATOM      9  C   UNL A   1      32.228  22.577  25.461  1.00  0.00     0.149 A 
ATOM     10  C   UNL A   1      31.914  22.871  24.133  1.00  0.00     0.069 A 
ATOM     11  S   UNL A   1      32.118  21.463  23.161  1.00  0.00    -0.096 S 
ATOM     12  C   UNL A   1      32.610  20.580  24.536  1.00  0.00     0.181 A 
ATOM     13  N   UNL A   1      32.626  21.255  25.651  1.00  0.00    -0.215 NA
BRANCH  10  14
ATOM     14  C   UNL A   1      31.488  24.125  23.505  1.00  0.00    -0.002 A 
ATOM     15  C   UNL A   1      30.848  26.625  22.383  1.00  0.00     0.160 A 
ATOM     16  C   UNL A   1      30.110  26.119  23.463  1.00  0.00     0.051 A 
ATOM     17  C   UNL A   1      31.907  25.885  21.849  1.00  0.00     0.161 A 
ATOM     18  C   UNL A   1      30.425  24.875  24.018  1.00  0.00     0.014 A 
ATOM     19  C   UNL A   1      32.197  24.632  22.406  1.00  0.00     0.060 A 
BRANCH  15  20
ATOM     20  O   UNL A   1      30.566  27.901  21.974  1.00  0.00    -0.493 OA
ATOM     21  C   UNL A   1      29.453  28.447  22.680  1.00  0.00     0.278 C 
ENDBRANCH  15  20
BRANCH  17  22
ATOM     22  O   UNL A   1      32.767  26.210  20.837  1.00  0.00    -0.493 OA
ATOM     23  C   UNL A   1      32.719  25.480  19.624  1.00  0.00     0.278 C 
ENDBRANCH  17  22
ENDBRANCH  10  14
BRANCH  12  24
ATOM     24  N   UNL A   1      32.949  19.289  24.477  1.00  0.00    -0.375 N 
ATOM     25  H   UNL A   1      32.626  18.728  23.736  1.00  0.00     0.159 HD
ATOM     26  H   UNL A   1      33.524  18.899  25.175  1.00  0.00     0.159 HD
ENDBRANCH  12  24
ENDBRANCH   6   9
ENDBRANCH   4   5
ENDBRANCH   3   4
ENDBRANCH   2   3
ENDBRANCH   1   2
BRANCH   1  27
ATOM     27  C   UNL A   1      31.865  29.696  25.531  1.00  0.00     0.021 C 
BRANCH  27  28
ATOM     28  C   UNL A   1      32.160  30.317  26.890  1.00  0.00     0.116 C 
BRANCH  28  29
ATOM     29  N   UNL A   1      32.058  31.768  26.860  1.00  0.00    -0.352 N 
ATOM     30  C   UNL A   1      32.898  32.699  27.419  1.00  0.00     0.251 C 
ATOM     31  H   UNL A   1      31.283  32.130  26.372  1.00  0.00     0.163 HD
ATOM     32  O   UNL A   1      32.561  33.878  27.481  1.00  0.00    -0.269 OA
BRANCH  30  33
ATOM     33  C   UNL A   1      34.199  32.260  27.967  1.00  0.00     0.039 A 
ATOM     34  C   UNL A   1      35.244  33.180  28.073  1.00  0.00     0.014 A 
ATOM     35  C   UNL A   1      34.369  30.945  28.408  1.00  0.00     0.014 A 
ATOM     36  C   UNL A   1      36.439  32.800  28.690  1.00  0.00     0.010 A 
ATOM     37  C   UNL A   1      35.530  30.590  29.087  1.00  0.00     0.010 A 
ATOM     38  C   UNL A   1      36.576  31.514  29.238  1.00  0.00    -0.014 A 
BRANCH  38  39
ATOM     39  C   UNL A   1      37.800  31.100  29.972  1.00  0.00     0.031 A 
ATOM     40  C   UNL A   1      38.726  30.083  29.360  1.00  0.00     0.074 A 
ATOM     41  C   UNL A   1      38.031  31.564  31.217  1.00  0.00     0.049 A 
ATOM     42  N   UNL A   1      39.751  29.470  29.892  1.00  0.00    -0.248 NA
ATOM     43  C   UNL A   1      38.433  29.681  27.975  1.00  0.00     0.031 C 
ATOM     44  C   UNL A   1      37.197  32.539  31.923  1.00  0.00     0.029 A 
ATOM     45  N   UNL A   1      39.022  31.264  32.120  1.00  0.00    -0.354 N 
ATOM     46  C   UNL A   1      40.217  28.597  28.915  1.00  0.00     0.074 A 
ATOM     47  C   UNL A   1      39.325  28.721  27.781  1.00  0.00     0.031 C 
ATOM     48  C   UNL A   1      37.718  32.765  33.140  1.00  0.00     0.029 A 
ATOM     49  C   UNL A   1      38.883  31.906  33.330  1.00  0.00     0.049 A 
ATOM     50  H   UNL A   1      39.762  30.645  31.920  1.00  0.00     0.167 HD
ATOM     51  C   UNL A   1      41.298  27.779  28.956  1.00  0.00     0.034 A 
ATOM     52  C   UNL A   1      39.594  31.795  34.470  1.00  0.00     0.034 A 
ATOM     53  C   UNL A   1      42.180  27.678  30.092  1.00  0.00     0.049 A 
ATOM     54  C   UNL A   1      40.761  30.837  34.512  1.00  0.00     0.074 A 
ATOM     55  C   UNL A   1      43.332  26.921  30.221  1.00  0.00     0.029 A 
ATOM     56  N   UNL A   1      42.004  28.343  31.299  1.00  0.00    -0.354 N 
ATOM     57  N   UNL A   1      41.209  30.042  33.568  1.00  0.00    -0.248 NA
ATOM     58  C   UNL A   1      41.519  30.764  35.768  1.00  0.00     0.031 C 
ATOM     59  C   UNL A   1      43.804  27.063  31.528  1.00  0.00     0.029 A 
ATOM     60  C   UNL A   1      43.004  27.983  32.189  1.00  0.00     0.049 A 
ATOM     61  H   UNL A   1      41.276  28.975  31.495  1.00  0.00     0.167 HD
ATOM     62  C   UNL A   1      42.326  29.406  34.105  1.00  0.00     0.074 A 
ATOM     63  C   UNL A   1      42.484  29.912  35.451  1.00  0.00     0.031 C 
ATOM     64  C   UNL A   1      43.153  28.497  33.530  1.00  0.00     0.034 A 
BRANCH  51  65
ATOM     65  C   UNL A   1      41.562  26.908  27.751  1.00  0.00     0.023 A 
ATOM     66  C   UNL A   1      41.238  25.540  27.740  1.00  0.00     0.031 A 
ATOM     67  C   UNL A   1      42.160  27.451  26.599  1.00  0.00     0.131 A 
ATOM     68  C   UNL A   1      41.580  24.748  26.633  1.00  0.00     0.055 A 
ATOM     69  C   UNL A   1      42.417  26.676  25.467  1.00  0.00     0.041 A 
ATOM     70  F   UNL A   1      42.514  28.745  26.558  1.00  0.00    -0.206 F 
ATOM     71  C   UNL A   1      42.141  25.312  25.486  1.00  0.00     0.022 A 
BRANCH  68  72
ATOM     72  S   UNL A   1      41.416  22.948  26.775  1.00  0.00     0.124 S 
ATOM     73  O   UNL A   1      39.965  22.787  26.817  1.00  0.00    -0.237 OA
ATOM     74  O   UNL A   1      42.076  22.475  25.564  1.00  0.00    -0.237 OA
ATOM     75  O   UNL A   1      42.107  22.638  28.025  1.00  0.00    -0.744 OA
ENDBRANCH  68  72
ENDBRANCH  51  65
BRANCH  52  76
ATOM     76  C   UNL A   1      39.213  32.581  35.680  1.00  0.00     0.023 A 
ATOM     77  C   UNL A   1      39.630  33.911  35.841  1.00  0.00     0.031 A 
ATOM     78  C   UNL A   1      38.467  31.997  36.721  1.00  0.00     0.131 A 
ATOM     79  C   UNL A   1      39.346  34.596  37.033  1.00  0.00     0.055 A 
ATOM     80  C   UNL A   1      38.133  32.703  37.878  1.00  0.00     0.041 A 
ATOM     81  F   UNL A   1      38.043  30.727  36.624  1.00  0.00    -0.206 F 
ATOM     82  C   UNL A   1      38.587  34.008  38.045  1.00  0.00     0.022 A 
BRANCH  79  83
ATOM     83  S   UNL A   1      40.078  36.237  37.286  1.00  0.00     0.124 S 
ATOM     84  O   UNL A   1      39.906  36.842  35.970  1.00  0.00    -0.237 OA
ATOM     85  O   UNL A   1      39.248  36.778  38.357  1.00  0.00    -0.237 OA
ATOM     86  O   UNL A   1      41.459  35.939  37.661  1.00  0.00    -0.744 OA
ENDBRANCH  79  83
ENDBRANCH  52  76
BRANCH  64  87
ATOM     87  C   UNL A   1      44.347  28.035  34.331  1.00  0.00     0.023 A 
ATOM     88  C   UNL A   1      44.302  26.897  35.152  1.00  0.00     0.031 A 
ATOM     89  C   UNL A   1      45.563  28.736  34.235  1.00  0.00     0.131 A 
ATOM     90  C   UNL A   1      45.444  26.512  35.873  1.00  0.00     0.055 A 
ATOM     91  C   UNL A   1      46.711  28.314  34.906  1.00  0.00     0.041 A 
ATOM     92  F   UNL A   1      45.661  29.833  33.466  1.00  0.00    -0.206 F 
ATOM     93  C   UNL A   1      46.653  27.200  35.739  1.00  0.00     0.022 A 
BRANCH  90  94
ATOM     94  S   UNL A   1      45.315  25.133  37.045  1.00  0.00     0.124 S 
ATOM     95  O   UNL A   1      44.005  25.368  37.645  1.00  0.00    -0.237 OA
ATOM     96  O   UNL A   1      45.417  23.969  36.171  1.00  0.00    -0.237 OA
ATOM     97  O   UNL A   1      46.452  25.336  37.940  1.00  0.00    -0.744 OA
ENDBRANCH  90  94
ENDBRANCH  64  87
ENDBRANCH  38  39
ENDBRANCH  30  33
ENDBRANCH  28  29
ENDBRANCH  27  28
ENDBRANCH   1  27
TORSDOF 20
ENDMDL
MODEL 3
REMARK VINA RESULT:     -11.2      2.191      2.989
REMARK SMILES COc1ccc(-c2sc(N)nc2C(=O)NCCCCCCNC(=O)c2ccc(-c3c4nc(c(-c5cc(S(=O)(=O)[O-])ccc5F)c5ccc([nH]5)c(-c5cc(S(=O)(=O)[O-])ccc5F)c5nc(c(-c6cc(S(=O)(=O)[O-])ccc6F)c6ccc3[nH]6)C=C5)C=C4)cc2)cc1OC
REMARK SMILES IDX 19 1 18 2 17 3 16 4 15 5 13 6 14 7 12 9 7 10 8 11 9 12 11 13
REMARK SMILES IDX 6 14 3 15 4 16 89 17 5 18 88 19 2 20 1 21 90 22 91 23 10 24
REMARK SMILES IDX 20 27 21 28 22 29 23 30 24 32 25 33 26 34 87 35 27 36 86 37
REMARK SMILES IDX 28 38 29 39 30 40 80 41 31 42 85 43 79 44 81 45 32 46 84 47
REMARK SMILES IDX 78 48 77 49 33 51 65 52 45 53 64 54 46 55 49 56 63 57 82 58
REMARK SMILES IDX 47 59 48 60 62 62 83 63 50 64 34 65 35 66 43 67 36 68 42 69
REMARK SMILES IDX 44 70 41 71 37 72 38 73 39 74 40 75 66 76 67 77 75 78 68 79
REMARK SMILES IDX 74 80 76 81 73 82 69 83 70 84 71 85 72 86 51 87 52 88 60 89
REMARK SMILES IDX 53 90 59 91 61 92 58 93 54 94 55 95 56 96 57 97
REMARK H PARENT 15 8 10 25 10 26 22 31 81 50 49 61
REMARK Flexibility Score: inf
ROOT
ATOM      1  C   UNL A   1      32.184  29.971  25.817  1.00  0.00     0.002 C 
ENDROOT
BRANCH   1   2
ATOM      2  C   UNL A   1      31.778  28.578  26.312  1.00  0.00     0.002 C 
BRANCH   2   3
ATOM      3  C   UNL A   1      32.920  27.730  26.884  1.00  0.00     0.021 C 
BRANCH   3   4
ATOM      4  C   UNL A   1      32.935  26.280  26.405  1.00  0.00     0.116 C 
BRANCH   4   5
ATOM      5  N   UNL A   1      31.822  25.530  26.956  1.00  0.00    -0.351 N 
ATOM      6  C   UNL A   1      31.149  24.417  26.520  1.00  0.00     0.271 C 
ATOM      7  O   UNL A   1      30.227  24.035  27.249  1.00  0.00    -0.267 OA
ATOM      8  H   UNL A   1      31.485  25.890  27.808  1.00  0.00     0.163 HD
BRANCH   6   9
ATOM      9  C   UNL A   1      31.517  23.721  25.274  1.00  0.00     0.149 A 
ATOM     10  C   UNL A   1      31.449  24.287  23.999  1.00  0.00     0.069 A 
ATOM     11  S   UNL A   1      31.898  23.116  22.818  1.00  0.00    -0.096 S 
ATOM     12  C   UNL A   1      32.159  21.965  24.051  1.00  0.00     0.181 A 
ATOM     13  N   UNL A   1      31.931  22.390  25.262  1.00  0.00    -0.215 NA
BRANCH  10  14
ATOM     14  C   UNL A   1      31.094  25.642  23.571  1.00  0.00    -0.002 A 
ATOM     15  C   UNL A   1      30.536  28.321  22.913  1.00  0.00     0.160 A 
ATOM     16  C   UNL A   1      29.550  27.511  23.495  1.00  0.00     0.051 A 
ATOM     17  C   UNL A   1      31.806  27.800  22.647  1.00  0.00     0.161 A 
ATOM     18  C   UNL A   1      29.825  26.179  23.819  1.00  0.00     0.014 A 
ATOM     19  C   UNL A   1      32.058  26.457  22.961  1.00  0.00     0.060 A 
BRANCH  15  20
ATOM     20  O   UNL A   1      30.237  29.646  22.740  1.00  0.00    -0.493 OA
ATOM     21  C   UNL A   1      29.038  29.822  21.987  1.00  0.00     0.278 C 
ENDBRANCH  15  20
BRANCH  17  22
ATOM     22  O   UNL A   1      32.906  28.423  22.128  1.00  0.00    -0.493 OA
ATOM     23  C   UNL A   1      34.014  28.691  22.969  1.00  0.00     0.278 C 
ENDBRANCH  17  22
ENDBRANCH  10  14
BRANCH  12  24
ATOM     24  N   UNL A   1      32.561  20.717  23.797  1.00  0.00    -0.375 N 
ATOM     25  H   UNL A   1      31.901  19.989  23.739  1.00  0.00     0.159 HD
ATOM     26  H   UNL A   1      33.518  20.525  23.664  1.00  0.00     0.159 HD
ENDBRANCH  12  24
ENDBRANCH   6   9
ENDBRANCH   4   5
ENDBRANCH   3   4
ENDBRANCH   2   3
ENDBRANCH   1   2
BRANCH   1  27
ATOM     27  C   UNL A   1      31.839  31.122  26.764  1.00  0.00     0.021 C 
BRANCH  27  28
ATOM     28  C   UNL A   1      33.043  31.909  27.267  1.00  0.00     0.116 C 
BRANCH  28  29
ATOM     29  N   UNL A   1      32.733  33.318  27.452  1.00  0.00    -0.352 N 
ATOM     30  C   UNL A   1      33.237  34.193  28.383  1.00  0.00     0.251 C 
ATOM     31  H   UNL A   1      32.075  33.695  26.824  1.00  0.00     0.163 HD
ATOM     32  O   UNL A   1      32.720  35.295  28.540  1.00  0.00    -0.269 OA
BRANCH  30  33
ATOM     33  C   UNL A   1      34.389  33.780  29.211  1.00  0.00     0.039 A 
ATOM     34  C   UNL A   1      34.198  32.852  30.238  1.00  0.00     0.014 A 
ATOM     35  C   UNL A   1      35.665  34.287  28.947  1.00  0.00     0.014 A 
ATOM     36  C   UNL A   1      35.301  32.376  30.952  1.00  0.00     0.010 A 
ATOM     37  C   UNL A   1      36.768  33.758  29.608  1.00  0.00     0.010 A 
ATOM     38  C   UNL A   1      36.598  32.795  30.616  1.00  0.00    -0.014 A 
BRANCH  38  39
ATOM     39  C   UNL A   1      37.801  32.250  31.299  1.00  0.00     0.031 A 
ATOM     40  C   UNL A   1      38.572  31.126  30.662  1.00  0.00     0.074 A 
ATOM     41  C   UNL A   1      38.144  32.699  32.523  1.00  0.00     0.049 A 
ATOM     42  N   UNL A   1      39.544  30.404  31.155  1.00  0.00    -0.248 NA
ATOM     43  C   UNL A   1      38.168  30.744  29.300  1.00  0.00     0.031 C 
ATOM     44  C   UNL A   1      37.463  33.773  33.251  1.00  0.00     0.029 A 
ATOM     45  N   UNL A   1      39.136  32.296  33.384  1.00  0.00    -0.354 N 
ATOM     46  C   UNL A   1      39.858  29.471  30.173  1.00  0.00     0.074 A 
ATOM     47  C   UNL A   1      38.932  29.684  29.080  1.00  0.00     0.031 C 
ATOM     48  C   UNL A   1      38.065  33.951  34.437  1.00  0.00     0.029 A 
ATOM     49  C   UNL A   1      39.132  32.965  34.587  1.00  0.00     0.049 A 
ATOM     50  H   UNL A   1      39.790  31.594  33.160  1.00  0.00     0.167 HD
ATOM     51  C   UNL A   1      40.838  28.534  30.177  1.00  0.00     0.034 A 
ATOM     52  C   UNL A   1      39.879  32.785  35.695  1.00  0.00     0.034 A 
ATOM     53  C   UNL A   1      41.757  28.344  31.273  1.00  0.00     0.049 A 
ATOM     54  C   UNL A   1      40.929  31.699  35.698  1.00  0.00     0.074 A 
ATOM     55  C   UNL A   1      42.818  27.460  31.360  1.00  0.00     0.029 A 
ATOM     56  N   UNL A   1      41.718  29.039  32.475  1.00  0.00    -0.354 N 
ATOM     57  N   UNL A   1      41.236  30.846  34.749  1.00  0.00    -0.248 NA
ATOM     58  C   UNL A   1      41.734  31.553  36.919  1.00  0.00     0.031 C 
ATOM     59  C   UNL A   1      43.367  27.562  32.641  1.00  0.00     0.029 A 
ATOM     60  C   UNL A   1      42.712  28.576  33.323  1.00  0.00     0.049 A 
ATOM     61  H   UNL A   1      41.078  29.754  32.693  1.00  0.00     0.167 HD
ATOM     62  C   UNL A   1      42.297  30.091  35.243  1.00  0.00     0.074 A 
ATOM     63  C   UNL A   1      42.578  30.591  36.572  1.00  0.00     0.031 C 
ATOM     64  C   UNL A   1      42.984  29.085  34.647  1.00  0.00     0.034 A 
BRANCH  51  65
ATOM     65  C   UNL A   1      40.941  27.624  28.977  1.00  0.00     0.023 A 
ATOM     66  C   UNL A   1      41.954  27.778  28.014  1.00  0.00     0.031 A 
ATOM     67  C   UNL A   1      40.003  26.592  28.784  1.00  0.00     0.131 A 
ATOM     68  C   UNL A   1      41.962  26.967  26.870  1.00  0.00     0.055 A 
ATOM     69  C   UNL A   1      40.070  25.732  27.688  1.00  0.00     0.041 A 
ATOM     70  F   UNL A   1      38.999  26.410  29.656  1.00  0.00    -0.206 F 
ATOM     71  C   UNL A   1      41.045  25.926  26.714  1.00  0.00     0.022 A 
BRANCH  68  72
ATOM     72  S   UNL A   1      43.098  27.387  25.520  1.00  0.00     0.124 S 
ATOM     73  O   UNL A   1      44.142  28.121  26.231  1.00  0.00    -0.237 OA
ATOM     74  O   UNL A   1      43.476  26.076  25.006  1.00  0.00    -0.237 OA
ATOM     75  O   UNL A   1      42.278  28.197  24.622  1.00  0.00    -0.744 OA
ENDBRANCH  68  72
ENDBRANCH  51  65
BRANCH  52  76
ATOM     76  C   UNL A   1      39.651  33.624  36.908  1.00  0.00     0.023 A 
ATOM     77  C   UNL A   1      39.083  33.080  38.070  1.00  0.00     0.031 A 
ATOM     78  C   UNL A   1      39.952  34.999  36.907  1.00  0.00     0.131 A 
ATOM     79  C   UNL A   1      38.784  33.911  39.160  1.00  0.00     0.055 A 
ATOM     80  C   UNL A   1      39.712  35.810  38.018  1.00  0.00     0.041 A 
ATOM     81  F   UNL A   1      40.496  35.576  35.823  1.00  0.00    -0.206 F 
ATOM     82  C   UNL A   1      39.110  35.269  39.150  1.00  0.00     0.022 A 
BRANCH  79  83
ATOM     83  S   UNL A   1      37.863  33.212  40.558  1.00  0.00     0.124 S 
ATOM     84  O   UNL A   1      38.154  34.175  41.614  1.00  0.00    -0.237 OA
ATOM     85  O   UNL A   1      36.495  33.209  40.049  1.00  0.00    -0.237 OA
ATOM     86  O   UNL A   1      38.464  31.892  40.734  1.00  0.00    -0.744 OA
ENDBRANCH  79  83
ENDBRANCH  52  76
BRANCH  64  87
ATOM     87  C   UNL A   1      44.155  28.497  35.398  1.00  0.00     0.023 A 
ATOM     88  C   UNL A   1      43.996  27.475  36.347  1.00  0.00     0.031 A 
ATOM     89  C   UNL A   1      45.457  28.952  35.124  1.00  0.00     0.131 A 
ATOM     90  C   UNL A   1      45.120  26.963  37.015  1.00  0.00     0.055 A 
ATOM     91  C   UNL A   1      46.576  28.399  35.747  1.00  0.00     0.041 A 
ATOM     92  F   UNL A   1      45.666  29.931  34.228  1.00  0.00    -0.206 F 
ATOM     93  C   UNL A   1      46.410  27.404  36.706  1.00  0.00     0.022 A 
BRANCH  90  94
ATOM     94  S   UNL A   1      44.873  25.756  38.346  1.00  0.00     0.124 S 
ATOM     95  O   UNL A   1      44.132  24.700  37.662  1.00  0.00    -0.237 OA
ATOM     96  O   UNL A   1      46.241  25.428  38.731  1.00  0.00    -0.237 OA
ATOM     97  O   UNL A   1      44.110  26.499  39.347  1.00  0.00    -0.744 OA
ENDBRANCH  90  94
ENDBRANCH  64  87
ENDBRANCH  38  39
ENDBRANCH  30  33
ENDBRANCH  28  29
ENDBRANCH  27  28
ENDBRANCH   1  27
TORSDOF 20
ENDMDL
