MODEL 1
REMARK VINA RESULT:     -11.6      0.000      0.000
REMARK SMILES C=Cc1cccc(-c2ccc([C@@H](C)C(=O)NCCCCCCNC(=O)c3ccc(-c4c5nc(c(-c6cc(S(=O)(=O)[O-])ccc6F)c6ccc([nH]6)c(-c6cc(S(=O)(=O)[O-])ccc6F)c6nc(c(-c7cc(S(=O)(=O)[O-])ccc7F)c7ccc4[nH]7)C=C6)C=C5)cc3)cc2)c1
REMARK SMILES IDX 19 1 18 2 17 3 16 4 14 5 15 6 12 8 13 9 11 10 8 11 9 12
REMARK SMILES IDX 90 13 10 14 89 15 7 16 3 17 4 18 91 19 5 20 6 21 2 22 1 23
REMARK SMILES IDX 20 24 21 25 22 26 23 27 24 28 25 30 26 31 27 32 88 33 28 34
REMARK SMILES IDX 87 35 29 36 30 37 31 38 81 39 32 40 86 41 80 42 82 43 33 44
REMARK SMILES IDX 85 45 79 46 78 47 34 49 66 50 46 51 65 52 47 53 50 54 64 55
REMARK SMILES IDX 83 56 48 57 49 58 63 60 84 61 51 62 35 63 36 64 44 65 37 66
REMARK SMILES IDX 43 67 45 68 42 69 38 70 39 71 40 72 41 73 67 74 68 75 76 76
REMARK SMILES IDX 69 77 75 78 77 79 74 80 70 81 71 82 72 83 73 84 52 85 53 86
REMARK SMILES IDX 61 87 54 88 60 89 62 90 59 91 55 92 56 93 57 94 58 95
REMARK H PARENT 16 7 23 29 82 48 50 59
REMARK Flexibility Score: inf
ROOT
ATOM      1  C   UNL A   1      32.896  27.265  26.494  1.00  0.00     0.002 C 
ENDROOT
BRANCH   1   2
ATOM      2  C   UNL A   1      33.900  26.657  25.510  1.00  0.00     0.021 C 
BRANCH   2   3
ATOM      3  C   UNL A   1      34.100  25.151  25.692  1.00  0.00     0.116 C 
BRANCH   3   4
ATOM      4  N   UNL A   1      34.781  24.563  24.558  1.00  0.00    -0.356 N 
ATOM      5  C   UNL A   1      34.334  23.758  23.558  1.00  0.00     0.227 C 
ATOM      6  O   UNL A   1      35.189  23.331  22.772  1.00  0.00    -0.274 OA
ATOM      7  H   UNL A   1      35.738  24.785  24.501  1.00  0.00     0.163 HD
BRANCH   5   8
ATOM      8  C   UNL A   1      32.854  23.393  23.350  1.00  0.00     0.105 C 
ATOM      9  C   UNL A   1      32.623  22.367  22.241  1.00  0.00     0.023 C 
BRANCH   8  10
ATOM     10  C   UNL A   1      31.919  24.593  23.350  1.00  0.00    -0.036 A 
ATOM     11  C   UNL A   1      30.120  26.812  23.181  1.00  0.00    -0.018 A 
ATOM     12  C   UNL A   1      29.896  25.743  24.061  1.00  0.00     0.009 A 
ATOM     13  C   UNL A   1      31.288  26.759  22.406  1.00  0.00     0.009 A 
ATOM     14  C   UNL A   1      30.796  24.681  24.174  1.00  0.00     0.005 A 
ATOM     15  C   UNL A   1      32.160  25.661  22.474  1.00  0.00     0.005 A 
BRANCH  11  16
ATOM     16  C   UNL A   1      29.157  27.933  23.094  1.00  0.00    -0.018 A 
ATOM     17  C   UNL A   1      28.605  30.249  22.487  1.00  0.00    -0.026 A 
ATOM     18  C   UNL A   1      27.285  30.043  22.901  1.00  0.00     0.008 A 
ATOM     19  C   UNL A   1      29.528  29.195  22.590  1.00  0.00     0.016 A 
ATOM     20  C   UNL A   1      26.892  28.804  23.399  1.00  0.00     0.001 A 
ATOM     21  C   UNL A   1      27.820  27.768  23.500  1.00  0.00     0.009 A 
BRANCH  17  22
ATOM     22  C   UNL A   1      28.987  31.584  22.010  1.00  0.00     0.000 C 
ATOM     23  C   UNL A   1      28.140  32.453  21.447  1.00  0.00     0.009 C 
ENDBRANCH  17  22
ENDBRANCH  11  16
ENDBRANCH   8  10
ENDBRANCH   5   8
ENDBRANCH   3   4
ENDBRANCH   2   3
ENDBRANCH   1   2
BRANCH   1  24
ATOM     24  C   UNL A   1      31.806  28.132  25.849  1.00  0.00     0.002 C 
BRANCH  24  25
ATOM     25  C   UNL A   1      32.152  29.618  25.719  1.00  0.00     0.021 C 
BRANCH  25  26
ATOM     26  C   UNL A   1      32.764  30.226  26.976  1.00  0.00     0.116 C 
BRANCH  26  27
ATOM     27  N   UNL A   1      32.687  31.680  26.953  1.00  0.00    -0.352 N 
ATOM     28  C   UNL A   1      33.487  32.594  27.597  1.00  0.00     0.251 C 
ATOM     29  H   UNL A   1      31.966  32.060  26.402  1.00  0.00     0.163 HD
ATOM     30  O   UNL A   1      33.136  33.763  27.695  1.00  0.00    -0.269 OA
BRANCH  28  31
ATOM     31  C   UNL A   1      34.768  32.139  28.174  1.00  0.00     0.039 A 
ATOM     32  C   UNL A   1      35.888  32.972  28.117  1.00  0.00     0.014 A 
ATOM     33  C   UNL A   1      34.847  30.887  28.788  1.00  0.00     0.014 A 
ATOM     34  C   UNL A   1      37.077  32.571  28.732  1.00  0.00     0.010 A 
ATOM     35  C   UNL A   1      36.005  30.524  29.464  1.00  0.00     0.010 A 
ATOM     36  C   UNL A   1      37.134  31.359  29.437  1.00  0.00    -0.014 A 
BRANCH  36  37
ATOM     37  C   UNL A   1      38.367  30.897  30.126  1.00  0.00     0.031 A 
ATOM     38  C   UNL A   1      39.229  29.858  29.463  1.00  0.00     0.074 A 
ATOM     39  C   UNL A   1      38.654  31.327  31.371  1.00  0.00     0.049 A 
ATOM     40  N   UNL A   1      40.223  29.166  29.954  1.00  0.00    -0.248 NA
ATOM     41  C   UNL A   1      38.895  29.530  28.067  1.00  0.00     0.031 C 
ATOM     42  C   UNL A   1      37.891  32.327  32.118  1.00  0.00     0.029 A 
ATOM     43  N   UNL A   1      39.652  30.956  32.237  1.00  0.00    -0.354 N 
ATOM     44  C   UNL A   1      40.617  28.302  28.938  1.00  0.00     0.074 A 
ATOM     45  C   UNL A   1      39.712  28.518  27.828  1.00  0.00     0.031 C 
ATOM     46  C   UNL A   1      38.456  32.499  33.324  1.00  0.00     0.029 A 
ATOM     47  C   UNL A   1      39.580  31.577  33.463  1.00  0.00     0.049 A 
ATOM     48  H   UNL A   1      40.354  30.307  32.003  1.00  0.00     0.167 HD
ATOM     49  C   UNL A   1      41.650  27.425  28.926  1.00  0.00     0.034 A 
ATOM     50  C   UNL A   1      40.317  31.401  34.580  1.00  0.00     0.034 A 
ATOM     51  C   UNL A   1      42.546  27.235  30.040  1.00  0.00     0.049 A 
ATOM     52  C   UNL A   1      41.427  30.378  34.567  1.00  0.00     0.074 A 
ATOM     53  C   UNL A   1      43.646  26.402  30.128  1.00  0.00     0.029 A 
ATOM     54  N   UNL A   1      42.442  27.887  31.262  1.00  0.00    -0.354 N 
ATOM     55  N   UNL A   1      41.798  29.574  33.595  1.00  0.00    -0.248 NA
ATOM     56  C   UNL A   1      42.221  30.238  35.795  1.00  0.00     0.031 C 
ATOM     57  C   UNL A   1      44.161  26.492  31.425  1.00  0.00     0.029 A 
ATOM     58  C   UNL A   1      43.441  27.453  32.118  1.00  0.00     0.049 A 
ATOM     59  H   UNL A   1      41.758  28.559  31.487  1.00  0.00     0.167 HD
ATOM     60  C   UNL A   1      42.899  28.874  34.081  1.00  0.00     0.074 A 
ATOM     61  C   UNL A   1      43.126  29.340  35.433  1.00  0.00     0.031 C 
ATOM     62  C   UNL A   1      43.663  27.940  33.459  1.00  0.00     0.034 A 
BRANCH  49  63
ATOM     63  C   UNL A   1      41.839  26.588  27.682  1.00  0.00     0.023 A 
ATOM     64  C   UNL A   1      41.400  25.255  27.616  1.00  0.00     0.031 A 
ATOM     65  C   UNL A   1      42.501  27.118  26.560  1.00  0.00     0.131 A 
ATOM     66  C   UNL A   1      41.705  24.471  26.494  1.00  0.00     0.055 A 
ATOM     67  C   UNL A   1      42.717  26.361  25.407  1.00  0.00     0.041 A 
ATOM     68  F   UNL A   1      42.964  28.378  26.570  1.00  0.00    -0.206 F 
ATOM     69  C   UNL A   1      42.335  25.023  25.377  1.00  0.00     0.022 A 
BRANCH  66  70
ATOM     70  S   UNL A   1      41.416  22.684  26.586  1.00  0.00     0.124 S 
ATOM     71  O   UNL A   1      39.957  22.619  26.534  1.00  0.00    -0.237 OA
ATOM     72  O   UNL A   1      42.120  22.189  25.409  1.00  0.00    -0.237 OA
ATOM     73  O   UNL A   1      42.003  22.308  27.871  1.00  0.00    -0.744 OA
ENDBRANCH  66  70
ENDBRANCH  49  63
BRANCH  50  74
ATOM     74  C   UNL A   1      40.027  32.193  35.810  1.00  0.00     0.023 A 
ATOM     75  C   UNL A   1      38.961  31.846  36.654  1.00  0.00     0.031 A 
ATOM     76  C   UNL A   1      40.782  33.333  36.139  1.00  0.00     0.131 A 
ATOM     77  C   UNL A   1      38.645  32.658  37.755  1.00  0.00     0.055 A 
ATOM     78  C   UNL A   1      40.503  34.104  37.269  1.00  0.00     0.041 A 
ATOM     79  F   UNL A   1      41.815  33.711  35.368  1.00  0.00    -0.206 F 
ATOM     80  C   UNL A   1      39.419  33.776  38.077  1.00  0.00     0.022 A 
BRANCH  77  81
ATOM     81  S   UNL A   1      37.146  32.287  38.704  1.00  0.00     0.124 S 
ATOM     82  O   UNL A   1      37.032  30.845  38.523  1.00  0.00    -0.237 OA
ATOM     83  O   UNL A   1      37.514  32.740  40.041  1.00  0.00    -0.237 OA
ATOM     84  O   UNL A   1      36.117  33.085  38.039  1.00  0.00    -0.744 OA
ENDBRANCH  77  81
ENDBRANCH  50  74
BRANCH  62  85
ATOM     85  C   UNL A   1      44.873  27.420  34.195  1.00  0.00     0.023 A 
ATOM     86  C   UNL A   1      44.830  26.262  34.990  1.00  0.00     0.031 A 
ATOM     87  C   UNL A   1      46.107  28.081  34.052  1.00  0.00     0.131 A 
ATOM     88  C   UNL A   1      45.996  25.815  35.631  1.00  0.00     0.055 A 
ATOM     89  C   UNL A   1      47.273  27.601  34.647  1.00  0.00     0.041 A 
ATOM     90  F   UNL A   1      46.202  29.193  33.306  1.00  0.00    -0.206 F 
ATOM     91  C   UNL A   1      47.220  26.465  35.447  1.00  0.00     0.022 A 
BRANCH  88  92
ATOM     92  S   UNL A   1      45.887  24.396  36.756  1.00  0.00     0.124 S 
ATOM     93  O   UNL A   1      47.285  23.998  36.879  1.00  0.00    -0.237 OA
ATOM     94  O   UNL A   1      45.285  24.985  37.947  1.00  0.00    -0.237 OA
ATOM     95  O   UNL A   1      45.034  23.451  36.035  1.00  0.00    -0.744 OA
ENDBRANCH  88  92
ENDBRANCH  62  85
ENDBRANCH  36  37
ENDBRANCH  28  31
ENDBRANCH  26  27
ENDBRANCH  25  26
ENDBRANCH  24  25
ENDBRANCH   1  24
TORSDOF 19
ENDMDL
MODEL 2
REMARK VINA RESULT:     -11.4      0.958      7.476
REMARK SMILES C=Cc1cccc(-c2ccc([C@@H](C)C(=O)NCCCCCCNC(=O)c3ccc(-c4c5nc(c(-c6cc(S(=O)(=O)[O-])ccc6F)c6ccc([nH]6)c(-c6cc(S(=O)(=O)[O-])ccc6F)c6nc(c(-c7cc(S(=O)(=O)[O-])ccc7F)c7ccc4[nH]7)C=C6)C=C5)cc3)cc2)c1
REMARK SMILES IDX 19 1 18 2 17 3 16 4 14 5 15 6 12 8 13 9 11 10 8 11 9 12
REMARK SMILES IDX 90 13 10 14 89 15 7 16 3 17 4 18 91 19 5 20 6 21 2 22 1 23
REMARK SMILES IDX 20 24 21 25 22 26 23 27 24 28 25 30 26 31 27 32 88 33 28 34
REMARK SMILES IDX 87 35 29 36 30 37 31 38 81 39 32 40 86 41 80 42 82 43 33 44
REMARK SMILES IDX 85 45 79 46 78 47 34 49 66 50 46 51 65 52 47 53 50 54 64 55
REMARK SMILES IDX 83 56 48 57 49 58 63 60 84 61 51 62 35 63 36 64 44 65 37 66
REMARK SMILES IDX 43 67 45 68 42 69 38 70 39 71 40 72 41 73 67 74 68 75 76 76
REMARK SMILES IDX 69 77 75 78 77 79 74 80 70 81 71 82 72 83 73 84 52 85 53 86
REMARK SMILES IDX 61 87 54 88 60 89 62 90 59 91 55 92 56 93 57 94 58 95
REMARK H PARENT 16 7 23 29 82 48 50 59
REMARK Flexibility Score: inf
ROOT
ATOM      1  C   UNL A   1      33.068  26.583  25.786  1.00  0.00     0.002 C 
ENDROOT
BRANCH   1   2
ATOM      2  C   UNL A   1      34.122  25.503  26.046  1.00  0.00     0.021 C 
BRANCH   2   3
ATOM      3  C   UNL A   1      34.411  24.625  24.826  1.00  0.00     0.116 C 
BRANCH   3   4
ATOM      4  N   UNL A   1      33.768  23.333  24.936  1.00  0.00    -0.356 N 
ATOM      5  C   UNL A   1      32.829  22.726  24.161  1.00  0.00     0.227 C 
ATOM      6  O   UNL A   1      32.395  21.642  24.571  1.00  0.00    -0.274 OA
ATOM      7  H   UNL A   1      34.060  22.798  25.709  1.00  0.00     0.163 HD
BRANCH   5   8
ATOM      8  C   UNL A   1      32.324  23.297  22.825  1.00  0.00     0.105 C 
ATOM      9  C   UNL A   1      33.374  23.279  21.713  1.00  0.00     0.023 C 
BRANCH   8  10
ATOM     10  C   UNL A   1      31.529  24.585  22.967  1.00  0.00    -0.036 A 
ATOM     11  C   UNL A   1      29.989  26.995  23.062  1.00  0.00    -0.018 A 
ATOM     12  C   UNL A   1      29.647  25.869  23.824  1.00  0.00     0.009 A 
ATOM     13  C   UNL A   1      31.144  26.898  22.272  1.00  0.00     0.009 A 
ATOM     14  C   UNL A   1      30.424  24.707  23.810  1.00  0.00     0.005 A 
ATOM     15  C   UNL A   1      31.888  25.709  22.209  1.00  0.00     0.005 A 
BRANCH  11  16
ATOM     16  C   UNL A   1      29.158  28.220  23.110  1.00  0.00    -0.018 A 
ATOM     17  C   UNL A   1      28.901  30.653  22.886  1.00  0.00    -0.026 A 
ATOM     18  C   UNL A   1      27.536  30.534  23.166  1.00  0.00     0.008 A 
ATOM     19  C   UNL A   1      29.698  29.496  22.863  1.00  0.00     0.016 A 
ATOM     20  C   UNL A   1      26.976  29.284  23.409  1.00  0.00     0.001 A 
ATOM     21  C   UNL A   1      27.780  28.145  23.388  1.00  0.00     0.009 A 
BRANCH  17  22
ATOM     22  C   UNL A   1      29.458  31.995  22.680  1.00  0.00     0.000 C 
ATOM     23  C   UNL A   1      28.765  33.130  22.832  1.00  0.00     0.009 C 
ENDBRANCH  17  22
ENDBRANCH  11  16
ENDBRANCH   8  10
ENDBRANCH   5   8
ENDBRANCH   3   4
ENDBRANCH   2   3
ENDBRANCH   1   2
BRANCH   1  24
ATOM     24  C   UNL A   1      33.570  27.795  24.991  1.00  0.00     0.002 C 
BRANCH  24  25
ATOM     25  C   UNL A   1      32.717  29.059  25.127  1.00  0.00     0.021 C 
BRANCH  25  26
ATOM     26  C   UNL A   1      32.577  29.563  26.559  1.00  0.00     0.116 C 
BRANCH  26  27
ATOM     27  N   UNL A   1      32.549  31.019  26.608  1.00  0.00    -0.352 N 
ATOM     28  C   UNL A   1      33.366  31.871  27.313  1.00  0.00     0.251 C 
ATOM     29  H   UNL A   1      31.852  31.449  26.064  1.00  0.00     0.163 HD
ATOM     30  O   UNL A   1      33.051  33.044  27.463  1.00  0.00    -0.269 OA
BRANCH  28  31
ATOM     31  C   UNL A   1      34.619  31.344  27.890  1.00  0.00     0.039 A 
ATOM     32  C   UNL A   1      35.715  32.194  28.057  1.00  0.00     0.014 A 
ATOM     33  C   UNL A   1      34.695  30.005  28.279  1.00  0.00     0.014 A 
ATOM     34  C   UNL A   1      36.872  31.712  28.675  1.00  0.00     0.010 A 
ATOM     35  C   UNL A   1      35.817  29.549  28.961  1.00  0.00     0.010 A 
ATOM     36  C   UNL A   1      36.919  30.396  29.159  1.00  0.00    -0.014 A 
BRANCH  36  37
ATOM     37  C   UNL A   1      38.117  29.842  29.842  1.00  0.00     0.031 A 
ATOM     38  C   UNL A   1      38.495  30.372  31.199  1.00  0.00     0.074 A 
ATOM     39  C   UNL A   1      38.912  28.955  29.212  1.00  0.00     0.049 A 
ATOM     40  N   UNL A   1      39.591  30.192  31.885  1.00  0.00    -0.248 NA
ATOM     41  C   UNL A   1      37.513  31.256  31.848  1.00  0.00     0.031 C 
ATOM     42  C   UNL A   1      38.653  28.373  27.894  1.00  0.00     0.029 A 
ATOM     43  N   UNL A   1      40.112  28.405  29.587  1.00  0.00    -0.354 N 
ATOM     44  C   UNL A   1      39.445  30.960  33.035  1.00  0.00     0.074 A 
ATOM     45  C   UNL A   1      38.180  31.653  32.919  1.00  0.00     0.031 C 
ATOM     46  C   UNL A   1      39.658  27.541  27.577  1.00  0.00     0.029 A 
ATOM     47  C   UNL A   1      40.663  27.577  28.636  1.00  0.00     0.049 A 
ATOM     48  H   UNL A   1      40.540  28.587  30.455  1.00  0.00     0.167 HD
ATOM     49  C   UNL A   1      40.280  31.061  34.098  1.00  0.00     0.034 A 
ATOM     50  C   UNL A   1      41.854  26.944  28.609  1.00  0.00     0.034 A 
ATOM     51  C   UNL A   1      41.531  30.350  34.197  1.00  0.00     0.049 A 
ATOM     52  C   UNL A   1      42.797  27.114  29.776  1.00  0.00     0.074 A 
ATOM     53  C   UNL A   1      42.440  30.348  35.239  1.00  0.00     0.029 A 
ATOM     54  N   UNL A   1      42.051  29.517  33.214  1.00  0.00    -0.354 N 
ATOM     55  N   UNL A   1      42.643  27.835  30.864  1.00  0.00    -0.248 NA
ATOM     56  C   UNL A   1      44.072  26.386  29.717  1.00  0.00     0.031 C 
ATOM     57  C   UNL A   1      43.542  29.577  34.858  1.00  0.00     0.029 A 
ATOM     58  C   UNL A   1      43.280  29.020  33.616  1.00  0.00     0.049 A 
ATOM     59  H   UNL A   1      41.611  29.311  32.358  1.00  0.00     0.167 HD
ATOM     60  C   UNL A   1      43.777  27.603  31.638  1.00  0.00     0.074 A 
ATOM     61  C   UNL A   1      44.611  26.686  30.890  1.00  0.00     0.031 C 
ATOM     62  C   UNL A   1      44.093  28.093  32.863  1.00  0.00     0.034 A 
BRANCH  49  63
ATOM     63  C   UNL A   1      39.877  31.995  35.214  1.00  0.00     0.023 A 
ATOM     64  C   UNL A   1      39.153  31.542  36.331  1.00  0.00     0.031 A 
ATOM     65  C   UNL A   1      40.187  33.365  35.145  1.00  0.00     0.131 A 
ATOM     66  C   UNL A   1      38.688  32.460  37.284  1.00  0.00     0.055 A 
ATOM     67  C   UNL A   1      39.803  34.259  36.146  1.00  0.00     0.041 A 
ATOM     68  F   UNL A   1      40.857  33.863  34.093  1.00  0.00    -0.206 F 
ATOM     69  C   UNL A   1      39.032  33.811  37.214  1.00  0.00     0.022 A 
BRANCH  66  70
ATOM     70  S   UNL A   1      37.489  31.887  38.517  1.00  0.00     0.124 S 
ATOM     71  O   UNL A   1      36.409  32.857  38.350  1.00  0.00    -0.237 OA
ATOM     72  O   UNL A   1      37.203  30.528  38.072  1.00  0.00    -0.237 OA
ATOM     73  O   UNL A   1      38.220  31.991  39.779  1.00  0.00    -0.744 OA
ENDBRANCH  66  70
ENDBRANCH  49  63
BRANCH  50  74
ATOM     74  C   UNL A   1      42.238  26.104  27.438  1.00  0.00     0.023 A 
ATOM     75  C   UNL A   1      41.895  24.745  27.383  1.00  0.00     0.031 A 
ATOM     76  C   UNL A   1      42.991  26.635  26.374  1.00  0.00     0.131 A 
ATOM     77  C   UNL A   1      42.347  23.949  26.319  1.00  0.00     0.055 A 
ATOM     78  C   UNL A   1      43.387  25.854  25.287  1.00  0.00     0.041 A 
ATOM     79  F   UNL A   1      43.346  27.930  26.372  1.00  0.00    -0.206 F 
ATOM     80  C   UNL A   1      43.077  24.498  25.262  1.00  0.00     0.022 A 
BRANCH  77  81
ATOM     81  S   UNL A   1      42.050  22.162  26.386  1.00  0.00     0.124 S 
ATOM     82  O   UNL A   1      42.513  21.836  27.729  1.00  0.00    -0.237 OA
ATOM     83  O   UNL A   1      40.610  22.086  26.166  1.00  0.00    -0.237 OA
ATOM     84  O   UNL A   1      42.873  21.639  25.297  1.00  0.00    -0.744 OA
ENDBRANCH  77  81
ENDBRANCH  50  74
BRANCH  62  85
ATOM     85  C   UNL A   1      45.352  27.582  33.520  1.00  0.00     0.023 A 
ATOM     86  C   UNL A   1      45.394  26.366  34.221  1.00  0.00     0.031 A 
ATOM     87  C   UNL A   1      46.546  28.317  33.393  1.00  0.00     0.131 A 
ATOM     88  C   UNL A   1      46.602  25.933  34.791  1.00  0.00     0.055 A 
ATOM     89  C   UNL A   1      47.754  27.855  33.913  1.00  0.00     0.041 A 
ATOM     90  F   UNL A   1      46.559  29.487  32.734  1.00  0.00    -0.206 F 
ATOM     91  C   UNL A   1      47.785  26.659  34.623  1.00  0.00     0.022 A 
BRANCH  88  92
ATOM     92  S   UNL A   1      46.602  24.427  35.803  1.00  0.00     0.124 S 
ATOM     93  O   UNL A   1      45.221  24.375  36.271  1.00  0.00    -0.237 OA
ATOM     94  O   UNL A   1      46.987  23.402  34.839  1.00  0.00    -0.237 OA
ATOM     95  O   UNL A   1      47.598  24.708  36.837  1.00  0.00    -0.744 OA
ENDBRANCH  88  92
ENDBRANCH  62  85
ENDBRANCH  36  37
ENDBRANCH  28  31
ENDBRANCH  26  27
ENDBRANCH  25  26
ENDBRANCH  24  25
ENDBRANCH   1  24
TORSDOF 19
ENDMDL
MODEL 3
REMARK VINA RESULT:     -11.2      2.134      2.509
REMARK SMILES C=Cc1cccc(-c2ccc([C@@H](C)C(=O)NCCCCCCNC(=O)c3ccc(-c4c5nc(c(-c6cc(S(=O)(=O)[O-])ccc6F)c6ccc([nH]6)c(-c6cc(S(=O)(=O)[O-])ccc6F)c6nc(c(-c7cc(S(=O)(=O)[O-])ccc7F)c7ccc4[nH]7)C=C6)C=C5)cc3)cc2)c1
REMARK SMILES IDX 19 1 18 2 17 3 16 4 14 5 15 6 12 8 13 9 11 10 8 11 9 12
REMARK SMILES IDX 90 13 10 14 89 15 7 16 3 17 4 18 91 19 5 20 6 21 2 22 1 23
REMARK SMILES IDX 20 24 21 25 22 26 23 27 24 28 25 30 26 31 27 32 88 33 28 34
REMARK SMILES IDX 87 35 29 36 30 37 31 38 81 39 32 40 86 41 80 42 82 43 33 44
REMARK SMILES IDX 85 45 79 46 78 47 34 49 66 50 46 51 65 52 47 53 50 54 64 55
REMARK SMILES IDX 83 56 48 57 49 58 63 60 84 61 51 62 35 63 36 64 44 65 37 66
REMARK SMILES IDX 43 67 45 68 42 69 38 70 39 71 40 72 41 73 67 74 68 75 76 76
REMARK SMILES IDX 69 77 75 78 77 79 74 80 70 81 71 82 72 83 73 84 52 85 53 86
REMARK SMILES IDX 61 87 54 88 60 89 62 90 59 91 55 92 56 93 57 94 58 95
REMARK H PARENT 16 7 23 29 82 48 50 59
REMARK Flexibility Score: inf
ROOT
ATOM      1  C   UNL A   1      33.577  26.235  25.863  1.00  0.00     0.002 C 
ENDROOT
BRANCH   1   2
ATOM      2  C   UNL A   1      34.588  25.171  25.430  1.00  0.00     0.021 C 
BRANCH   2   3
ATOM      3  C   UNL A   1      34.549  23.904  26.287  1.00  0.00     0.116 C 
BRANCH   3   4
ATOM      4  N   UNL A   1      34.944  22.735  25.529  1.00  0.00    -0.356 N 
ATOM      5  C   UNL A   1      34.230  21.664  25.089  1.00  0.00     0.227 C 
ATOM      6  O   UNL A   1      34.876  20.761  24.541  1.00  0.00    -0.274 OA
ATOM      7  H   UNL A   1      35.899  22.710  25.291  1.00  0.00     0.163 HD
BRANCH   5   8
ATOM      8  C   UNL A   1      32.702  21.546  25.211  1.00  0.00     0.105 C 
ATOM      9  C   UNL A   1      32.133  20.265  24.601  1.00  0.00     0.023 C 
BRANCH   8  10
ATOM     10  C   UNL A   1      31.957  22.829  24.876  1.00  0.00    -0.036 A 
ATOM     11  C   UNL A   1      30.458  25.150  24.129  1.00  0.00    -0.018 A 
ATOM     12  C   UNL A   1      30.419  24.632  25.431  1.00  0.00     0.009 A 
ATOM     13  C   UNL A   1      31.295  24.495  23.212  1.00  0.00     0.009 A 
ATOM     14  C   UNL A   1      31.184  23.524  25.807  1.00  0.00     0.005 A 
ATOM     15  C   UNL A   1      32.014  23.345  23.573  1.00  0.00     0.005 A 
BRANCH  11  16
ATOM     16  C   UNL A   1      29.651  26.336  23.763  1.00  0.00    -0.018 A 
ATOM     17  C   UNL A   1      29.439  28.557  22.735  1.00  0.00    -0.026 A 
ATOM     18  C   UNL A   1      28.074  28.567  23.039  1.00  0.00     0.008 A 
ATOM     19  C   UNL A   1      30.214  27.444  23.102  1.00  0.00     0.016 A 
ATOM     20  C   UNL A   1      27.492  27.482  23.688  1.00  0.00     0.001 A 
ATOM     21  C   UNL A   1      28.274  26.386  24.051  1.00  0.00     0.009 A 
BRANCH  17  22
ATOM     22  C   UNL A   1      30.020  29.741  22.089  1.00  0.00     0.000 C 
ATOM     23  C   UNL A   1      29.306  30.681  21.459  1.00  0.00     0.009 C 
ENDBRANCH  17  22
ENDBRANCH  11  16
ENDBRANCH   8  10
ENDBRANCH   5   8
ENDBRANCH   3   4
ENDBRANCH   2   3
ENDBRANCH   1   2
BRANCH   1  24
ATOM     24  C   UNL A   1      33.919  27.665  25.424  1.00  0.00     0.002 C 
BRANCH  24  25
ATOM     25  C   UNL A   1      32.727  28.624  25.356  1.00  0.00     0.021 C 
BRANCH  25  26
ATOM     26  C   UNL A   1      32.367  29.266  26.690  1.00  0.00     0.116 C 
BRANCH  26  27
ATOM     27  N   UNL A   1      32.129  30.695  26.545  1.00  0.00    -0.352 N 
ATOM     28  C   UNL A   1      32.813  31.744  27.115  1.00  0.00     0.251 C 
ATOM     29  H   UNL A   1      31.378  30.944  25.961  1.00  0.00     0.163 HD
ATOM     30  O   UNL A   1      32.332  32.869  27.112  1.00  0.00    -0.269 OA
BRANCH  28  31
ATOM     31  C   UNL A   1      34.128  31.485  27.734  1.00  0.00     0.039 A 
ATOM     32  C   UNL A   1      35.034  32.535  27.900  1.00  0.00     0.014 A 
ATOM     33  C   UNL A   1      34.451  30.195  28.165  1.00  0.00     0.014 A 
ATOM     34  C   UNL A   1      36.245  32.302  28.557  1.00  0.00     0.010 A 
ATOM     35  C   UNL A   1      35.621  29.984  28.884  1.00  0.00     0.010 A 
ATOM     36  C   UNL A   1      36.533  31.033  29.081  1.00  0.00    -0.014 A 
BRANCH  36  37
ATOM     37  C   UNL A   1      37.796  30.740  29.806  1.00  0.00     0.031 A 
ATOM     38  C   UNL A   1      38.776  29.771  29.203  1.00  0.00     0.074 A 
ATOM     39  C   UNL A   1      38.014  31.253  31.033  1.00  0.00     0.049 A 
ATOM     40  N   UNL A   1      39.830  29.214  29.738  1.00  0.00    -0.248 NA
ATOM     41  C   UNL A   1      38.503  29.345  27.820  1.00  0.00     0.031 C 
ATOM     42  C   UNL A   1      37.135  32.198  31.723  1.00  0.00     0.029 A 
ATOM     43  N   UNL A   1      39.031  31.034  31.927  1.00  0.00    -0.354 N 
ATOM     44  C   UNL A   1      40.333  28.352  28.768  1.00  0.00     0.074 A 
ATOM     45  C   UNL A   1      39.429  28.418  27.639  1.00  0.00     0.031 C 
ATOM     46  C   UNL A   1      37.657  32.485  32.926  1.00  0.00     0.029 A 
ATOM     47  C   UNL A   1      38.872  31.698  33.122  1.00  0.00     0.049 A 
ATOM     48  H   UNL A   1      39.803  30.454  31.733  1.00  0.00     0.167 HD
ATOM     49  C   UNL A   1      41.454  27.593  28.810  1.00  0.00     0.034 A 
ATOM     50  C   UNL A   1      39.604  31.654  34.254  1.00  0.00     0.034 A 
ATOM     51  C   UNL A   1      42.346  27.552  29.942  1.00  0.00     0.049 A 
ATOM     52  C   UNL A   1      40.819  30.757  34.303  1.00  0.00     0.074 A 
ATOM     53  C   UNL A   1      43.529  26.848  30.083  1.00  0.00     0.029 A 
ATOM     54  N   UNL A   1      42.152  28.243  31.131  1.00  0.00    -0.354 N 
ATOM     55  N   UNL A   1      41.290  29.955  33.375  1.00  0.00    -0.248 NA
ATOM     56  C   UNL A   1      41.602  30.760  35.545  1.00  0.00     0.031 C 
ATOM     57  C   UNL A   1      44.008  27.052  31.380  1.00  0.00     0.029 A 
ATOM     58  C   UNL A   1      43.177  27.960  32.018  1.00  0.00     0.049 A 
ATOM     59  H   UNL A   1      41.396  28.847  31.316  1.00  0.00     0.167 HD
ATOM     60  C   UNL A   1      42.452  29.401  33.906  1.00  0.00     0.074 A 
ATOM     61  C   UNL A   1      42.605  29.951  35.237  1.00  0.00     0.031 C 
ATOM     62  C   UNL A   1      43.322  28.528  33.338  1.00  0.00     0.034 A 
BRANCH  49  63
ATOM     63  C   UNL A   1      41.753  26.726  27.610  1.00  0.00     0.023 A 
ATOM     64  C   UNL A   1      41.442  25.356  27.593  1.00  0.00     0.031 A 
ATOM     65  C   UNL A   1      42.393  27.268  26.480  1.00  0.00     0.131 A 
ATOM     66  C   UNL A   1      41.848  24.557  26.513  1.00  0.00     0.055 A 
ATOM     67  C   UNL A   1      42.710  26.486  25.367  1.00  0.00     0.041 A 
ATOM     68  F   UNL A   1      42.738  28.565  26.444  1.00  0.00    -0.206 F 
ATOM     69  C   UNL A   1      42.454  25.119  25.387  1.00  0.00     0.022 A 
BRANCH  66  70
ATOM     70  S   UNL A   1      41.723  22.757  26.678  1.00  0.00     0.124 S 
ATOM     71  O   UNL A   1      42.746  22.482  27.685  1.00  0.00    -0.237 OA
ATOM     72  O   UNL A   1      40.341  22.574  27.105  1.00  0.00    -0.237 OA
ATOM     73  O   UNL A   1      42.033  22.267  25.337  1.00  0.00    -0.744 OA
ENDBRANCH  66  70
ENDBRANCH  49  63
BRANCH  50  74
ATOM     74  C   UNL A   1      39.210  32.464  35.442  1.00  0.00     0.023 A 
ATOM     75  C   UNL A   1      39.654  33.787  35.590  1.00  0.00     0.031 A 
ATOM     76  C   UNL A   1      38.421  31.917  36.470  1.00  0.00     0.131 A 
ATOM     77  C   UNL A   1      39.351  34.502  36.760  1.00  0.00     0.055 A 
ATOM     78  C   UNL A   1      38.071  32.652  37.604  1.00  0.00     0.041 A 
ATOM     79  F   UNL A   1      37.966  30.657  36.381  1.00  0.00    -0.206 F 
ATOM     80  C   UNL A   1      38.549  33.949  37.761  1.00  0.00     0.022 A 
BRANCH  77  81
ATOM     81  S   UNL A   1      40.105  36.134  36.998  1.00  0.00     0.124 S 
ATOM     82  O   UNL A   1      39.818  36.780  35.723  1.00  0.00    -0.237 OA
ATOM     83  O   UNL A   1      39.374  36.639  38.154  1.00  0.00    -0.237 OA
ATOM     84  O   UNL A   1      41.513  35.825  37.240  1.00  0.00    -0.744 OA
ENDBRANCH  77  81
ENDBRANCH  50  74
BRANCH  62  85
ATOM     85  C   UNL A   1      44.569  28.176  34.112  1.00  0.00     0.023 A 
ATOM     86  C   UNL A   1      45.750  28.930  34.018  1.00  0.00     0.031 A 
ATOM     87  C   UNL A   1      44.546  27.084  35.000  1.00  0.00     0.131 A 
ATOM     88  C   UNL A   1      46.870  28.565  34.782  1.00  0.00     0.055 A 
ATOM     89  C   UNL A   1      45.644  26.760  35.796  1.00  0.00     0.041 A 
ATOM     90  F   UNL A   1      43.443  26.330  35.125  1.00  0.00    -0.206 F 
ATOM     91  C   UNL A   1      46.817  27.499  35.685  1.00  0.00     0.022 A 
BRANCH  88  92
ATOM     92  S   UNL A   1      48.424  29.473  34.546  1.00  0.00     0.124 S 
ATOM     93  O   UNL A   1      49.018  29.409  35.878  1.00  0.00    -0.237 OA
ATOM     94  O   UNL A   1      49.091  28.688  33.513  1.00  0.00    -0.237 OA
ATOM     95  O   UNL A   1      47.984  30.802  34.126  1.00  0.00    -0.744 OA
ENDBRANCH  88  92
ENDBRANCH  62  85
ENDBRANCH  36  37
ENDBRANCH  28  31
ENDBRANCH  26  27
ENDBRANCH  25  26
ENDBRANCH  24  25
ENDBRANCH   1  24
TORSDOF 19
ENDMDL
