MODEL 1
REMARK VINA RESULT:     -10.9      0.000      0.000
REMARK SMILES O=C(CCN1C(=O)/C(=C/c2cc(Br)cc(Br)c2O)SC1=S)NCCCCCCNC(=O)c1ccc(-c2c3nc(c(-c4cc(S(=O)(=O)[O-])ccc4F)c4ccc([nH]4)c(-c4cc(S(=O)(=O)[O-])ccc4F)c4nc(c(-c5cc(S(=O)(=O)[O-])ccc5F)c5ccc2[nH]5)C=C4)C=C3)cc1
REMARK SMILES IDX 25 1 24 2 23 3 22 4 1 5 2 6 3 8 4 9 5 10 6 11 20 12 7 13
REMARK SMILES IDX 8 14 19 15 21 16 9 17 10 18 11 19 17 20 12 21 15 22 13 23
REMARK SMILES IDX 14 24 16 25 18 26 26 28 27 29 28 30 29 31 30 32 31 34 32 35
REMARK SMILES IDX 33 36 94 37 34 38 93 39 35 40 36 41 37 42 87 43 38 44 92 45
REMARK SMILES IDX 86 46 88 47 39 48 91 49 85 50 84 51 40 53 72 54 52 55 71 56
REMARK SMILES IDX 53 57 56 58 70 59 89 60 54 61 55 62 69 64 90 65 57 66 41 67
REMARK SMILES IDX 42 68 50 69 43 70 49 71 51 72 48 73 44 74 45 75 46 76 47 77
REMARK SMILES IDX 73 78 74 79 82 80 75 81 81 82 83 83 80 84 76 85 77 86 78 87
REMARK SMILES IDX 79 88 58 89 59 90 67 91 60 92 66 93 68 94 65 95 61 96 62 97
REMARK SMILES IDX 63 98 64 99
REMARK H PARENT 22 7 18 27 29 33 88 52 56 63
REMARK Flexibility Score: inf
ROOT
ATOM      1  C   UNL A   1      45.488  22.020  34.380  1.00  0.00     0.002 C 
ENDROOT
BRANCH   1   2
ATOM      2  C   UNL A   1      46.505  20.873  34.325  1.00  0.00     0.021 C 
BRANCH   2   3
ATOM      3  C   UNL A   1      46.175  19.668  35.211  1.00  0.00     0.116 C 
BRANCH   3   4
ATOM      4  N   UNL A   1      47.015  19.636  36.397  1.00  0.00    -0.356 N 
ATOM      5  O   UNL A   1      45.668  20.935  37.714  1.00  0.00    -0.275 OA
ATOM      6  C   UNL A   1      46.715  20.314  37.550  1.00  0.00     0.221 C 
ATOM      7  H   UNL A   1      47.841  19.100  36.371  1.00  0.00     0.163 HD
BRANCH   6   8
ATOM      8  C   UNL A   1      47.826  20.378  38.579  1.00  0.00     0.122 C 
BRANCH   8   9
ATOM      9  C   UNL A   1      47.425  20.424  40.054  1.00  0.00     0.137 C 
BRANCH   9  10
ATOM     10  N   UNL A   1      46.933  19.188  40.687  1.00  0.00    -0.292 N 
ATOM     11  C   UNL A   1      45.673  19.215  41.274  1.00  0.00     0.266 C 
ATOM     12  C   UNL A   1      47.674  18.055  40.959  1.00  0.00     0.148 C 
ATOM     13  O   UNL A   1      44.938  20.195  41.371  1.00  0.00    -0.268 OA
ATOM     14  C   UNL A   1      45.309  17.877  41.808  1.00  0.00     0.081 C 
ATOM     15  S   UNL A   1      46.605  16.789  41.535  1.00  0.00    -0.054 SA
ATOM     16  S   UNL A   1      49.309  17.797  40.796  1.00  0.00    -0.052 S 
ATOM     17  C   UNL A   1      44.107  17.632  42.357  1.00  0.00     0.033 C 
BRANCH  17  18
ATOM     18  C   UNL A   1      43.549  16.303  42.688  1.00  0.00     0.020 A 
ATOM     19  C   UNL A   1      43.845  15.683  43.912  1.00  0.00     0.027 A 
ATOM     20  C   UNL A   1      42.757  15.596  41.760  1.00  0.00     0.137 A 
ATOM     21  C   UNL A   1      43.475  14.358  44.150  1.00  0.00     0.019 A 
ATOM     22  C   UNL A   1      42.366  14.273  42.023  1.00  0.00     0.061 A 
ATOM     23  Br  UNL A   1      44.010  13.516  45.757  1.00  0.00    -0.051 Br
ATOM     24  C   UNL A   1      42.748  13.642  43.206  1.00  0.00     0.035 A 
ATOM     25  Br  UNL A   1      41.332  13.278  40.778  1.00  0.00    -0.047 Br
BRANCH  20  26
ATOM     26  O   UNL A   1      42.360  16.144  40.566  1.00  0.00    -0.506 OA
ATOM     27  H   UNL A   1      42.280  15.602  39.807  1.00  0.00     0.293 HD
ENDBRANCH  20  26
ENDBRANCH  17  18
ENDBRANCH   9  10
ENDBRANCH   8   9
ENDBRANCH   6   8
ENDBRANCH   3   4
ENDBRANCH   2   3
ENDBRANCH   1   2
BRANCH   1  28
ATOM     28  C   UNL A   1      46.018  23.350  34.924  1.00  0.00     0.002 C 
BRANCH  28  29
ATOM     29  C   UNL A   1      47.527  23.393  35.164  1.00  0.00     0.021 C 
BRANCH  29  30
ATOM     30  C   UNL A   1      48.185  24.737  34.871  1.00  0.00     0.116 C 
BRANCH  30  31
ATOM     31  N   UNL A   1      48.284  25.580  36.051  1.00  0.00    -0.352 N 
ATOM     32  C   UNL A   1      47.564  26.706  36.377  1.00  0.00     0.251 C 
ATOM     33  H   UNL A   1      48.964  25.309  36.710  1.00  0.00     0.163 HD
ATOM     34  O   UNL A   1      47.908  27.388  37.338  1.00  0.00    -0.269 OA
BRANCH  32  35
ATOM     35  C   UNL A   1      46.400  27.106  35.552  1.00  0.00     0.039 A 
ATOM     36  C   UNL A   1      45.170  26.481  35.770  1.00  0.00     0.014 A 
ATOM     37  C   UNL A   1      46.517  28.090  34.566  1.00  0.00     0.014 A 
ATOM     38  C   UNL A   1      44.047  26.883  35.039  1.00  0.00     0.010 A 
ATOM     39  C   UNL A   1      45.382  28.544  33.896  1.00  0.00     0.010 A 
ATOM     40  C   UNL A   1      44.134  27.941  34.119  1.00  0.00    -0.014 A 
BRANCH  40  41
ATOM     41  C   UNL A   1      42.940  28.406  33.361  1.00  0.00     0.031 A 
ATOM     42  C   UNL A   1      41.923  29.295  34.029  1.00  0.00     0.074 A 
ATOM     43  C   UNL A   1      42.747  27.997  32.090  1.00  0.00     0.049 A 
ATOM     44  N   UNL A   1      40.785  29.747  33.566  1.00  0.00    -0.248 NA
ATOM     45  C   UNL A   1      42.214  29.705  35.412  1.00  0.00     0.031 C 
ATOM     46  C   UNL A   1      43.639  27.106  31.344  1.00  0.00     0.029 A 
ATOM     47  N   UNL A   1      41.736  28.270  31.201  1.00  0.00    -0.354 N 
ATOM     48  C   UNL A   1      40.226  30.495  34.598  1.00  0.00     0.074 A 
ATOM     49  C   UNL A   1      41.114  30.366  35.735  1.00  0.00     0.031 C 
ATOM     50  C   UNL A   1      43.147  26.925  30.108  1.00  0.00     0.029 A 
ATOM     51  C   UNL A   1      41.885  27.647  29.983  1.00  0.00     0.049 A 
ATOM     52  H   UNL A   1      40.976  28.857  31.416  1.00  0.00     0.167 HD
ATOM     53  C   UNL A   1      39.097  31.247  34.591  1.00  0.00     0.034 A 
ATOM     54  C   UNL A   1      41.089  27.649  28.893  1.00  0.00     0.034 A 
ATOM     55  C   UNL A   1      38.221  31.369  33.451  1.00  0.00     0.049 A 
ATOM     56  C   UNL A   1      39.821  28.469  28.919  1.00  0.00     0.074 A 
ATOM     57  C   UNL A   1      37.056  32.108  33.331  1.00  0.00     0.029 A 
ATOM     58  N   UNL A   1      38.415  30.737  32.228  1.00  0.00    -0.354 N 
ATOM     59  N   UNL A   1      39.324  29.194  29.896  1.00  0.00    -0.248 NA
ATOM     60  C   UNL A   1      39.019  28.487  27.690  1.00  0.00     0.031 C 
ATOM     61  C   UNL A   1      36.517  31.878  32.061  1.00  0.00     0.029 A 
ATOM     62  C   UNL A   1      37.386  31.061  31.356  1.00  0.00     0.049 A 
ATOM     63  H   UNL A   1      39.172  30.147  32.012  1.00  0.00     0.167 HD
ATOM     64  C   UNL A   1      38.176  29.789  29.378  1.00  0.00     0.074 A 
ATOM     65  C   UNL A   1      38.065  29.351  28.003  1.00  0.00     0.031 C 
ATOM     66  C   UNL A   1      37.291  30.623  29.984  1.00  0.00     0.034 A 
BRANCH  53  67
ATOM     67  C   UNL A   1      38.750  31.986  35.862  1.00  0.00     0.023 A 
ATOM     68  C   UNL A   1      38.104  31.340  36.932  1.00  0.00     0.031 A 
ATOM     69  C   UNL A   1      39.044  33.354  36.002  1.00  0.00     0.131 A 
ATOM     70  C   UNL A   1      37.707  32.074  38.058  1.00  0.00     0.055 A 
ATOM     71  C   UNL A   1      38.723  34.059  37.165  1.00  0.00     0.041 A 
ATOM     72  F   UNL A   1      39.640  34.031  35.009  1.00  0.00    -0.206 F 
ATOM     73  C   UNL A   1      38.036  33.424  38.195  1.00  0.00     0.022 A 
BRANCH  70  74
ATOM     74  S   UNL A   1      36.630  31.271  39.277  1.00  0.00     0.124 S 
ATOM     75  O   UNL A   1      35.473  32.162  39.278  1.00  0.00    -0.237 OA
ATOM     76  O   UNL A   1      36.419  29.952  38.694  1.00  0.00    -0.237 OA
ATOM     77  O   UNL A   1      37.425  31.293  40.503  1.00  0.00    -0.744 OA
ENDBRANCH  70  74
ENDBRANCH  53  67
BRANCH  54  78
ATOM     78  C   UNL A   1      41.446  26.845  27.686  1.00  0.00     0.023 A 
ATOM     79  C   UNL A   1      41.335  25.446  27.687  1.00  0.00     0.031 A 
ATOM     80  C   UNL A   1      41.975  27.461  26.537  1.00  0.00     0.131 A 
ATOM     81  C   UNL A   1      41.816  24.704  26.595  1.00  0.00     0.055 A 
ATOM     82  C   UNL A   1      42.389  26.722  25.427  1.00  0.00     0.041 A 
ATOM     83  F   UNL A   1      42.100  28.796  26.479  1.00  0.00    -0.206 F 
ATOM     84  C   UNL A   1      42.328  25.334  25.460  1.00  0.00     0.022 A 
BRANCH  81  85
ATOM     85  S   UNL A   1      41.877  22.896  26.736  1.00  0.00     0.124 S 
ATOM     86  O   UNL A   1      43.095  22.582  25.997  1.00  0.00    -0.237 OA
ATOM     87  O   UNL A   1      41.936  22.707  28.182  1.00  0.00    -0.237 OA
ATOM     88  O   UNL A   1      40.632  22.464  26.102  1.00  0.00    -0.744 OA
ENDBRANCH  81  85
ENDBRANCH  54  78
BRANCH  66  89
ATOM     89  C   UNL A   1      36.169  31.170  29.133  1.00  0.00     0.023 A 
ATOM     90  C   UNL A   1      35.164  30.343  28.601  1.00  0.00     0.031 A 
ATOM     91  C   UNL A   1      36.123  32.543  28.829  1.00  0.00     0.131 A 
ATOM     92  C   UNL A   1      34.200  30.883  27.736  1.00  0.00     0.055 A 
ATOM     93  C   UNL A   1      35.121  33.086  28.023  1.00  0.00     0.041 A 
ATOM     94  F   UNL A   1      37.057  33.381  29.308  1.00  0.00    -0.206 F 
ATOM     95  C   UNL A   1      34.161  32.252  27.459  1.00  0.00     0.022 A 
BRANCH  92  96
ATOM     96  S   UNL A   1      33.061  29.753  26.888  1.00  0.00     0.124 S 
ATOM     97  O   UNL A   1      33.637  29.692  25.549  1.00  0.00    -0.237 OA
ATOM     98  O   UNL A   1      33.176  28.538  27.688  1.00  0.00    -0.237 OA
ATOM     99  O   UNL A   1      31.771  30.435  26.978  1.00  0.00    -0.744 OA
ENDBRANCH  92  96
ENDBRANCH  66  89
ENDBRANCH  40  41
ENDBRANCH  32  35
ENDBRANCH  30  31
ENDBRANCH  29  30
ENDBRANCH  28  29
ENDBRANCH   1  28
TORSDOF 20
ENDMDL
MODEL 2
REMARK VINA RESULT:     -10.3      3.143      8.597
REMARK SMILES O=C(CCN1C(=O)/C(=C/c2cc(Br)cc(Br)c2O)SC1=S)NCCCCCCNC(=O)c1ccc(-c2c3nc(c(-c4cc(S(=O)(=O)[O-])ccc4F)c4ccc([nH]4)c(-c4cc(S(=O)(=O)[O-])ccc4F)c4nc(c(-c5cc(S(=O)(=O)[O-])ccc5F)c5ccc2[nH]5)C=C4)C=C3)cc1
REMARK SMILES IDX 25 1 24 2 23 3 22 4 1 5 2 6 3 8 4 9 5 10 6 11 20 12 7 13
REMARK SMILES IDX 8 14 19 15 21 16 9 17 10 18 11 19 17 20 12 21 15 22 13 23
REMARK SMILES IDX 14 24 16 25 18 26 26 28 27 29 28 30 29 31 30 32 31 34 32 35
REMARK SMILES IDX 33 36 94 37 34 38 93 39 35 40 36 41 37 42 87 43 38 44 92 45
REMARK SMILES IDX 86 46 88 47 39 48 91 49 85 50 84 51 40 53 72 54 52 55 71 56
REMARK SMILES IDX 53 57 56 58 70 59 89 60 54 61 55 62 69 64 90 65 57 66 41 67
REMARK SMILES IDX 42 68 50 69 43 70 49 71 51 72 48 73 44 74 45 75 46 76 47 77
REMARK SMILES IDX 73 78 74 79 82 80 75 81 81 82 83 83 80 84 76 85 77 86 78 87
REMARK SMILES IDX 79 88 58 89 59 90 67 91 60 92 66 93 68 94 65 95 61 96 62 97
REMARK SMILES IDX 63 98 64 99
REMARK H PARENT 22 7 18 27 29 33 88 52 56 63
REMARK Flexibility Score: inf
ROOT
ATOM      1  C   UNL A   1      45.683  20.334  34.909  1.00  0.00     0.002 C 
ENDROOT
BRANCH   1   2
ATOM      2  C   UNL A   1      45.863  19.825  36.346  1.00  0.00     0.021 C 
BRANCH   2   3
ATOM      3  C   UNL A   1      45.200  18.477  36.646  1.00  0.00     0.116 C 
BRANCH   3   4
ATOM      4  N   UNL A   1      45.698  17.906  37.886  1.00  0.00    -0.356 N 
ATOM      5  O   UNL A   1      43.664  17.274  38.724  1.00  0.00    -0.275 OA
ATOM      6  C   UNL A   1      44.880  17.385  38.856  1.00  0.00     0.221 C 
ATOM      7  H   UNL A   1      46.670  17.892  38.038  1.00  0.00     0.163 HD
BRANCH   6   8
ATOM      8  C   UNL A   1      45.550  17.079  40.181  1.00  0.00     0.122 C 
BRANCH   8   9
ATOM      9  C   UNL A   1      46.143  18.251  40.963  1.00  0.00     0.137 C 
BRANCH   9  10
ATOM     10  N   UNL A   1      46.954  19.243  40.235  1.00  0.00    -0.292 N 
ATOM     11  C   UNL A   1      48.263  18.902  39.914  1.00  0.00     0.266 C 
ATOM     12  C   UNL A   1      46.631  20.568  40.022  1.00  0.00     0.148 C 
ATOM     13  O   UNL A   1      48.842  17.866  40.228  1.00  0.00    -0.268 OA
ATOM     14  C   UNL A   1      48.914  19.985  39.131  1.00  0.00     0.081 C 
ATOM     15  S   UNL A   1      47.814  21.285  38.943  1.00  0.00    -0.054 SA
ATOM     16  S   UNL A   1      45.356  21.455  40.617  1.00  0.00    -0.052 S 
ATOM     17  C   UNL A   1      50.159  19.860  38.640  1.00  0.00     0.033 C 
BRANCH  17  18
ATOM     18  C   UNL A   1      50.806  20.749  37.653  1.00  0.00     0.020 A 
ATOM     19  C   UNL A   1      51.398  21.958  38.053  1.00  0.00     0.027 A 
ATOM     20  C   UNL A   1      50.791  20.442  36.277  1.00  0.00     0.137 A 
ATOM     21  C   UNL A   1      51.843  22.884  37.107  1.00  0.00     0.019 A 
ATOM     22  C   UNL A   1      51.267  21.370  35.336  1.00  0.00     0.061 A 
ATOM     23  Br  UNL A   1      52.510  24.557  37.685  1.00  0.00    -0.051 Br
ATOM     24  C   UNL A   1      51.768  22.603  35.748  1.00  0.00     0.035 A 
ATOM     25  Br  UNL A   1      51.226  21.003  33.473  1.00  0.00    -0.047 Br
BRANCH  20  26
ATOM     26  O   UNL A   1      50.295  19.256  35.796  1.00  0.00    -0.506 OA
ATOM     27  H   UNL A   1      50.876  18.622  35.425  1.00  0.00     0.293 HD
ENDBRANCH  20  26
ENDBRANCH  17  18
ENDBRANCH   9  10
ENDBRANCH   8   9
ENDBRANCH   6   8
ENDBRANCH   3   4
ENDBRANCH   2   3
ENDBRANCH   1   2
BRANCH   1  28
ATOM     28  C   UNL A   1      46.085  21.791  34.667  1.00  0.00     0.002 C 
BRANCH  28  29
ATOM     29  C   UNL A   1      47.438  22.193  35.253  1.00  0.00     0.021 C 
BRANCH  29  30
ATOM     30  C   UNL A   1      47.902  23.600  34.891  1.00  0.00     0.116 C 
BRANCH  30  31
ATOM     31  N   UNL A   1      48.112  24.437  36.061  1.00  0.00    -0.352 N 
ATOM     32  C   UNL A   1      47.555  25.657  36.367  1.00  0.00     0.251 C 
ATOM     33  H   UNL A   1      48.745  24.083  36.727  1.00  0.00     0.163 HD
ATOM     34  O   UNL A   1      47.986  26.297  37.322  1.00  0.00    -0.269 OA
BRANCH  32  35
ATOM     35  C   UNL A   1      46.462  26.204  35.530  1.00  0.00     0.039 A 
ATOM     36  C   UNL A   1      45.197  25.614  35.599  1.00  0.00     0.014 A 
ATOM     37  C   UNL A   1      46.678  27.291  34.678  1.00  0.00     0.014 A 
ATOM     38  C   UNL A   1      44.139  26.149  34.858  1.00  0.00     0.010 A 
ATOM     39  C   UNL A   1      45.606  27.871  34.003  1.00  0.00     0.010 A 
ATOM     40  C   UNL A   1      44.324  27.304  34.078  1.00  0.00    -0.014 A 
BRANCH  40  41
ATOM     41  C   UNL A   1      43.199  27.908  33.314  1.00  0.00     0.031 A 
ATOM     42  C   UNL A   1      43.009  27.570  31.858  1.00  0.00     0.074 A 
ATOM     43  C   UNL A   1      42.374  28.791  33.914  1.00  0.00     0.049 A 
ATOM     44  N   UNL A   1      42.138  28.043  31.003  1.00  0.00    -0.248 NA
ATOM     45  C   UNL A   1      43.943  26.589  31.283  1.00  0.00     0.031 C 
ATOM     46  C   UNL A   1      42.476  29.230  35.308  1.00  0.00     0.029 A 
ATOM     47  N   UNL A   1      41.292  29.484  33.429  1.00  0.00    -0.354 N 
ATOM     48  C   UNL A   1      42.418  27.417  29.792  1.00  0.00     0.074 A 
ATOM     49  C   UNL A   1      43.589  26.594  30.007  1.00  0.00     0.031 C 
ATOM     50  C   UNL A   1      41.486  30.099  35.568  1.00  0.00     0.029 A 
ATOM     51  C   UNL A   1      40.705  30.316  34.355  1.00  0.00     0.049 A 
ATOM     52  H   UNL A   1      40.968  29.394  32.504  1.00  0.00     0.167 HD
ATOM     53  C   UNL A   1      41.743  27.494  28.617  1.00  0.00     0.034 A 
ATOM     54  C   UNL A   1      39.662  31.164  34.236  1.00  0.00     0.034 A 
ATOM     55  C   UNL A   1      40.575  28.317  28.415  1.00  0.00     0.049 A 
ATOM     56  C   UNL A   1      38.946  31.256  32.910  1.00  0.00     0.074 A 
ATOM     57  C   UNL A   1      39.811  28.465  27.270  1.00  0.00     0.029 A 
ATOM     58  N   UNL A   1      39.998  29.131  29.382  1.00  0.00    -0.354 N 
ATOM     59  N   UNL A   1      39.207  30.633  31.783  1.00  0.00    -0.248 NA
ATOM     60  C   UNL A   1      37.781  32.147  32.847  1.00  0.00     0.031 C 
ATOM     61  C   UNL A   1      38.811  29.408  27.526  1.00  0.00     0.029 A 
ATOM     62  C   UNL A   1      38.898  29.791  28.856  1.00  0.00     0.049 A 
ATOM     63  H   UNL A   1      40.324  29.225  30.306  1.00  0.00     0.167 HD
ATOM     64  C   UNL A   1      38.210  31.027  30.894  1.00  0.00     0.074 A 
ATOM     65  C   UNL A   1      37.337  31.924  31.620  1.00  0.00     0.031 C 
ATOM     66  C   UNL A   1      38.030  30.678  29.593  1.00  0.00     0.034 A 
BRANCH  53  67
ATOM     67  C   UNL A   1      42.264  26.668  27.464  1.00  0.00     0.023 A 
ATOM     68  C   UNL A   1      41.871  25.329  27.287  1.00  0.00     0.031 A 
ATOM     69  C   UNL A   1      43.179  27.211  26.545  1.00  0.00     0.131 A 
ATOM     70  C   UNL A   1      42.446  24.558  26.267  1.00  0.00     0.055 A 
ATOM     71  C   UNL A   1      43.682  26.461  25.479  1.00  0.00     0.041 A 
ATOM     72  F   UNL A   1      43.609  28.475  26.673  1.00  0.00    -0.206 F 
ATOM     73  C   UNL A   1      43.328  25.122  25.343  1.00  0.00     0.022 A 
BRANCH  70  74
ATOM     74  S   UNL A   1      42.132  22.772  26.251  1.00  0.00     0.124 S 
ATOM     75  O   UNL A   1      42.659  22.392  24.943  1.00  0.00    -0.237 OA
ATOM     76  O   UNL A   1      42.891  22.306  27.406  1.00  0.00    -0.237 OA
ATOM     77  O   UNL A   1      40.679  22.678  26.380  1.00  0.00    -0.744 OA
ENDBRANCH  70  74
ENDBRANCH  53  67
BRANCH  54  78
ATOM     78  C   UNL A   1      39.231  32.009  35.390  1.00  0.00     0.023 A 
ATOM     79  C   UNL A   1      39.679  33.332  35.529  1.00  0.00     0.031 A 
ATOM     80  C   UNL A   1      38.421  31.480  36.411  1.00  0.00     0.131 A 
ATOM     81  C   UNL A   1      39.380  34.055  36.695  1.00  0.00     0.055 A 
ATOM     82  C   UNL A   1      38.071  32.226  37.538  1.00  0.00     0.041 A 
ATOM     83  F   UNL A   1      37.960  30.222  36.330  1.00  0.00    -0.206 F 
ATOM     84  C   UNL A   1      38.566  33.516  37.694  1.00  0.00     0.022 A 
BRANCH  81  85
ATOM     85  S   UNL A   1      40.175  35.666  36.945  1.00  0.00     0.124 S 
ATOM     86  O   UNL A   1      39.603  36.452  35.858  1.00  0.00    -0.237 OA
ATOM     87  O   UNL A   1      39.735  36.016  38.292  1.00  0.00    -0.237 OA
ATOM     88  O   UNL A   1      41.600  35.365  36.815  1.00  0.00    -0.744 OA
ENDBRANCH  81  85
ENDBRANCH  54  78
BRANCH  66  89
ATOM     89  C   UNL A   1      36.800  31.216  28.901  1.00  0.00     0.023 A 
ATOM     90  C   UNL A   1      35.739  30.381  28.508  1.00  0.00     0.031 A 
ATOM     91  C   UNL A   1      36.702  32.588  28.608  1.00  0.00     0.131 A 
ATOM     92  C   UNL A   1      34.663  30.913  27.782  1.00  0.00     0.055 A 
ATOM     93  C   UNL A   1      35.596  33.123  27.945  1.00  0.00     0.041 A 
ATOM     94  F   UNL A   1      37.685  33.434  28.958  1.00  0.00    -0.206 F 
ATOM     95  C   UNL A   1      34.576  32.281  27.513  1.00  0.00     0.022 A 
BRANCH  92  96
ATOM     96  S   UNL A   1      33.430  29.773  27.092  1.00  0.00     0.124 S 
ATOM     97  O   UNL A   1      32.208  30.566  27.168  1.00  0.00    -0.237 OA
ATOM     98  O   UNL A   1      33.949  29.529  25.750  1.00  0.00    -0.237 OA
ATOM     99  O   UNL A   1      33.482  28.624  27.995  1.00  0.00    -0.744 OA
ENDBRANCH  92  96
ENDBRANCH  66  89
ENDBRANCH  40  41
ENDBRANCH  32  35
ENDBRANCH  30  31
ENDBRANCH  29  30
ENDBRANCH  28  29
ENDBRANCH   1  28
TORSDOF 20
ENDMDL
MODEL 3
REMARK VINA RESULT:      -9.9     11.940     19.574
REMARK SMILES O=C(CCN1C(=O)/C(=C/c2cc(Br)cc(Br)c2O)SC1=S)NCCCCCCNC(=O)c1ccc(-c2c3nc(c(-c4cc(S(=O)(=O)[O-])ccc4F)c4ccc([nH]4)c(-c4cc(S(=O)(=O)[O-])ccc4F)c4nc(c(-c5cc(S(=O)(=O)[O-])ccc5F)c5ccc2[nH]5)C=C4)C=C3)cc1
REMARK SMILES IDX 25 1 24 2 23 3 22 4 1 5 2 6 3 8 4 9 5 10 6 11 20 12 7 13
REMARK SMILES IDX 8 14 19 15 21 16 9 17 10 18 11 19 17 20 12 21 15 22 13 23
REMARK SMILES IDX 14 24 16 25 18 26 26 28 27 29 28 30 29 31 30 32 31 34 32 35
REMARK SMILES IDX 33 36 94 37 34 38 93 39 35 40 36 41 37 42 87 43 38 44 92 45
REMARK SMILES IDX 86 46 88 47 39 48 91 49 85 50 84 51 40 53 72 54 52 55 71 56
REMARK SMILES IDX 53 57 56 58 70 59 89 60 54 61 55 62 69 64 90 65 57 66 41 67
REMARK SMILES IDX 42 68 50 69 43 70 49 71 51 72 48 73 44 74 45 75 46 76 47 77
REMARK SMILES IDX 73 78 74 79 82 80 75 81 81 82 83 83 80 84 76 85 77 86 78 87
REMARK SMILES IDX 79 88 58 89 59 90 67 91 60 92 66 93 68 94 65 95 61 96 62 97
REMARK SMILES IDX 63 98 64 99
REMARK H PARENT 22 7 18 27 29 33 88 52 56 63
REMARK Flexibility Score: inf
ROOT
ATOM      1  C   UNL A   1      44.339  42.796  30.062  1.00  0.00     0.002 C 
ENDROOT
BRANCH   1   2
ATOM      2  C   UNL A   1      43.794  41.371  29.891  1.00  0.00     0.021 C 
BRANCH   2   3
ATOM      3  C   UNL A   1      43.367  41.006  28.466  1.00  0.00     0.116 C 
BRANCH   3   4
ATOM      4  N   UNL A   1      44.515  40.879  27.584  1.00  0.00    -0.356 N 
ATOM      5  O   UNL A   1      43.351  40.981  25.615  1.00  0.00    -0.275 OA
ATOM      6  C   UNL A   1      44.412  40.832  26.217  1.00  0.00     0.221 C 
ATOM      7  H   UNL A   1      45.411  40.825  27.987  1.00  0.00     0.163 HD
BRANCH   6   8
ATOM      8  C   UNL A   1      45.675  40.435  25.480  1.00  0.00     0.122 C 
BRANCH   8   9
ATOM      9  C   UNL A   1      46.577  41.558  24.964  1.00  0.00     0.137 C 
BRANCH   9  10
ATOM     10  N   UNL A   1      46.019  42.518  23.995  1.00  0.00    -0.292 N 
ATOM     11  C   UNL A   1      46.151  42.226  22.643  1.00  0.00     0.266 C 
ATOM     12  C   UNL A   1      45.567  43.792  24.272  1.00  0.00     0.148 C 
ATOM     13  O   UNL A   1      46.743  41.264  22.161  1.00  0.00    -0.268 OA
ATOM     14  C   UNL A   1      45.482  43.262  21.811  1.00  0.00     0.081 C 
ATOM     15  S   UNL A   1      44.821  44.466  22.834  1.00  0.00    -0.054 SA
ATOM     16  S   UNL A   1      45.641  44.655  25.692  1.00  0.00    -0.052 S 
ATOM     17  C   UNL A   1      45.409  43.162  20.473  1.00  0.00     0.033 C 
BRANCH  17  18
ATOM     18  C   UNL A   1      44.568  43.985  19.578  1.00  0.00     0.020 A 
ATOM     19  C   UNL A   1      45.083  45.139  18.966  1.00  0.00     0.027 A 
ATOM     20  C   UNL A   1      43.211  43.669  19.362  1.00  0.00     0.137 A 
ATOM     21  C   UNL A   1      44.245  46.016  18.273  1.00  0.00     0.019 A 
ATOM     22  C   UNL A   1      42.384  44.545  18.639  1.00  0.00     0.061 A 
ATOM     23  Br  UNL A   1      44.953  47.627  17.581  1.00  0.00    -0.051 Br
ATOM     24  C   UNL A   1      42.894  45.733  18.118  1.00  0.00     0.035 A 
ATOM     25  Br  UNL A   1      40.543  44.170  18.364  1.00  0.00    -0.047 Br
BRANCH  20  26
ATOM     26  O   UNL A   1      42.635  42.529  19.862  1.00  0.00    -0.506 OA
ATOM     27  H   UNL A   1      42.686  42.342  20.779  1.00  0.00     0.293 HD
ENDBRANCH  20  26
ENDBRANCH  17  18
ENDBRANCH   9  10
ENDBRANCH   8   9
ENDBRANCH   6   8
ENDBRANCH   3   4
ENDBRANCH   2   3
ENDBRANCH   1   2
BRANCH   1  28
ATOM     28  C   UNL A   1      45.394  42.975  31.158  1.00  0.00     0.002 C 
BRANCH  28  29
ATOM     29  C   UNL A   1      44.969  43.872  32.321  1.00  0.00     0.021 C 
BRANCH  29  30
ATOM     30  C   UNL A   1      45.853  43.777  33.560  1.00  0.00     0.116 C 
BRANCH  30  31
ATOM     31  N   UNL A   1      45.085  43.654  34.787  1.00  0.00    -0.352 N 
ATOM     32  C   UNL A   1      44.291  42.615  35.213  1.00  0.00     0.251 C 
ATOM     33  H   UNL A   1      45.139  44.423  35.400  1.00  0.00     0.163 HD
ATOM     34  O   UNL A   1      43.579  42.763  36.203  1.00  0.00    -0.269 OA
BRANCH  32  35
ATOM     35  C   UNL A   1      44.274  41.338  34.462  1.00  0.00     0.039 A 
ATOM     36  C   UNL A   1      45.301  40.415  34.674  1.00  0.00     0.014 A 
ATOM     37  C   UNL A   1      43.253  41.049  33.551  1.00  0.00     0.014 A 
ATOM     38  C   UNL A   1      45.274  39.182  34.015  1.00  0.00     0.010 A 
ATOM     39  C   UNL A   1      43.186  39.789  32.958  1.00  0.00     0.010 A 
ATOM     40  C   UNL A   1      44.199  38.843  33.176  1.00  0.00    -0.014 A 
BRANCH  40  41
ATOM     41  C   UNL A   1      44.136  37.519  32.498  1.00  0.00     0.031 A 
ATOM     42  C   UNL A   1      44.970  37.261  31.270  1.00  0.00     0.074 A 
ATOM     43  C   UNL A   1      43.302  36.564  32.959  1.00  0.00     0.049 A 
ATOM     44  N   UNL A   1      45.004  36.206  30.497  1.00  0.00    -0.248 NA
ATOM     45  C   UNL A   1      45.863  38.349  30.839  1.00  0.00     0.031 C 
ATOM     46  C   UNL A   1      42.416  36.704  34.117  1.00  0.00     0.029 A 
ATOM     47  N   UNL A   1      43.057  35.291  32.509  1.00  0.00    -0.354 N 
ATOM     48  C   UNL A   1      45.920  36.501  29.492  1.00  0.00     0.074 A 
ATOM     49  C   UNL A   1      46.355  37.864  29.710  1.00  0.00     0.031 C 
ATOM     50  C   UNL A   1      41.743  35.556  34.296  1.00  0.00     0.029 A 
ATOM     51  C   UNL A   1      42.111  34.613  33.245  1.00  0.00     0.049 A 
ATOM     52  H   UNL A   1      43.515  34.898  31.730  1.00  0.00     0.167 HD
ATOM     53  C   UNL A   1      46.382  35.701  28.497  1.00  0.00     0.034 A 
ATOM     54  C   UNL A   1      41.593  33.378  33.085  1.00  0.00     0.034 A 
ATOM     55  C   UNL A   1      45.942  34.343  28.290  1.00  0.00     0.049 A 
ATOM     56  C   UNL A   1      42.101  32.517  31.953  1.00  0.00     0.074 A 
ATOM     57  C   UNL A   1      46.348  33.442  27.320  1.00  0.00     0.029 A 
ATOM     58  N   UNL A   1      44.996  33.685  29.069  1.00  0.00    -0.354 N 
ATOM     59  N   UNL A   1      42.990  32.804  31.029  1.00  0.00    -0.248 NA
ATOM     60  C   UNL A   1      41.551  31.159  31.855  1.00  0.00     0.031 C 
ATOM     61  C   UNL A   1      45.609  32.264  27.476  1.00  0.00     0.029 A 
ATOM     62  C   UNL A   1      44.799  32.398  28.592  1.00  0.00     0.049 A 
ATOM     63  H   UNL A   1      44.535  34.077  29.844  1.00  0.00     0.167 HD
ATOM     64  C   UNL A   1      43.135  31.644  30.271  1.00  0.00     0.074 A 
ATOM     65  C   UNL A   1      42.256  30.654  30.856  1.00  0.00     0.031 C 
ATOM     66  C   UNL A   1      43.925  31.417  29.189  1.00  0.00     0.034 A 
BRANCH  53  67
ATOM     67  C   UNL A   1      47.412  36.287  27.560  1.00  0.00     0.023 A 
ATOM     68  C   UNL A   1      48.790  36.149  27.807  1.00  0.00     0.031 A 
ATOM     69  C   UNL A   1      47.019  37.011  26.421  1.00  0.00     0.131 A 
ATOM     70  C   UNL A   1      49.720  36.786  26.974  1.00  0.00     0.055 A 
ATOM     71  C   UNL A   1      47.953  37.570  25.546  1.00  0.00     0.041 A 
ATOM     72  F   UNL A   1      45.719  37.196  26.142  1.00  0.00    -0.206 F 
ATOM     73  C   UNL A   1      49.313  37.474  25.829  1.00  0.00     0.022 A 
BRANCH  70  74
ATOM     74  S   UNL A   1      51.458  36.824  27.488  1.00  0.00     0.124 S 
ATOM     75  O   UNL A   1      51.566  35.582  28.249  1.00  0.00    -0.237 OA
ATOM     76  O   UNL A   1      52.166  36.856  26.214  1.00  0.00    -0.237 OA
ATOM     77  O   UNL A   1      51.553  38.044  28.286  1.00  0.00    -0.744 OA
ENDBRANCH  70  74
ENDBRANCH  53  67
BRANCH  54  78
ATOM     78  C   UNL A   1      40.527  32.873  34.001  1.00  0.00     0.023 A 
ATOM     79  C   UNL A   1      39.184  33.244  33.827  1.00  0.00     0.031 A 
ATOM     80  C   UNL A   1      40.847  32.070  35.110  1.00  0.00     0.131 A 
ATOM     81  C   UNL A   1      38.226  32.877  34.785  1.00  0.00     0.055 A 
ATOM     82  C   UNL A   1      39.878  31.651  36.024  1.00  0.00     0.041 A 
ATOM     83  F   UNL A   1      42.114  31.681  35.325  1.00  0.00    -0.206 F 
ATOM     84  C   UNL A   1      38.561  32.071  35.875  1.00  0.00     0.022 A 
BRANCH  81  85
ATOM     85  S   UNL A   1      36.556  33.577  34.654  1.00  0.00     0.124 S 
ATOM     86  O   UNL A   1      35.867  32.555  33.874  1.00  0.00    -0.237 OA
ATOM     87  O   UNL A   1      36.164  33.689  36.055  1.00  0.00    -0.237 OA
ATOM     88  O   UNL A   1      36.775  34.848  33.965  1.00  0.00    -0.744 OA
ENDBRANCH  81  85
ENDBRANCH  54  78
BRANCH  66  89
ATOM     89  C   UNL A   1      43.922  30.018  28.619  1.00  0.00     0.023 A 
ATOM     90  C   UNL A   1      43.075  29.645  27.560  1.00  0.00     0.031 A 
ATOM     91  C   UNL A   1      44.766  29.035  29.165  1.00  0.00     0.131 A 
ATOM     92  C   UNL A   1      43.039  28.310  27.131  1.00  0.00     0.055 A 
ATOM     93  C   UNL A   1      44.775  27.723  28.688  1.00  0.00     0.041 A 
ATOM     94  F   UNL A   1      45.596  29.332  30.179  1.00  0.00    -0.206 F 
ATOM     95  C   UNL A   1      43.896  27.351  27.676  1.00  0.00     0.022 A 
BRANCH  92  96
ATOM     96  S   UNL A   1      41.775  27.816  25.926  1.00  0.00     0.124 S 
ATOM     97  O   UNL A   1      40.647  28.659  26.308  1.00  0.00    -0.237 OA
ATOM     98  O   UNL A   1      42.413  28.143  24.654  1.00  0.00    -0.237 OA
ATOM     99  O   UNL A   1      41.597  26.388  26.181  1.00  0.00    -0.744 OA
ENDBRANCH  92  96
ENDBRANCH  66  89
ENDBRANCH  40  41
ENDBRANCH  32  35
ENDBRANCH  30  31
ENDBRANCH  29  30
ENDBRANCH  28  29
ENDBRANCH   1  28
TORSDOF 20
ENDMDL
