MODEL 1
REMARK VINA RESULT:      -9.8      0.000      0.000
REMARK SMILES O=C(CCCCCN1C(=O)/C(=C/c2cccc(O)c2)SC1=S)NCCCCCCNC(=O)c1ccc(-c2c3nc(c(-c4cc(S(=O)(=O)[O-])ccc4F)c4ccc([nH]4)c(-c4cc(S(=O)(=O)[O-])ccc4F)c4nc(c(-c5cc(S(=O)(=O)[O-])ccc5F)c5ccc2[nH]5)C=C4)C=C3)cc1
REMARK SMILES IDX 24 1 23 2 1 3 2 4 3 6 4 7 5 8 6 9 7 10 8 11 9 12 21 13 10 14
REMARK SMILES IDX 11 15 20 16 22 17 12 18 13 19 14 20 19 21 15 22 17 23 16 24
REMARK SMILES IDX 18 25 25 27 26 28 27 29 28 30 29 31 30 32 31 33 32 35 33 36
REMARK SMILES IDX 34 37 95 38 35 39 94 40 36 41 37 42 38 43 88 44 39 45 93 46
REMARK SMILES IDX 87 47 89 48 40 49 92 50 86 51 85 52 41 54 73 55 53 56 72 57
REMARK SMILES IDX 54 58 57 59 71 60 90 61 55 62 56 63 70 65 91 66 58 67 42 68
REMARK SMILES IDX 43 69 51 70 44 71 50 72 52 73 49 74 45 75 46 76 47 77 48 78
REMARK SMILES IDX 74 79 75 80 83 81 76 82 82 83 84 84 81 85 77 86 78 87 79 88
REMARK SMILES IDX 80 89 59 90 60 91 68 92 61 93 67 94 69 95 66 96 62 97 63 98
REMARK SMILES IDX 64 99 65 100
REMARK H PARENT 23 5 18 26 30 34 89 53 57 64
REMARK Flexibility Score: inf
ROOT
ATOM      1  C   UNL A   1      29.821  29.665  23.755  1.00  0.00     0.116 C 
ENDROOT
BRANCH   1   2
ATOM      2  N   UNL A   1      30.221  28.279  23.861  1.00  0.00    -0.356 N 
ATOM      3  O   UNL A   1      30.514  27.865  21.620  1.00  0.00    -0.275 OA
ATOM      4  C   UNL A   1      30.559  27.496  22.788  1.00  0.00     0.219 C 
ATOM      5  H   UNL A   1      30.251  27.873  24.757  1.00  0.00     0.163 HD
BRANCH   4   6
ATOM      6  C   UNL A   1      30.991  26.098  23.182  1.00  0.00     0.100 C 
BRANCH   6   7
ATOM      7  C   UNL A   1      31.787  26.063  24.487  1.00  0.00     0.010 C 
BRANCH   7   8
ATOM      8  C   UNL A   1      33.238  26.560  24.432  1.00  0.00     0.002 C 
BRANCH   8   9
ATOM      9  C   UNL A   1      34.231  25.855  25.366  1.00  0.00     0.022 C 
BRANCH   9  10
ATOM     10  C   UNL A   1      33.643  24.697  26.189  1.00  0.00     0.127 C 
BRANCH  10  11
ATOM     11  N   UNL A   1      33.988  23.386  25.634  1.00  0.00    -0.293 N 
ATOM     12  C   UNL A   1      32.960  22.582  25.164  1.00  0.00     0.266 C 
ATOM     13  C   UNL A   1      35.264  22.876  25.524  1.00  0.00     0.148 C 
ATOM     14  O   UNL A   1      31.787  22.903  25.051  1.00  0.00    -0.268 OA
ATOM     15  C   UNL A   1      33.483  21.237  24.817  1.00  0.00     0.081 C 
ATOM     16  S   UNL A   1      35.192  21.208  24.975  1.00  0.00    -0.054 SA
ATOM     17  S   UNL A   1      36.722  23.630  25.822  1.00  0.00    -0.052 S 
ATOM     18  C   UNL A   1      32.672  20.227  24.477  1.00  0.00     0.029 C 
BRANCH  18  19
ATOM     19  C   UNL A   1      33.116  18.853  24.224  1.00  0.00    -0.021 A 
ATOM     20  C   UNL A   1      32.997  18.297  22.942  1.00  0.00     0.008 A 
ATOM     21  C   UNL A   1      33.659  18.088  25.258  1.00  0.00     0.054 A 
ATOM     22  C   UNL A   1      33.390  16.979  22.705  1.00  0.00     0.004 A 
ATOM     23  C   UNL A   1      34.051  16.777  25.009  1.00  0.00     0.116 A 
ATOM     24  C   UNL A   1      33.917  16.213  23.743  1.00  0.00     0.046 A 
BRANCH  23  25
ATOM     25  O   UNL A   1      34.567  16.060  26.050  1.00  0.00    -0.508 OA
ATOM     26  H   UNL A   1      35.494  15.950  26.130  1.00  0.00     0.293 HD
ENDBRANCH  23  25
ENDBRANCH  18  19
ENDBRANCH  10  11
ENDBRANCH   9  10
ENDBRANCH   8   9
ENDBRANCH   7   8
ENDBRANCH   6   7
ENDBRANCH   4   6
ENDBRANCH   1   2
BRANCH   1  27
ATOM     27  C   UNL A   1      30.659  30.539  24.686  1.00  0.00     0.021 C 
BRANCH  27  28
ATOM     28  C   UNL A   1      31.918  29.860  25.252  1.00  0.00     0.002 C 
BRANCH  28  29
ATOM     29  C   UNL A   1      31.734  29.156  26.599  1.00  0.00     0.002 C 
BRANCH  29  30
ATOM     30  C   UNL A   1      33.024  28.918  27.385  1.00  0.00     0.021 C 
BRANCH  30  31
ATOM     31  C   UNL A   1      34.120  29.954  27.147  1.00  0.00     0.116 C 
BRANCH  31  32
ATOM     32  N   UNL A   1      33.977  31.122  28.002  1.00  0.00    -0.352 N 
ATOM     33  C   UNL A   1      34.800  31.564  29.011  1.00  0.00     0.251 C 
ATOM     34  H   UNL A   1      33.179  31.674  27.835  1.00  0.00     0.163 HD
ATOM     35  O   UNL A   1      34.433  32.476  29.746  1.00  0.00    -0.269 OA
BRANCH  33  36
ATOM     36  C   UNL A   1      36.109  30.909  29.226  1.00  0.00     0.039 A 
ATOM     37  C   UNL A   1      37.244  31.450  28.620  1.00  0.00     0.014 A 
ATOM     38  C   UNL A   1      36.220  29.782  30.045  1.00  0.00     0.014 A 
ATOM     39  C   UNL A   1      38.502  30.912  28.902  1.00  0.00     0.010 A 
ATOM     40  C   UNL A   1      37.481  29.296  30.384  1.00  0.00     0.010 A 
ATOM     41  C   UNL A   1      38.637  29.861  29.824  1.00  0.00    -0.014 A 
BRANCH  41  42
ATOM     42  C   UNL A   1      39.977  29.363  30.235  1.00  0.00     0.031 A 
ATOM     43  C   UNL A   1      40.628  28.231  29.489  1.00  0.00     0.074 A 
ATOM     44  C   UNL A   1      40.573  29.883  31.327  1.00  0.00     0.049 A 
ATOM     45  N   UNL A   1      41.747  27.605  29.748  1.00  0.00    -0.248 NA
ATOM     46  C   UNL A   1      39.908  27.719  28.314  1.00  0.00     0.031 C 
ATOM     47  C   UNL A   1      40.022  30.953  32.160  1.00  0.00     0.029 A 
ATOM     48  N   UNL A   1      41.765  29.573  31.934  1.00  0.00    -0.354 N 
ATOM     49  C   UNL A   1      41.865  26.620  28.771  1.00  0.00     0.074 A 
ATOM     50  C   UNL A   1      40.666  26.693  27.962  1.00  0.00     0.031 C 
ATOM     51  C   UNL A   1      40.878  31.221  33.157  1.00  0.00     0.029 A 
ATOM     52  C   UNL A   1      42.013  30.308  33.071  1.00  0.00     0.049 A 
ATOM     53  H   UNL A   1      42.386  28.891  31.588  1.00  0.00     0.167 HD
ATOM     54  C   UNL A   1      42.889  25.755  28.556  1.00  0.00     0.034 A 
ATOM     55  C   UNL A   1      43.023  30.238  33.962  1.00  0.00     0.034 A 
ATOM     56  C   UNL A   1      44.072  25.694  29.381  1.00  0.00     0.049 A 
ATOM     57  C   UNL A   1      44.126  29.235  33.736  1.00  0.00     0.074 A 
ATOM     58  C   UNL A   1      45.190  24.894  29.225  1.00  0.00     0.029 A 
ATOM     59  N   UNL A   1      44.285  26.448  30.529  1.00  0.00    -0.354 N 
ATOM     60  N   UNL A   1      44.253  28.352  32.772  1.00  0.00    -0.248 NA
ATOM     61  C   UNL A   1      45.224  29.226  34.710  1.00  0.00     0.031 C 
ATOM     62  C   UNL A   1      46.036  25.101  30.320  1.00  0.00     0.029 A 
ATOM     63  C   UNL A   1      45.494  26.099  31.115  1.00  0.00     0.049 A 
ATOM     64  H   UNL A   1      43.667  27.131  30.877  1.00  0.00     0.167 HD
ATOM     65  C   UNL A   1      45.458  27.697  33.013  1.00  0.00     0.074 A 
ATOM     66  C   UNL A   1      46.026  28.302  34.202  1.00  0.00     0.031 C 
ATOM     67  C   UNL A   1      46.043  26.692  32.313  1.00  0.00     0.034 A 
BRANCH  54  68
ATOM     68  C   UNL A   1      42.747  24.789  27.401  1.00  0.00     0.023 A 
ATOM     69  C   UNL A   1      42.048  23.576  27.536  1.00  0.00     0.031 A 
ATOM     70  C   UNL A   1      43.353  25.059  26.162  1.00  0.00     0.131 A 
ATOM     71  C   UNL A   1      42.053  22.642  26.490  1.00  0.00     0.055 A 
ATOM     72  C   UNL A   1      43.273  24.167  25.091  1.00  0.00     0.041 A 
ATOM     73  F   UNL A   1      44.053  26.189  25.974  1.00  0.00    -0.206 F 
ATOM     74  C   UNL A   1      42.638  22.940  25.258  1.00  0.00     0.022 A 
BRANCH  71  75
ATOM     75  S   UNL A   1      41.445  20.966  26.826  1.00  0.00     0.124 S 
ATOM     76  O   UNL A   1      41.799  20.271  25.591  1.00  0.00    -0.237 OA
ATOM     77  O   UNL A   1      42.202  20.588  28.013  1.00  0.00    -0.237 OA
ATOM     78  O   UNL A   1      40.011  21.158  27.033  1.00  0.00    -0.744 OA
ENDBRANCH  71  75
ENDBRANCH  54  68
BRANCH  55  79
ATOM     79  C   UNL A   1      43.021  31.118  35.166  1.00  0.00     0.023 A 
ATOM     80  C   UNL A   1      43.548  32.419  35.125  1.00  0.00     0.031 A 
ATOM     81  C   UNL A   1      42.506  30.656  36.392  1.00  0.00     0.131 A 
ATOM     82  C   UNL A   1      43.583  33.197  36.293  1.00  0.00     0.055 A 
ATOM     83  C   UNL A   1      42.491  31.454  37.537  1.00  0.00     0.041 A 
ATOM     84  F   UNL A   1      41.987  29.421  36.489  1.00  0.00    -0.206 F 
ATOM     85  C   UNL A   1      43.043  32.730  37.494  1.00  0.00     0.022 A 
BRANCH  82  86
ATOM     86  S   UNL A   1      44.420  34.806  36.242  1.00  0.00     0.124 S 
ATOM     87  O   UNL A   1      43.975  35.331  34.956  1.00  0.00    -0.237 OA
ATOM     88  O   UNL A   1      43.881  35.465  37.427  1.00  0.00    -0.237 OA
ATOM     89  O   UNL A   1      45.837  34.454  36.317  1.00  0.00    -0.744 OA
ENDBRANCH  82  86
ENDBRANCH  55  79
BRANCH  67  90
ATOM     90  C   UNL A   1      47.388  26.205  32.798  1.00  0.00     0.023 A 
ATOM     91  C   UNL A   1      47.513  25.081  33.635  1.00  0.00     0.031 A 
ATOM     92  C   UNL A   1      48.563  26.877  32.417  1.00  0.00     0.131 A 
ATOM     93  C   UNL A   1      48.779  24.696  34.104  1.00  0.00     0.055 A 
ATOM     94  C   UNL A   1      49.825  26.449  32.833  1.00  0.00     0.041 A 
ATOM     95  F   UNL A   1      48.505  27.960  31.625  1.00  0.00    -0.206 F 
ATOM     96  C   UNL A   1      49.937  25.360  33.692  1.00  0.00     0.022 A 
BRANCH  93  97
ATOM     97  S   UNL A   1      48.886  23.369  35.337  1.00  0.00     0.124 S 
ATOM     98  O   UNL A   1      48.949  24.122  36.586  1.00  0.00    -0.237 OA
ATOM     99  O   UNL A   1      47.653  22.624  35.103  1.00  0.00    -0.237 OA
ATOM    100  O   UNL A   1      50.114  22.663  34.975  1.00  0.00    -0.744 OA
ENDBRANCH  93  97
ENDBRANCH  67  90
ENDBRANCH  41  42
ENDBRANCH  33  36
ENDBRANCH  31  32
ENDBRANCH  30  31
ENDBRANCH  29  30
ENDBRANCH  28  29
ENDBRANCH  27  28
ENDBRANCH   1  27
TORSDOF 23
ENDMDL
MODEL 2
REMARK VINA RESULT:      -9.3      2.667      7.701
REMARK SMILES O=C(CCCCCN1C(=O)/C(=C/c2cccc(O)c2)SC1=S)NCCCCCCNC(=O)c1ccc(-c2c3nc(c(-c4cc(S(=O)(=O)[O-])ccc4F)c4ccc([nH]4)c(-c4cc(S(=O)(=O)[O-])ccc4F)c4nc(c(-c5cc(S(=O)(=O)[O-])ccc5F)c5ccc2[nH]5)C=C4)C=C3)cc1
REMARK SMILES IDX 24 1 23 2 1 3 2 4 3 6 4 7 5 8 6 9 7 10 8 11 9 12 21 13 10 14
REMARK SMILES IDX 11 15 20 16 22 17 12 18 13 19 14 20 19 21 15 22 17 23 16 24
REMARK SMILES IDX 18 25 25 27 26 28 27 29 28 30 29 31 30 32 31 33 32 35 33 36
REMARK SMILES IDX 34 37 95 38 35 39 94 40 36 41 37 42 38 43 88 44 39 45 93 46
REMARK SMILES IDX 87 47 89 48 40 49 92 50 86 51 85 52 41 54 73 55 53 56 72 57
REMARK SMILES IDX 54 58 57 59 71 60 90 61 55 62 56 63 70 65 91 66 58 67 42 68
REMARK SMILES IDX 43 69 51 70 44 71 50 72 52 73 49 74 45 75 46 76 47 77 48 78
REMARK SMILES IDX 74 79 75 80 83 81 76 82 82 83 84 84 81 85 77 86 78 87 79 88
REMARK SMILES IDX 80 89 59 90 60 91 68 92 61 93 67 94 69 95 66 96 62 97 63 98
REMARK SMILES IDX 64 99 65 100
REMARK H PARENT 23 5 18 26 30 34 89 53 57 64
REMARK Flexibility Score: inf
ROOT
ATOM      1  C   UNL A   1      30.031  28.871  23.860  1.00  0.00     0.116 C 
ENDROOT
BRANCH   1   2
ATOM      2  N   UNL A   1      31.012  27.815  23.736  1.00  0.00    -0.356 N 
ATOM      3  O   UNL A   1      30.788  27.443  21.480  1.00  0.00    -0.275 OA
ATOM      4  C   UNL A   1      31.330  27.202  22.552  1.00  0.00     0.219 C 
ATOM      5  H   UNL A   1      31.479  27.519  24.550  1.00  0.00     0.163 HD
BRANCH   4   6
ATOM      6  C   UNL A   1      32.428  26.168  22.692  1.00  0.00     0.100 C 
BRANCH   6   7
ATOM      7  C   UNL A   1      31.953  24.745  22.394  1.00  0.00     0.010 C 
BRANCH   7   8
ATOM      8  C   UNL A   1      30.711  24.253  23.150  1.00  0.00     0.002 C 
BRANCH   8   9
ATOM      9  C   UNL A   1      30.961  23.236  24.272  1.00  0.00     0.022 C 
BRANCH   9  10
ATOM     10  C   UNL A   1      32.108  22.244  24.010  1.00  0.00     0.127 C 
BRANCH  10  11
ATOM     11  N   UNL A   1      33.297  22.543  24.810  1.00  0.00    -0.293 N 
ATOM     12  C   UNL A   1      34.505  22.716  24.150  1.00  0.00     0.266 C 
ATOM     13  C   UNL A   1      33.323  22.682  26.181  1.00  0.00     0.148 C 
ATOM     14  O   UNL A   1      34.666  22.764  22.940  1.00  0.00    -0.268 OA
ATOM     15  C   UNL A   1      35.612  22.825  25.133  1.00  0.00     0.081 C 
ATOM     16  S   UNL A   1      34.984  22.854  26.730  1.00  0.00    -0.054 SA
ATOM     17  S   UNL A   1      32.046  22.714  27.254  1.00  0.00    -0.052 S 
ATOM     18  C   UNL A   1      36.897  22.851  24.754  1.00  0.00     0.029 C 
BRANCH  18  19
ATOM     19  C   UNL A   1      38.035  22.855  25.676  1.00  0.00    -0.021 A 
ATOM     20  C   UNL A   1      38.388  24.027  26.359  1.00  0.00     0.008 A 
ATOM     21  C   UNL A   1      38.779  21.690  25.880  1.00  0.00     0.054 A 
ATOM     22  C   UNL A   1      39.491  24.042  27.215  1.00  0.00     0.004 A 
ATOM     23  C   UNL A   1      39.873  21.715  26.738  1.00  0.00     0.116 A 
ATOM     24  C   UNL A   1      40.239  22.882  27.404  1.00  0.00     0.046 A 
BRANCH  23  25
ATOM     25  O   UNL A   1      40.579  20.559  26.900  1.00  0.00    -0.508 OA
ATOM     26  H   UNL A   1      40.128  19.742  26.988  1.00  0.00     0.293 HD
ENDBRANCH  23  25
ENDBRANCH  18  19
ENDBRANCH  10  11
ENDBRANCH   9  10
ENDBRANCH   8   9
ENDBRANCH   7   8
ENDBRANCH   6   7
ENDBRANCH   4   6
ENDBRANCH   1   2
BRANCH   1  27
ATOM     27  C   UNL A   1      30.630  30.080  24.576  1.00  0.00     0.021 C 
BRANCH  27  28
ATOM     28  C   UNL A   1      31.945  29.804  25.324  1.00  0.00     0.002 C 
BRANCH  28  29
ATOM     29  C   UNL A   1      31.789  29.248  26.742  1.00  0.00     0.002 C 
BRANCH  29  30
ATOM     30  C   UNL A   1      32.940  28.361  27.218  1.00  0.00     0.021 C 
BRANCH  30  31
ATOM     31  C   UNL A   1      34.335  28.898  26.907  1.00  0.00     0.116 C 
BRANCH  31  32
ATOM     32  N   UNL A   1      34.406  30.348  26.996  1.00  0.00    -0.352 N 
ATOM     33  C   UNL A   1      35.293  31.131  27.698  1.00  0.00     0.251 C 
ATOM     34  H   UNL A   1      33.723  30.839  26.483  1.00  0.00     0.163 HD
ATOM     35  O   UNL A   1      35.097  32.338  27.799  1.00  0.00    -0.269 OA
BRANCH  33  36
ATOM     36  C   UNL A   1      36.458  30.503  28.358  1.00  0.00     0.039 A 
ATOM     37  C   UNL A   1      37.715  30.613  27.761  1.00  0.00     0.014 A 
ATOM     38  C   UNL A   1      36.315  29.833  29.577  1.00  0.00     0.014 A 
ATOM     39  C   UNL A   1      38.842  30.124  28.426  1.00  0.00     0.010 A 
ATOM     40  C   UNL A   1      37.448  29.414  30.271  1.00  0.00     0.010 A 
ATOM     41  C   UNL A   1      38.725  29.564  29.708  1.00  0.00    -0.014 A 
BRANCH  41  42
ATOM     42  C   UNL A   1      39.927  29.157  30.485  1.00  0.00     0.031 A 
ATOM     43  C   UNL A   1      40.322  29.914  31.723  1.00  0.00     0.074 A 
ATOM     44  C   UNL A   1      40.703  28.152  30.032  1.00  0.00     0.049 A 
ATOM     45  N   UNL A   1      41.378  29.766  32.482  1.00  0.00    -0.248 NA
ATOM     46  C   UNL A   1      39.425  30.999  32.145  1.00  0.00     0.031 C 
ATOM     47  C   UNL A   1      40.448  27.371  28.820  1.00  0.00     0.029 A 
ATOM     48  N   UNL A   1      41.869  27.622  30.527  1.00  0.00    -0.354 N 
ATOM     49  C   UNL A   1      41.275  30.741  33.469  1.00  0.00     0.074 A 
ATOM     50  C   UNL A   1      40.090  31.516  33.165  1.00  0.00     0.031 C 
ATOM     51  C   UNL A   1      41.417  26.456  28.674  1.00  0.00     0.029 A 
ATOM     52  C   UNL A   1      42.393  26.616  29.748  1.00  0.00     0.049 A 
ATOM     53  H   UNL A   1      42.290  27.932  31.361  1.00  0.00     0.167 HD
ATOM     54  C   UNL A   1      42.081  30.953  34.541  1.00  0.00     0.034 A 
ATOM     55  C   UNL A   1      43.541  25.920  29.865  1.00  0.00     0.034 A 
ATOM     56  C   UNL A   1      43.263  30.174  34.820  1.00  0.00     0.049 A 
ATOM     57  C   UNL A   1      44.451  26.204  31.033  1.00  0.00     0.074 A 
ATOM     58  C   UNL A   1      44.122  30.269  35.901  1.00  0.00     0.029 A 
ATOM     59  N   UNL A   1      43.768  29.168  34.005  1.00  0.00    -0.354 N 
ATOM     60  N   UNL A   1      44.308  27.090  31.992  1.00  0.00    -0.248 NA
ATOM     61  C   UNL A   1      45.668  25.391  31.139  1.00  0.00     0.031 C 
ATOM     62  C   UNL A   1      45.187  29.385  35.697  1.00  0.00     0.029 A 
ATOM     63  C   UNL A   1      44.949  28.667  34.536  1.00  0.00     0.049 A 
ATOM     64  H   UNL A   1      43.349  28.856  33.170  1.00  0.00     0.167 HD
ATOM     65  C   UNL A   1      45.408  26.923  32.830  1.00  0.00     0.074 A 
ATOM     66  C   UNL A   1      46.193  25.840  32.270  1.00  0.00     0.031 C 
ATOM     67  C   UNL A   1      45.736  27.601  33.960  1.00  0.00     0.034 A 
BRANCH  54  68
ATOM     68  C   UNL A   1      41.719  32.096  35.463  1.00  0.00     0.023 A 
ATOM     69  C   UNL A   1      40.766  31.945  36.486  1.00  0.00     0.031 A 
ATOM     70  C   UNL A   1      42.299  33.365  35.293  1.00  0.00     0.131 A 
ATOM     71  C   UNL A   1      40.353  33.058  37.232  1.00  0.00     0.055 A 
ATOM     72  C   UNL A   1      41.954  34.449  36.103  1.00  0.00     0.041 A 
ATOM     73  F   UNL A   1      43.199  33.582  34.321  1.00  0.00    -0.206 F 
ATOM     74  C   UNL A   1      40.960  34.305  37.067  1.00  0.00     0.022 A 
BRANCH  71  75
ATOM     75  S   UNL A   1      38.888  32.893  38.290  1.00  0.00     0.124 S 
ATOM     76  O   UNL A   1      38.283  31.671  37.766  1.00  0.00    -0.237 OA
ATOM     77  O   UNL A   1      39.472  32.798  39.623  1.00  0.00    -0.237 OA
ATOM     78  O   UNL A   1      38.134  34.116  38.023  1.00  0.00    -0.744 OA
ENDBRANCH  71  75
ENDBRANCH  54  68
BRANCH  55  79
ATOM     79  C   UNL A   1      43.913  24.911  28.830  1.00  0.00     0.023 A 
ATOM     80  C   UNL A   1      44.611  25.277  27.668  1.00  0.00     0.031 A 
ATOM     81  C   UNL A   1      43.553  23.559  28.983  1.00  0.00     0.131 A 
ATOM     82  C   UNL A   1      44.891  24.311  26.688  1.00  0.00     0.055 A 
ATOM     83  C   UNL A   1      43.883  22.593  28.032  1.00  0.00     0.041 A 
ATOM     84  F   UNL A   1      42.887  23.153  30.076  1.00  0.00    -0.206 F 
ATOM     85  C   UNL A   1      44.547  22.969  26.869  1.00  0.00     0.022 A 
BRANCH  82  86
ATOM     86  S   UNL A   1      45.645  24.849  25.127  1.00  0.00     0.124 S 
ATOM     87  O   UNL A   1      45.250  26.252  25.075  1.00  0.00    -0.237 OA
ATOM     88  O   UNL A   1      47.060  24.587  25.369  1.00  0.00    -0.237 OA
ATOM     89  O   UNL A   1      45.015  23.985  24.131  1.00  0.00    -0.744 OA
ENDBRANCH  82  86
ENDBRANCH  55  79
BRANCH  67  90
ATOM     90  C   UNL A   1      46.986  27.164  34.687  1.00  0.00     0.023 A 
ATOM     91  C   UNL A   1      46.965  26.141  35.653  1.00  0.00     0.031 A 
ATOM     92  C   UNL A   1      48.218  27.784  34.410  1.00  0.00     0.131 A 
ATOM     93  C   UNL A   1      48.141  25.805  36.342  1.00  0.00     0.055 A 
ATOM     94  C   UNL A   1      49.397  27.399  35.052  1.00  0.00     0.041 A 
ATOM     95  F   UNL A   1      48.299  28.771  33.505  1.00  0.00    -0.206 F 
ATOM     96  C   UNL A   1      49.360  26.413  36.033  1.00  0.00     0.022 A 
BRANCH  93  97
ATOM     97  S   UNL A   1      48.039  24.625  37.716  1.00  0.00     0.124 S 
ATOM     98  O   UNL A   1      46.949  23.755  37.287  1.00  0.00    -0.237 OA
ATOM     99  O   UNL A   1      49.371  24.029  37.716  1.00  0.00    -0.237 OA
ATOM    100  O   UNL A   1      47.739  25.470  38.871  1.00  0.00    -0.744 OA
ENDBRANCH  93  97
ENDBRANCH  67  90
ENDBRANCH  41  42
ENDBRANCH  33  36
ENDBRANCH  31  32
ENDBRANCH  30  31
ENDBRANCH  29  30
ENDBRANCH  28  29
ENDBRANCH  27  28
ENDBRANCH   1  27
TORSDOF 23
ENDMDL
MODEL 3
REMARK VINA RESULT:      -9.0      5.358     10.739
REMARK SMILES O=C(CCCCCN1C(=O)/C(=C/c2cccc(O)c2)SC1=S)NCCCCCCNC(=O)c1ccc(-c2c3nc(c(-c4cc(S(=O)(=O)[O-])ccc4F)c4ccc([nH]4)c(-c4cc(S(=O)(=O)[O-])ccc4F)c4nc(c(-c5cc(S(=O)(=O)[O-])ccc5F)c5ccc2[nH]5)C=C4)C=C3)cc1
REMARK SMILES IDX 24 1 23 2 1 3 2 4 3 6 4 7 5 8 6 9 7 10 8 11 9 12 21 13 10 14
REMARK SMILES IDX 11 15 20 16 22 17 12 18 13 19 14 20 19 21 15 22 17 23 16 24
REMARK SMILES IDX 18 25 25 27 26 28 27 29 28 30 29 31 30 32 31 33 32 35 33 36
REMARK SMILES IDX 34 37 95 38 35 39 94 40 36 41 37 42 38 43 88 44 39 45 93 46
REMARK SMILES IDX 87 47 89 48 40 49 92 50 86 51 85 52 41 54 73 55 53 56 72 57
REMARK SMILES IDX 54 58 57 59 71 60 90 61 55 62 56 63 70 65 91 66 58 67 42 68
REMARK SMILES IDX 43 69 51 70 44 71 50 72 52 73 49 74 45 75 46 76 47 77 48 78
REMARK SMILES IDX 74 79 75 80 83 81 76 82 82 83 84 84 81 85 77 86 78 87 79 88
REMARK SMILES IDX 80 89 59 90 60 91 68 92 61 93 67 94 69 95 66 96 62 97 63 98
REMARK SMILES IDX 64 99 65 100
REMARK H PARENT 23 5 18 26 30 34 89 53 57 64
REMARK Flexibility Score: inf
ROOT
ATOM      1  C   UNL A   1      37.462  29.660  28.032  1.00  0.00     0.116 C 
ENDROOT
BRANCH   1   2
ATOM      2  N   UNL A   1      38.027  28.404  28.476  1.00  0.00    -0.356 N 
ATOM      3  O   UNL A   1      40.183  28.763  27.770  1.00  0.00    -0.275 OA
ATOM      4  C   UNL A   1      39.347  28.066  28.332  1.00  0.00     0.219 C 
ATOM      5  H   UNL A   1      37.427  27.754  28.908  1.00  0.00     0.163 HD
BRANCH   4   6
ATOM      6  C   UNL A   1      39.686  26.717  28.933  1.00  0.00     0.100 C 
BRANCH   6   7
ATOM      7  C   UNL A   1      39.929  25.636  27.878  1.00  0.00     0.010 C 
BRANCH   7   8
ATOM      8  C   UNL A   1      40.776  24.428  28.301  1.00  0.00     0.002 C 
BRANCH   8   9
ATOM      9  C   UNL A   1      40.742  23.215  27.361  1.00  0.00     0.022 C 
BRANCH   9  10
ATOM     10  C   UNL A   1      42.087  22.491  27.181  1.00  0.00     0.127 C 
BRANCH  10  11
ATOM     11  N   UNL A   1      43.223  23.413  27.193  1.00  0.00    -0.293 N 
ATOM     12  C   UNL A   1      43.495  24.134  26.040  1.00  0.00     0.266 C 
ATOM     13  C   UNL A   1      44.054  23.643  28.269  1.00  0.00     0.148 C 
ATOM     14  O   UNL A   1      42.805  24.172  25.033  1.00  0.00    -0.268 OA
ATOM     15  C   UNL A   1      44.780  24.865  26.186  1.00  0.00     0.081 C 
ATOM     16  S   UNL A   1      45.386  24.681  27.781  1.00  0.00    -0.054 SA
ATOM     17  S   UNL A   1      43.913  23.091  29.837  1.00  0.00    -0.052 S 
ATOM     18  C   UNL A   1      45.343  25.520  25.163  1.00  0.00     0.029 C 
BRANCH  18  19
ATOM     19  C   UNL A   1      46.654  26.173  25.215  1.00  0.00    -0.021 A 
ATOM     20  C   UNL A   1      47.802  25.486  24.796  1.00  0.00     0.008 A 
ATOM     21  C   UNL A   1      46.769  27.483  25.685  1.00  0.00     0.054 A 
ATOM     22  C   UNL A   1      49.056  26.093  24.873  1.00  0.00     0.004 A 
ATOM     23  C   UNL A   1      48.024  28.080  25.753  1.00  0.00     0.116 A 
ATOM     24  C   UNL A   1      49.169  27.395  25.357  1.00  0.00     0.046 A 
BRANCH  23  25
ATOM     25  O   UNL A   1      48.094  29.357  26.229  1.00  0.00    -0.508 OA
ATOM     26  H   UNL A   1      48.927  29.741  26.421  1.00  0.00     0.293 HD
ENDBRANCH  23  25
ENDBRANCH  18  19
ENDBRANCH  10  11
ENDBRANCH   9  10
ENDBRANCH   8   9
ENDBRANCH   7   8
ENDBRANCH   6   7
ENDBRANCH   4   6
ENDBRANCH   1   2
BRANCH   1  27
ATOM     27  C   UNL A   1      35.994  29.764  28.440  1.00  0.00     0.021 C 
BRANCH  27  28
ATOM     28  C   UNL A   1      35.167  30.777  27.631  1.00  0.00     0.002 C 
BRANCH  28  29
ATOM     29  C   UNL A   1      35.342  32.241  28.039  1.00  0.00     0.002 C 
BRANCH  29  30
ATOM     30  C   UNL A   1      34.065  33.080  28.002  1.00  0.00     0.021 C 
BRANCH  30  31
ATOM     31  C   UNL A   1      34.246  34.544  28.396  1.00  0.00     0.116 C 
BRANCH  31  32
ATOM     32  N   UNL A   1      33.377  34.936  29.494  1.00  0.00    -0.352 N 
ATOM     33  C   UNL A   1      33.519  34.694  30.840  1.00  0.00     0.251 C 
ATOM     34  H   UNL A   1      32.575  35.447  29.238  1.00  0.00     0.163 HD
ATOM     35  O   UNL A   1      32.597  34.950  31.609  1.00  0.00    -0.269 OA
BRANCH  33  36
ATOM     36  C   UNL A   1      34.771  34.090  31.346  1.00  0.00     0.039 A 
ATOM     37  C   UNL A   1      35.939  34.856  31.348  1.00  0.00     0.014 A 
ATOM     38  C   UNL A   1      34.787  32.784  31.844  1.00  0.00     0.014 A 
ATOM     39  C   UNL A   1      37.102  34.341  31.925  1.00  0.00     0.010 A 
ATOM     40  C   UNL A   1      35.925  32.302  32.485  1.00  0.00     0.010 A 
ATOM     41  C   UNL A   1      37.094  33.079  32.542  1.00  0.00    -0.014 A 
BRANCH  41  42
ATOM     42  C   UNL A   1      38.284  32.570  33.274  1.00  0.00     0.031 A 
ATOM     43  C   UNL A   1      38.525  32.971  34.703  1.00  0.00     0.074 A 
ATOM     44  C   UNL A   1      39.186  31.805  32.627  1.00  0.00     0.049 A 
ATOM     45  N   UNL A   1      39.545  32.702  35.478  1.00  0.00    -0.248 NA
ATOM     46  C   UNL A   1      37.496  33.811  35.332  1.00  0.00     0.031 C 
ATOM     47  C   UNL A   1      39.086  31.386  31.227  1.00  0.00     0.029 A 
ATOM     48  N   UNL A   1      40.371  31.256  33.051  1.00  0.00    -0.354 N 
ATOM     49  C   UNL A   1      39.284  33.342  36.685  1.00  0.00     0.074 A 
ATOM     50  C   UNL A   1      38.043  34.069  36.509  1.00  0.00     0.031 C 
ATOM     51  C   UNL A   1      40.153  30.635  30.915  1.00  0.00     0.029 A 
ATOM     52  C   UNL A   1      41.042  30.563  32.070  1.00  0.00     0.049 A 
ATOM     53  H   UNL A   1      40.708  31.349  33.972  1.00  0.00     0.167 HD
ATOM     54  C   UNL A   1      39.999  33.306  37.838  1.00  0.00     0.034 A 
ATOM     55  C   UNL A   1      42.249  29.961  32.086  1.00  0.00     0.034 A 
ATOM     56  C   UNL A   1      41.238  32.581  37.989  1.00  0.00     0.049 A 
ATOM     57  C   UNL A   1      43.054  29.975  33.361  1.00  0.00     0.074 A 
ATOM     58  C   UNL A   1      42.018  32.435  39.123  1.00  0.00     0.029 A 
ATOM     59  N   UNL A   1      41.893  31.897  36.971  1.00  0.00    -0.354 N 
ATOM     60  N   UNL A   1      42.763  30.534  34.513  1.00  0.00    -0.248 NA
ATOM     61  C   UNL A   1      44.341  29.271  33.339  1.00  0.00     0.031 C 
ATOM     62  C   UNL A   1      43.180  31.739  38.772  1.00  0.00     0.029 A 
ATOM     63  C   UNL A   1      43.086  31.366  37.440  1.00  0.00     0.049 A 
ATOM     64  H   UNL A   1      41.557  31.802  36.050  1.00  0.00     0.167 HD
ATOM     65  C   UNL A   1      43.825  30.229  35.361  1.00  0.00     0.074 A 
ATOM     66  C   UNL A   1      44.750  29.421  34.591  1.00  0.00     0.031 C 
ATOM     67  C   UNL A   1      44.014  30.580  36.659  1.00  0.00     0.034 A 
BRANCH  54  68
ATOM     68  C   UNL A   1      39.466  34.102  39.008  1.00  0.00     0.023 A 
ATOM     69  C   UNL A   1      39.786  35.460  39.183  1.00  0.00     0.031 A 
ATOM     70  C   UNL A   1      38.663  33.489  39.986  1.00  0.00     0.131 A 
ATOM     71  C   UNL A   1      39.390  36.131  40.350  1.00  0.00     0.055 A 
ATOM     72  C   UNL A   1      38.190  34.189  41.098  1.00  0.00     0.041 A 
ATOM     73  F   UNL A   1      38.338  32.190  39.889  1.00  0.00    -0.206 F 
ATOM     74  C   UNL A   1      38.571  35.513  41.296  1.00  0.00     0.022 A 
BRANCH  71  75
ATOM     75  S   UNL A   1      40.112  37.759  40.697  1.00  0.00     0.124 S 
ATOM     76  O   UNL A   1      40.865  38.014  39.471  1.00  0.00    -0.237 OA
ATOM     77  O   UNL A   1      38.931  38.588  40.906  1.00  0.00    -0.237 OA
ATOM     78  O   UNL A   1      40.931  37.525  41.884  1.00  0.00    -0.744 OA
ENDBRANCH  71  75
ENDBRANCH  54  68
BRANCH  55  79
ATOM     79  C   UNL A   1      42.784  29.326  30.847  1.00  0.00     0.023 A 
ATOM     80  C   UNL A   1      43.407  30.086  29.844  1.00  0.00     0.031 A 
ATOM     81  C   UNL A   1      42.657  27.940  30.638  1.00  0.00     0.131 A 
ATOM     82  C   UNL A   1      43.845  29.463  28.664  1.00  0.00     0.055 A 
ATOM     83  C   UNL A   1      43.145  27.317  29.489  1.00  0.00     0.041 A 
ATOM     84  F   UNL A   1      42.072  27.164  31.565  1.00  0.00    -0.206 F 
ATOM     85  C   UNL A   1      43.733  28.081  28.488  1.00  0.00     0.022 A 
BRANCH  82  86
ATOM     86  S   UNL A   1      44.493  30.497  27.323  1.00  0.00     0.124 S 
ATOM     87  O   UNL A   1      44.071  29.752  26.143  1.00  0.00    -0.237 OA
ATOM     88  O   UNL A   1      43.811  31.765  27.561  1.00  0.00    -0.237 OA
ATOM     89  O   UNL A   1      45.934  30.511  27.571  1.00  0.00    -0.744 OA
ENDBRANCH  82  86
ENDBRANCH  55  79
BRANCH  67  90
ATOM     90  C   UNL A   1      45.258  30.060  37.340  1.00  0.00     0.023 A 
ATOM     91  C   UNL A   1      45.270  28.835  38.032  1.00  0.00     0.031 A 
ATOM     92  C   UNL A   1      46.451  30.804  37.297  1.00  0.00     0.131 A 
ATOM     93  C   UNL A   1      46.435  28.417  38.695  1.00  0.00     0.055 A 
ATOM     94  C   UNL A   1      47.624  30.351  37.902  1.00  0.00     0.041 A 
ATOM     95  F   UNL A   1      46.498  31.984  36.658  1.00  0.00    -0.206 F 
ATOM     96  C   UNL A   1      47.617  29.157  38.617  1.00  0.00     0.022 A 
BRANCH  93  97
ATOM     97  S   UNL A   1      46.359  26.937  39.741  1.00  0.00     0.124 S 
ATOM     98  O   UNL A   1      46.088  25.889  38.762  1.00  0.00    -0.237 OA
ATOM     99  O   UNL A   1      47.686  26.916  40.348  1.00  0.00    -0.237 OA
ATOM    100  O   UNL A   1      45.262  27.224  40.662  1.00  0.00    -0.744 OA
ENDBRANCH  93  97
ENDBRANCH  67  90
ENDBRANCH  41  42
ENDBRANCH  33  36
ENDBRANCH  31  32
ENDBRANCH  30  31
ENDBRANCH  29  30
ENDBRANCH  28  29
ENDBRANCH  27  28
ENDBRANCH   1  27
TORSDOF 23
ENDMDL
