MODEL 1
REMARK VINA RESULT:     -11.9      0.000      0.000
REMARK SMILES O=C(CCc1ccc(S(=O)(=O)Nc2cccc(I)c2)cc1)NCCCCCCNC(=O)c1ccc(-c2c3nc(c(-c4cc(S(=O)(=O)[O-])ccc4F)c4ccc([nH]4)c(-c4cc(S(=O)(=O)[O-])ccc4F)c4nc(c(-c5cc(S(=O)(=O)[O-])ccc5F)c5ccc2[nH]5)C=C4)C=C3)cc1
REMARK SMILES IDX 24 1 23 2 22 3 1 4 2 5 3 7 4 8 5 9 6 10 21 11 7 12 20 13
REMARK SMILES IDX 8 14 9 15 10 16 11 17 12 18 13 20 14 21 19 22 15 23 17 24
REMARK SMILES IDX 16 25 18 26 25 27 26 28 27 29 28 30 29 31 30 32 31 34 32 35
REMARK SMILES IDX 33 36 94 37 34 38 93 39 35 40 36 41 37 42 87 43 38 44 92 45
REMARK SMILES IDX 86 46 88 47 39 48 91 49 85 50 84 51 40 53 72 54 52 55 71 56
REMARK SMILES IDX 53 57 56 58 70 59 89 60 54 61 55 62 69 64 90 65 57 66 41 67
REMARK SMILES IDX 42 68 50 69 43 70 49 71 51 72 48 73 44 74 45 75 46 76 47 77
REMARK SMILES IDX 73 78 74 79 82 80 75 81 81 82 83 83 80 84 76 85 77 86 78 87
REMARK SMILES IDX 79 88 58 89 59 90 67 91 60 92 66 93 68 94 65 95 61 96 62 97
REMARK SMILES IDX 63 98 64 99
REMARK H PARENT 22 6 12 19 29 33 88 52 56 63
REMARK Flexibility Score: inf
ROOT
ATOM      1  C   UNL A   1      34.290  22.670  27.154  1.00  0.00     0.021 C 
ENDROOT
BRANCH   1   2
ATOM      2  C   UNL A   1      32.762  22.727  27.259  1.00  0.00     0.116 C 
BRANCH   2   3
ATOM      3  N   UNL A   1      32.113  23.075  26.008  1.00  0.00    -0.356 N 
ATOM      4  O   UNL A   1      31.541  20.953  25.397  1.00  0.00    -0.275 OA
ATOM      5  C   UNL A   1      31.546  22.159  25.157  1.00  0.00     0.220 C 
ATOM      6  H   UNL A   1      32.078  24.025  25.754  1.00  0.00     0.163 HD
BRANCH   5   7
ATOM      7  C   UNL A   1      31.010  22.671  23.819  1.00  0.00     0.105 C 
BRANCH   7   8
ATOM      8  C   UNL A   1      31.816  23.739  23.063  1.00  0.00     0.045 C 
BRANCH   8   9
ATOM      9  C   UNL A   1      31.205  25.118  22.931  1.00  0.00    -0.047 A 
ATOM     10  C   UNL A   1      30.148  25.509  23.769  1.00  0.00     0.005 A 
ATOM     11  C   UNL A   1      31.687  26.045  22.010  1.00  0.00     0.005 A 
ATOM     12  C   UNL A   1      29.618  26.809  23.707  1.00  0.00     0.022 A 
ATOM     13  C   UNL A   1      31.211  27.350  22.000  1.00  0.00     0.022 A 
ATOM     14  C   UNL A   1      30.156  27.741  22.813  1.00  0.00     0.087 A 
BRANCH  14  15
ATOM     15  S   UNL A   1      29.410  29.361  22.689  1.00  0.00     0.261 S 
ATOM     16  O   UNL A   1      29.714  29.858  21.366  1.00  0.00    -0.201 OA
ATOM     17  O   UNL A   1      28.038  29.200  23.127  1.00  0.00    -0.201 OA
BRANCH  15  18
ATOM     18  N   UNL A   1      30.105  30.366  23.838  1.00  0.00    -0.280 N 
ATOM     19  H   UNL A   1      29.749  31.282  23.896  1.00  0.00     0.180 HD
BRANCH  18  20
ATOM     20  C   UNL A   1      31.158  30.035  24.740  1.00  0.00     0.050 A 
ATOM     21  C   UNL A   1      31.280  30.827  25.887  1.00  0.00     0.027 A 
ATOM     22  C   UNL A   1      31.956  28.895  24.617  1.00  0.00     0.041 A 
ATOM     23  C   UNL A   1      32.055  30.401  26.967  1.00  0.00     0.003 A 
ATOM     24  C   UNL A   1      32.697  28.449  25.717  1.00  0.00     0.015 A 
ATOM     25  C   UNL A   1      32.732  29.186  26.899  1.00  0.00     0.015 A 
ATOM     26  I   UNL A   1      33.621  26.586  25.641  1.00  0.00    -0.044 I 
ENDBRANCH  18  20
ENDBRANCH  15  18
ENDBRANCH  14  15
ENDBRANCH   8   9
ENDBRANCH   7   8
ENDBRANCH   5   7
ENDBRANCH   2   3
ENDBRANCH   1   2
BRANCH   1  27
ATOM     27  C   UNL A   1      34.897  21.351  26.655  1.00  0.00     0.002 C 
BRANCH  27  28
ATOM     28  C   UNL A   1      34.965  21.161  25.137  1.00  0.00     0.002 C 
BRANCH  28  29
ATOM     29  C   UNL A   1      35.488  22.362  24.342  1.00  0.00     0.021 C 
BRANCH  29  30
ATOM     30  C   UNL A   1      37.000  22.396  24.126  1.00  0.00     0.116 C 
BRANCH  30  31
ATOM     31  N   UNL A   1      37.669  21.201  24.614  1.00  0.00    -0.352 N 
ATOM     32  C   UNL A   1      38.640  21.070  25.580  1.00  0.00     0.251 C 
ATOM     33  H   UNL A   1      37.386  20.360  24.189  1.00  0.00     0.163 HD
ATOM     34  O   UNL A   1      39.092  19.954  25.825  1.00  0.00    -0.269 OA
BRANCH  32  35
ATOM     35  C   UNL A   1      39.178  22.274  26.255  1.00  0.00     0.039 A 
ATOM     36  C   UNL A   1      40.372  22.157  26.974  1.00  0.00     0.014 A 
ATOM     37  C   UNL A   1      38.560  23.519  26.125  1.00  0.00     0.014 A 
ATOM     38  C   UNL A   1      41.000  23.304  27.469  1.00  0.00     0.010 A 
ATOM     39  C   UNL A   1      39.216  24.666  26.567  1.00  0.00     0.010 A 
ATOM     40  C   UNL A   1      40.456  24.574  27.219  1.00  0.00    -0.014 A 
BRANCH  40  41
ATOM     41  C   UNL A   1      41.194  25.814  27.579  1.00  0.00     0.031 A 
ATOM     42  C   UNL A   1      40.522  26.897  28.375  1.00  0.00     0.074 A 
ATOM     43  C   UNL A   1      42.446  25.999  27.110  1.00  0.00     0.049 A 
ATOM     44  N   UNL A   1      40.968  28.082  28.703  1.00  0.00    -0.248 NA
ATOM     45  C   UNL A   1      39.156  26.616  28.839  1.00  0.00     0.031 C 
ATOM     46  C   UNL A   1      43.189  25.042  26.288  1.00  0.00     0.029 A 
ATOM     47  N   UNL A   1      43.308  27.058  27.244  1.00  0.00    -0.354 N 
ATOM     48  C   UNL A   1      39.935  28.696  29.404  1.00  0.00     0.074 A 
ATOM     49  C   UNL A   1      38.823  27.769  29.402  1.00  0.00     0.031 C 
ATOM     50  C   UNL A   1      44.399  25.551  26.004  1.00  0.00     0.029 A 
ATOM     51  C   UNL A   1      44.505  26.885  26.585  1.00  0.00     0.049 A 
ATOM     52  H   UNL A   1      43.092  27.867  27.763  1.00  0.00     0.167 HD
ATOM     53  C   UNL A   1      39.925  29.911  30.007  1.00  0.00     0.034 A 
ATOM     54  C   UNL A   1      45.560  27.712  26.450  1.00  0.00     0.034 A 
ATOM     55  C   UNL A   1      41.045  30.821  30.006  1.00  0.00     0.049 A 
ATOM     56  C   UNL A   1      45.518  29.066  27.112  1.00  0.00     0.074 A 
ATOM     57  C   UNL A   1      41.159  32.050  30.634  1.00  0.00     0.029 A 
ATOM     58  N   UNL A   1      42.243  30.608  29.336  1.00  0.00    -0.354 N 
ATOM     59  N   UNL A   1      44.552  29.611  27.816  1.00  0.00    -0.248 NA
ATOM     60  C   UNL A   1      46.710  29.912  26.970  1.00  0.00     0.031 C 
ATOM     61  C   UNL A   1      42.398  32.606  30.294  1.00  0.00     0.029 A 
ATOM     62  C   UNL A   1      43.087  31.695  29.511  1.00  0.00     0.049 A 
ATOM     63  H   UNL A   1      42.461  29.803  28.814  1.00  0.00     0.167 HD
ATOM     64  C   UNL A   1      45.034  30.851  28.222  1.00  0.00     0.074 A 
ATOM     65  C   UNL A   1      46.378  30.968  27.696  1.00  0.00     0.031 C 
ATOM     66  C   UNL A   1      44.421  31.805  28.968  1.00  0.00     0.034 A 
BRANCH  53  67
ATOM     67  C   UNL A   1      38.647  30.328  30.696  1.00  0.00     0.023 A 
ATOM     68  C   UNL A   1      37.626  31.006  30.006  1.00  0.00     0.031 A 
ATOM     69  C   UNL A   1      38.458  30.074  32.065  1.00  0.00     0.131 A 
ATOM     70  C   UNL A   1      36.504  31.478  30.702  1.00  0.00     0.055 A 
ATOM     71  C   UNL A   1      37.300  30.474  32.736  1.00  0.00     0.041 A 
ATOM     72  F   UNL A   1      39.405  29.447  32.782  1.00  0.00    -0.206 F 
ATOM     73  C   UNL A   1      36.322  31.196  32.058  1.00  0.00     0.022 A 
BRANCH  70  74
ATOM     74  S   UNL A   1      35.361  32.593  29.844  1.00  0.00     0.124 S 
ATOM     75  O   UNL A   1      34.875  31.741  28.761  1.00  0.00    -0.237 OA
ATOM     76  O   UNL A   1      34.393  32.916  30.886  1.00  0.00    -0.237 OA
ATOM     77  O   UNL A   1      36.215  33.701  29.420  1.00  0.00    -0.744 OA
ENDBRANCH  70  74
ENDBRANCH  53  67
BRANCH  54  78
ATOM     78  C   UNL A   1      46.746  27.299  25.646  1.00  0.00     0.023 A 
ATOM     79  C   UNL A   1      46.943  27.789  24.346  1.00  0.00     0.031 A 
ATOM     80  C   UNL A   1      47.677  26.375  26.154  1.00  0.00     0.131 A 
ATOM     81  C   UNL A   1      48.023  27.321  23.579  1.00  0.00     0.055 A 
ATOM     82  C   UNL A   1      48.775  25.950  25.405  1.00  0.00     0.041 A 
ATOM     83  F   UNL A   1      47.538  25.882  27.394  1.00  0.00    -0.206 F 
ATOM     84  C   UNL A   1      48.945  26.413  24.103  1.00  0.00     0.022 A 
BRANCH  81  85
ATOM     85  S   UNL A   1      48.159  27.859  21.852  1.00  0.00     0.124 S 
ATOM     86  O   UNL A   1      46.917  28.605  21.675  1.00  0.00    -0.237 OA
ATOM     87  O   UNL A   1      49.384  28.650  21.879  1.00  0.00    -0.237 OA
ATOM     88  O   UNL A   1      48.245  26.603  21.110  1.00  0.00    -0.744 OA
ENDBRANCH  81  85
ENDBRANCH  54  78
BRANCH  66  89
ATOM     89  C   UNL A   1      45.225  33.040  29.290  1.00  0.00     0.023 A 
ATOM     90  C   UNL A   1      45.190  34.181  28.470  1.00  0.00     0.031 A 
ATOM     91  C   UNL A   1      46.047  33.069  30.431  1.00  0.00     0.131 A 
ATOM     92  C   UNL A   1      46.000  35.286  28.773  1.00  0.00     0.055 A 
ATOM     93  C   UNL A   1      46.810  34.191  30.759  1.00  0.00     0.041 A 
ATOM     94  F   UNL A   1      46.119  32.006  31.248  1.00  0.00    -0.206 F 
ATOM     95  C   UNL A   1      46.798  35.303  29.921  1.00  0.00     0.022 A 
BRANCH  92  96
ATOM     96  S   UNL A   1      46.057  36.673  27.608  1.00  0.00     0.124 S 
ATOM     97  O   UNL A   1      44.663  37.103  27.579  1.00  0.00    -0.237 OA
ATOM     98  O   UNL A   1      46.992  37.586  28.253  1.00  0.00    -0.237 OA
ATOM     99  O   UNL A   1      46.542  36.063  26.370  1.00  0.00    -0.744 OA
ENDBRANCH  92  96
ENDBRANCH  66  89
ENDBRANCH  40  41
ENDBRANCH  32  35
ENDBRANCH  30  31
ENDBRANCH  29  30
ENDBRANCH  28  29
ENDBRANCH  27  28
ENDBRANCH   1  27
TORSDOF 21
ENDMDL
MODEL 2
REMARK VINA RESULT:     -11.7      2.470      7.941
REMARK SMILES O=C(CCc1ccc(S(=O)(=O)Nc2cccc(I)c2)cc1)NCCCCCCNC(=O)c1ccc(-c2c3nc(c(-c4cc(S(=O)(=O)[O-])ccc4F)c4ccc([nH]4)c(-c4cc(S(=O)(=O)[O-])ccc4F)c4nc(c(-c5cc(S(=O)(=O)[O-])ccc5F)c5ccc2[nH]5)C=C4)C=C3)cc1
REMARK SMILES IDX 24 1 23 2 22 3 1 4 2 5 3 7 4 8 5 9 6 10 21 11 7 12 20 13
REMARK SMILES IDX 8 14 9 15 10 16 11 17 12 18 13 20 14 21 19 22 15 23 17 24
REMARK SMILES IDX 16 25 18 26 25 27 26 28 27 29 28 30 29 31 30 32 31 34 32 35
REMARK SMILES IDX 33 36 94 37 34 38 93 39 35 40 36 41 37 42 87 43 38 44 92 45
REMARK SMILES IDX 86 46 88 47 39 48 91 49 85 50 84 51 40 53 72 54 52 55 71 56
REMARK SMILES IDX 53 57 56 58 70 59 89 60 54 61 55 62 69 64 90 65 57 66 41 67
REMARK SMILES IDX 42 68 50 69 43 70 49 71 51 72 48 73 44 74 45 75 46 76 47 77
REMARK SMILES IDX 73 78 74 79 82 80 75 81 81 82 83 83 80 84 76 85 77 86 78 87
REMARK SMILES IDX 79 88 58 89 59 90 67 91 60 92 66 93 68 94 65 95 61 96 62 97
REMARK SMILES IDX 63 98 64 99
REMARK H PARENT 22 6 12 19 29 33 88 52 56 63
REMARK Flexibility Score: inf
ROOT
ATOM      1  C   UNL A   1      37.298  23.392  25.573  1.00  0.00     0.021 C 
ENDROOT
BRANCH   1   2
ATOM      2  C   UNL A   1      36.145  22.984  26.496  1.00  0.00     0.116 C 
BRANCH   2   3
ATOM      3  N   UNL A   1      35.263  21.991  25.909  1.00  0.00    -0.356 N 
ATOM      4  O   UNL A   1      33.506  22.313  27.328  1.00  0.00    -0.275 OA
ATOM      5  C   UNL A   1      33.998  21.721  26.369  1.00  0.00     0.220 C 
ATOM      6  H   UNL A   1      35.592  21.481  25.135  1.00  0.00     0.163 HD
BRANCH   5   7
ATOM      7  C   UNL A   1      33.241  20.560  25.720  1.00  0.00     0.105 C 
BRANCH   7   8
ATOM      8  C   UNL A   1      32.147  20.878  24.691  1.00  0.00     0.045 C 
BRANCH   8   9
ATOM      9  C   UNL A   1      32.289  22.153  23.885  1.00  0.00    -0.047 A 
ATOM     10  C   UNL A   1      33.205  22.223  22.823  1.00  0.00     0.005 A 
ATOM     11  C   UNL A   1      31.501  23.271  24.145  1.00  0.00     0.005 A 
ATOM     12  C   UNL A   1      33.298  23.375  22.023  1.00  0.00     0.022 A 
ATOM     13  C   UNL A   1      31.544  24.380  23.309  1.00  0.00     0.022 A 
ATOM     14  C   UNL A   1      32.457  24.465  22.268  1.00  0.00     0.087 A 
BRANCH  14  15
ATOM     15  S   UNL A   1      32.652  25.952  21.293  1.00  0.00     0.261 S 
ATOM     16  O   UNL A   1      33.944  26.504  21.633  1.00  0.00    -0.201 OA
ATOM     17  O   UNL A   1      32.338  25.575  19.929  1.00  0.00    -0.201 OA
BRANCH  15  18
ATOM     18  N   UNL A   1      31.448  27.040  21.718  1.00  0.00    -0.280 N 
ATOM     19  H   UNL A   1      30.598  26.970  21.228  1.00  0.00     0.180 HD
BRANCH  18  20
ATOM     20  C   UNL A   1      31.526  28.055  22.716  1.00  0.00     0.050 A 
ATOM     21  C   UNL A   1      30.475  28.977  22.762  1.00  0.00     0.027 A 
ATOM     22  C   UNL A   1      32.494  28.082  23.723  1.00  0.00     0.041 A 
ATOM     23  C   UNL A   1      30.295  29.798  23.877  1.00  0.00     0.003 A 
ATOM     24  C   UNL A   1      32.287  28.874  24.858  1.00  0.00     0.015 A 
ATOM     25  C   UNL A   1      31.180  29.715  24.949  1.00  0.00     0.015 A 
ATOM     26  I   UNL A   1      33.558  28.668  26.494  1.00  0.00    -0.044 I 
ENDBRANCH  18  20
ENDBRANCH  15  18
ENDBRANCH  14  15
ENDBRANCH   8   9
ENDBRANCH   7   8
ENDBRANCH   5   7
ENDBRANCH   2   3
ENDBRANCH   1   2
BRANCH   1  27
ATOM     27  C   UNL A   1      38.527  24.022  26.245  1.00  0.00     0.002 C 
BRANCH  27  28
ATOM     28  C   UNL A   1      39.581  23.053  26.786  1.00  0.00     0.002 C 
BRANCH  28  29
ATOM     29  C   UNL A   1      39.595  21.662  26.143  1.00  0.00     0.021 C 
BRANCH  29  30
ATOM     30  C   UNL A   1      40.284  20.569  26.959  1.00  0.00     0.116 C 
BRANCH  30  31
ATOM     31  N   UNL A   1      41.183  19.751  26.162  1.00  0.00    -0.352 N 
ATOM     32  C   UNL A   1      42.444  20.034  25.690  1.00  0.00     0.251 C 
ATOM     33  H   UNL A   1      40.839  18.860  25.924  1.00  0.00     0.163 HD
ATOM     34  O   UNL A   1      43.029  19.198  25.007  1.00  0.00    -0.269 OA
BRANCH  32  35
ATOM     35  C   UNL A   1      43.047  21.363  25.947  1.00  0.00     0.039 A 
ATOM     36  C   UNL A   1      43.046  22.306  24.914  1.00  0.00     0.014 A 
ATOM     37  C   UNL A   1      43.542  21.707  27.207  1.00  0.00     0.014 A 
ATOM     38  C   UNL A   1      43.440  23.622  25.174  1.00  0.00     0.010 A 
ATOM     39  C   UNL A   1      43.878  23.032  27.479  1.00  0.00     0.010 A 
ATOM     40  C   UNL A   1      43.804  24.009  26.474  1.00  0.00    -0.014 A 
BRANCH  40  41
ATOM     41  C   UNL A   1      44.054  25.436  26.812  1.00  0.00     0.031 A 
ATOM     42  C   UNL A   1      45.440  26.010  26.713  1.00  0.00     0.074 A 
ATOM     43  C   UNL A   1      43.044  26.189  27.294  1.00  0.00     0.049 A 
ATOM     44  N   UNL A   1      45.870  27.199  27.053  1.00  0.00    -0.248 NA
ATOM     45  C   UNL A   1      46.483  25.119  26.187  1.00  0.00     0.031 C 
ATOM     46  C   UNL A   1      41.665  25.732  27.480  1.00  0.00     0.029 A 
ATOM     47  N   UNL A   1      43.021  27.491  27.727  1.00  0.00    -0.354 N 
ATOM     48  C   UNL A   1      47.236  27.196  26.793  1.00  0.00     0.074 A 
ATOM     49  C   UNL A   1      47.568  25.868  26.320  1.00  0.00     0.031 C 
ATOM     50  C   UNL A   1      40.930  26.740  27.975  1.00  0.00     0.029 A 
ATOM     51  C   UNL A   1      41.788  27.902  28.182  1.00  0.00     0.049 A 
ATOM     52  H   UNL A   1      43.812  28.077  27.714  1.00  0.00     0.167 HD
ATOM     53  C   UNL A   1      48.125  28.214  26.920  1.00  0.00     0.034 A 
ATOM     54  C   UNL A   1      41.397  29.074  28.720  1.00  0.00     0.034 A 
ATOM     55  C   UNL A   1      47.778  29.534  27.387  1.00  0.00     0.049 A 
ATOM     56  C   UNL A   1      42.407  30.183  28.870  1.00  0.00     0.074 A 
ATOM     57  C   UNL A   1      48.588  30.651  27.500  1.00  0.00     0.029 A 
ATOM     58  N   UNL A   1      46.518  29.916  27.831  1.00  0.00    -0.354 N 
ATOM     59  N   UNL A   1      43.685  30.181  28.570  1.00  0.00    -0.248 NA
ATOM     60  C   UNL A   1      41.920  31.453  29.422  1.00  0.00     0.031 C 
ATOM     61  C   UNL A   1      47.837  31.687  28.067  1.00  0.00     0.029 A 
ATOM     62  C   UNL A   1      46.538  31.239  28.244  1.00  0.00     0.049 A 
ATOM     63  H   UNL A   1      45.726  29.332  27.848  1.00  0.00     0.167 HD
ATOM     64  C   UNL A   1      44.146  31.459  28.872  1.00  0.00     0.074 A 
ATOM     65  C   UNL A   1      43.008  32.206  29.365  1.00  0.00     0.031 C 
ATOM     66  C   UNL A   1      45.398  31.969  28.748  1.00  0.00     0.034 A 
BRANCH  53  67
ATOM     67  C   UNL A   1      49.564  27.919  26.569  1.00  0.00     0.023 A 
ATOM     68  C   UNL A   1      50.033  28.007  25.246  1.00  0.00     0.031 A 
ATOM     69  C   UNL A   1      50.472  27.513  27.562  1.00  0.00     0.131 A 
ATOM     70  C   UNL A   1      51.344  27.616  24.940  1.00  0.00     0.055 A 
ATOM     71  C   UNL A   1      51.802  27.205  27.263  1.00  0.00     0.041 A 
ATOM     72  F   UNL A   1      50.080  27.392  28.841  1.00  0.00    -0.206 F 
ATOM     73  C   UNL A   1      52.239  27.238  25.943  1.00  0.00     0.022 A 
BRANCH  70  74
ATOM     74  S   UNL A   1      51.815  27.465  23.196  1.00  0.00     0.124 S 
ATOM     75  O   UNL A   1      52.274  28.820  22.897  1.00  0.00    -0.237 OA
ATOM     76  O   UNL A   1      52.848  26.436  23.236  1.00  0.00    -0.237 OA
ATOM     77  O   UNL A   1      50.571  27.077  22.536  1.00  0.00    -0.744 OA
ENDBRANCH  70  74
ENDBRANCH  53  67
BRANCH  54  78
ATOM     78  C   UNL A   1      39.989  29.264  29.172  1.00  0.00     0.023 A 
ATOM     79  C   UNL A   1      39.665  29.290  30.537  1.00  0.00     0.031 A 
ATOM     80  C   UNL A   1      38.942  29.385  28.241  1.00  0.00     0.131 A 
ATOM     81  C   UNL A   1      38.322  29.388  30.936  1.00  0.00     0.055 A 
ATOM     82  C   UNL A   1      37.613  29.530  28.643  1.00  0.00     0.041 A 
ATOM     83  F   UNL A   1      39.198  29.374  26.924  1.00  0.00    -0.206 F 
ATOM     84  C   UNL A   1      37.295  29.519  29.998  1.00  0.00     0.022 A 
BRANCH  81  85
ATOM     85  S   UNL A   1      37.930  29.264  32.702  1.00  0.00     0.124 S 
ATOM     86  O   UNL A   1      36.707  30.054  32.791  1.00  0.00    -0.237 OA
ATOM     87  O   UNL A   1      37.778  27.823  32.876  1.00  0.00    -0.237 OA
ATOM     88  O   UNL A   1      39.101  29.848  33.352  1.00  0.00    -0.744 OA
ENDBRANCH  81  85
ENDBRANCH  54  78
BRANCH  66  89
ATOM     89  C   UNL A   1      45.582  33.420  29.115  1.00  0.00     0.023 A 
ATOM     90  C   UNL A   1      45.448  34.447  28.165  1.00  0.00     0.031 A 
ATOM     91  C   UNL A   1      45.911  33.778  30.435  1.00  0.00     0.131 A 
ATOM     92  C   UNL A   1      45.687  35.779  28.536  1.00  0.00     0.055 A 
ATOM     93  C   UNL A   1      46.095  35.109  30.812  1.00  0.00     0.041 A 
ATOM     94  F   UNL A   1      46.054  32.836  31.382  1.00  0.00    -0.206 F 
ATOM     95  C   UNL A   1      45.995  36.117  29.857  1.00  0.00     0.022 A 
BRANCH  92  96
ATOM     96  S   UNL A   1      45.667  37.060  27.252  1.00  0.00     0.124 S 
ATOM     97  O   UNL A   1      46.257  36.360  26.116  1.00  0.00    -0.237 OA
ATOM     98  O   UNL A   1      44.246  37.370  27.142  1.00  0.00    -0.237 OA
ATOM     99  O   UNL A   1      46.491  38.127  27.819  1.00  0.00    -0.744 OA
ENDBRANCH  92  96
ENDBRANCH  66  89
ENDBRANCH  40  41
ENDBRANCH  32  35
ENDBRANCH  30  31
ENDBRANCH  29  30
ENDBRANCH  28  29
ENDBRANCH  27  28
ENDBRANCH   1  27
TORSDOF 21
ENDMDL
MODEL 3
REMARK VINA RESULT:     -11.5      2.588      3.585
REMARK SMILES O=C(CCc1ccc(S(=O)(=O)Nc2cccc(I)c2)cc1)NCCCCCCNC(=O)c1ccc(-c2c3nc(c(-c4cc(S(=O)(=O)[O-])ccc4F)c4ccc([nH]4)c(-c4cc(S(=O)(=O)[O-])ccc4F)c4nc(c(-c5cc(S(=O)(=O)[O-])ccc5F)c5ccc2[nH]5)C=C4)C=C3)cc1
REMARK SMILES IDX 24 1 23 2 22 3 1 4 2 5 3 7 4 8 5 9 6 10 21 11 7 12 20 13
REMARK SMILES IDX 8 14 9 15 10 16 11 17 12 18 13 20 14 21 19 22 15 23 17 24
REMARK SMILES IDX 16 25 18 26 25 27 26 28 27 29 28 30 29 31 30 32 31 34 32 35
REMARK SMILES IDX 33 36 94 37 34 38 93 39 35 40 36 41 37 42 87 43 38 44 92 45
REMARK SMILES IDX 86 46 88 47 39 48 91 49 85 50 84 51 40 53 72 54 52 55 71 56
REMARK SMILES IDX 53 57 56 58 70 59 89 60 54 61 55 62 69 64 90 65 57 66 41 67
REMARK SMILES IDX 42 68 50 69 43 70 49 71 51 72 48 73 44 74 45 75 46 76 47 77
REMARK SMILES IDX 73 78 74 79 82 80 75 81 81 82 83 83 80 84 76 85 77 86 78 87
REMARK SMILES IDX 79 88 58 89 59 90 67 91 60 92 66 93 68 94 65 95 61 96 62 97
REMARK SMILES IDX 63 98 64 99
REMARK H PARENT 22 6 12 19 29 33 88 52 56 63
REMARK Flexibility Score: inf
ROOT
ATOM      1  C   UNL A   1      36.942  23.366  25.659  1.00  0.00     0.021 C 
ENDROOT
BRANCH   1   2
ATOM      2  C   UNL A   1      35.894  22.895  26.673  1.00  0.00     0.116 C 
BRANCH   2   3
ATOM      3  N   UNL A   1      35.004  21.875  26.147  1.00  0.00    -0.356 N 
ATOM      4  O   UNL A   1      33.162  22.472  27.354  1.00  0.00    -0.275 OA
ATOM      5  C   UNL A   1      33.693  21.732  26.528  1.00  0.00     0.220 C 
ATOM      6  H   UNL A   1      35.362  21.249  25.479  1.00  0.00     0.163 HD
BRANCH   5   7
ATOM      7  C   UNL A   1      32.922  20.532  25.974  1.00  0.00     0.105 C 
BRANCH   7   8
ATOM      8  C   UNL A   1      32.217  20.671  24.617  1.00  0.00     0.045 C 
BRANCH   8   9
ATOM      9  C   UNL A   1      32.371  21.983  23.876  1.00  0.00    -0.047 A 
ATOM     10  C   UNL A   1      33.498  22.216  23.072  1.00  0.00     0.005 A 
ATOM     11  C   UNL A   1      31.396  22.976  23.940  1.00  0.00     0.005 A 
ATOM     12  C   UNL A   1      33.621  23.399  22.324  1.00  0.00     0.022 A 
ATOM     13  C   UNL A   1      31.486  24.111  23.145  1.00  0.00     0.022 A 
ATOM     14  C   UNL A   1      32.603  24.357  22.360  1.00  0.00     0.087 A 
BRANCH  14  15
ATOM     15  S   UNL A   1      32.820  25.893  21.469  1.00  0.00     0.261 S 
ATOM     16  O   UNL A   1      33.885  26.610  22.132  1.00  0.00    -0.201 OA
ATOM     17  O   UNL A   1      32.925  25.528  20.070  1.00  0.00    -0.201 OA
BRANCH  15  18
ATOM     18  N   UNL A   1      31.400  26.781  21.568  1.00  0.00    -0.280 N 
ATOM     19  H   UNL A   1      30.771  26.691  20.817  1.00  0.00     0.180 HD
BRANCH  18  20
ATOM     20  C   UNL A   1      31.009  27.653  22.626  1.00  0.00     0.050 A 
ATOM     21  C   UNL A   1      31.850  27.710  23.742  1.00  0.00     0.027 A 
ATOM     22  C   UNL A   1      29.938  28.547  22.539  1.00  0.00     0.041 A 
ATOM     23  C   UNL A   1      31.731  28.746  24.671  1.00  0.00     0.003 A 
ATOM     24  C   UNL A   1      29.849  29.608  23.447  1.00  0.00     0.015 A 
ATOM     25  C   UNL A   1      30.755  29.723  24.500  1.00  0.00     0.015 A 
ATOM     26  I   UNL A   1      28.452  31.116  23.124  1.00  0.00    -0.044 I 
ENDBRANCH  18  20
ENDBRANCH  15  18
ENDBRANCH  14  15
ENDBRANCH   8   9
ENDBRANCH   7   8
ENDBRANCH   5   7
ENDBRANCH   2   3
ENDBRANCH   1   2
BRANCH   1  27
ATOM     27  C   UNL A   1      38.168  24.097  26.226  1.00  0.00     0.002 C 
BRANCH  27  28
ATOM     28  C   UNL A   1      39.346  23.220  26.659  1.00  0.00     0.002 C 
BRANCH  28  29
ATOM     29  C   UNL A   1      39.382  21.813  26.055  1.00  0.00     0.021 C 
BRANCH  29  30
ATOM     30  C   UNL A   1      40.030  20.740  26.928  1.00  0.00     0.116 C 
BRANCH  30  31
ATOM     31  N   UNL A   1      40.886  19.838  26.175  1.00  0.00    -0.352 N 
ATOM     32  C   UNL A   1      42.196  19.991  25.783  1.00  0.00     0.251 C 
ATOM     33  H   UNL A   1      40.465  18.991  25.903  1.00  0.00     0.163 HD
ATOM     34  O   UNL A   1      42.730  19.104  25.123  1.00  0.00    -0.269 OA
BRANCH  32  35
ATOM     35  C   UNL A   1      42.918  21.247  26.095  1.00  0.00     0.039 A 
ATOM     36  C   UNL A   1      43.072  22.196  25.080  1.00  0.00     0.014 A 
ATOM     37  C   UNL A   1      43.376  21.522  27.386  1.00  0.00     0.014 A 
ATOM     38  C   UNL A   1      43.585  23.461  25.384  1.00  0.00     0.010 A 
ATOM     39  C   UNL A   1      43.831  22.802  27.698  1.00  0.00     0.010 A 
ATOM     40  C   UNL A   1      43.915  23.793  26.707  1.00  0.00    -0.014 A 
BRANCH  40  41
ATOM     41  C   UNL A   1      44.292  25.181  27.084  1.00  0.00     0.031 A 
ATOM     42  C   UNL A   1      43.261  26.130  27.627  1.00  0.00     0.074 A 
ATOM     43  C   UNL A   1      45.550  25.612  26.852  1.00  0.00     0.049 A 
ATOM     44  N   UNL A   1      43.377  27.400  27.920  1.00  0.00    -0.248 NA
ATOM     45  C   UNL A   1      41.914  25.582  27.840  1.00  0.00     0.031 C 
ATOM     46  C   UNL A   1      46.629  24.799  26.286  1.00  0.00     0.029 A 
ATOM     47  N   UNL A   1      46.130  26.839  27.050  1.00  0.00    -0.354 N 
ATOM     48  C   UNL A   1      42.117  27.809  28.344  1.00  0.00     0.074 A 
ATOM     49  C   UNL A   1      41.242  26.661  28.214  1.00  0.00     0.031 C 
ATOM     50  C   UNL A   1      47.742  25.545  26.196  1.00  0.00     0.029 A 
ATOM     51  C   UNL A   1      47.449  26.898  26.656  1.00  0.00     0.049 A 
ATOM     52  H   UNL A   1      45.650  27.607  27.437  1.00  0.00     0.167 HD
ATOM     53  C   UNL A   1      41.732  29.022  28.814  1.00  0.00     0.034 A 
ATOM     54  C   UNL A   1      48.318  27.929  26.651  1.00  0.00     0.034 A 
ATOM     55  C   UNL A   1      42.618  30.154  28.944  1.00  0.00     0.049 A 
ATOM     56  C   UNL A   1      47.862  29.273  27.160  1.00  0.00     0.074 A 
ATOM     57  C   UNL A   1      42.344  31.409  29.461  1.00  0.00     0.029 A 
ATOM     58  N   UNL A   1      43.948  30.174  28.544  1.00  0.00    -0.354 N 
ATOM     59  N   UNL A   1      46.679  29.628  27.606  1.00  0.00    -0.248 NA
ATOM     60  C   UNL A   1      48.860  30.350  27.172  1.00  0.00     0.031 C 
ATOM     61  C   UNL A   1      43.487  32.204  29.318  1.00  0.00     0.029 A 
ATOM     62  C   UNL A   1      44.497  31.426  28.775  1.00  0.00     0.049 A 
ATOM     63  H   UNL A   1      44.431  29.410  28.154  1.00  0.00     0.167 HD
ATOM     64  C   UNL A   1      46.802  30.964  27.978  1.00  0.00     0.074 A 
ATOM     65  C   UNL A   1      48.173  31.345  27.715  1.00  0.00     0.031 C 
ATOM     66  C   UNL A   1      45.864  31.797  28.495  1.00  0.00     0.034 A 
BRANCH  53  67
ATOM     67  C   UNL A   1      40.280  29.183  29.197  1.00  0.00     0.023 A 
ATOM     68  C   UNL A   1      39.871  29.206  30.543  1.00  0.00     0.031 A 
ATOM     69  C   UNL A   1      39.288  29.284  28.207  1.00  0.00     0.131 A 
ATOM     70  C   UNL A   1      38.506  29.242  30.860  1.00  0.00     0.055 A 
ATOM     71  C   UNL A   1      37.934  29.404  28.531  1.00  0.00     0.041 A 
ATOM     72  F   UNL A   1      39.614  29.250  26.905  1.00  0.00    -0.206 F 
ATOM     73  C   UNL A   1      37.535  29.366  29.863  1.00  0.00     0.022 A 
BRANCH  70  74
ATOM     74  S   UNL A   1      38.012  28.974  32.583  1.00  0.00     0.124 S 
ATOM     75  O   UNL A   1      39.101  29.626  33.307  1.00  0.00    -0.237 OA
ATOM     76  O   UNL A   1      36.715  29.639  32.647  1.00  0.00    -0.237 OA
ATOM     77  O   UNL A   1      37.975  27.519  32.708  1.00  0.00    -0.744 OA
ENDBRANCH  70  74
ENDBRANCH  53  67
BRANCH  54  78
ATOM     78  C   UNL A   1      49.705  27.743  26.137  1.00  0.00     0.023 A 
ATOM     79  C   UNL A   1      49.987  27.849  24.766  1.00  0.00     0.031 A 
ATOM     80  C   UNL A   1      50.761  27.418  27.007  1.00  0.00     0.131 A 
ATOM     81  C   UNL A   1      51.285  27.589  24.298  1.00  0.00     0.055 A 
ATOM     82  C   UNL A   1      52.060  27.208  26.542  1.00  0.00     0.041 A 
ATOM     83  F   UNL A   1      50.545  27.313  28.327  1.00  0.00    -0.206 F 
ATOM     84  C   UNL A   1      52.326  27.280  25.177  1.00  0.00     0.022 A 
BRANCH  81  85
ATOM     85  S   UNL A   1      51.578  27.586  22.508  1.00  0.00     0.124 S 
ATOM     86  O   UNL A   1      52.762  26.740  22.402  1.00  0.00    -0.237 OA
ATOM     87  O   UNL A   1      50.334  27.016  22.000  1.00  0.00    -0.237 OA
ATOM     88  O   UNL A   1      51.788  28.998  22.195  1.00  0.00    -0.744 OA
ENDBRANCH  81  85
ENDBRANCH  54  78
BRANCH  66  89
ATOM     89  C   UNL A   1      46.313  33.194  28.848  1.00  0.00     0.023 A 
ATOM     90  C   UNL A   1      46.105  34.280  27.980  1.00  0.00     0.031 A 
ATOM     91  C   UNL A   1      46.971  33.436  30.067  1.00  0.00     0.131 A 
ATOM     92  C   UNL A   1      46.592  35.550  28.321  1.00  0.00     0.055 A 
ATOM     93  C   UNL A   1      47.406  34.713  30.426  1.00  0.00     0.041 A 
ATOM     94  F   UNL A   1      47.198  32.434  30.931  1.00  0.00    -0.206 F 
ATOM     95  C   UNL A   1      47.228  35.777  29.545  1.00  0.00     0.022 A 
BRANCH  92  96
ATOM     96  S   UNL A   1      46.453  36.893  27.109  1.00  0.00     0.124 S 
ATOM     97  O   UNL A   1      45.012  36.949  26.884  1.00  0.00    -0.237 OA
ATOM     98  O   UNL A   1      47.030  38.023  27.827  1.00  0.00    -0.237 OA
ATOM     99  O   UNL A   1      47.239  36.414  25.974  1.00  0.00    -0.744 OA
ENDBRANCH  92  96
ENDBRANCH  66  89
ENDBRANCH  40  41
ENDBRANCH  32  35
ENDBRANCH  30  31
ENDBRANCH  29  30
ENDBRANCH  28  29
ENDBRANCH  27  28
ENDBRANCH   1  27
TORSDOF 21
ENDMDL
