MODEL 1
REMARK VINA RESULT:     -11.4      0.000      0.000
REMARK SMILES CC[C@@](C)([NH2+]CC(=O)N[C@]1(C)CCS(=O)(=O)C1)C(=O)NCCCCCCNC(=O)c1ccc(-c2c3nc(c(-c4cc(S(=O)(=O)[O-])ccc4F)c4ccc([nH]4)c(-c4cc(S(=O)(=O)[O-])ccc4F)c4nc(c(-c5cc(S(=O)(=O)[O-])ccc5F)c5ccc2[nH]5)C=C4)C=C3)cc1
REMARK SMILES IDX 23 1 22 2 21 3 20 4 18 5 19 6 3 8 4 9 2 10 1 11 5 12 6 15
REMARK SMILES IDX 7 16 8 17 9 18 10 20 12 21 17 22 11 23 13 24 14 25 15 26
REMARK SMILES IDX 16 27 24 28 25 29 26 30 27 31 28 32 29 34 30 35 31 36 92 37
REMARK SMILES IDX 32 38 91 39 33 40 34 41 35 42 85 43 36 44 90 45 84 46 86 47
REMARK SMILES IDX 37 48 89 49 83 50 82 51 38 53 70 54 50 55 69 56 51 57 54 58
REMARK SMILES IDX 68 59 87 60 52 61 53 62 67 64 88 65 55 66 39 67 40 68 48 69
REMARK SMILES IDX 41 70 47 71 49 72 46 73 42 74 43 75 44 76 45 77 71 78 72 79
REMARK SMILES IDX 80 80 73 81 79 82 81 83 78 84 74 85 75 86 76 87 77 88 56 89
REMARK SMILES IDX 57 90 65 91 58 92 64 93 66 94 63 95 59 96 60 97 61 98 62 99
REMARK H PARENT 20 7 5 13 5 14 9 19 27 33 86 52 54 63
REMARK Flexibility Score: inf
ROOT
ATOM      1  C   UNL A   1      31.160  25.737  26.257  1.00  0.00     0.002 C 
ENDROOT
BRANCH   1   2
ATOM      2  C   UNL A   1      30.009  24.748  26.422  1.00  0.00     0.021 C 
BRANCH   2   3
ATOM      3  C   UNL A   1      30.383  23.299  26.636  1.00  0.00     0.116 C 
BRANCH   3   4
ATOM      4  N   UNL A   1      31.025  22.325  25.599  1.00  0.00    -0.351 N 
ATOM      5  C   UNL A   1      32.388  22.189  24.860  1.00  0.00     0.281 C 
ATOM      6  O   UNL A   1      32.189  20.968  24.579  1.00  0.00    -0.268 OA
ATOM      7  H   UNL A   1      30.403  21.605  25.346  1.00  0.00     0.163 HD
BRANCH   5   8
ATOM      8  C   UNL A   1      34.018  23.549  24.322  1.00  0.00     0.172 C 
ATOM      9  C   UNL A   1      34.835  24.875  25.289  1.00  0.00     0.090 C 
BRANCH   8  10
ATOM     10  C   UNL A   1      35.732  23.070  23.910  1.00  0.00     0.075 C 
ATOM     11  C   UNL A   1      36.409  21.774  24.517  1.00  0.00     0.011 C 
ENDBRANCH   8  10
BRANCH   8  12
ATOM     12  N   UNL A   1      33.826  24.522  23.107  1.00  0.00    -0.326 N 
ATOM     13  H   UNL A   1      34.585  24.288  22.467  1.00  0.00     0.347 HD
ATOM     14  H   UNL A   1      33.749  25.397  23.625  1.00  0.00     0.347 HD
BRANCH  12  15
ATOM     15  C   UNL A   1      32.644  24.677  22.240  1.00  0.00     0.362 C 
BRANCH  15  16
ATOM     16  C   UNL A   1      32.668  25.849  21.210  1.00  0.00     0.275 C 
ATOM     17  O   UNL A   1      32.876  25.621  20.018  1.00  0.00    -0.268 OA
ATOM     18  N   UNL A   1      32.498  27.171  21.598  1.00  0.00    -0.345 N 
ATOM     19  H   UNL A   1      33.022  27.845  21.106  1.00  0.00     0.164 HD
BRANCH  18  20
ATOM     20  C   UNL A   1      31.594  27.686  22.698  1.00  0.00     0.052 C 
ATOM     21  C   UNL A   1      29.858  26.953  23.428  1.00  0.00     0.045 C 
ATOM     22  C   UNL A   1      31.324  29.476  21.949  1.00  0.00     0.165 C 
ATOM     23  C   UNL A   1      32.551  27.486  23.928  1.00  0.00     0.036 C 
ATOM     24  C   UNL A   1      28.354  28.280  23.325  1.00  0.00     0.139 C 
ATOM     25  S   UNL A   1      29.025  30.055  22.042  1.00  0.00     0.152 S 
ATOM     26  O   UNL A   1      28.657  31.252  22.788  1.00  0.00    -0.229 OA
ATOM     27  O   UNL A   1      28.392  30.056  20.730  1.00  0.00    -0.229 OA
ENDBRANCH  18  20
ENDBRANCH  15  16
ENDBRANCH  12  15
ENDBRANCH   8  12
ENDBRANCH   5   8
ENDBRANCH   3   4
ENDBRANCH   2   3
ENDBRANCH   1   2
BRANCH   1  28
ATOM     28  C   UNL A   1      31.491  26.700  27.414  1.00  0.00     0.002 C 
BRANCH  28  29
ATOM     29  C   UNL A   1      31.790  28.183  27.120  1.00  0.00     0.021 C 
BRANCH  29  30
ATOM     30  C   UNL A   1      33.246  28.611  27.210  1.00  0.00     0.116 C 
BRANCH  30  31
ATOM     31  N   UNL A   1      33.380  30.054  27.152  1.00  0.00    -0.352 N 
ATOM     32  C   UNL A   1      34.327  30.867  27.711  1.00  0.00     0.251 C 
ATOM     33  H   UNL A   1      32.684  30.518  26.633  1.00  0.00     0.163 HD
ATOM     34  O   UNL A   1      34.114  32.070  27.811  1.00  0.00    -0.269 OA
BRANCH  32  35
ATOM     35  C   UNL A   1      35.592  30.281  28.191  1.00  0.00     0.039 A 
ATOM     36  C   UNL A   1      36.688  30.244  27.329  1.00  0.00     0.014 A 
ATOM     37  C   UNL A   1      35.685  29.762  29.487  1.00  0.00     0.014 A 
ATOM     38  C   UNL A   1      37.897  29.723  27.784  1.00  0.00     0.010 A 
ATOM     39  C   UNL A   1      36.911  29.322  29.964  1.00  0.00     0.010 A 
ATOM     40  C   UNL A   1      38.026  29.288  29.114  1.00  0.00    -0.014 A 
BRANCH  40  41
ATOM     41  C   UNL A   1      39.322  28.789  29.627  1.00  0.00     0.031 A 
ATOM     42  C   UNL A   1      39.976  29.465  30.796  1.00  0.00     0.074 A 
ATOM     43  C   UNL A   1      39.922  27.757  29.003  1.00  0.00     0.049 A 
ATOM     44  N   UNL A   1      41.131  29.215  31.355  1.00  0.00    -0.248 NA
ATOM     45  C   UNL A   1      39.248  30.594  31.398  1.00  0.00     0.031 C 
ATOM     46  C   UNL A   1      39.388  27.056  27.832  1.00  0.00     0.029 A 
ATOM     47  N   UNL A   1      41.110  27.122  29.257  1.00  0.00    -0.354 N 
ATOM     48  C   UNL A   1      41.272  30.157  32.369  1.00  0.00     0.074 A 
ATOM     49  C   UNL A   1      40.117  31.026  32.297  1.00  0.00     0.031 C 
ATOM     50  C   UNL A   1      40.231  26.070  27.489  1.00  0.00     0.029 A 
ATOM     51  C   UNL A   1      41.391  26.106  28.372  1.00  0.00     0.049 A 
ATOM     52  H   UNL A   1      41.704  27.368  30.002  1.00  0.00     0.167 HD
ATOM     53  C   UNL A   1      42.262  30.265  33.287  1.00  0.00     0.034 A 
ATOM     54  C   UNL A   1      42.475  25.313  28.270  1.00  0.00     0.034 A 
ATOM     55  C   UNL A   1      43.404  29.387  33.329  1.00  0.00     0.049 A 
ATOM     56  C   UNL A   1      43.589  25.486  29.269  1.00  0.00     0.074 A 
ATOM     57  C   UNL A   1      44.445  29.370  34.241  1.00  0.00     0.029 A 
ATOM     58  N   UNL A   1      43.667  28.379  32.408  1.00  0.00    -0.354 N 
ATOM     59  N   UNL A   1      43.681  26.341  30.262  1.00  0.00    -0.248 NA
ATOM     60  C   UNL A   1      44.738  24.583  29.143  1.00  0.00     0.031 C 
ATOM     61  C   UNL A   1      45.380  28.419  33.819  1.00  0.00     0.029 A 
ATOM     62  C   UNL A   1      44.877  27.768  32.702  1.00  0.00     0.049 A 
ATOM     63  H   UNL A   1      43.081  28.135  31.656  1.00  0.00     0.167 HD
ATOM     64  C   UNL A   1      44.890  26.060  30.895  1.00  0.00     0.074 A 
ATOM     65  C   UNL A   1      45.478  24.944  30.181  1.00  0.00     0.031 C 
ATOM     66  C   UNL A   1      45.458  26.666  31.970  1.00  0.00     0.034 A 
BRANCH  53  67
ATOM     67  C   UNL A   1      42.161  31.394  34.288  1.00  0.00     0.023 A 
ATOM     68  C   UNL A   1      41.223  31.372  35.336  1.00  0.00     0.031 A 
ATOM     69  C   UNL A   1      42.987  32.526  34.172  1.00  0.00     0.131 A 
ATOM     70  C   UNL A   1      41.073  32.492  36.166  1.00  0.00     0.055 A 
ATOM     71  C   UNL A   1      42.898  33.598  35.062  1.00  0.00     0.041 A 
ATOM     72  F   UNL A   1      43.884  32.619  33.178  1.00  0.00    -0.206 F 
ATOM     73  C   UNL A   1      41.923  33.594  36.055  1.00  0.00     0.022 A 
BRANCH  70  74
ATOM     74  S   UNL A   1      39.636  32.562  37.273  1.00  0.00     0.124 S 
ATOM     75  O   UNL A   1      38.912  31.350  36.892  1.00  0.00    -0.237 OA
ATOM     76  O   UNL A   1      40.254  32.549  38.593  1.00  0.00    -0.237 OA
ATOM     77  O   UNL A   1      38.978  33.813  36.902  1.00  0.00    -0.744 OA
ENDBRANCH  70  74
ENDBRANCH  53  67
BRANCH  54  78
ATOM     78  C   UNL A   1      42.571  24.313  27.168  1.00  0.00     0.023 A 
ATOM     79  C   UNL A   1      41.944  23.061  27.260  1.00  0.00     0.031 A 
ATOM     80  C   UNL A   1      43.323  24.588  26.010  1.00  0.00     0.131 A 
ATOM     81  C   UNL A   1      42.116  22.115  26.237  1.00  0.00     0.055 A 
ATOM     82  C   UNL A   1      43.438  23.668  24.967  1.00  0.00     0.041 A 
ATOM     83  F   UNL A   1      43.944  25.770  25.869  1.00  0.00    -0.206 F 
ATOM     84  C   UNL A   1      42.843  22.418  25.083  1.00  0.00     0.022 A 
BRANCH  81  85
ATOM     85  S   UNL A   1      41.457  20.443  26.479  1.00  0.00     0.124 S 
ATOM     86  O   UNL A   1      41.896  20.145  27.838  1.00  0.00    -0.237 OA
ATOM     87  O   UNL A   1      40.024  20.653  26.299  1.00  0.00    -0.237 OA
ATOM     88  O   UNL A   1      42.108  19.664  25.427  1.00  0.00    -0.744 OA
ENDBRANCH  81  85
ENDBRANCH  54  78
BRANCH  66  89
ATOM     89  C   UNL A   1      46.769  26.101  32.462  1.00  0.00     0.023 A 
ATOM     90  C   UNL A   1      46.823  25.066  33.411  1.00  0.00     0.031 A 
ATOM     91  C   UNL A   1      47.985  26.607  31.966  1.00  0.00     0.131 A 
ATOM     92  C   UNL A   1      48.064  24.610  33.878  1.00  0.00     0.055 A 
ATOM     93  C   UNL A   1      49.216  26.097  32.379  1.00  0.00     0.041 A 
ATOM     94  F   UNL A   1      47.996  27.600  31.064  1.00  0.00    -0.206 F 
ATOM     95  C   UNL A   1      49.261  25.102  33.349  1.00  0.00     0.022 A 
BRANCH  92  96
ATOM     96  S   UNL A   1      48.097  23.438  35.261  1.00  0.00     0.124 S 
ATOM     97  O   UNL A   1      48.920  24.144  36.236  1.00  0.00    -0.237 OA
ATOM     98  O   UNL A   1      46.682  23.308  35.595  1.00  0.00    -0.237 OA
ATOM     99  O   UNL A   1      48.708  22.242  34.683  1.00  0.00    -0.744 OA
ENDBRANCH  92  96
ENDBRANCH  66  89
ENDBRANCH  40  41
ENDBRANCH  32  35
ENDBRANCH  30  31
ENDBRANCH  29  30
ENDBRANCH  28  29
ENDBRANCH   1  28
TORSDOF 21
ENDMDL
MODEL 2
REMARK VINA RESULT:     -10.2      6.626      8.231
REMARK SMILES CC[C@@](C)([NH2+]CC(=O)N[C@]1(C)CCS(=O)(=O)C1)C(=O)NCCCCCCNC(=O)c1ccc(-c2c3nc(c(-c4cc(S(=O)(=O)[O-])ccc4F)c4ccc([nH]4)c(-c4cc(S(=O)(=O)[O-])ccc4F)c4nc(c(-c5cc(S(=O)(=O)[O-])ccc5F)c5ccc2[nH]5)C=C4)C=C3)cc1
REMARK SMILES IDX 23 1 22 2 21 3 20 4 18 5 19 6 3 8 4 9 2 10 1 11 5 12 6 15
REMARK SMILES IDX 7 16 8 17 9 18 10 20 12 21 17 22 11 23 13 24 14 25 15 26
REMARK SMILES IDX 16 27 24 28 25 29 26 30 27 31 28 32 29 34 30 35 31 36 92 37
REMARK SMILES IDX 32 38 91 39 33 40 34 41 35 42 85 43 36 44 90 45 84 46 86 47
REMARK SMILES IDX 37 48 89 49 83 50 82 51 38 53 70 54 50 55 69 56 51 57 54 58
REMARK SMILES IDX 68 59 87 60 52 61 53 62 67 64 88 65 55 66 39 67 40 68 48 69
REMARK SMILES IDX 41 70 47 71 49 72 46 73 42 74 43 75 44 76 45 77 71 78 72 79
REMARK SMILES IDX 80 80 73 81 79 82 81 83 78 84 74 85 75 86 76 87 77 88 56 89
REMARK SMILES IDX 57 90 65 91 58 92 64 93 66 94 63 95 59 96 60 97 61 98 62 99
REMARK H PARENT 20 7 5 13 5 14 9 19 27 33 86 52 54 63
REMARK Flexibility Score: inf
ROOT
ATOM      1  C   UNL A   1      34.359  31.563  28.435  1.00  0.00     0.002 C 
ENDROOT
BRANCH   1   2
ATOM      2  C   UNL A   1      35.114  30.549  27.580  1.00  0.00     0.021 C 
BRANCH   2   3
ATOM      3  C   UNL A   1      34.503  29.171  27.459  1.00  0.00     0.116 C 
BRANCH   3   4
ATOM      4  N   UNL A   1      33.011  28.775  27.688  1.00  0.00    -0.351 N 
ATOM      5  C   UNL A   1      31.896  28.037  26.893  1.00  0.00     0.281 C 
ATOM      6  O   UNL A   1      31.209  27.811  27.936  1.00  0.00    -0.268 OA
ATOM      7  H   UNL A   1      32.690  29.071  28.572  1.00  0.00     0.163 HD
BRANCH   5   8
ATOM      8  C   UNL A   1      31.492  27.625  24.780  1.00  0.00     0.172 C 
ATOM      9  C   UNL A   1      29.932  27.721  23.823  1.00  0.00     0.090 C 
BRANCH   8  10
ATOM     10  C   UNL A   1      32.190  28.525  23.352  1.00  0.00     0.075 C 
ATOM     11  C   UNL A   1      33.726  28.899  23.267  1.00  0.00     0.011 C 
ENDBRANCH   8  10
BRANCH   8  12
ATOM     12  N   UNL A   1      31.775  26.188  24.219  1.00  0.00    -0.326 N 
ATOM     13  H   UNL A   1      32.760  26.021  24.422  1.00  0.00     0.347 HD
ATOM     14  H   UNL A   1      31.385  26.312  23.284  1.00  0.00     0.347 HD
BRANCH  12  15
ATOM     15  C   UNL A   1      31.103  24.923  24.569  1.00  0.00     0.362 C 
BRANCH  15  16
ATOM     16  C   UNL A   1      30.770  24.691  26.076  1.00  0.00     0.275 C 
ATOM     17  O   UNL A   1      29.682  25.047  26.531  1.00  0.00    -0.268 OA
ATOM     18  N   UNL A   1      31.685  24.120  26.951  1.00  0.00    -0.345 N 
ATOM     19  H   UNL A   1      31.686  24.466  27.873  1.00  0.00     0.164 HD
BRANCH  18  20
ATOM     20  C   UNL A   1      32.682  23.025  26.636  1.00  0.00     0.052 C 
ATOM     21  C   UNL A   1      34.457  23.097  25.674  1.00  0.00     0.045 C 
ATOM     22  C   UNL A   1      31.433  21.849  25.689  1.00  0.00     0.165 C 
ATOM     23  C   UNL A   1      33.140  22.670  28.097  1.00  0.00     0.036 C 
ATOM     24  C   UNL A   1      34.533  21.858  24.096  1.00  0.00     0.139 C 
ATOM     25  S   UNL A   1      32.424  21.065  23.681  1.00  0.00     0.152 S 
ATOM     26  O   UNL A   1      32.563  19.625  23.510  1.00  0.00    -0.229 OA
ATOM     27  O   UNL A   1      31.835  21.666  22.491  1.00  0.00    -0.229 OA
ENDBRANCH  18  20
ENDBRANCH  15  16
ENDBRANCH  12  15
ENDBRANCH   8  12
ENDBRANCH   5   8
ENDBRANCH   3   4
ENDBRANCH   2   3
ENDBRANCH   1   2
BRANCH   1  28
ATOM     28  C   UNL A   1      34.976  32.957  28.661  1.00  0.00     0.002 C 
BRANCH  28  29
ATOM     29  C   UNL A   1      36.105  33.140  29.695  1.00  0.00     0.021 C 
BRANCH  29  30
ATOM     30  C   UNL A   1      35.722  32.956  31.155  1.00  0.00     0.116 C 
BRANCH  30  31
ATOM     31  N   UNL A   1      35.639  31.551  31.508  1.00  0.00    -0.352 N 
ATOM     32  C   UNL A   1      36.544  30.545  31.308  1.00  0.00     0.251 C 
ATOM     33  H   UNL A   1      34.807  31.282  31.959  1.00  0.00     0.163 HD
ATOM     34  O   UNL A   1      36.184  29.377  31.396  1.00  0.00    -0.269 OA
BRANCH  32  35
ATOM     35  C   UNL A   1      37.942  30.883  30.982  1.00  0.00     0.039 A 
ATOM     36  C   UNL A   1      38.418  30.615  29.698  1.00  0.00     0.014 A 
ATOM     37  C   UNL A   1      38.778  31.451  31.949  1.00  0.00     0.014 A 
ATOM     38  C   UNL A   1      39.727  30.961  29.370  1.00  0.00     0.010 A 
ATOM     39  C   UNL A   1      40.052  31.871  31.595  1.00  0.00     0.010 A 
ATOM     40  C   UNL A   1      40.542  31.620  30.305  1.00  0.00    -0.014 A 
BRANCH  40  41
ATOM     41  C   UNL A   1      41.914  32.047  29.949  1.00  0.00     0.031 A 
ATOM     42  C   UNL A   1      42.194  33.488  29.638  1.00  0.00     0.074 A 
ATOM     43  C   UNL A   1      42.889  31.121  29.863  1.00  0.00     0.049 A 
ATOM     44  N   UNL A   1      43.310  34.048  29.252  1.00  0.00    -0.248 NA
ATOM     45  C   UNL A   1      41.059  34.419  29.744  1.00  0.00     0.031 C 
ATOM     46  C   UNL A   1      42.711  29.687  30.107  1.00  0.00     0.029 A 
ATOM     47  N   UNL A   1      44.216  31.241  29.542  1.00  0.00    -0.354 N 
ATOM     48  C   UNL A   1      43.012  35.394  29.064  1.00  0.00     0.074 A 
ATOM     49  C   UNL A   1      41.594  35.548  29.308  1.00  0.00     0.031 C 
ATOM     50  C   UNL A   1      43.891  29.067  29.956  1.00  0.00     0.029 A 
ATOM     51  C   UNL A   1      44.894  30.043  29.545  1.00  0.00     0.049 A 
ATOM     52  H   UNL A   1      44.644  32.102  29.332  1.00  0.00     0.167 HD
ATOM     53  C   UNL A   1      43.853  36.407  28.744  1.00  0.00     0.034 A 
ATOM     54  C   UNL A   1      46.173  29.763  29.227  1.00  0.00     0.034 A 
ATOM     55  C   UNL A   1      45.262  36.221  28.500  1.00  0.00     0.049 A 
ATOM     56  C   UNL A   1      47.077  30.898  28.822  1.00  0.00     0.074 A 
ATOM     57  C   UNL A   1      46.221  37.177  28.215  1.00  0.00     0.029 A 
ATOM     58  N   UNL A   1      45.913  34.992  28.495  1.00  0.00    -0.354 N 
ATOM     59  N   UNL A   1      46.797  32.176  28.708  1.00  0.00    -0.248 NA
ATOM     60  C   UNL A   1      48.470  30.556  28.512  1.00  0.00     0.031 C 
ATOM     61  C   UNL A   1      47.426  36.521  27.946  1.00  0.00     0.029 A 
ATOM     62  C   UNL A   1      47.249  35.163  28.163  1.00  0.00     0.049 A 
ATOM     63  H   UNL A   1      45.489  34.128  28.695  1.00  0.00     0.167 HD
ATOM     64  C   UNL A   1      47.988  32.795  28.337  1.00  0.00     0.074 A 
ATOM     65  C   UNL A   1      48.990  31.750  28.268  1.00  0.00     0.031 C 
ATOM     66  C   UNL A   1      48.233  34.107  28.082  1.00  0.00     0.034 A 
BRANCH  53  67
ATOM     67  C   UNL A   1      43.256  37.789  28.604  1.00  0.00     0.023 A 
ATOM     68  C   UNL A   1      43.312  38.727  29.651  1.00  0.00     0.031 A 
ATOM     69  C   UNL A   1      42.587  38.162  27.426  1.00  0.00     0.131 A 
ATOM     70  C   UNL A   1      42.636  39.951  29.532  1.00  0.00     0.055 A 
ATOM     71  C   UNL A   1      41.999  39.419  27.277  1.00  0.00     0.041 A 
ATOM     72  F   UNL A   1      42.477  37.302  26.401  1.00  0.00    -0.206 F 
ATOM     73  C   UNL A   1      42.004  40.315  28.342  1.00  0.00     0.022 A 
BRANCH  70  74
ATOM     74  S   UNL A   1      42.443  40.979  31.015  1.00  0.00     0.124 S 
ATOM     75  O   UNL A   1      43.376  42.070  30.741  1.00  0.00    -0.237 OA
ATOM     76  O   UNL A   1      41.027  41.325  30.976  1.00  0.00    -0.237 OA
ATOM     77  O   UNL A   1      42.840  40.088  32.104  1.00  0.00    -0.744 OA
ENDBRANCH  70  74
ENDBRANCH  53  67
BRANCH  54  78
ATOM     78  C   UNL A   1      46.659  28.354  29.249  1.00  0.00     0.023 A 
ATOM     79  C   UNL A   1      46.489  27.505  28.145  1.00  0.00     0.031 A 
ATOM     80  C   UNL A   1      47.281  27.825  30.396  1.00  0.00     0.131 A 
ATOM     81  C   UNL A   1      46.892  26.163  28.227  1.00  0.00     0.055 A 
ATOM     82  C   UNL A   1      47.738  26.508  30.449  1.00  0.00     0.041 A 
ATOM     83  F   UNL A   1      47.470  28.593  31.481  1.00  0.00    -0.206 F 
ATOM     84  C   UNL A   1      47.532  25.664  29.363  1.00  0.00     0.022 A 
BRANCH  81  85
ATOM     85  S   UNL A   1      46.479  25.046  26.857  1.00  0.00     0.124 S 
ATOM     86  O   UNL A   1      47.338  23.901  27.140  1.00  0.00    -0.237 OA
ATOM     87  O   UNL A   1      45.048  24.841  27.056  1.00  0.00    -0.237 OA
ATOM     88  O   UNL A   1      46.837  25.818  25.669  1.00  0.00    -0.744 OA
ENDBRANCH  81  85
ENDBRANCH  54  78
BRANCH  66  89
ATOM     89  C   UNL A   1      49.654  34.487  27.745  1.00  0.00     0.023 A 
ATOM     90  C   UNL A   1      50.090  34.632  26.417  1.00  0.00     0.031 A 
ATOM     91  C   UNL A   1      50.586  34.713  28.774  1.00  0.00     0.131 A 
ATOM     92  C   UNL A   1      51.433  34.934  26.152  1.00  0.00     0.055 A 
ATOM     93  C   UNL A   1      51.903  35.088  28.505  1.00  0.00     0.041 A 
ATOM     94  F   UNL A   1      50.230  34.583  30.062  1.00  0.00    -0.206 F 
ATOM     95  C   UNL A   1      52.336  35.188  27.187  1.00  0.00     0.022 A 
BRANCH  92  96
ATOM     96  S   UNL A   1      52.013  34.891  24.433  1.00  0.00     0.124 S 
ATOM     97  O   UNL A   1      51.546  33.582  23.990  1.00  0.00    -0.237 OA
ATOM     98  O   UNL A   1      51.336  36.042  23.845  1.00  0.00    -0.237 OA
ATOM     99  O   UNL A   1      53.463  35.022  24.558  1.00  0.00    -0.744 OA
ENDBRANCH  92  96
ENDBRANCH  66  89
ENDBRANCH  40  41
ENDBRANCH  32  35
ENDBRANCH  30  31
ENDBRANCH  29  30
ENDBRANCH  28  29
ENDBRANCH   1  28
TORSDOF 21
ENDMDL
MODEL 3
REMARK VINA RESULT:     -10.0      2.963      8.087
REMARK SMILES CC[C@@](C)([NH2+]CC(=O)N[C@]1(C)CCS(=O)(=O)C1)C(=O)NCCCCCCNC(=O)c1ccc(-c2c3nc(c(-c4cc(S(=O)(=O)[O-])ccc4F)c4ccc([nH]4)c(-c4cc(S(=O)(=O)[O-])ccc4F)c4nc(c(-c5cc(S(=O)(=O)[O-])ccc5F)c5ccc2[nH]5)C=C4)C=C3)cc1
REMARK SMILES IDX 23 1 22 2 21 3 20 4 18 5 19 6 3 8 4 9 2 10 1 11 5 12 6 15
REMARK SMILES IDX 7 16 8 17 9 18 10 20 12 21 17 22 11 23 13 24 14 25 15 26
REMARK SMILES IDX 16 27 24 28 25 29 26 30 27 31 28 32 29 34 30 35 31 36 92 37
REMARK SMILES IDX 32 38 91 39 33 40 34 41 35 42 85 43 36 44 90 45 84 46 86 47
REMARK SMILES IDX 37 48 89 49 83 50 82 51 38 53 70 54 50 55 69 56 51 57 54 58
REMARK SMILES IDX 68 59 87 60 52 61 53 62 67 64 88 65 55 66 39 67 40 68 48 69
REMARK SMILES IDX 41 70 47 71 49 72 46 73 42 74 43 75 44 76 45 77 71 78 72 79
REMARK SMILES IDX 80 80 73 81 79 82 81 83 78 84 74 85 75 86 76 87 77 88 56 89
REMARK SMILES IDX 57 90 65 91 58 92 64 93 66 94 63 95 59 96 60 97 61 98 62 99
REMARK H PARENT 20 7 5 13 5 14 9 19 27 33 86 52 54 63
REMARK Flexibility Score: inf
ROOT
ATOM      1  C   UNL A   1      31.676  25.283  26.144  1.00  0.00     0.002 C 
ENDROOT
BRANCH   1   2
ATOM      2  C   UNL A   1      30.704  24.296  26.788  1.00  0.00     0.021 C 
BRANCH   2   3
ATOM      3  C   UNL A   1      31.080  22.834  26.728  1.00  0.00     0.116 C 
BRANCH   3   4
ATOM      4  N   UNL A   1      31.440  22.001  25.458  1.00  0.00    -0.351 N 
ATOM      5  C   UNL A   1      32.627  21.913  24.456  1.00  0.00     0.281 C 
ATOM      6  O   UNL A   1      32.284  20.761  24.048  1.00  0.00    -0.268 OA
ATOM      7  H   UNL A   1      30.727  21.360  25.231  1.00  0.00     0.163 HD
BRANCH   5   8
ATOM      8  C   UNL A   1      34.231  23.256  23.808  1.00  0.00     0.172 C 
ATOM      9  C   UNL A   1      34.981  24.707  24.640  1.00  0.00     0.090 C 
BRANCH   8  10
ATOM     10  C   UNL A   1      35.969  22.790  23.494  1.00  0.00     0.075 C 
ATOM     11  C   UNL A   1      36.686  21.635  24.306  1.00  0.00     0.011 C 
ENDBRANCH   8  10
BRANCH   8  12
ATOM     12  N   UNL A   1      34.044  24.081  22.488  1.00  0.00    -0.326 N 
ATOM     13  H   UNL A   1      34.579  23.569  21.786  1.00  0.00     0.347 HD
ATOM     14  H   UNL A   1      34.289  25.003  22.850  1.00  0.00     0.347 HD
BRANCH  12  15
ATOM     15  C   UNL A   1      32.787  24.441  21.806  1.00  0.00     0.362 C 
BRANCH  15  16
ATOM     16  C   UNL A   1      32.817  25.694  20.878  1.00  0.00     0.275 C 
ATOM     17  O   UNL A   1      32.933  25.559  19.659  1.00  0.00    -0.268 OA
ATOM     18  N   UNL A   1      32.755  26.985  21.384  1.00  0.00    -0.345 N 
ATOM     19  H   UNL A   1      33.286  27.669  20.915  1.00  0.00     0.164 HD
BRANCH  18  20
ATOM     20  C   UNL A   1      31.958  27.453  22.584  1.00  0.00     0.052 C 
ATOM     21  C   UNL A   1      30.306  26.677  23.452  1.00  0.00     0.045 C 
ATOM     22  C   UNL A   1      31.602  29.264  21.926  1.00  0.00     0.165 C 
ATOM     23  C   UNL A   1      33.031  27.223  23.708  1.00  0.00     0.036 C 
ATOM     24  C   UNL A   1      28.789  27.989  23.541  1.00  0.00     0.139 C 
ATOM     25  S   UNL A   1      29.318  29.814  22.261  1.00  0.00     0.152 S 
ATOM     26  O   UNL A   1      29.015  30.981  23.079  1.00  0.00    -0.229 OA
ATOM     27  O   UNL A   1      28.561  29.851  21.016  1.00  0.00    -0.229 OA
ENDBRANCH  18  20
ENDBRANCH  15  16
ENDBRANCH  12  15
ENDBRANCH   8  12
ENDBRANCH   5   8
ENDBRANCH   3   4
ENDBRANCH   2   3
ENDBRANCH   1   2
BRANCH   1  28
ATOM     28  C   UNL A   1      32.460  26.256  27.047  1.00  0.00     0.002 C 
BRANCH  28  29
ATOM     29  C   UNL A   1      32.316  27.778  26.845  1.00  0.00     0.021 C 
BRANCH  29  30
ATOM     30  C   UNL A   1      33.608  28.570  26.731  1.00  0.00     0.116 C 
BRANCH  30  31
ATOM     31  N   UNL A   1      33.352  29.996  26.665  1.00  0.00    -0.352 N 
ATOM     32  C   UNL A   1      33.904  31.019  27.386  1.00  0.00     0.251 C 
ATOM     33  H   UNL A   1      32.678  30.269  26.001  1.00  0.00     0.163 HD
ATOM     34  O   UNL A   1      33.354  32.114  27.409  1.00  0.00    -0.269 OA
BRANCH  32  35
ATOM     35  C   UNL A   1      35.153  30.785  28.134  1.00  0.00     0.039 A 
ATOM     36  C   UNL A   1      36.187  31.714  28.026  1.00  0.00     0.014 A 
ATOM     37  C   UNL A   1      35.300  29.642  28.928  1.00  0.00     0.014 A 
ATOM     38  C   UNL A   1      37.359  31.519  28.754  1.00  0.00     0.010 A 
ATOM     39  C   UNL A   1      36.432  29.495  29.717  1.00  0.00     0.010 A 
ATOM     40  C   UNL A   1      37.476  30.426  29.628  1.00  0.00    -0.014 A 
BRANCH  40  41
ATOM     41  C   UNL A   1      38.692  30.242  30.454  1.00  0.00     0.031 A 
ATOM     42  C   UNL A   1      39.797  29.349  29.971  1.00  0.00     0.074 A 
ATOM     43  C   UNL A   1      38.769  30.845  31.656  1.00  0.00     0.049 A 
ATOM     44  N   UNL A   1      40.911  29.015  30.569  1.00  0.00    -0.248 NA
ATOM     45  C   UNL A   1      39.612  28.723  28.652  1.00  0.00     0.031 C 
ATOM     46  C   UNL A   1      37.730  31.701  32.235  1.00  0.00     0.029 A 
ATOM     47  N   UNL A   1      39.754  30.828  32.609  1.00  0.00    -0.354 N 
ATOM     48  C   UNL A   1      41.556  28.137  29.704  1.00  0.00     0.074 A 
ATOM     49  C   UNL A   1      40.673  27.935  28.576  1.00  0.00     0.031 C 
ATOM     50  C   UNL A   1      38.147  32.151  33.428  1.00  0.00     0.029 A 
ATOM     51  C   UNL A   1      39.450  31.568  33.728  1.00  0.00     0.049 A 
ATOM     52  H   UNL A   1      40.599  30.335  32.501  1.00  0.00     0.167 HD
ATOM     53  C   UNL A   1      42.782  27.575  29.833  1.00  0.00     0.034 A 
ATOM     54  C   UNL A   1      40.135  31.735  34.876  1.00  0.00     0.034 A 
ATOM     55  C   UNL A   1      43.637  27.790  30.974  1.00  0.00     0.049 A 
ATOM     56  C   UNL A   1      41.472  31.057  35.021  1.00  0.00     0.074 A 
ATOM     57  C   UNL A   1      44.917  27.312  31.194  1.00  0.00     0.029 A 
ATOM     58  N   UNL A   1      43.291  28.531  32.099  1.00  0.00    -0.354 N 
ATOM     59  N   UNL A   1      42.099  30.278  34.168  1.00  0.00    -0.248 NA
ATOM     60  C   UNL A   1      42.200  31.288  36.273  1.00  0.00     0.031 C 
ATOM     61  C   UNL A   1      45.306  27.685  32.484  1.00  0.00     0.029 A 
ATOM     62  C   UNL A   1      44.314  28.483  33.034  1.00  0.00     0.049 A 
ATOM     63  H   UNL A   1      42.444  29.018  32.215  1.00  0.00     0.167 HD
ATOM     64  C   UNL A   1      43.308  29.946  34.774  1.00  0.00     0.074 A 
ATOM     65  C   UNL A   1      43.327  30.628  36.053  1.00  0.00     0.031 C 
ATOM     66  C   UNL A   1      44.311  29.155  34.313  1.00  0.00     0.034 A 
BRANCH  53  67
ATOM     67  C   UNL A   1      43.242  26.650  28.730  1.00  0.00     0.023 A 
ATOM     68  C   UNL A   1      44.275  27.010  27.845  1.00  0.00     0.031 A 
ATOM     69  C   UNL A   1      42.616  25.407  28.533  1.00  0.00     0.131 A 
ATOM     70  C   UNL A   1      44.586  26.183  26.756  1.00  0.00     0.055 A 
ATOM     71  C   UNL A   1      42.998  24.543  27.504  1.00  0.00     0.041 A 
ATOM     72  F   UNL A   1      41.607  25.016  29.327  1.00  0.00    -0.206 F 
ATOM     73  C   UNL A   1      43.975  24.938  26.595  1.00  0.00     0.022 A 
BRANCH  70  74
ATOM     74  S   UNL A   1      45.671  26.836  25.456  1.00  0.00     0.124 S 
ATOM     75  O   UNL A   1      44.837  27.887  24.877  1.00  0.00    -0.237 OA
ATOM     76  O   UNL A   1      46.833  27.288  26.214  1.00  0.00    -0.237 OA
ATOM     77  O   UNL A   1      45.900  25.683  24.588  1.00  0.00    -0.744 OA
ENDBRANCH  70  74
ENDBRANCH  53  67
BRANCH  54  78
ATOM     78  C   UNL A   1      39.554  32.549  35.984  1.00  0.00     0.023 A 
ATOM     79  C   UNL A   1      39.944  33.880  36.194  1.00  0.00     0.031 A 
ATOM     80  C   UNL A   1      38.616  31.990  36.871  1.00  0.00     0.131 A 
ATOM     81  C   UNL A   1      39.433  34.593  37.290  1.00  0.00     0.055 A 
ATOM     82  C   UNL A   1      38.063  32.723  37.922  1.00  0.00     0.041 A 
ATOM     83  F   UNL A   1      38.207  30.720  36.717  1.00  0.00    -0.206 F 
ATOM     84  C   UNL A   1      38.482  34.030  38.143  1.00  0.00     0.022 A 
BRANCH  81  85
ATOM     85  S   UNL A   1      40.106  36.240  37.645  1.00  0.00     0.124 S 
ATOM     86  O   UNL A   1      40.290  36.780  36.302  1.00  0.00    -0.237 OA
ATOM     87  O   UNL A   1      39.037  36.839  38.437  1.00  0.00    -0.237 OA
ATOM     88  O   UNL A   1      41.338  35.954  38.378  1.00  0.00    -0.744 OA
ENDBRANCH  81  85
ENDBRANCH  54  78
BRANCH  66  89
ATOM     89  C   UNL A   1      45.535  29.020  35.187  1.00  0.00     0.023 A 
ATOM     90  C   UNL A   1      46.664  29.840  35.017  1.00  0.00     0.031 A 
ATOM     91  C   UNL A   1      45.567  28.056  36.211  1.00  0.00     0.131 A 
ATOM     92  C   UNL A   1      47.798  29.642  35.818  1.00  0.00     0.055 A 
ATOM     93  C   UNL A   1      46.670  27.915  37.054  1.00  0.00     0.041 A 
ATOM     94  F   UNL A   1      44.521  27.240  36.416  1.00  0.00    -0.206 F 
ATOM     95  C   UNL A   1      47.798  28.702  36.852  1.00  0.00     0.022 A 
BRANCH  92  96
ATOM     96  S   UNL A   1      49.312  30.560  35.425  1.00  0.00     0.124 S 
ATOM     97  O   UNL A   1      49.998  30.576  36.712  1.00  0.00    -0.237 OA
ATOM     98  O   UNL A   1      49.919  29.732  34.388  1.00  0.00    -0.237 OA
ATOM     99  O   UNL A   1      48.817  31.858  34.970  1.00  0.00    -0.744 OA
ENDBRANCH  92  96
ENDBRANCH  66  89
ENDBRANCH  40  41
ENDBRANCH  32  35
ENDBRANCH  30  31
ENDBRANCH  29  30
ENDBRANCH  28  29
ENDBRANCH   1  28
TORSDOF 21
ENDMDL
