MODEL 1
REMARK VINA RESULT:     -11.1      0.000      0.000
REMARK SMILES CC[C@](C)(C(=O)NCCCCCCNC(=O)c1ccc(-c2c3nc(c(-c4cc(S(=O)(=O)[O-])ccc4F)c4ccc([nH]4)c(-c4cc(S(=O)(=O)[O-])ccc4F)c4nc(c(-c5cc(S(=O)(=O)[O-])ccc5F)c5ccc2[nH]5)C=C4)C=C3)cc1)n1nnnc1-c1ccco1
REMARK SMILES IDX 11 1 10 2 9 3 8 4 7 5 5 6 6 7 3 9 4 10 2 11 1 12 80 13 81 14
REMARK SMILES IDX 84 15 82 16 83 17 85 18 86 19 89 20 87 21 88 22 12 23 13 24
REMARK SMILES IDX 14 25 15 26 16 28 17 29 18 30 79 31 19 32 78 33 20 34 21 35
REMARK SMILES IDX 22 36 72 37 23 38 77 39 71 40 73 41 24 42 76 43 70 44 69 45
REMARK SMILES IDX 25 47 57 48 37 49 56 50 38 51 41 52 55 53 74 54 39 55 40 56
REMARK SMILES IDX 54 58 75 59 42 60 26 61 27 62 35 63 28 64 34 65 36 66 33 67
REMARK SMILES IDX 29 68 30 69 31 70 32 71 58 72 59 73 67 74 60 75 66 76 68 77
REMARK SMILES IDX 65 78 61 79 62 80 63 81 64 82 43 83 44 84 52 85 45 86 51 87
REMARK SMILES IDX 53 88 50 89 46 90 47 91 48 92 49 93
REMARK H PARENT 7 8 14 27 73 46 41 57
REMARK Flexibility Score: inf
ROOT
ATOM      1  C   UNL A   1      31.766  29.180  24.619  1.00  0.00     0.002 C 
ENDROOT
BRANCH   1   2
ATOM      2  C   UNL A   1      30.831  27.966  24.565  1.00  0.00     0.002 C 
BRANCH   2   3
ATOM      3  C   UNL A   1      30.835  27.045  25.788  1.00  0.00     0.021 C 
BRANCH   3   4
ATOM      4  C   UNL A   1      30.041  25.760  25.631  1.00  0.00     0.116 C 
BRANCH   4   5
ATOM      5  N   UNL A   1      30.425  24.691  26.529  1.00  0.00    -0.354 N 
ATOM      6  C   UNL A   1      31.444  23.779  26.438  1.00  0.00     0.247 C 
ATOM      7  O   UNL A   1      31.849  23.341  27.522  1.00  0.00    -0.272 OA
ATOM      8  H   UNL A   1      29.865  24.606  27.335  1.00  0.00     0.163 HD
BRANCH   6   9
ATOM      9  C   UNL A   1      32.132  23.383  25.094  1.00  0.00     0.142 C 
ATOM     10  C   UNL A   1      31.167  23.359  23.891  1.00  0.00     0.048 C 
BRANCH   9  11
ATOM     11  C   UNL A   1      33.344  24.330  24.863  1.00  0.00     0.037 C 
ATOM     12  C   UNL A   1      33.423  25.241  23.654  1.00  0.00     0.007 C 
ENDBRANCH   9  11
BRANCH   9  13
ATOM     13  N   UNL A   1      32.603  21.966  25.217  1.00  0.00    -0.207 N 
ATOM     14  N   UNL A   1      31.702  20.951  25.161  1.00  0.00    -0.044 NA
ATOM     15  C   UNL A   1      33.868  21.412  25.136  1.00  0.00     0.218 A 
ATOM     16  N   UNL A   1      32.411  19.834  25.181  1.00  0.00    -0.023 NA
ATOM     17  N   UNL A   1      33.752  20.100  25.155  1.00  0.00    -0.105 NA
BRANCH  15  18
ATOM     18  C   UNL A   1      35.104  22.094  24.937  1.00  0.00     0.172 A 
ATOM     19  C   UNL A   1      35.938  22.684  25.876  1.00  0.00     0.054 A 
ATOM     20  O   UNL A   1      35.603  22.354  23.686  1.00  0.00    -0.461 OA
ATOM     21  C   UNL A   1      36.940  23.386  25.161  1.00  0.00     0.043 A 
ATOM     22  C   UNL A   1      36.709  23.125  23.832  1.00  0.00     0.196 A 
ENDBRANCH  15  18
ENDBRANCH   9  13
ENDBRANCH   6   9
ENDBRANCH   4   5
ENDBRANCH   3   4
ENDBRANCH   2   3
ENDBRANCH   1   2
BRANCH   1  23
ATOM     23  C   UNL A   1      33.264  28.886  24.731  1.00  0.00     0.021 C 
BRANCH  23  24
ATOM     24  C   UNL A   1      33.873  29.077  26.114  1.00  0.00     0.116 C 
BRANCH  24  25
ATOM     25  N   UNL A   1      33.651  30.411  26.639  1.00  0.00    -0.352 N 
ATOM     26  C   UNL A   1      34.336  31.089  27.616  1.00  0.00     0.251 C 
ATOM     27  H   UNL A   1      32.899  30.901  26.235  1.00  0.00     0.163 HD
ATOM     28  O   UNL A   1      33.886  32.149  28.038  1.00  0.00    -0.269 OA
BRANCH  26  29
ATOM     29  C   UNL A   1      35.591  30.533  28.174  1.00  0.00     0.039 A 
ATOM     30  C   UNL A   1      36.786  30.761  27.488  1.00  0.00     0.014 A 
ATOM     31  C   UNL A   1      35.593  29.766  29.343  1.00  0.00     0.014 A 
ATOM     32  C   UNL A   1      37.985  30.244  27.987  1.00  0.00     0.010 A 
ATOM     33  C   UNL A   1      36.798  29.324  29.884  1.00  0.00     0.010 A 
ATOM     34  C   UNL A   1      38.004  29.534  29.198  1.00  0.00    -0.014 A 
BRANCH  34  35
ATOM     35  C   UNL A   1      39.266  28.953  29.727  1.00  0.00     0.031 A 
ATOM     36  C   UNL A   1      39.897  29.536  30.965  1.00  0.00     0.074 A 
ATOM     37  C   UNL A   1      39.859  27.929  29.081  1.00  0.00     0.049 A 
ATOM     38  N   UNL A   1      41.011  29.202  31.567  1.00  0.00    -0.248 NA
ATOM     39  C   UNL A   1      39.198  30.669  31.589  1.00  0.00     0.031 C 
ATOM     40  C   UNL A   1      39.362  27.302  27.856  1.00  0.00     0.029 A 
ATOM     41  N   UNL A   1      41.008  27.234  29.366  1.00  0.00    -0.354 N 
ATOM     42  C   UNL A   1      41.154  30.094  32.624  1.00  0.00     0.074 A 
ATOM     43  C   UNL A   1      40.051  31.026  32.536  1.00  0.00     0.031 C 
ATOM     44  C   UNL A   1      40.177  26.290  27.518  1.00  0.00     0.029 A 
ATOM     45  C   UNL A   1      41.280  26.224  28.472  1.00  0.00     0.049 A 
ATOM     46  H   UNL A   1      41.584  27.439  30.138  1.00  0.00     0.167 HD
ATOM     47  C   UNL A   1      42.103  30.120  33.592  1.00  0.00     0.034 A 
ATOM     48  C   UNL A   1      42.301  25.345  28.429  1.00  0.00     0.034 A 
ATOM     49  C   UNL A   1      43.184  29.168  33.676  1.00  0.00     0.049 A 
ATOM     50  C   UNL A   1      43.353  25.400  29.509  1.00  0.00     0.074 A 
ATOM     51  C   UNL A   1      44.168  29.061  34.642  1.00  0.00     0.029 A 
ATOM     52  N   UNL A   1      43.429  28.160  32.750  1.00  0.00    -0.354 N 
ATOM     53  N   UNL A   1      43.448  26.218  30.533  1.00  0.00    -0.248 NA
ATOM     54  C   UNL A   1      44.426  24.401  29.437  1.00  0.00     0.031 C 
ATOM     55  C   UNL A   1      45.048  28.041  34.263  1.00  0.00     0.029 A 
ATOM     56  C   UNL A   1      44.565  27.449  33.108  1.00  0.00     0.049 A 
ATOM     57  H   UNL A   1      42.876  27.977  31.957  1.00  0.00     0.167 HD
ATOM     58  C   UNL A   1      44.565  25.799  31.252  1.00  0.00     0.074 A 
ATOM     59  C   UNL A   1      45.102  24.653  30.547  1.00  0.00     0.031 C 
ATOM     60  C   UNL A   1      45.093  26.307  32.395  1.00  0.00     0.034 A 
BRANCH  47  61
ATOM     61  C   UNL A   1      42.027  31.234  34.614  1.00  0.00     0.023 A 
ATOM     62  C   UNL A   1      41.016  31.278  35.591  1.00  0.00     0.031 A 
ATOM     63  C   UNL A   1      42.956  32.289  34.586  1.00  0.00     0.131 A 
ATOM     64  C   UNL A   1      40.902  32.395  36.434  1.00  0.00     0.055 A 
ATOM     65  C   UNL A   1      42.894  33.351  35.491  1.00  0.00     0.041 A 
ATOM     66  F   UNL A   1      43.931  32.317  33.664  1.00  0.00    -0.206 F 
ATOM     67  C   UNL A   1      41.851  33.419  36.409  1.00  0.00     0.022 A 
BRANCH  64  68
ATOM     68  S   UNL A   1      39.402  32.571  37.439  1.00  0.00     0.124 S 
ATOM     69  O   UNL A   1      38.834  33.806  36.903  1.00  0.00    -0.237 OA
ATOM     70  O   UNL A   1      38.673  31.346  37.134  1.00  0.00    -0.237 OA
ATOM     71  O   UNL A   1      39.914  32.671  38.804  1.00  0.00    -0.744 OA
ENDBRANCH  64  68
ENDBRANCH  47  61
BRANCH  48  72
ATOM     72  C   UNL A   1      42.380  24.327  27.341  1.00  0.00     0.023 A 
ATOM     73  C   UNL A   1      41.603  23.159  27.390  1.00  0.00     0.031 A 
ATOM     74  C   UNL A   1      43.268  24.482  26.262  1.00  0.00     0.131 A 
ATOM     75  C   UNL A   1      41.766  22.169  26.409  1.00  0.00     0.055 A 
ATOM     76  C   UNL A   1      43.386  23.520  25.258  1.00  0.00     0.041 A 
ATOM     77  F   UNL A   1      44.032  25.583  26.164  1.00  0.00    -0.206 F 
ATOM     78  C   UNL A   1      42.642  22.346  25.336  1.00  0.00     0.022 A 
BRANCH  75  79
ATOM     79  S   UNL A   1      40.880  20.597  26.607  1.00  0.00     0.124 S 
ATOM     80  O   UNL A   1      39.588  20.907  26.005  1.00  0.00    -0.237 OA
ATOM     81  O   UNL A   1      41.731  19.675  25.862  1.00  0.00    -0.237 OA
ATOM     82  O   UNL A   1      40.864  20.396  28.054  1.00  0.00    -0.744 OA
ENDBRANCH  75  79
ENDBRANCH  48  72
BRANCH  60  83
ATOM     83  C   UNL A   1      46.276  25.579  32.990  1.00  0.00     0.023 A 
ATOM     84  C   UNL A   1      46.121  24.541  33.924  1.00  0.00     0.031 A 
ATOM     85  C   UNL A   1      47.582  25.952  32.628  1.00  0.00     0.131 A 
ATOM     86  C   UNL A   1      47.253  23.959  34.517  1.00  0.00     0.055 A 
ATOM     87  C   UNL A   1      48.705  25.319  33.166  1.00  0.00     0.041 A 
ATOM     88  F   UNL A   1      47.793  26.939  31.742  1.00  0.00    -0.206 F 
ATOM     89  C   UNL A   1      48.543  24.328  34.129  1.00  0.00     0.022 A 
BRANCH  86  90
ATOM     90  S   UNL A   1      47.016  22.795  35.887  1.00  0.00     0.124 S 
ATOM     91  O   UNL A   1      47.119  23.672  37.051  1.00  0.00    -0.237 OA
ATOM     92  O   UNL A   1      45.688  22.256  35.613  1.00  0.00    -0.237 OA
ATOM     93  O   UNL A   1      48.116  21.846  35.726  1.00  0.00    -0.744 OA
ENDBRANCH  86  90
ENDBRANCH  60  83
ENDBRANCH  34  35
ENDBRANCH  26  29
ENDBRANCH  24  25
ENDBRANCH  23  24
ENDBRANCH   1  23
TORSDOF 19
ENDMDL
MODEL 2
REMARK VINA RESULT:     -11.0      3.372      8.643
REMARK SMILES CC[C@](C)(C(=O)NCCCCCCNC(=O)c1ccc(-c2c3nc(c(-c4cc(S(=O)(=O)[O-])ccc4F)c4ccc([nH]4)c(-c4cc(S(=O)(=O)[O-])ccc4F)c4nc(c(-c5cc(S(=O)(=O)[O-])ccc5F)c5ccc2[nH]5)C=C4)C=C3)cc1)n1nnnc1-c1ccco1
REMARK SMILES IDX 11 1 10 2 9 3 8 4 7 5 5 6 6 7 3 9 4 10 2 11 1 12 80 13 81 14
REMARK SMILES IDX 84 15 82 16 83 17 85 18 86 19 89 20 87 21 88 22 12 23 13 24
REMARK SMILES IDX 14 25 15 26 16 28 17 29 18 30 79 31 19 32 78 33 20 34 21 35
REMARK SMILES IDX 22 36 72 37 23 38 77 39 71 40 73 41 24 42 76 43 70 44 69 45
REMARK SMILES IDX 25 47 57 48 37 49 56 50 38 51 41 52 55 53 74 54 39 55 40 56
REMARK SMILES IDX 54 58 75 59 42 60 26 61 27 62 35 63 28 64 34 65 36 66 33 67
REMARK SMILES IDX 29 68 30 69 31 70 32 71 58 72 59 73 67 74 60 75 66 76 68 77
REMARK SMILES IDX 65 78 61 79 62 80 63 81 64 82 43 83 44 84 52 85 45 86 51 87
REMARK SMILES IDX 53 88 50 89 46 90 47 91 48 92 49 93
REMARK H PARENT 7 8 14 27 73 46 41 57
REMARK Flexibility Score: inf
ROOT
ATOM      1  C   UNL A   1      31.630  30.851  26.131  1.00  0.00     0.002 C 
ENDROOT
BRANCH   1   2
ATOM      2  C   UNL A   1      32.636  29.889  26.777  1.00  0.00     0.002 C 
BRANCH   2   3
ATOM      3  C   UNL A   1      32.085  28.543  27.253  1.00  0.00     0.021 C 
BRANCH   3   4
ATOM      4  C   UNL A   1      32.402  27.361  26.353  1.00  0.00     0.116 C 
BRANCH   4   5
ATOM      5  N   UNL A   1      31.440  27.125  25.296  1.00  0.00    -0.354 N 
ATOM      6  C   UNL A   1      30.958  25.949  24.782  1.00  0.00     0.247 C 
ATOM      7  O   UNL A   1      29.829  26.026  24.280  1.00  0.00    -0.272 OA
ATOM      8  H   UNL A   1      31.075  27.939  24.879  1.00  0.00     0.163 HD
BRANCH   6   9
ATOM      9  C   UNL A   1      31.703  24.583  24.902  1.00  0.00     0.142 C 
ATOM     10  C   UNL A   1      32.777  24.562  26.008  1.00  0.00     0.048 C 
BRANCH   9  11
ATOM     11  C   UNL A   1      30.645  23.457  25.080  1.00  0.00     0.037 C 
ATOM     12  C   UNL A   1      30.623  22.574  26.312  1.00  0.00     0.007 C 
ENDBRANCH   9  11
BRANCH   9  13
ATOM     13  N   UNL A   1      32.475  24.367  23.635  1.00  0.00    -0.207 N 
ATOM     14  N   UNL A   1      32.922  25.438  22.930  1.00  0.00    -0.044 NA
ATOM     15  C   UNL A   1      33.075  23.236  23.111  1.00  0.00     0.218 A 
ATOM     16  N   UNL A   1      33.653  24.945  21.943  1.00  0.00    -0.023 NA
ATOM     17  N   UNL A   1      33.767  23.585  22.046  1.00  0.00    -0.105 NA
BRANCH  15  18
ATOM     18  C   UNL A   1      33.078  21.921  23.661  1.00  0.00     0.172 A 
ATOM     19  C   UNL A   1      33.961  21.354  24.568  1.00  0.00     0.054 A 
ATOM     20  O   UNL A   1      32.196  20.954  23.249  1.00  0.00    -0.461 OA
ATOM     21  C   UNL A   1      33.643  19.976  24.654  1.00  0.00     0.043 A 
ATOM     22  C   UNL A   1      32.541  19.791  23.856  1.00  0.00     0.196 A 
ENDBRANCH  15  18
ENDBRANCH   9  13
ENDBRANCH   6   9
ENDBRANCH   4   5
ENDBRANCH   3   4
ENDBRANCH   2   3
ENDBRANCH   1   2
BRANCH   1  23
ATOM     23  C   UNL A   1      31.488  32.230  26.782  1.00  0.00     0.021 C 
BRANCH  23  24
ATOM     24  C   UNL A   1      32.786  32.876  27.249  1.00  0.00     0.116 C 
BRANCH  24  25
ATOM     25  N   UNL A   1      32.594  34.238  27.710  1.00  0.00    -0.352 N 
ATOM     26  C   UNL A   1      33.175  34.891  28.768  1.00  0.00     0.251 C 
ATOM     27  H   UNL A   1      31.953  34.772  27.187  1.00  0.00     0.163 HD
ATOM     28  O   UNL A   1      32.753  35.994  29.097  1.00  0.00    -0.269 OA
BRANCH  26  29
ATOM     29  C   UNL A   1      34.283  34.258  29.521  1.00  0.00     0.039 A 
ATOM     30  C   UNL A   1      35.594  34.474  29.091  1.00  0.00     0.014 A 
ATOM     31  C   UNL A   1      34.038  33.430  30.621  1.00  0.00     0.014 A 
ATOM     32  C   UNL A   1      36.659  33.885  29.778  1.00  0.00     0.010 A 
ATOM     33  C   UNL A   1      35.103  32.913  31.355  1.00  0.00     0.010 A 
ATOM     34  C   UNL A   1      36.424  33.113  30.926  1.00  0.00    -0.014 A 
BRANCH  34  35
ATOM     35  C   UNL A   1      37.544  32.456  31.651  1.00  0.00     0.031 A 
ATOM     36  C   UNL A   1      38.310  31.338  30.991  1.00  0.00     0.074 A 
ATOM     37  C   UNL A   1      37.850  32.839  32.906  1.00  0.00     0.049 A 
ATOM     38  N   UNL A   1      39.292  30.613  31.462  1.00  0.00    -0.248 NA
ATOM     39  C   UNL A   1      37.890  30.966  29.632  1.00  0.00     0.031 C 
ATOM     40  C   UNL A   1      37.161  33.886  33.663  1.00  0.00     0.029 A 
ATOM     41  N   UNL A   1      38.822  32.394  33.768  1.00  0.00    -0.354 N 
ATOM     42  C   UNL A   1      39.592  29.688  30.467  1.00  0.00     0.074 A 
ATOM     43  C   UNL A   1      38.640  29.901  29.398  1.00  0.00     0.031 C 
ATOM     44  C   UNL A   1      37.756  34.030  34.858  1.00  0.00     0.029 A 
ATOM     45  C   UNL A   1      38.839  33.058  34.974  1.00  0.00     0.049 A 
ATOM     46  H   UNL A   1      39.448  31.669  33.545  1.00  0.00     0.167 HD
ATOM     47  C   UNL A   1      40.584  28.764  30.436  1.00  0.00     0.034 A 
ATOM     48  C   UNL A   1      39.636  32.899  36.048  1.00  0.00     0.034 A 
ATOM     49  C   UNL A   1      41.538  28.581  31.503  1.00  0.00     0.049 A 
ATOM     50  C   UNL A   1      40.726  31.856  35.997  1.00  0.00     0.074 A 
ATOM     51  C   UNL A   1      42.618  27.719  31.557  1.00  0.00     0.029 A 
ATOM     52  N   UNL A   1      41.522  29.270  32.710  1.00  0.00    -0.354 N 
ATOM     53  N   UNL A   1      41.030  31.023  35.028  1.00  0.00    -0.248 NA
ATOM     54  C   UNL A   1      41.589  31.745  37.179  1.00  0.00     0.031 C 
ATOM     55  C   UNL A   1      43.207  27.830  32.822  1.00  0.00     0.029 A 
ATOM     56  C   UNL A   1      42.553  28.828  33.526  1.00  0.00     0.049 A 
ATOM     57  H   UNL A   1      40.873  29.970  32.952  1.00  0.00     0.167 HD
ATOM     58  C   UNL A   1      42.151  30.323  35.468  1.00  0.00     0.074 A 
ATOM     59  C   UNL A   1      42.470  30.840  36.783  1.00  0.00     0.031 C 
ATOM     60  C   UNL A   1      42.860  29.350  34.838  1.00  0.00     0.034 A 
BRANCH  47  61
ATOM     61  C   UNL A   1      40.660  27.863  29.222  1.00  0.00     0.023 A 
ATOM     62  C   UNL A   1      41.612  28.063  28.206  1.00  0.00     0.031 A 
ATOM     63  C   UNL A   1      39.740  26.812  29.060  1.00  0.00     0.131 A 
ATOM     64  C   UNL A   1      41.563  27.289  27.036  1.00  0.00     0.055 A 
ATOM     65  C   UNL A   1      39.758  25.983  27.935  1.00  0.00     0.041 A 
ATOM     66  F   UNL A   1      38.792  26.583  29.982  1.00  0.00    -0.206 F 
ATOM     67  C   UNL A   1      40.661  26.231  26.906  1.00  0.00     0.022 A 
BRANCH  64  68
ATOM     68  S   UNL A   1      42.579  27.795  25.621  1.00  0.00     0.124 S 
ATOM     69  O   UNL A   1      43.869  28.044  26.259  1.00  0.00    -0.237 OA
ATOM     70  O   UNL A   1      42.510  26.627  24.750  1.00  0.00    -0.237 OA
ATOM     71  O   UNL A   1      41.900  28.989  25.121  1.00  0.00    -0.744 OA
ENDBRANCH  64  68
ENDBRANCH  47  61
BRANCH  48  72
ATOM     72  C   UNL A   1      39.455  33.751  37.260  1.00  0.00     0.023 A 
ATOM     73  C   UNL A   1      38.828  33.243  38.409  1.00  0.00     0.031 A 
ATOM     74  C   UNL A   1      39.861  35.097  37.272  1.00  0.00     0.131 A 
ATOM     75  C   UNL A   1      38.578  34.089  39.501  1.00  0.00     0.055 A 
ATOM     76  C   UNL A   1      39.662  35.919  38.382  1.00  0.00     0.041 A 
ATOM     77  F   UNL A   1      40.471  35.632  36.201  1.00  0.00    -0.206 F 
ATOM     78  C   UNL A   1      39.002  35.419  39.501  1.00  0.00     0.022 A 
BRANCH  75  79
ATOM     79  S   UNL A   1      37.604  33.447  40.891  1.00  0.00     0.124 S 
ATOM     80  O   UNL A   1      38.614  32.718  41.649  1.00  0.00    -0.237 OA
ATOM     81  O   UNL A   1      37.103  34.675  41.501  1.00  0.00    -0.237 OA
ATOM     82  O   UNL A   1      36.591  32.619  40.241  1.00  0.00    -0.744 OA
ENDBRANCH  75  79
ENDBRANCH  48  72
BRANCH  60  83
ATOM     83  C   UNL A   1      44.093  28.832  35.542  1.00  0.00     0.023 A 
ATOM     84  C   UNL A   1      44.045  27.740  36.425  1.00  0.00     0.031 A 
ATOM     85  C   UNL A   1      45.334  29.461  35.337  1.00  0.00     0.131 A 
ATOM     86  C   UNL A   1      45.200  27.355  37.125  1.00  0.00     0.055 A 
ATOM     87  C   UNL A   1      46.495  29.027  35.980  1.00  0.00     0.041 A 
ATOM     88  F   UNL A   1      45.441  30.511  34.507  1.00  0.00    -0.206 F 
ATOM     89  C   UNL A   1      46.427  27.980  36.893  1.00  0.00     0.022 A 
BRANCH  86  90
ATOM     90  S   UNL A   1      45.051  26.104  38.429  1.00  0.00     0.124 S 
ATOM     91  O   UNL A   1      44.053  26.703  39.311  1.00  0.00    -0.237 OA
ATOM     92  O   UNL A   1      44.617  24.927  37.684  1.00  0.00    -0.237 OA
ATOM     93  O   UNL A   1      46.401  26.024  38.984  1.00  0.00    -0.744 OA
ENDBRANCH  86  90
ENDBRANCH  60  83
ENDBRANCH  34  35
ENDBRANCH  26  29
ENDBRANCH  24  25
ENDBRANCH  23  24
ENDBRANCH   1  23
TORSDOF 19
ENDMDL
MODEL 3
REMARK VINA RESULT:     -10.9      1.641      2.144
REMARK SMILES CC[C@](C)(C(=O)NCCCCCCNC(=O)c1ccc(-c2c3nc(c(-c4cc(S(=O)(=O)[O-])ccc4F)c4ccc([nH]4)c(-c4cc(S(=O)(=O)[O-])ccc4F)c4nc(c(-c5cc(S(=O)(=O)[O-])ccc5F)c5ccc2[nH]5)C=C4)C=C3)cc1)n1nnnc1-c1ccco1
REMARK SMILES IDX 11 1 10 2 9 3 8 4 7 5 5 6 6 7 3 9 4 10 2 11 1 12 80 13 81 14
REMARK SMILES IDX 84 15 82 16 83 17 85 18 86 19 89 20 87 21 88 22 12 23 13 24
REMARK SMILES IDX 14 25 15 26 16 28 17 29 18 30 79 31 19 32 78 33 20 34 21 35
REMARK SMILES IDX 22 36 72 37 23 38 77 39 71 40 73 41 24 42 76 43 70 44 69 45
REMARK SMILES IDX 25 47 57 48 37 49 56 50 38 51 41 52 55 53 74 54 39 55 40 56
REMARK SMILES IDX 54 58 75 59 42 60 26 61 27 62 35 63 28 64 34 65 36 66 33 67
REMARK SMILES IDX 29 68 30 69 31 70 32 71 58 72 59 73 67 74 60 75 66 76 68 77
REMARK SMILES IDX 65 78 61 79 62 80 63 81 64 82 43 83 44 84 52 85 45 86 51 87
REMARK SMILES IDX 53 88 50 89 46 90 47 91 48 92 49 93
REMARK H PARENT 7 8 14 27 73 46 41 57
REMARK Flexibility Score: inf
ROOT
ATOM      1  C   UNL A   1      31.815  27.991  26.769  1.00  0.00     0.002 C 
ENDROOT
BRANCH   1   2
ATOM      2  C   UNL A   1      31.077  27.855  25.431  1.00  0.00     0.002 C 
BRANCH   2   3
ATOM      3  C   UNL A   1      30.800  26.430  24.945  1.00  0.00     0.021 C 
BRANCH   3   4
ATOM      4  C   UNL A   1      30.649  25.393  26.045  1.00  0.00     0.116 C 
BRANCH   4   5
ATOM      5  N   UNL A   1      30.368  24.049  25.582  1.00  0.00    -0.354 N 
ATOM      6  C   UNL A   1      31.153  22.926  25.588  1.00  0.00     0.247 C 
ATOM      7  O   UNL A   1      30.531  21.857  25.617  1.00  0.00    -0.272 OA
ATOM      8  H   UNL A   1      29.468  23.923  25.201  1.00  0.00     0.163 HD
BRANCH   6   9
ATOM      9  C   UNL A   1      32.712  22.962  25.661  1.00  0.00     0.142 C 
ATOM     10  C   UNL A   1      33.265  24.181  26.427  1.00  0.00     0.048 C 
BRANCH   9  11
ATOM     11  C   UNL A   1      33.209  21.613  26.255  1.00  0.00     0.037 C 
ATOM     12  C   UNL A   1      34.022  21.558  27.533  1.00  0.00     0.007 C 
ENDBRANCH   9  11
BRANCH   9  13
ATOM     13  N   UNL A   1      33.235  23.134  24.267  1.00  0.00    -0.207 N 
ATOM     14  N   UNL A   1      32.431  23.661  23.308  1.00  0.00    -0.044 NA
ATOM     15  C   UNL A   1      34.522  23.088  23.761  1.00  0.00     0.218 A 
ATOM     16  N   UNL A   1      33.189  23.795  22.231  1.00  0.00    -0.023 NA
ATOM     17  N   UNL A   1      34.487  23.456  22.497  1.00  0.00    -0.105 NA
BRANCH  15  18
ATOM     18  C   UNL A   1      35.726  22.817  24.473  1.00  0.00     0.172 A 
ATOM     19  C   UNL A   1      36.608  23.707  25.070  1.00  0.00     0.054 A 
ATOM     20  O   UNL A   1      36.248  21.553  24.576  1.00  0.00    -0.461 OA
ATOM     21  C   UNL A   1      37.737  22.959  25.486  1.00  0.00     0.043 A 
ATOM     22  C   UNL A   1      37.452  21.648  25.191  1.00  0.00     0.196 A 
ENDBRANCH  15  18
ENDBRANCH   9  13
ENDBRANCH   6   9
ENDBRANCH   4   5
ENDBRANCH   3   4
ENDBRANCH   2   3
ENDBRANCH   1   2
BRANCH   1  23
ATOM     23  C   UNL A   1      33.343  27.917  26.719  1.00  0.00     0.021 C 
BRANCH  23  24
ATOM     24  C   UNL A   1      34.035  29.065  25.995  1.00  0.00     0.116 C 
BRANCH  24  25
ATOM     25  N   UNL A   1      33.789  30.348  26.625  1.00  0.00    -0.352 N 
ATOM     26  C   UNL A   1      34.472  30.966  27.643  1.00  0.00     0.251 C 
ATOM     27  H   UNL A   1      33.020  30.850  26.269  1.00  0.00     0.163 HD
ATOM     28  O   UNL A   1      34.003  31.979  28.151  1.00  0.00    -0.269 OA
BRANCH  26  29
ATOM     29  C   UNL A   1      35.748  30.400  28.140  1.00  0.00     0.039 A 
ATOM     30  C   UNL A   1      35.718  29.560  29.255  1.00  0.00     0.014 A 
ATOM     31  C   UNL A   1      36.970  30.719  27.539  1.00  0.00     0.014 A 
ATOM     32  C   UNL A   1      36.907  29.017  29.749  1.00  0.00     0.010 A 
ATOM     33  C   UNL A   1      38.143  30.110  27.980  1.00  0.00     0.010 A 
ATOM     34  C   UNL A   1      38.128  29.274  29.107  1.00  0.00    -0.014 A 
BRANCH  34  35
ATOM     35  C   UNL A   1      39.405  28.728  29.638  1.00  0.00     0.031 A 
ATOM     36  C   UNL A   1      40.025  29.337  30.869  1.00  0.00     0.074 A 
ATOM     37  C   UNL A   1      40.019  27.711  29.001  1.00  0.00     0.049 A 
ATOM     38  N   UNL A   1      41.148  29.034  31.470  1.00  0.00    -0.248 NA
ATOM     39  C   UNL A   1      39.303  30.460  31.484  1.00  0.00     0.031 C 
ATOM     40  C   UNL A   1      39.534  27.060  27.783  1.00  0.00     0.029 A 
ATOM     41  N   UNL A   1      41.184  27.045  29.289  1.00  0.00    -0.354 N 
ATOM     42  C   UNL A   1      41.274  29.940  32.518  1.00  0.00     0.074 A 
ATOM     43  C   UNL A   1      40.149  30.846  32.424  1.00  0.00     0.031 C 
ATOM     44  C   UNL A   1      40.370  26.064  27.452  1.00  0.00     0.029 A 
ATOM     45  C   UNL A   1      41.477  26.032  28.404  1.00  0.00     0.049 A 
ATOM     46  H   UNL A   1      41.758  27.271  30.057  1.00  0.00     0.167 HD
ATOM     47  C   UNL A   1      42.225  29.997  33.484  1.00  0.00     0.034 A 
ATOM     48  C   UNL A   1      42.517  25.177  28.367  1.00  0.00     0.034 A 
ATOM     49  C   UNL A   1      43.327  29.071  33.573  1.00  0.00     0.049 A 
ATOM     50  C   UNL A   1      43.571  25.266  29.444  1.00  0.00     0.074 A 
ATOM     51  C   UNL A   1      44.316  28.995  34.538  1.00  0.00     0.029 A 
ATOM     52  N   UNL A   1      43.592  28.059  32.657  1.00  0.00    -0.354 N 
ATOM     53  N   UNL A   1      43.650  26.097  30.459  1.00  0.00    -0.248 NA
ATOM     54  C   UNL A   1      44.666  24.291  29.378  1.00  0.00     0.031 C 
ATOM     55  C   UNL A   1      45.218  27.992  34.167  1.00  0.00     0.029 A 
ATOM     56  C   UNL A   1      44.745  27.378  33.019  1.00  0.00     0.049 A 
ATOM     57  H   UNL A   1      43.042  27.856  31.867  1.00  0.00     0.167 HD
ATOM     58  C   UNL A   1      44.778  25.710  31.179  1.00  0.00     0.074 A 
ATOM     59  C   UNL A   1      45.339  24.569  30.484  1.00  0.00     0.031 C 
ATOM     60  C   UNL A   1      45.297  26.242  32.316  1.00  0.00     0.034 A 
BRANCH  47  61
ATOM     61  C   UNL A   1      42.125  31.119  34.495  1.00  0.00     0.023 A 
ATOM     62  C   UNL A   1      42.778  32.350  34.306  1.00  0.00     0.031 A 
ATOM     63  C   UNL A   1      41.398  30.939  35.686  1.00  0.00     0.131 A 
ATOM     64  C   UNL A   1      42.769  33.313  35.327  1.00  0.00     0.055 A 
ATOM     65  C   UNL A   1      41.315  31.940  36.657  1.00  0.00     0.041 A 
ATOM     66  F   UNL A   1      40.771  29.779  35.936  1.00  0.00    -0.206 F 
ATOM     67  C   UNL A   1      42.019  33.128  36.490  1.00  0.00     0.022 A 
BRANCH  64  68
ATOM     68  S   UNL A   1      43.891  34.732  35.187  1.00  0.00     0.124 S 
ATOM     69  O   UNL A   1      43.931  35.211  36.567  1.00  0.00    -0.237 OA
ATOM     70  O   UNL A   1      45.115  34.118  34.687  1.00  0.00    -0.237 OA
ATOM     71  O   UNL A   1      43.207  35.619  34.248  1.00  0.00    -0.744 OA
ENDBRANCH  64  68
ENDBRANCH  47  61
BRANCH  48  72
ATOM     72  C   UNL A   1      42.618  24.151  27.289  1.00  0.00     0.023 A 
ATOM     73  C   UNL A   1      41.990  22.901  27.424  1.00  0.00     0.031 A 
ATOM     74  C   UNL A   1      43.380  24.382  26.131  1.00  0.00     0.131 A 
ATOM     75  C   UNL A   1      42.179  21.914  26.444  1.00  0.00     0.055 A 
ATOM     76  C   UNL A   1      43.518  23.417  25.132  1.00  0.00     0.041 A 
ATOM     77  F   UNL A   1      43.997  25.562  25.949  1.00  0.00    -0.206 F 
ATOM     78  C   UNL A   1      42.928  22.168  25.293  1.00  0.00     0.022 A 
BRANCH  75  79
ATOM     79  S   UNL A   1      41.506  20.256  26.742  1.00  0.00     0.124 S 
ATOM     80  O   UNL A   1      42.447  19.726  27.723  1.00  0.00    -0.237 OA
ATOM     81  O   UNL A   1      40.166  20.558  27.236  1.00  0.00    -0.237 OA
ATOM     82  O   UNL A   1      41.555  19.627  25.425  1.00  0.00    -0.744 OA
ENDBRANCH  75  79
ENDBRANCH  48  72
BRANCH  60  83
ATOM     83  C   UNL A   1      46.498  25.547  32.915  1.00  0.00     0.023 A 
ATOM     84  C   UNL A   1      46.373  24.567  33.915  1.00  0.00     0.031 A 
ATOM     85  C   UNL A   1      47.792  25.892  32.487  1.00  0.00     0.131 A 
ATOM     86  C   UNL A   1      47.522  24.018  34.503  1.00  0.00     0.055 A 
ATOM     87  C   UNL A   1      48.931  25.289  33.026  1.00  0.00     0.041 A 
ATOM     88  F   UNL A   1      47.975  26.823  31.537  1.00  0.00    -0.206 F 
ATOM     89  C   UNL A   1      48.799  24.359  34.052  1.00  0.00     0.022 A 
BRANCH  86  90
ATOM     90  S   UNL A   1      47.329  22.941  35.949  1.00  0.00     0.124 S 
ATOM     91  O   UNL A   1      48.708  22.801  36.410  1.00  0.00    -0.237 OA
ATOM     92  O   UNL A   1      46.448  23.726  36.808  1.00  0.00    -0.237 OA
ATOM     93  O   UNL A   1      46.734  21.726  35.396  1.00  0.00    -0.744 OA
ENDBRANCH  86  90
ENDBRANCH  60  83
ENDBRANCH  34  35
ENDBRANCH  26  29
ENDBRANCH  24  25
ENDBRANCH  23  24
ENDBRANCH   1  23
TORSDOF 19
ENDMDL
