MODEL 1
REMARK VINA RESULT:     -11.5      0.000      0.000
REMARK SMILES CCc1cccc(NC(=O)N2CCO[C@@H](CC(=O)NCCCCCCNC(=O)c3ccc(-c4c5nc(c(-c6cc(S(=O)(=O)[O-])ccc6F)c6ccc([nH]6)c(-c6cc(S(=O)(=O)[O-])ccc6F)c6nc(c(-c7cc(S(=O)(=O)[O-])ccc7F)c7ccc4[nH]7)C=C6)C=C5)cc3)C2)c1
REMARK SMILES IDX 22 1 21 2 20 3 19 4 17 5 18 6 16 8 15 9 11 10 12 11 92 12
REMARK SMILES IDX 13 13 14 14 9 15 8 16 10 18 7 19 3 20 4 21 93 22 5 23 6 24
REMARK SMILES IDX 2 25 1 26 23 27 24 28 25 29 26 30 27 31 28 33 29 34 30 35
REMARK SMILES IDX 91 36 31 37 90 38 32 39 33 40 34 41 84 42 35 43 89 44 83 45
REMARK SMILES IDX 85 46 36 47 88 48 82 49 81 50 37 52 69 53 49 54 68 55 50 56
REMARK SMILES IDX 53 57 67 58 86 59 51 60 52 61 66 63 87 64 54 65 38 66 39 67
REMARK SMILES IDX 47 68 40 69 46 70 48 71 45 72 41 73 42 74 43 75 44 76 70 77
REMARK SMILES IDX 71 78 79 79 72 80 78 81 80 82 77 83 73 84 74 85 75 86 76 87
REMARK SMILES IDX 55 88 56 89 64 90 57 91 63 92 65 93 62 94 58 95 59 96 60 97
REMARK SMILES IDX 61 98
REMARK H PARENT 19 7 8 17 26 32 85 51 53 62
REMARK Flexibility Score: inf
ROOT
ATOM      1  C   UNL A   1      31.278  29.142  24.223  1.00  0.00     0.002 C 
ENDROOT
BRANCH   1   2
ATOM      2  C   UNL A   1      31.371  28.701  22.764  1.00  0.00     0.021 C 
BRANCH   2   3
ATOM      3  C   UNL A   1      30.707  27.351  22.468  1.00  0.00     0.116 C 
BRANCH   3   4
ATOM      4  N   UNL A   1      31.483  26.602  21.489  1.00  0.00    -0.356 N 
ATOM      5  C   UNL A   1      32.711  26.018  21.593  1.00  0.00     0.222 C 
ATOM      6  O   UNL A   1      33.235  25.565  20.573  1.00  0.00    -0.275 OA
ATOM      7  H   UNL A   1      31.052  26.501  20.610  1.00  0.00     0.163 HD
BRANCH   5   8
ATOM      8  C   UNL A   1      33.418  25.940  22.929  1.00  0.00     0.133 C 
BRANCH   8   9
ATOM      9  C   UNL A   1      32.994  24.730  23.760  1.00  0.00     0.147 C 
ATOM     10  N   UNL A   1      33.682  23.182  25.551  1.00  0.00    -0.320 N 
ATOM     11  C   UNL A   1      32.455  23.471  26.292  1.00  0.00     0.150 C 
ATOM     12  C   UNL A   1      34.115  24.256  24.687  1.00  0.00     0.154 C 
ATOM     13  C   UNL A   1      31.366  24.017  25.358  1.00  0.00     0.182 C 
ATOM     14  O   UNL A   1      31.842  25.112  24.551  1.00  0.00    -0.374 OA
BRANCH  10  15
ATOM     15  C   UNL A   1      34.642  22.339  26.044  1.00  0.00     0.322 C 
ATOM     16  N   UNL A   1      34.538  21.005  25.794  1.00  0.00    -0.308 N 
ATOM     17  H   UNL A   1      35.060  20.435  26.405  1.00  0.00     0.171 HD
ATOM     18  O   UNL A   1      35.622  22.760  26.661  1.00  0.00    -0.248 OA
BRANCH  16  19
ATOM     19  C   UNL A   1      33.817  20.295  24.814  1.00  0.00     0.043 A 
ATOM     20  C   UNL A   1      33.316  18.128  23.804  1.00  0.00    -0.046 A 
ATOM     21  C   UNL A   1      32.382  18.753  22.966  1.00  0.00     0.004 A 
ATOM     22  C   UNL A   1      33.999  18.908  24.753  1.00  0.00     0.029 A 
ATOM     23  C   UNL A   1      32.230  20.133  22.985  1.00  0.00     0.002 A 
ATOM     24  C   UNL A   1      32.986  20.896  23.870  1.00  0.00     0.026 A 
BRANCH  20  25
ATOM     25  C   UNL A   1      33.525  16.641  23.642  1.00  0.00     0.032 C 
ATOM     26  C   UNL A   1      34.523  15.998  24.595  1.00  0.00     0.009 C 
ENDBRANCH  20  25
ENDBRANCH  16  19
ENDBRANCH  10  15
ENDBRANCH   8   9
ENDBRANCH   5   8
ENDBRANCH   3   4
ENDBRANCH   2   3
ENDBRANCH   1   2
BRANCH   1  27
ATOM     27  C   UNL A   1      32.624  29.427  24.890  1.00  0.00     0.002 C 
BRANCH  27  28
ATOM     28  C   UNL A   1      33.138  28.335  25.835  1.00  0.00     0.021 C 
BRANCH  28  29
ATOM     29  C   UNL A   1      33.355  28.776  27.282  1.00  0.00     0.116 C 
BRANCH  29  30
ATOM     30  N   UNL A   1      33.426  30.224  27.399  1.00  0.00    -0.352 N 
ATOM     31  C   UNL A   1      34.359  31.010  28.027  1.00  0.00     0.251 C 
ATOM     32  H   UNL A   1      32.694  30.715  26.960  1.00  0.00     0.163 HD
ATOM     33  O   UNL A   1      34.114  32.194  28.239  1.00  0.00    -0.269 OA
BRANCH  31  34
ATOM     34  C   UNL A   1      35.650  30.429  28.460  1.00  0.00     0.039 A 
ATOM     35  C   UNL A   1      36.764  30.554  27.625  1.00  0.00     0.014 A 
ATOM     36  C   UNL A   1      35.754  29.733  29.668  1.00  0.00     0.014 A 
ATOM     37  C   UNL A   1      37.995  30.031  28.028  1.00  0.00     0.010 A 
ATOM     38  C   UNL A   1      36.996  29.270  30.098  1.00  0.00     0.010 A 
ATOM     39  C   UNL A   1      38.129  29.410  29.282  1.00  0.00    -0.014 A 
BRANCH  39  40
ATOM     40  C   UNL A   1      39.442  28.894  29.750  1.00  0.00     0.031 A 
ATOM     41  C   UNL A   1      40.180  29.600  30.855  1.00  0.00     0.074 A 
ATOM     42  C   UNL A   1      39.995  27.827  29.139  1.00  0.00     0.049 A 
ATOM     43  N   UNL A   1      41.367  29.354  31.348  1.00  0.00    -0.248 NA
ATOM     44  C   UNL A   1      39.503  30.753  31.465  1.00  0.00     0.031 C 
ATOM     45  C   UNL A   1      39.391  27.081  28.033  1.00  0.00     0.029 A 
ATOM     46  N   UNL A   1      41.192  27.190  29.353  1.00  0.00    -0.354 N 
ATOM     47  C   UNL A   1      41.585  30.329  32.316  1.00  0.00     0.074 A 
ATOM     48  C   UNL A   1      40.431  31.203  32.296  1.00  0.00     0.031 C 
ATOM     49  C   UNL A   1      40.212  26.079  27.679  1.00  0.00     0.029 A 
ATOM     50  C   UNL A   1      41.417  26.136  28.498  1.00  0.00     0.049 A 
ATOM     51  H   UNL A   1      41.829  27.464  30.051  1.00  0.00     0.167 HD
ATOM     52  C   UNL A   1      42.641  30.470  33.157  1.00  0.00     0.034 A 
ATOM     53  C   UNL A   1      42.481  25.316  28.380  1.00  0.00     0.034 A 
ATOM     54  C   UNL A   1      43.779  29.582  33.170  1.00  0.00     0.049 A 
ATOM     55  C   UNL A   1      43.653  25.504  29.310  1.00  0.00     0.074 A 
ATOM     56  C   UNL A   1      44.876  29.597  34.013  1.00  0.00     0.029 A 
ATOM     57  N   UNL A   1      43.971  28.522  32.292  1.00  0.00    -0.354 N 
ATOM     58  N   UNL A   1      43.824  26.403  30.252  1.00  0.00    -0.248 NA
ATOM     59  C   UNL A   1      44.770  24.562  29.167  1.00  0.00     0.031 C 
ATOM     60  C   UNL A   1      45.761  28.594  33.604  1.00  0.00     0.029 A 
ATOM     61  C   UNL A   1      45.183  27.898  32.554  1.00  0.00     0.049 A 
ATOM     62  H   UNL A   1      43.340  28.252  31.586  1.00  0.00     0.167 HD
ATOM     63  C   UNL A   1      45.054  26.112  30.835  1.00  0.00     0.074 A 
ATOM     64  C   UNL A   1      45.574  24.948  30.146  1.00  0.00     0.031 C 
ATOM     65  C   UNL A   1      45.694  26.746  31.850  1.00  0.00     0.034 A 
BRANCH  52  66
ATOM     66  C   UNL A   1      42.620  31.643  34.109  1.00  0.00     0.023 A 
ATOM     67  C   UNL A   1      42.024  31.554  35.380  1.00  0.00     0.031 A 
ATOM     68  C   UNL A   1      43.180  32.877  33.733  1.00  0.00     0.131 A 
ATOM     69  C   UNL A   1      41.931  32.693  36.193  1.00  0.00     0.055 A 
ATOM     70  C   UNL A   1      43.159  33.986  34.582  1.00  0.00     0.041 A 
ATOM     71  F   UNL A   1      43.747  33.031  32.525  1.00  0.00    -0.206 F 
ATOM     72  C   UNL A   1      42.518  33.902  35.814  1.00  0.00     0.022 A 
BRANCH  69  73
ATOM     73  S   UNL A   1      40.907  32.610  37.687  1.00  0.00     0.124 S 
ATOM     74  O   UNL A   1      41.764  31.843  38.589  1.00  0.00    -0.237 OA
ATOM     75  O   UNL A   1      40.723  34.016  38.023  1.00  0.00    -0.237 OA
ATOM     76  O   UNL A   1      39.704  31.911  37.239  1.00  0.00    -0.744 OA
ENDBRANCH  69  73
ENDBRANCH  52  66
BRANCH  53  77
ATOM     77  C   UNL A   1      42.500  24.248  27.338  1.00  0.00     0.023 A 
ATOM     78  C   UNL A   1      41.840  23.027  27.544  1.00  0.00     0.031 A 
ATOM     79  C   UNL A   1      43.212  24.420  26.138  1.00  0.00     0.131 A 
ATOM     80  C   UNL A   1      41.944  22.006  26.587  1.00  0.00     0.055 A 
ATOM     81  C   UNL A   1      43.267  23.421  25.164  1.00  0.00     0.041 A 
ATOM     82  F   UNL A   1      43.856  25.571  25.889  1.00  0.00    -0.206 F 
ATOM     83  C   UNL A   1      42.642  22.200  25.392  1.00  0.00     0.022 A 
BRANCH  80  84
ATOM     84  S   UNL A   1      41.220  20.386  26.962  1.00  0.00     0.124 S 
ATOM     85  O   UNL A   1      40.863  20.539  28.369  1.00  0.00    -0.237 OA
ATOM     86  O   UNL A   1      40.107  20.326  26.021  1.00  0.00    -0.237 OA
ATOM     87  O   UNL A   1      42.314  19.454  26.693  1.00  0.00    -0.744 OA
ENDBRANCH  80  84
ENDBRANCH  53  77
BRANCH  65  88
ATOM     88  C   UNL A   1      47.009  26.158  32.302  1.00  0.00     0.023 A 
ATOM     89  C   UNL A   1      48.231  26.540  31.723  1.00  0.00     0.031 A 
ATOM     90  C   UNL A   1      47.035  25.188  33.321  1.00  0.00     0.131 A 
ATOM     91  C   UNL A   1      49.422  25.918  32.128  1.00  0.00     0.055 A 
ATOM     92  C   UNL A   1      48.229  24.616  33.762  1.00  0.00     0.041 A 
ATOM     93  F   UNL A   1      45.897  24.783  33.908  1.00  0.00    -0.206 F 
ATOM     94  C   UNL A   1      49.430  24.970  33.154  1.00  0.00     0.022 A 
BRANCH  91  95
ATOM     95  S   UNL A   1      50.953  26.297  31.230  1.00  0.00     0.124 S 
ATOM     96  O   UNL A   1      51.418  27.497  31.918  1.00  0.00    -0.237 OA
ATOM     97  O   UNL A   1      51.746  25.091  31.445  1.00  0.00    -0.237 OA
ATOM     98  O   UNL A   1      50.501  26.504  29.855  1.00  0.00    -0.744 OA
ENDBRANCH  91  95
ENDBRANCH  65  88
ENDBRANCH  39  40
ENDBRANCH  31  34
ENDBRANCH  29  30
ENDBRANCH  28  29
ENDBRANCH  27  28
ENDBRANCH   1  27
TORSDOF 20
ENDMDL
MODEL 2
REMARK VINA RESULT:     -11.4      2.061      2.357
REMARK SMILES CCc1cccc(NC(=O)N2CCO[C@@H](CC(=O)NCCCCCCNC(=O)c3ccc(-c4c5nc(c(-c6cc(S(=O)(=O)[O-])ccc6F)c6ccc([nH]6)c(-c6cc(S(=O)(=O)[O-])ccc6F)c6nc(c(-c7cc(S(=O)(=O)[O-])ccc7F)c7ccc4[nH]7)C=C6)C=C5)cc3)C2)c1
REMARK SMILES IDX 22 1 21 2 20 3 19 4 17 5 18 6 16 8 15 9 11 10 12 11 92 12
REMARK SMILES IDX 13 13 14 14 9 15 8 16 10 18 7 19 3 20 4 21 93 22 5 23 6 24
REMARK SMILES IDX 2 25 1 26 23 27 24 28 25 29 26 30 27 31 28 33 29 34 30 35
REMARK SMILES IDX 91 36 31 37 90 38 32 39 33 40 34 41 84 42 35 43 89 44 83 45
REMARK SMILES IDX 85 46 36 47 88 48 82 49 81 50 37 52 69 53 49 54 68 55 50 56
REMARK SMILES IDX 53 57 67 58 86 59 51 60 52 61 66 63 87 64 54 65 38 66 39 67
REMARK SMILES IDX 47 68 40 69 46 70 48 71 45 72 41 73 42 74 43 75 44 76 70 77
REMARK SMILES IDX 71 78 79 79 72 80 78 81 80 82 77 83 73 84 74 85 75 86 76 87
REMARK SMILES IDX 55 88 56 89 64 90 57 91 63 92 65 93 62 94 58 95 59 96 60 97
REMARK SMILES IDX 61 98
REMARK H PARENT 19 7 8 17 26 32 85 51 53 62
REMARK Flexibility Score: inf
ROOT
ATOM      1  C   UNL A   1      31.314  29.318  24.163  1.00  0.00     0.002 C 
ENDROOT
BRANCH   1   2
ATOM      2  C   UNL A   1      31.184  28.918  22.695  1.00  0.00     0.021 C 
BRANCH   2   3
ATOM      3  C   UNL A   1      30.656  27.496  22.471  1.00  0.00     0.116 C 
BRANCH   3   4
ATOM      4  N   UNL A   1      31.555  26.746  21.604  1.00  0.00    -0.356 N 
ATOM      5  C   UNL A   1      32.759  26.163  21.871  1.00  0.00     0.222 C 
ATOM      6  O   UNL A   1      33.413  25.709  20.930  1.00  0.00    -0.275 OA
ATOM      7  H   UNL A   1      31.243  26.643  20.677  1.00  0.00     0.163 HD
BRANCH   5   8
ATOM      8  C   UNL A   1      33.283  26.089  23.289  1.00  0.00     0.133 C 
BRANCH   8   9
ATOM      9  C   UNL A   1      32.633  24.974  24.109  1.00  0.00     0.147 C 
ATOM     10  N   UNL A   1      32.922  23.475  26.044  1.00  0.00    -0.320 N 
ATOM     11  C   UNL A   1      31.645  23.921  26.599  1.00  0.00     0.150 C 
ATOM     12  C   UNL A   1      33.571  24.452  25.200  1.00  0.00     0.154 C 
ATOM     13  C   UNL A   1      30.748  24.513  25.502  1.00  0.00     0.182 C 
ATOM     14  O   UNL A   1      31.434  25.509  24.718  1.00  0.00    -0.374 OA
BRANCH  10  15
ATOM     15  C   UNL A   1      33.719  22.575  26.700  1.00  0.00     0.322 C 
ATOM     16  N   UNL A   1      33.668  21.264  26.338  1.00  0.00    -0.308 N 
ATOM     17  H   UNL A   1      34.014  20.641  27.018  1.00  0.00     0.171 HD
ATOM     18  O   UNL A   1      34.519  22.928  27.569  1.00  0.00    -0.248 OA
BRANCH  16  19
ATOM     19  C   UNL A   1      33.207  20.640  25.163  1.00  0.00     0.043 A 
ATOM     20  C   UNL A   1      32.860  18.547  23.952  1.00  0.00    -0.046 A 
ATOM     21  C   UNL A   1      32.252  19.267  22.914  1.00  0.00     0.004 A 
ATOM     22  C   UNL A   1      33.298  19.244  25.090  1.00  0.00     0.029 A 
ATOM     23  C   UNL A   1      32.201  20.654  22.954  1.00  0.00     0.002 A 
ATOM     24  C   UNL A   1      32.726  21.330  24.051  1.00  0.00     0.026 A 
BRANCH  20  25
ATOM     25  C   UNL A   1      32.998  17.052  23.787  1.00  0.00     0.032 C 
ATOM     26  C   UNL A   1      34.292  16.566  23.147  1.00  0.00     0.009 C 
ENDBRANCH  20  25
ENDBRANCH  16  19
ENDBRANCH  10  15
ENDBRANCH   8   9
ENDBRANCH   5   8
ENDBRANCH   3   4
ENDBRANCH   2   3
ENDBRANCH   1   2
BRANCH   1  27
ATOM     27  C   UNL A   1      32.751  29.388  24.680  1.00  0.00     0.002 C 
BRANCH  27  28
ATOM     28  C   UNL A   1      33.016  28.651  25.999  1.00  0.00     0.021 C 
BRANCH  28  29
ATOM     29  C   UNL A   1      32.719  29.455  27.264  1.00  0.00     0.116 C 
BRANCH  29  30
ATOM     30  N   UNL A   1      32.904  30.881  27.051  1.00  0.00    -0.352 N 
ATOM     31  C   UNL A   1      33.894  31.717  27.504  1.00  0.00     0.251 C 
ATOM     32  H   UNL A   1      32.214  31.314  26.498  1.00  0.00     0.163 HD
ATOM     33  O   UNL A   1      33.742  32.932  27.438  1.00  0.00    -0.269 OA
BRANCH  31  34
ATOM     34  C   UNL A   1      35.134  31.153  28.084  1.00  0.00     0.039 A 
ATOM     35  C   UNL A   1      36.314  31.898  28.015  1.00  0.00     0.014 A 
ATOM     36  C   UNL A   1      35.142  29.880  28.662  1.00  0.00     0.014 A 
ATOM     37  C   UNL A   1      37.489  31.390  28.577  1.00  0.00     0.010 A 
ATOM     38  C   UNL A   1      36.296  29.404  29.279  1.00  0.00     0.010 A 
ATOM     39  C   UNL A   1      37.483  30.152  29.240  1.00  0.00    -0.014 A 
BRANCH  39  40
ATOM     40  C   UNL A   1      38.710  29.619  29.889  1.00  0.00     0.031 A 
ATOM     41  C   UNL A   1      39.135  30.135  31.237  1.00  0.00     0.074 A 
ATOM     42  C   UNL A   1      39.471  28.718  29.237  1.00  0.00     0.049 A 
ATOM     43  N   UNL A   1      40.210  29.857  31.931  1.00  0.00    -0.248 NA
ATOM     44  C   UNL A   1      38.246  31.115  31.876  1.00  0.00     0.031 C 
ATOM     45  C   UNL A   1      39.181  28.170  27.910  1.00  0.00     0.029 A 
ATOM     46  N   UNL A   1      40.650  28.111  29.595  1.00  0.00    -0.354 N 
ATOM     47  C   UNL A   1      40.133  30.637  33.080  1.00  0.00     0.074 A 
ATOM     48  C   UNL A   1      38.936  31.441  32.959  1.00  0.00     0.031 C 
ATOM     49  C   UNL A   1      40.144  27.296  27.575  1.00  0.00     0.029 A 
ATOM     50  C   UNL A   1      41.142  27.253  28.639  1.00  0.00     0.049 A 
ATOM     51  H   UNL A   1      41.100  28.276  30.454  1.00  0.00     0.167 HD
ATOM     52  C   UNL A   1      40.973  30.664  34.145  1.00  0.00     0.034 A 
ATOM     53  C   UNL A   1      42.276  26.524  28.616  1.00  0.00     0.034 A 
ATOM     54  C   UNL A   1      42.158  29.846  34.253  1.00  0.00     0.049 A 
ATOM     55  C   UNL A   1      43.206  26.587  29.801  1.00  0.00     0.074 A 
ATOM     56  C   UNL A   1      43.049  29.753  35.308  1.00  0.00     0.029 A 
ATOM     57  N   UNL A   1      42.623  28.986  33.266  1.00  0.00    -0.354 N 
ATOM     58  N   UNL A   1      43.095  27.294  30.902  1.00  0.00    -0.248 NA
ATOM     59  C   UNL A   1      44.407  25.745  29.745  1.00  0.00     0.031 C 
ATOM     60  C   UNL A   1      44.086  28.891  34.934  1.00  0.00     0.029 A 
ATOM     61  C   UNL A   1      43.804  28.383  33.675  1.00  0.00     0.049 A 
ATOM     62  H   UNL A   1      42.180  28.827  32.401  1.00  0.00     0.167 HD
ATOM     63  C   UNL A   1      44.197  26.957  31.682  1.00  0.00     0.074 A 
ATOM     64  C   UNL A   1      44.952  25.973  30.931  1.00  0.00     0.031 C 
ATOM     65  C   UNL A   1      44.552  27.414  32.910  1.00  0.00     0.034 A 
BRANCH  52  66
ATOM     66  C   UNL A   1      40.649  31.630  35.261  1.00  0.00     0.023 A 
ATOM     67  C   UNL A   1      39.620  31.374  36.186  1.00  0.00     0.031 A 
ATOM     68  C   UNL A   1      41.360  32.836  35.389  1.00  0.00     0.131 A 
ATOM     69  C   UNL A   1      39.280  32.342  37.142  1.00  0.00     0.055 A 
ATOM     70  C   UNL A   1      41.071  33.759  36.397  1.00  0.00     0.041 A 
ATOM     71  F   UNL A   1      42.340  33.148  34.525  1.00  0.00    -0.206 F 
ATOM     72  C   UNL A   1      40.016  33.522  37.272  1.00  0.00     0.022 A 
BRANCH  69  73
ATOM     73  S   UNL A   1      37.772  32.100  38.120  1.00  0.00     0.124 S 
ATOM     74  O   UNL A   1      38.267  32.301  39.479  1.00  0.00    -0.237 OA
ATOM     75  O   UNL A   1      36.889  33.138  37.601  1.00  0.00    -0.237 OA
ATOM     76  O   UNL A   1      37.376  30.728  37.806  1.00  0.00    -0.744 OA
ENDBRANCH  69  73
ENDBRANCH  52  66
BRANCH  53  77
ATOM     77  C   UNL A   1      42.607  25.679  27.432  1.00  0.00     0.023 A 
ATOM     78  C   UNL A   1      42.158  24.352  27.344  1.00  0.00     0.031 A 
ATOM     79  C   UNL A   1      43.411  26.175  26.391  1.00  0.00     0.131 A 
ATOM     80  C   UNL A   1      42.554  23.550  26.262  1.00  0.00     0.055 A 
ATOM     81  C   UNL A   1      43.758  25.390  25.289  1.00  0.00     0.041 A 
ATOM     82  F   UNL A   1      43.862  27.438  26.423  1.00  0.00    -0.206 F 
ATOM     83  C   UNL A   1      43.340  24.065  25.227  1.00  0.00     0.022 A 
BRANCH  80  84
ATOM     84  S   UNL A   1      42.095  21.796  26.267  1.00  0.00     0.124 S 
ATOM     85  O   UNL A   1      40.671  21.861  25.951  1.00  0.00    -0.237 OA
ATOM     86  O   UNL A   1      42.959  21.254  25.224  1.00  0.00    -0.237 OA
ATOM     87  O   UNL A   1      42.414  21.365  27.626  1.00  0.00    -0.744 OA
ENDBRANCH  80  84
ENDBRANCH  53  77
BRANCH  65  88
ATOM     88  C   UNL A   1      45.790  26.814  33.531  1.00  0.00     0.023 A 
ATOM     89  C   UNL A   1      45.739  25.645  34.309  1.00  0.00     0.031 A 
ATOM     90  C   UNL A   1      47.040  27.434  33.350  1.00  0.00     0.131 A 
ATOM     91  C   UNL A   1      46.905  25.162  34.923  1.00  0.00     0.055 A 
ATOM     92  C   UNL A   1      48.207  26.916  33.913  1.00  0.00     0.041 A 
ATOM     93  F   UNL A   1      47.147  28.556  32.619  1.00  0.00    -0.206 F 
ATOM     94  C   UNL A   1      48.140  25.781  34.716  1.00  0.00     0.022 A 
BRANCH  91  95
ATOM     95  S   UNL A   1      46.771  23.764  36.071  1.00  0.00     0.124 S 
ATOM     96  O   UNL A   1      46.928  22.621  35.178  1.00  0.00    -0.237 OA
ATOM     97  O   UNL A   1      47.876  24.010  36.992  1.00  0.00    -0.237 OA
ATOM     98  O   UNL A   1      45.437  23.921  36.649  1.00  0.00    -0.744 OA
ENDBRANCH  91  95
ENDBRANCH  65  88
ENDBRANCH  39  40
ENDBRANCH  31  34
ENDBRANCH  29  30
ENDBRANCH  28  29
ENDBRANCH  27  28
ENDBRANCH   1  27
TORSDOF 20
ENDMDL
MODEL 3
REMARK VINA RESULT:     -11.3      3.525      4.800
REMARK SMILES CCc1cccc(NC(=O)N2CCO[C@@H](CC(=O)NCCCCCCNC(=O)c3ccc(-c4c5nc(c(-c6cc(S(=O)(=O)[O-])ccc6F)c6ccc([nH]6)c(-c6cc(S(=O)(=O)[O-])ccc6F)c6nc(c(-c7cc(S(=O)(=O)[O-])ccc7F)c7ccc4[nH]7)C=C6)C=C5)cc3)C2)c1
REMARK SMILES IDX 22 1 21 2 20 3 19 4 17 5 18 6 16 8 15 9 11 10 12 11 92 12
REMARK SMILES IDX 13 13 14 14 9 15 8 16 10 18 7 19 3 20 4 21 93 22 5 23 6 24
REMARK SMILES IDX 2 25 1 26 23 27 24 28 25 29 26 30 27 31 28 33 29 34 30 35
REMARK SMILES IDX 91 36 31 37 90 38 32 39 33 40 34 41 84 42 35 43 89 44 83 45
REMARK SMILES IDX 85 46 36 47 88 48 82 49 81 50 37 52 69 53 49 54 68 55 50 56
REMARK SMILES IDX 53 57 67 58 86 59 51 60 52 61 66 63 87 64 54 65 38 66 39 67
REMARK SMILES IDX 47 68 40 69 46 70 48 71 45 72 41 73 42 74 43 75 44 76 70 77
REMARK SMILES IDX 71 78 79 79 72 80 78 81 80 82 77 83 73 84 74 85 75 86 76 87
REMARK SMILES IDX 55 88 56 89 64 90 57 91 63 92 65 93 62 94 58 95 59 96 60 97
REMARK SMILES IDX 61 98
REMARK H PARENT 19 7 8 17 26 32 85 51 53 62
REMARK Flexibility Score: inf
ROOT
ATOM      1  C   UNL A   1      34.841  31.083  28.348  1.00  0.00     0.002 C 
ENDROOT
BRANCH   1   2
ATOM      2  C   UNL A   1      35.125  29.808  27.557  1.00  0.00     0.021 C 
BRANCH   2   3
ATOM      3  C   UNL A   1      33.882  29.157  26.937  1.00  0.00     0.116 C 
BRANCH   3   4
ATOM      4  N   UNL A   1      33.890  29.313  25.489  1.00  0.00    -0.356 N 
ATOM      5  C   UNL A   1      33.048  28.812  24.541  1.00  0.00     0.222 C 
ATOM      6  O   UNL A   1      33.347  28.957  23.354  1.00  0.00    -0.275 OA
ATOM      7  H   UNL A   1      34.621  29.871  25.138  1.00  0.00     0.163 HD
BRANCH   5   8
ATOM      8  C   UNL A   1      31.782  28.084  24.940  1.00  0.00     0.133 C 
BRANCH   8   9
ATOM      9  C   UNL A   1      31.861  26.576  24.708  1.00  0.00     0.147 C 
ATOM     10  N   UNL A   1      30.937  24.390  25.374  1.00  0.00    -0.320 N 
ATOM     11  C   UNL A   1      30.652  24.068  23.977  1.00  0.00     0.150 C 
ATOM     12  C   UNL A   1      30.947  25.805  25.663  1.00  0.00     0.154 C 
ATOM     13  C   UNL A   1      31.525  24.906  23.032  1.00  0.00     0.182 C 
ATOM     14  O   UNL A   1      31.464  26.313  23.341  1.00  0.00    -0.374 OA
BRANCH  10  15
ATOM     15  C   UNL A   1      30.606  23.537  26.393  1.00  0.00     0.322 C 
ATOM     16  N   UNL A   1      31.258  22.346  26.494  1.00  0.00    -0.308 N 
ATOM     17  H   UNL A   1      30.787  21.670  27.034  1.00  0.00     0.171 HD
ATOM     18  O   UNL A   1      29.774  23.841  27.250  1.00  0.00    -0.248 OA
BRANCH  16  19
ATOM     19  C   UNL A   1      32.488  21.911  25.963  1.00  0.00     0.043 A 
ATOM     20  C   UNL A   1      33.717  20.131  24.829  1.00  0.00    -0.046 A 
ATOM     21  C   UNL A   1      34.851  20.954  24.799  1.00  0.00     0.004 A 
ATOM     22  C   UNL A   1      32.528  20.638  25.380  1.00  0.00     0.029 A 
ATOM     23  C   UNL A   1      34.835  22.197  25.418  1.00  0.00     0.002 A 
ATOM     24  C   UNL A   1      33.672  22.642  26.040  1.00  0.00     0.026 A 
BRANCH  20  25
ATOM     25  C   UNL A   1      33.839  18.740  24.251  1.00  0.00     0.032 C 
ATOM     26  C   UNL A   1      32.534  17.984  24.043  1.00  0.00     0.009 C 
ENDBRANCH  20  25
ENDBRANCH  16  19
ENDBRANCH  10  15
ENDBRANCH   8   9
ENDBRANCH   5   8
ENDBRANCH   3   4
ENDBRANCH   2   3
ENDBRANCH   1   2
BRANCH   1  27
ATOM     27  C   UNL A   1      35.671  32.295  27.924  1.00  0.00     0.002 C 
BRANCH  27  28
ATOM     28  C   UNL A   1      34.890  33.602  27.744  1.00  0.00     0.021 C 
BRANCH  28  29
ATOM     29  C   UNL A   1      33.406  33.528  28.100  1.00  0.00     0.116 C 
BRANCH  29  30
ATOM     30  N   UNL A   1      33.024  34.574  29.035  1.00  0.00    -0.352 N 
ATOM     31  C   UNL A   1      33.426  34.786  30.330  1.00  0.00     0.251 C 
ATOM     32  H   UNL A   1      32.378  35.230  28.686  1.00  0.00     0.163 HD
ATOM     33  O   UNL A   1      32.802  35.566  31.041  1.00  0.00    -0.269 OA
BRANCH  31  34
ATOM     34  C   UNL A   1      34.601  34.064  30.869  1.00  0.00     0.039 A 
ATOM     35  C   UNL A   1      34.403  32.858  31.547  1.00  0.00     0.014 A 
ATOM     36  C   UNL A   1      35.890  34.591  30.738  1.00  0.00     0.014 A 
ATOM     37  C   UNL A   1      35.503  32.153  32.044  1.00  0.00     0.010 A 
ATOM     38  C   UNL A   1      36.988  33.855  31.174  1.00  0.00     0.010 A 
ATOM     39  C   UNL A   1      36.807  32.631  31.835  1.00  0.00    -0.014 A 
BRANCH  39  40
ATOM     40  C   UNL A   1      37.992  31.868  32.310  1.00  0.00     0.031 A 
ATOM     41  C   UNL A   1      38.611  32.189  33.644  1.00  0.00     0.074 A 
ATOM     42  C   UNL A   1      38.544  30.930  31.515  1.00  0.00     0.049 A 
ATOM     43  N   UNL A   1      39.688  31.696  34.199  1.00  0.00    -0.248 NA
ATOM     44  C   UNL A   1      37.944  33.225  34.445  1.00  0.00     0.031 C 
ATOM     45  C   UNL A   1      38.054  30.556  30.187  1.00  0.00     0.029 A 
ATOM     46  N   UNL A   1      39.643  30.129  31.701  1.00  0.00    -0.354 N 
ATOM     47  C   UNL A   1      39.837  32.369  35.407  1.00  0.00     0.074 A 
ATOM     48  C   UNL A   1      38.771  33.346  35.473  1.00  0.00     0.031 C 
ATOM     49  C   UNL A   1      38.838  29.586  29.687  1.00  0.00     0.029 A 
ATOM     50  C   UNL A   1      39.909  29.300  30.635  1.00  0.00     0.049 A 
ATOM     51  H   UNL A   1      40.189  30.146  32.519  1.00  0.00     0.167 HD
ATOM     52  C   UNL A   1      40.763  32.175  36.378  1.00  0.00     0.034 A 
ATOM     53  C   UNL A   1      40.911  28.420  30.439  1.00  0.00     0.034 A 
ATOM     54  C   UNL A   1      41.814  31.188  36.299  1.00  0.00     0.049 A 
ATOM     55  C   UNL A   1      41.943  28.237  31.523  1.00  0.00     0.074 A 
ATOM     56  C   UNL A   1      42.772  30.869  37.246  1.00  0.00     0.029 A 
ATOM     57  N   UNL A   1      42.051  30.364  35.205  1.00  0.00    -0.354 N 
ATOM     58  N   UNL A   1      42.042  28.848  32.681  1.00  0.00    -0.248 NA
ATOM     59  C   UNL A   1      42.991  27.239  31.277  1.00  0.00     0.031 C 
ATOM     60  C   UNL A   1      43.626  29.905  36.701  1.00  0.00     0.029 A 
ATOM     61  C   UNL A   1      43.158  29.562  35.443  1.00  0.00     0.049 A 
ATOM     62  H   UNL A   1      41.512  30.352  34.381  1.00  0.00     0.167 HD
ATOM     63  C   UNL A   1      43.145  28.284  33.314  1.00  0.00     0.074 A 
ATOM     64  C   UNL A   1      43.669  27.275  32.415  1.00  0.00     0.031 C 
ATOM     65  C   UNL A   1      43.675  28.569  34.531  1.00  0.00     0.034 A 
BRANCH  52  66
ATOM     66  C   UNL A   1      40.694  33.070  37.594  1.00  0.00     0.023 A 
ATOM     67  C   UNL A   1      39.977  32.699  38.746  1.00  0.00     0.031 A 
ATOM     68  C   UNL A   1      41.330  34.324  37.595  1.00  0.00     0.131 A 
ATOM     69  C   UNL A   1      39.847  33.600  39.813  1.00  0.00     0.055 A 
ATOM     70  C   UNL A   1      41.267  35.183  38.694  1.00  0.00     0.041 A 
ATOM     71  F   UNL A   1      42.014  34.744  36.517  1.00  0.00    -0.206 F 
ATOM     72  C   UNL A   1      40.510  34.830  39.806  1.00  0.00     0.022 A 
BRANCH  69  73
ATOM     73  S   UNL A   1      38.683  33.203  41.146  1.00  0.00     0.124 S 
ATOM     74  O   UNL A   1      38.953  31.783  41.359  1.00  0.00    -0.237 OA
ATOM     75  O   UNL A   1      39.107  34.102  42.213  1.00  0.00    -0.237 OA
ATOM     76  O   UNL A   1      37.377  33.500  40.560  1.00  0.00    -0.744 OA
ENDBRANCH  69  73
ENDBRANCH  52  66
BRANCH  53  77
ATOM     77  C   UNL A   1      41.000  27.649  29.164  1.00  0.00     0.023 A 
ATOM     78  C   UNL A   1      41.984  27.947  28.208  1.00  0.00     0.031 A 
ATOM     79  C   UNL A   1      40.077  26.631  28.868  1.00  0.00     0.131 A 
ATOM     80  C   UNL A   1      41.994  27.267  26.980  1.00  0.00     0.055 A 
ATOM     81  C   UNL A   1      40.124  25.920  27.667  1.00  0.00     0.041 A 
ATOM     82  F   UNL A   1      39.120  26.303  29.749  1.00  0.00    -0.206 F 
ATOM     83  C   UNL A   1      41.079  26.246  26.709  1.00  0.00     0.022 A 
BRANCH  80  84
ATOM     84  S   UNL A   1      43.171  27.793  25.705  1.00  0.00     0.124 S 
ATOM     85  O   UNL A   1      42.278  28.204  24.628  1.00  0.00    -0.237 OA
ATOM     86  O   UNL A   1      43.894  28.863  26.384  1.00  0.00    -0.237 OA
ATOM     87  O   UNL A   1      43.951  26.585  25.443  1.00  0.00    -0.744 OA
ENDBRANCH  80  84
ENDBRANCH  53  77
BRANCH  65  88
ATOM     88  C   UNL A   1      44.859  27.741  34.972  1.00  0.00     0.023 A 
ATOM     89  C   UNL A   1      44.700  26.535  35.675  1.00  0.00     0.031 A 
ATOM     90  C   UNL A   1      46.167  28.178  34.694  1.00  0.00     0.131 A 
ATOM     91  C   UNL A   1      45.829  25.833  36.124  1.00  0.00     0.055 A 
ATOM     92  C   UNL A   1      47.287  27.445  35.091  1.00  0.00     0.041 A 
ATOM     93  F   UNL A   1      46.378  29.325  34.028  1.00  0.00    -0.206 F 
ATOM     94  C   UNL A   1      47.120  26.273  35.823  1.00  0.00     0.022 A 
BRANCH  91  95
ATOM     95  S   UNL A   1      45.589  24.385  37.190  1.00  0.00     0.124 S 
ATOM     96  O   UNL A   1      45.171  23.368  36.230  1.00  0.00    -0.237 OA
ATOM     97  O   UNL A   1      46.914  24.204  37.773  1.00  0.00    -0.237 OA
ATOM     98  O   UNL A   1      44.554  24.817  38.128  1.00  0.00    -0.744 OA
ENDBRANCH  91  95
ENDBRANCH  65  88
ENDBRANCH  39  40
ENDBRANCH  31  34
ENDBRANCH  29  30
ENDBRANCH  28  29
ENDBRANCH  27  28
ENDBRANCH   1  27
TORSDOF 20
ENDMDL
