MODEL 1
REMARK VINA RESULT:     -11.0      0.000      0.000
REMARK SMILES CCCC1C[NH+]([C@H](CC(=O)NCCCCCCNC(=O)c2ccc(-c3c4nc(c(-c5cc(S(=O)(=O)[O-])ccc5F)c5ccc([nH]5)c(-c5cc(S(=O)(=O)[O-])ccc5F)c5nc(c(-c6cc(S(=O)(=O)[O-])ccc6F)c6ccc3[nH]6)C=C5)C=C4)cc2)c2ccccc2)C1
REMARK SMILES IDX 14 1 13 2 12 3 11 4 9 5 10 6 8 8 7 9 6 10 4 11 5 12 90 13
REMARK SMILES IDX 3 15 2 16 1 17 84 18 85 19 89 20 86 21 88 22 87 23 15 24
REMARK SMILES IDX 16 25 17 26 18 27 19 28 20 30 21 31 22 32 83 33 23 34 82 35
REMARK SMILES IDX 24 36 25 37 26 38 76 39 27 40 81 41 75 42 77 43 28 44 80 45
REMARK SMILES IDX 74 46 73 47 29 49 61 50 41 51 60 52 42 53 45 54 59 55 78 56
REMARK SMILES IDX 43 57 44 58 58 60 79 61 46 62 30 63 31 64 39 65 32 66 38 67
REMARK SMILES IDX 40 68 37 69 33 70 34 71 35 72 36 73 62 74 63 75 71 76 64 77
REMARK SMILES IDX 70 78 72 79 69 80 65 81 66 82 67 83 68 84 47 85 48 86 56 87
REMARK SMILES IDX 49 88 55 89 57 90 54 91 50 92 51 93 52 94 53 95
REMARK H PARENT 11 7 6 14 18 29 77 48 45 59
REMARK Flexibility Score: inf
ROOT
ATOM      1  C   UNL A   1      31.747  28.953  26.905  1.00  0.00     0.002 C 
ENDROOT
BRANCH   1   2
ATOM      2  C   UNL A   1      32.685  27.841  26.420  1.00  0.00     0.021 C 
BRANCH   2   3
ATOM      3  C   UNL A   1      31.965  26.746  25.629  1.00  0.00     0.116 C 
BRANCH   3   4
ATOM      4  N   UNL A   1      31.382  25.767  26.529  1.00  0.00    -0.356 N 
ATOM      5  C   UNL A   1      31.354  24.409  26.414  1.00  0.00     0.226 C 
ATOM      6  O   UNL A   1      30.676  23.763  27.215  1.00  0.00    -0.275 OA
ATOM      7  H   UNL A   1      30.949  26.135  27.333  1.00  0.00     0.163 HD
BRANCH   5   8
ATOM      8  C   UNL A   1      32.177  23.712  25.350  1.00  0.00     0.170 C 
BRANCH   8   9
ATOM      9  C   UNL A   1      33.193  22.690  25.938  1.00  0.00     0.224 C 
BRANCH   9  10
ATOM     10  N   UNL A   1      32.533  21.368  25.894  1.00  0.00    -0.327 N 
ATOM     11  C   UNL A   1      32.657  19.448  25.029  1.00  0.00     0.099 C 
ATOM     12  C   UNL A   1      33.302  20.182  26.251  1.00  0.00     0.272 C 
ATOM     13  C   UNL A   1      32.199  20.857  24.571  1.00  0.00     0.272 C 
ATOM     14  H   UNL A   1      31.785  21.637  26.531  1.00  0.00     0.348 HD
BRANCH  11  15
ATOM     15  C   UNL A   1      33.604  18.592  24.194  1.00  0.00     0.015 C 
BRANCH  15  16
ATOM     16  C   UNL A   1      33.144  17.141  24.023  1.00  0.00    -0.003 C 
ATOM     17  C   UNL A   1      33.394  16.244  25.229  1.00  0.00     0.004 C 
ENDBRANCH  15  16
ENDBRANCH  11  15
ENDBRANCH   9  10
BRANCH   9  18
ATOM     18  C   UNL A   1      34.606  22.915  25.360  1.00  0.00     0.010 A 
ATOM     19  C   UNL A   1      35.738  23.277  26.102  1.00  0.00     0.010 A 
ATOM     20  C   UNL A   1      34.793  22.796  23.968  1.00  0.00     0.010 A 
ATOM     21  C   UNL A   1      36.984  23.512  25.515  1.00  0.00     0.001 A 
ATOM     22  C   UNL A   1      36.043  23.010  23.370  1.00  0.00     0.001 A 
ATOM     23  C   UNL A   1      37.139  23.375  24.146  1.00  0.00     0.000 A 
ENDBRANCH   9  18
ENDBRANCH   8   9
ENDBRANCH   5   8
ENDBRANCH   3   4
ENDBRANCH   2   3
ENDBRANCH   1   2
BRANCH   1  24
ATOM     24  C   UNL A   1      31.682  30.177  25.985  1.00  0.00     0.002 C 
BRANCH  24  25
ATOM     25  C   UNL A   1      31.548  31.518  26.710  1.00  0.00     0.021 C 
BRANCH  25  26
ATOM     26  C   UNL A   1      32.867  32.263  26.887  1.00  0.00     0.116 C 
BRANCH  26  27
ATOM     27  N   UNL A   1      32.655  33.599  27.425  1.00  0.00    -0.352 N 
ATOM     28  C   UNL A   1      33.229  34.189  28.522  1.00  0.00     0.251 C 
ATOM     29  H   UNL A   1      32.012  34.157  26.932  1.00  0.00     0.163 HD
ATOM     30  O   UNL A   1      32.745  35.221  28.987  1.00  0.00    -0.269 OA
BRANCH  28  31
ATOM     31  C   UNL A   1      34.414  33.570  29.148  1.00  0.00     0.039 A 
ATOM     32  C   UNL A   1      35.677  34.123  28.920  1.00  0.00     0.014 A 
ATOM     33  C   UNL A   1      34.276  32.441  29.962  1.00  0.00     0.014 A 
ATOM     34  C   UNL A   1      36.794  33.574  29.552  1.00  0.00     0.010 A 
ATOM     35  C   UNL A   1      35.378  31.948  30.652  1.00  0.00     0.010 A 
ATOM     36  C   UNL A   1      36.650  32.502  30.448  1.00  0.00    -0.014 A 
BRANCH  36  37
ATOM     37  C   UNL A   1      37.819  31.929  31.166  1.00  0.00     0.031 A 
ATOM     38  C   UNL A   1      38.599  30.803  30.544  1.00  0.00     0.074 A 
ATOM     39  C   UNL A   1      38.136  32.376  32.397  1.00  0.00     0.049 A 
ATOM     40  N   UNL A   1      39.586  30.103  31.043  1.00  0.00    -0.248 NA
ATOM     41  C   UNL A   1      38.192  30.388  29.194  1.00  0.00     0.031 C 
ATOM     42  C   UNL A   1      37.435  33.445  33.113  1.00  0.00     0.029 A 
ATOM     43  N   UNL A   1      39.123  31.986  33.267  1.00  0.00    -0.354 N 
ATOM     44  C   UNL A   1      39.909  29.159  30.075  1.00  0.00     0.074 A 
ATOM     45  C   UNL A   1      38.964  29.332  28.992  1.00  0.00     0.031 C 
ATOM     46  C   UNL A   1      38.032  33.641  34.299  1.00  0.00     0.029 A 
ATOM     47  C   UNL A   1      39.120  32.682  34.455  1.00  0.00     0.049 A 
ATOM     48  H   UNL A   1      39.771  31.275  33.060  1.00  0.00     0.167 HD
ATOM     49  C   UNL A   1      40.916  28.251  30.076  1.00  0.00     0.034 A 
ATOM     50  C   UNL A   1      39.895  32.549  35.549  1.00  0.00     0.034 A 
ATOM     51  C   UNL A   1      41.851  28.097  31.165  1.00  0.00     0.049 A 
ATOM     52  C   UNL A   1      40.978  31.498  35.550  1.00  0.00     0.074 A 
ATOM     53  C   UNL A   1      42.934  27.241  31.257  1.00  0.00     0.029 A 
ATOM     54  N   UNL A   1      41.809  28.811  32.358  1.00  0.00    -0.354 N 
ATOM     55  N   UNL A   1      41.297  30.638  34.610  1.00  0.00    -0.248 NA
ATOM     56  C   UNL A   1      41.810  31.407  36.757  1.00  0.00     0.031 C 
ATOM     57  C   UNL A   1      43.496  27.378  32.530  1.00  0.00     0.029 A 
ATOM     58  C   UNL A   1      42.825  28.387  33.202  1.00  0.00     0.049 A 
ATOM     59  H   UNL A   1      41.155  29.514  32.571  1.00  0.00     0.167 HD
ATOM     60  C   UNL A   1      42.393  29.931  35.099  1.00  0.00     0.074 A 
ATOM     61  C   UNL A   1      42.683  30.473  36.410  1.00  0.00     0.031 C 
ATOM     62  C   UNL A   1      43.099  28.931  34.513  1.00  0.00     0.034 A 
BRANCH  49  63
ATOM     63  C   UNL A   1      41.031  27.338  28.877  1.00  0.00     0.023 A 
ATOM     64  C   UNL A   1      42.043  27.506  27.915  1.00  0.00     0.031 A 
ATOM     65  C   UNL A   1      40.094  26.310  28.669  1.00  0.00     0.131 A 
ATOM     66  C   UNL A   1      42.041  26.723  26.751  1.00  0.00     0.055 A 
ATOM     67  C   UNL A   1      40.155  25.471  27.554  1.00  0.00     0.041 A 
ATOM     68  F   UNL A   1      39.090  26.113  29.539  1.00  0.00    -0.206 F 
ATOM     69  C   UNL A   1      41.122  25.687  26.577  1.00  0.00     0.022 A 
BRANCH  66  70
ATOM     70  S   UNL A   1      43.152  27.190  25.394  1.00  0.00     0.124 S 
ATOM     71  O   UNL A   1      43.343  25.909  24.717  1.00  0.00    -0.237 OA
ATOM     72  O   UNL A   1      42.367  28.184  24.672  1.00  0.00    -0.237 OA
ATOM     73  O   UNL A   1      44.334  27.705  26.082  1.00  0.00    -0.744 OA
ENDBRANCH  66  70
ENDBRANCH  49  63
BRANCH  50  74
ATOM     74  C   UNL A   1      39.677  33.421  36.740  1.00  0.00     0.023 A 
ATOM     75  C   UNL A   1      39.001  32.939  37.872  1.00  0.00     0.031 A 
ATOM     76  C   UNL A   1      40.106  34.760  36.749  1.00  0.00     0.131 A 
ATOM     77  C   UNL A   1      38.729  33.803  38.945  1.00  0.00     0.055 A 
ATOM     78  C   UNL A   1      39.887  35.598  37.844  1.00  0.00     0.041 A 
ATOM     79  F   UNL A   1      40.760  35.271  35.694  1.00  0.00    -0.206 F 
ATOM     80  C   UNL A   1      39.182  35.123  38.945  1.00  0.00     0.022 A 
BRANCH  77  81
ATOM     81  S   UNL A   1      37.693  33.198  40.306  1.00  0.00     0.124 S 
ATOM     82  O   UNL A   1      36.483  32.794  39.598  1.00  0.00    -0.237 OA
ATOM     83  O   UNL A   1      38.510  32.118  40.851  1.00  0.00    -0.237 OA
ATOM     84  O   UNL A   1      37.551  34.367  41.170  1.00  0.00    -0.744 OA
ENDBRANCH  77  81
ENDBRANCH  50  74
BRANCH  62  85
ATOM     85  C   UNL A   1      44.294  28.396  35.267  1.00  0.00     0.023 A 
ATOM     86  C   UNL A   1      44.162  27.472  36.318  1.00  0.00     0.031 A 
ATOM     87  C   UNL A   1      45.591  28.825  34.927  1.00  0.00     0.131 A 
ATOM     88  C   UNL A   1      45.297  27.051  37.027  1.00  0.00     0.055 A 
ATOM     89  C   UNL A   1      46.723  28.351  35.590  1.00  0.00     0.041 A 
ATOM     90  F   UNL A   1      45.779  29.711  33.934  1.00  0.00    -0.206 F 
ATOM     91  C   UNL A   1      46.579  27.469  36.656  1.00  0.00     0.022 A 
BRANCH  88  92
ATOM     92  S   UNL A   1      45.071  26.026  38.506  1.00  0.00     0.124 S 
ATOM     93  O   UNL A   1      44.395  24.853  37.961  1.00  0.00    -0.237 OA
ATOM     94  O   UNL A   1      46.444  25.817  38.954  1.00  0.00    -0.237 OA
ATOM     95  O   UNL A   1      44.254  26.862  39.383  1.00  0.00    -0.744 OA
ENDBRANCH  88  92
ENDBRANCH  62  85
ENDBRANCH  36  37
ENDBRANCH  28  31
ENDBRANCH  26  27
ENDBRANCH  25  26
ENDBRANCH  24  25
ENDBRANCH   1  24
TORSDOF 21
ENDMDL
MODEL 2
REMARK VINA RESULT:     -10.8      5.605      9.050
REMARK SMILES CCCC1C[NH+]([C@H](CC(=O)NCCCCCCNC(=O)c2ccc(-c3c4nc(c(-c5cc(S(=O)(=O)[O-])ccc5F)c5ccc([nH]5)c(-c5cc(S(=O)(=O)[O-])ccc5F)c5nc(c(-c6cc(S(=O)(=O)[O-])ccc6F)c6ccc3[nH]6)C=C5)C=C4)cc2)c2ccccc2)C1
REMARK SMILES IDX 14 1 13 2 12 3 11 4 9 5 10 6 8 8 7 9 6 10 4 11 5 12 90 13
REMARK SMILES IDX 3 15 2 16 1 17 84 18 85 19 89 20 86 21 88 22 87 23 15 24
REMARK SMILES IDX 16 25 17 26 18 27 19 28 20 30 21 31 22 32 83 33 23 34 82 35
REMARK SMILES IDX 24 36 25 37 26 38 76 39 27 40 81 41 75 42 77 43 28 44 80 45
REMARK SMILES IDX 74 46 73 47 29 49 61 50 41 51 60 52 42 53 45 54 59 55 78 56
REMARK SMILES IDX 43 57 44 58 58 60 79 61 46 62 30 63 31 64 39 65 32 66 38 67
REMARK SMILES IDX 40 68 37 69 33 70 34 71 35 72 36 73 62 74 63 75 71 76 64 77
REMARK SMILES IDX 70 78 72 79 69 80 65 81 66 82 67 83 68 84 47 85 48 86 56 87
REMARK SMILES IDX 49 88 55 89 57 90 54 91 50 92 51 93 52 94 53 95
REMARK H PARENT 11 7 6 14 18 29 77 48 45 59
REMARK Flexibility Score: inf
ROOT
ATOM      1  C   UNL A   1      34.248  22.671  24.264  1.00  0.00     0.002 C 
ENDROOT
BRANCH   1   2
ATOM      2  C   UNL A   1      33.117  21.922  23.550  1.00  0.00     0.021 C 
BRANCH   2   3
ATOM      3  C   UNL A   1      32.126  22.852  22.846  1.00  0.00     0.116 C 
BRANCH   3   4
ATOM      4  N   UNL A   1      32.833  23.834  22.044  1.00  0.00    -0.356 N 
ATOM      5  C   UNL A   1      32.589  25.169  21.915  1.00  0.00     0.226 C 
ATOM      6  O   UNL A   1      33.213  25.803  21.063  1.00  0.00    -0.275 OA
ATOM      7  H   UNL A   1      33.592  23.488  21.521  1.00  0.00     0.163 HD
BRANCH   5   8
ATOM      8  C   UNL A   1      31.603  25.861  22.834  1.00  0.00     0.170 C 
BRANCH   8   9
ATOM      9  C   UNL A   1      31.832  27.397  22.928  1.00  0.00     0.224 C 
BRANCH   9  10
ATOM     10  N   UNL A   1      30.678  28.037  22.261  1.00  0.00    -0.327 N 
ATOM     11  C   UNL A   1      29.250  29.575  22.466  1.00  0.00     0.099 C 
ATOM     12  C   UNL A   1      30.731  29.464  21.973  1.00  0.00     0.272 C 
ATOM     13  C   UNL A   1      29.459  28.154  23.051  1.00  0.00     0.272 C 
ATOM     14  H   UNL A   1      30.698  27.407  21.460  1.00  0.00     0.348 HD
BRANCH  11  15
ATOM     15  C   UNL A   1      28.933  30.777  23.351  1.00  0.00     0.015 C 
BRANCH  15  16
ATOM     16  C   UNL A   1      28.462  32.011  22.578  1.00  0.00    -0.003 C 
ATOM     17  C   UNL A   1      28.967  33.341  23.124  1.00  0.00     0.004 C 
ENDBRANCH  15  16
ENDBRANCH  11  15
ENDBRANCH   9  10
BRANCH   9  18
ATOM     18  C   UNL A   1      32.282  27.806  24.346  1.00  0.00     0.010 A 
ATOM     19  C   UNL A   1      33.282  28.742  24.642  1.00  0.00     0.010 A 
ATOM     20  C   UNL A   1      31.686  27.170  25.454  1.00  0.00     0.010 A 
ATOM     21  C   UNL A   1      33.679  29.038  25.948  1.00  0.00     0.001 A 
ATOM     22  C   UNL A   1      32.063  27.473  26.770  1.00  0.00     0.001 A 
ATOM     23  C   UNL A   1      33.066  28.405  27.016  1.00  0.00     0.000 A 
ENDBRANCH   9  18
ENDBRANCH   8   9
ENDBRANCH   5   8
ENDBRANCH   3   4
ENDBRANCH   2   3
ENDBRANCH   1   2
BRANCH   1  24
ATOM     24  C   UNL A   1      35.580  21.915  24.315  1.00  0.00     0.002 C 
BRANCH  24  25
ATOM     25  C   UNL A   1      36.822  22.806  24.387  1.00  0.00     0.021 C 
BRANCH  25  26
ATOM     26  C   UNL A   1      37.362  23.008  25.799  1.00  0.00     0.116 C 
BRANCH  26  27
ATOM     27  N   UNL A   1      38.374  22.015  26.129  1.00  0.00    -0.352 N 
ATOM     28  C   UNL A   1      39.680  22.204  26.501  1.00  0.00     0.251 C 
ATOM     29  H   UNL A   1      38.078  21.077  26.080  1.00  0.00     0.163 HD
ATOM     30  O   UNL A   1      40.464  21.256  26.488  1.00  0.00    -0.269 OA
BRANCH  28  31
ATOM     31  C   UNL A   1      40.138  23.550  26.900  1.00  0.00     0.039 A 
ATOM     32  C   UNL A   1      40.060  24.600  25.982  1.00  0.00     0.014 A 
ATOM     33  C   UNL A   1      40.646  23.773  28.183  1.00  0.00     0.014 A 
ATOM     34  C   UNL A   1      40.441  25.886  26.370  1.00  0.00     0.010 A 
ATOM     35  C   UNL A   1      40.949  25.067  28.592  1.00  0.00     0.010 A 
ATOM     36  C   UNL A   1      40.859  26.137  27.688  1.00  0.00    -0.014 A 
BRANCH  36  37
ATOM     37  C   UNL A   1      41.228  27.504  28.138  1.00  0.00     0.031 A 
ATOM     38  C   UNL A   1      42.676  27.912  28.177  1.00  0.00     0.074 A 
ATOM     39  C   UNL A   1      40.273  28.351  28.568  1.00  0.00     0.049 A 
ATOM     40  N   UNL A   1      43.215  29.018  28.624  1.00  0.00    -0.248 NA
ATOM     41  C   UNL A   1      43.650  26.931  27.676  1.00  0.00     0.031 C 
ATOM     42  C   UNL A   1      38.838  28.058  28.602  1.00  0.00     0.029 A 
ATOM     43  N   UNL A   1      40.362  29.627  29.064  1.00  0.00    -0.354 N 
ATOM     44  C   UNL A   1      44.588  28.860  28.470  1.00  0.00     0.074 A 
ATOM     45  C   UNL A   1      44.799  27.524  27.956  1.00  0.00     0.031 C 
ATOM     46  C   UNL A   1      38.182  29.131  29.067  1.00  0.00     0.029 A 
ATOM     47  C   UNL A   1      39.146  30.170  29.416  1.00  0.00     0.049 A 
ATOM     48  H   UNL A   1      41.215  30.108  29.160  1.00  0.00     0.167 HD
ATOM     49  C   UNL A   1      45.577  29.756  28.710  1.00  0.00     0.034 A 
ATOM     50  C   UNL A   1      38.847  31.360  29.971  1.00  0.00     0.034 A 
ATOM     51  C   UNL A   1      45.345  31.086  29.219  1.00  0.00     0.049 A 
ATOM     52  C   UNL A   1      39.968  32.323  30.277  1.00  0.00     0.074 A 
ATOM     53  C   UNL A   1      46.266  32.091  29.459  1.00  0.00     0.029 A 
ATOM     54  N   UNL A   1      44.102  31.596  29.575  1.00  0.00    -0.354 N 
ATOM     55  N   UNL A   1      41.260  32.175  30.089  1.00  0.00    -0.248 NA
ATOM     56  C   UNL A   1      39.589  33.616  30.860  1.00  0.00     0.031 C 
ATOM     57  C   UNL A   1      45.594  33.174  30.034  1.00  0.00     0.029 A 
ATOM     58  C   UNL A   1      44.239  32.886  30.067  1.00  0.00     0.049 A 
ATOM     59  H   UNL A   1      43.248  31.113  29.491  1.00  0.00     0.167 HD
ATOM     60  C   UNL A   1      41.842  33.373  30.496  1.00  0.00     0.074 A 
ATOM     61  C   UNL A   1      40.760  34.232  30.929  1.00  0.00     0.031 C 
ATOM     62  C   UNL A   1      43.151  33.732  30.503  1.00  0.00     0.034 A 
BRANCH  49  63
ATOM     63  C   UNL A   1      46.998  29.307  28.452  1.00  0.00     0.023 A 
ATOM     64  C   UNL A   1      47.469  29.055  27.151  1.00  0.00     0.031 A 
ATOM     65  C   UNL A   1      47.884  29.090  29.523  1.00  0.00     0.131 A 
ATOM     66  C   UNL A   1      48.750  28.517  26.961  1.00  0.00     0.055 A 
ATOM     67  C   UNL A   1      49.192  28.644  29.319  1.00  0.00     0.041 A 
ATOM     68  F   UNL A   1      47.488  29.290  30.790  1.00  0.00    -0.206 F 
ATOM     69  C   UNL A   1      49.626  28.337  28.033  1.00  0.00     0.022 A 
BRANCH  66  70
ATOM     70  S   UNL A   1      49.191  27.899  25.313  1.00  0.00     0.124 S 
ATOM     71  O   UNL A   1      49.331  26.466  25.565  1.00  0.00    -0.237 OA
ATOM     72  O   UNL A   1      48.043  28.297  24.509  1.00  0.00    -0.237 OA
ATOM     73  O   UNL A   1      50.440  28.595  25.010  1.00  0.00    -0.744 OA
ENDBRANCH  66  70
ENDBRANCH  49  63
BRANCH  50  74
ATOM     74  C   UNL A   1      37.432  31.713  30.286  1.00  0.00     0.023 A 
ATOM     75  C   UNL A   1      36.571  32.202  29.290  1.00  0.00     0.031 A 
ATOM     76  C   UNL A   1      36.929  31.604  31.595  1.00  0.00     0.131 A 
ATOM     77  C   UNL A   1      35.271  32.611  29.627  1.00  0.00     0.055 A 
ATOM     78  C   UNL A   1      35.616  31.955  31.913  1.00  0.00     0.041 A 
ATOM     79  F   UNL A   1      37.708  31.140  32.584  1.00  0.00    -0.206 F 
ATOM     80  C   UNL A   1      34.783  32.475  30.928  1.00  0.00     0.022 A 
BRANCH  77  81
ATOM     81  S   UNL A   1      34.255  33.410  28.354  1.00  0.00     0.124 S 
ATOM     82  O   UNL A   1      35.272  34.006  27.496  1.00  0.00    -0.237 OA
ATOM     83  O   UNL A   1      33.525  32.277  27.795  1.00  0.00    -0.237 OA
ATOM     84  O   UNL A   1      33.444  34.358  29.114  1.00  0.00    -0.744 OA
ENDBRANCH  77  81
ENDBRANCH  50  74
BRANCH  62  85
ATOM     85  C   UNL A   1      43.479  35.140  30.943  1.00  0.00     0.023 A 
ATOM     86  C   UNL A   1      43.513  36.216  30.039  1.00  0.00     0.031 A 
ATOM     87  C   UNL A   1      43.765  35.406  32.295  1.00  0.00     0.131 A 
ATOM     88  C   UNL A   1      43.881  37.494  30.486  1.00  0.00     0.055 A 
ATOM     89  C   UNL A   1      44.063  36.692  32.746  1.00  0.00     0.041 A 
ATOM     90  F   UNL A   1      43.751  34.416  33.204  1.00  0.00    -0.206 F 
ATOM     91  C   UNL A   1      44.136  37.742  31.838  1.00  0.00     0.022 A 
BRANCH  88  92
ATOM     92  S   UNL A   1      44.119  38.811  29.262  1.00  0.00     0.124 S 
ATOM     93  O   UNL A   1      42.951  38.642  28.404  1.00  0.00    -0.237 OA
ATOM     94  O   UNL A   1      44.132  40.010  30.092  1.00  0.00    -0.237 OA
ATOM     95  O   UNL A   1      45.399  38.475  28.640  1.00  0.00    -0.744 OA
ENDBRANCH  88  92
ENDBRANCH  62  85
ENDBRANCH  36  37
ENDBRANCH  28  31
ENDBRANCH  26  27
ENDBRANCH  25  26
ENDBRANCH  24  25
ENDBRANCH   1  24
TORSDOF 21
ENDMDL
MODEL 3
REMARK VINA RESULT:     -10.8      2.485      3.863
REMARK SMILES CCCC1C[NH+]([C@H](CC(=O)NCCCCCCNC(=O)c2ccc(-c3c4nc(c(-c5cc(S(=O)(=O)[O-])ccc5F)c5ccc([nH]5)c(-c5cc(S(=O)(=O)[O-])ccc5F)c5nc(c(-c6cc(S(=O)(=O)[O-])ccc6F)c6ccc3[nH]6)C=C5)C=C4)cc2)c2ccccc2)C1
REMARK SMILES IDX 14 1 13 2 12 3 11 4 9 5 10 6 8 8 7 9 6 10 4 11 5 12 90 13
REMARK SMILES IDX 3 15 2 16 1 17 84 18 85 19 89 20 86 21 88 22 87 23 15 24
REMARK SMILES IDX 16 25 17 26 18 27 19 28 20 30 21 31 22 32 83 33 23 34 82 35
REMARK SMILES IDX 24 36 25 37 26 38 76 39 27 40 81 41 75 42 77 43 28 44 80 45
REMARK SMILES IDX 74 46 73 47 29 49 61 50 41 51 60 52 42 53 45 54 59 55 78 56
REMARK SMILES IDX 43 57 44 58 58 60 79 61 46 62 30 63 31 64 39 65 32 66 38 67
REMARK SMILES IDX 40 68 37 69 33 70 34 71 35 72 36 73 62 74 63 75 71 76 64 77
REMARK SMILES IDX 70 78 72 79 69 80 65 81 66 82 67 83 68 84 47 85 48 86 56 87
REMARK SMILES IDX 49 88 55 89 57 90 54 91 50 92 51 93 52 94 53 95
REMARK H PARENT 11 7 6 14 18 29 77 48 45 59
REMARK Flexibility Score: inf
ROOT
ATOM      1  C   UNL A   1      31.793  29.695  26.713  1.00  0.00     0.002 C 
ENDROOT
BRANCH   1   2
ATOM      2  C   UNL A   1      33.321  29.772  26.820  1.00  0.00     0.021 C 
BRANCH   2   3
ATOM      3  C   UNL A   1      34.033  28.590  26.159  1.00  0.00     0.116 C 
BRANCH   3   4
ATOM      4  N   UNL A   1      34.275  28.864  24.753  1.00  0.00    -0.356 N 
ATOM      5  C   UNL A   1      33.587  28.417  23.664  1.00  0.00     0.226 C 
ATOM      6  O   UNL A   1      34.046  28.644  22.543  1.00  0.00    -0.275 OA
ATOM      7  H   UNL A   1      35.040  29.453  24.561  1.00  0.00     0.163 HD
BRANCH   5   8
ATOM      8  C   UNL A   1      32.266  27.696  23.833  1.00  0.00     0.170 C 
BRANCH   8   9
ATOM      9  C   UNL A   1      31.478  27.547  22.500  1.00  0.00     0.224 C 
BRANCH   9  10
ATOM     10  N   UNL A   1      31.446  26.102  22.188  1.00  0.00    -0.327 N 
ATOM     11  C   UNL A   1      32.536  24.308  22.386  1.00  0.00     0.099 C 
ATOM     12  C   UNL A   1      31.558  25.142  23.278  1.00  0.00     0.272 C 
ATOM     13  C   UNL A   1      32.604  25.568  21.483  1.00  0.00     0.272 C 
ATOM     14  H   UNL A   1      30.546  26.150  21.710  1.00  0.00     0.348 HD
BRANCH  11  15
ATOM     15  C   UNL A   1      33.768  23.751  23.093  1.00  0.00     0.015 C 
BRANCH  15  16
ATOM     16  C   UNL A   1      33.657  22.270  23.462  1.00  0.00    -0.003 C 
ATOM     17  C   UNL A   1      32.319  21.624  23.123  1.00  0.00     0.004 C 
ENDBRANCH  15  16
ENDBRANCH  11  15
ENDBRANCH   9  10
BRANCH   9  18
ATOM     18  C   UNL A   1      30.196  28.406  22.512  1.00  0.00     0.010 A 
ATOM     19  C   UNL A   1      30.086  29.708  22.005  1.00  0.00     0.010 A 
ATOM     20  C   UNL A   1      29.036  27.880  23.118  1.00  0.00     0.010 A 
ATOM     21  C   UNL A   1      28.908  30.454  22.086  1.00  0.00     0.001 A 
ATOM     22  C   UNL A   1      27.844  28.614  23.188  1.00  0.00     0.001 A 
ATOM     23  C   UNL A   1      27.782  29.905  22.676  1.00  0.00     0.000 A 
ENDBRANCH   9  18
ENDBRANCH   8   9
ENDBRANCH   5   8
ENDBRANCH   3   4
ENDBRANCH   2   3
ENDBRANCH   1   2
BRANCH   1  24
ATOM     24  C   UNL A   1      31.170  30.713  25.751  1.00  0.00     0.002 C 
BRANCH  24  25
ATOM     25  C   UNL A   1      31.137  32.152  26.271  1.00  0.00     0.021 C 
BRANCH  25  26
ATOM     26  C   UNL A   1      32.438  32.607  26.924  1.00  0.00     0.116 C 
BRANCH  26  27
ATOM     27  N   UNL A   1      32.340  33.977  27.407  1.00  0.00    -0.352 N 
ATOM     28  C   UNL A   1      33.013  34.579  28.439  1.00  0.00     0.251 C 
ATOM     29  H   UNL A   1      31.702  34.552  26.924  1.00  0.00     0.163 HD
ATOM     30  O   UNL A   1      32.621  35.659  28.879  1.00  0.00    -0.269 OA
BRANCH  28  31
ATOM     31  C   UNL A   1      34.195  33.915  29.025  1.00  0.00     0.039 A 
ATOM     32  C   UNL A   1      35.469  34.415  28.747  1.00  0.00     0.014 A 
ATOM     33  C   UNL A   1      34.041  32.797  29.851  1.00  0.00     0.014 A 
ATOM     34  C   UNL A   1      36.586  33.825  29.342  1.00  0.00     0.010 A 
ATOM     35  C   UNL A   1      35.147  32.263  30.503  1.00  0.00     0.010 A 
ATOM     36  C   UNL A   1      36.432  32.764  30.250  1.00  0.00    -0.014 A 
BRANCH  36  37
ATOM     37  C   UNL A   1      37.602  32.148  30.928  1.00  0.00     0.031 A 
ATOM     38  C   UNL A   1      38.423  31.112  30.210  1.00  0.00     0.074 A 
ATOM     39  C   UNL A   1      37.885  32.472  32.205  1.00  0.00     0.049 A 
ATOM     40  N   UNL A   1      39.418  30.388  30.654  1.00  0.00    -0.248 NA
ATOM     41  C   UNL A   1      38.051  30.830  28.815  1.00  0.00     0.031 C 
ATOM     42  C   UNL A   1      37.144  33.443  33.014  1.00  0.00     0.029 A 
ATOM     43  N   UNL A   1      38.866  32.018  33.050  1.00  0.00    -0.354 N 
ATOM     44  C   UNL A   1      39.784  29.558  29.599  1.00  0.00     0.074 A 
ATOM     45  C   UNL A   1      38.854  29.820  28.521  1.00  0.00     0.031 C 
ATOM     46  C   UNL A   1      37.713  33.529  34.226  1.00  0.00     0.029 A 
ATOM     47  C   UNL A   1      38.823  32.585  34.303  1.00  0.00     0.049 A 
ATOM     48  H   UNL A   1      39.536  31.348  32.785  1.00  0.00     0.167 HD
ATOM     49  C   UNL A   1      40.814  28.679  29.528  1.00  0.00     0.034 A 
ATOM     50  C   UNL A   1      39.582  32.358  35.394  1.00  0.00     0.034 A 
ATOM     51  C   UNL A   1      41.733  28.436  30.614  1.00  0.00     0.049 A 
ATOM     52  C   UNL A   1      40.692  31.339  35.309  1.00  0.00     0.074 A 
ATOM     53  C   UNL A   1      42.836  27.600  30.639  1.00  0.00     0.029 A 
ATOM     54  N   UNL A   1      41.651  29.020  31.873  1.00  0.00    -0.354 N 
ATOM     55  N   UNL A   1      41.050  30.589  34.291  1.00  0.00    -0.248 NA
ATOM     56  C   UNL A   1      41.504  31.143  36.516  1.00  0.00     0.031 C 
ATOM     57  C   UNL A   1      43.371  27.618  31.931  1.00  0.00     0.029 A 
ATOM     58  C   UNL A   1      42.661  28.535  32.690  1.00  0.00     0.049 A 
ATOM     59  H   UNL A   1      40.974  29.681  32.144  1.00  0.00     0.167 HD
ATOM     60  C   UNL A   1      42.155  29.862  34.727  1.00  0.00     0.074 A 
ATOM     61  C   UNL A   1      42.407  30.271  36.093  1.00  0.00     0.031 C 
ATOM     62  C   UNL A   1      42.898  28.946  34.055  1.00  0.00     0.034 A 
BRANCH  49  63
ATOM     63  C   UNL A   1      40.974  27.899  28.243  1.00  0.00     0.023 A 
ATOM     64  C   UNL A   1      40.472  26.592  28.104  1.00  0.00     0.031 A 
ATOM     65  C   UNL A   1      41.671  28.452  27.154  1.00  0.00     0.131 A 
ATOM     66  C   UNL A   1      40.752  25.853  26.946  1.00  0.00     0.055 A 
ATOM     67  C   UNL A   1      41.863  27.743  25.965  1.00  0.00     0.041 A 
ATOM     68  F   UNL A   1      42.194  29.686  27.231  1.00  0.00    -0.206 F 
ATOM     69  C   UNL A   1      41.418  26.429  25.863  1.00  0.00     0.022 A 
BRANCH  66  70
ATOM     70  S   UNL A   1      40.380  24.077  26.943  1.00  0.00     0.124 S 
ATOM     71  O   UNL A   1      39.026  24.062  26.391  1.00  0.00    -0.237 OA
ATOM     72  O   UNL A   1      41.426  23.536  26.085  1.00  0.00    -0.237 OA
ATOM     73  O   UNL A   1      40.472  23.706  28.354  1.00  0.00    -0.744 OA
ENDBRANCH  66  70
ENDBRANCH  49  63
BRANCH  50  74
ATOM     74  C   UNL A   1      39.319  33.095  36.664  1.00  0.00     0.023 A 
ATOM     75  C   UNL A   1      39.945  34.324  36.928  1.00  0.00     0.031 A 
ATOM     76  C   UNL A   1      38.469  32.564  37.651  1.00  0.00     0.131 A 
ATOM     77  C   UNL A   1      39.752  34.956  38.166  1.00  0.00     0.055 A 
ATOM     78  C   UNL A   1      38.233  33.227  38.856  1.00  0.00     0.041 A 
ATOM     79  F   UNL A   1      37.843  31.394  37.449  1.00  0.00    -0.206 F 
ATOM     80  C   UNL A   1      38.888  34.424  39.125  1.00  0.00     0.022 A 
BRANCH  77  81
ATOM     81  S   UNL A   1      40.721  36.443  38.543  1.00  0.00     0.124 S 
ATOM     82  O   UNL A   1      41.549  36.565  37.348  1.00  0.00    -0.237 OA
ATOM     83  O   UNL A   1      39.678  37.450  38.708  1.00  0.00    -0.237 OA
ATOM     84  O   UNL A   1      41.435  36.082  39.765  1.00  0.00    -0.744 OA
ENDBRANCH  77  81
ENDBRANCH  50  74
BRANCH  62  85
ATOM     85  C   UNL A   1      44.093  28.365  34.775  1.00  0.00     0.023 A 
ATOM     86  C   UNL A   1      44.005  27.186  35.537  1.00  0.00     0.031 A 
ATOM     87  C   UNL A   1      45.342  29.007  34.696  1.00  0.00     0.131 A 
ATOM     88  C   UNL A   1      45.129  26.719  36.235  1.00  0.00     0.055 A 
ATOM     89  C   UNL A   1      46.474  28.501  35.336  1.00  0.00     0.041 A 
ATOM     90  F   UNL A   1      45.486  30.139  33.986  1.00  0.00    -0.206 F 
ATOM     91  C   UNL A   1      46.368  27.358  36.122  1.00  0.00     0.022 A 
BRANCH  88  92
ATOM     92  S   UNL A   1      44.931  25.321  37.373  1.00  0.00     0.124 S 
ATOM     93  O   UNL A   1      46.056  25.509  38.282  1.00  0.00    -0.237 OA
ATOM     94  O   UNL A   1      43.608  25.564  37.938  1.00  0.00    -0.237 OA
ATOM     95  O   UNL A   1      45.026  24.152  36.501  1.00  0.00    -0.744 OA
ENDBRANCH  88  92
ENDBRANCH  62  85
ENDBRANCH  36  37
ENDBRANCH  28  31
ENDBRANCH  26  27
ENDBRANCH  25  26
ENDBRANCH  24  25
ENDBRANCH   1  24
TORSDOF 21
ENDMDL
