MODEL 1
REMARK VINA RESULT:     -11.9      0.000      0.000
REMARK SMILES Cc1ccc(F)cc1-c1ccc(F)cc1C(=O)NCCCCCCNC(=O)c1ccc(-c2c3nc(c(-c4cc(S(=O)(=O)[O-])ccc4F)c4ccc([nH]4)c(-c4cc(S(=O)(=O)[O-])ccc4F)c4nc(c(-c5cc(S(=O)(=O)[O-])ccc5F)c5ccc2[nH]5)C=C4)C=C3)cc1
REMARK SMILES IDX 22 1 21 2 20 3 19 4 18 5 16 6 17 7 15 9 9 10 10 11 11 12
REMARK SMILES IDX 14 13 12 14 13 15 8 16 1 17 2 18 3 19 4 20 7 21 5 22 6 23
REMARK SMILES IDX 23 24 24 25 25 26 26 27 27 29 28 30 29 31 90 32 30 33 89 34
REMARK SMILES IDX 31 35 32 36 33 37 83 38 34 39 88 40 82 41 84 42 35 43 87 44
REMARK SMILES IDX 81 45 80 46 36 48 68 49 48 50 67 51 49 52 52 53 66 54 85 55
REMARK SMILES IDX 50 56 51 57 65 59 86 60 53 61 37 62 38 63 46 64 39 65 45 66
REMARK SMILES IDX 47 67 44 68 40 69 41 70 42 71 43 72 69 73 70 74 78 75 71 76
REMARK SMILES IDX 77 77 79 78 76 79 72 80 73 81 74 82 75 83 54 84 55 85 63 86
REMARK SMILES IDX 56 87 62 88 64 89 61 90 57 91 58 92 59 93 60 94
REMARK H PARENT 18 8 25 28 84 47 52 58
REMARK Flexibility Score: inf
ROOT
ATOM      1  C   UNL A   1      34.751  23.471  23.985  1.00  0.00     0.002 C 
ENDROOT
BRANCH   1   2
ATOM      2  C   UNL A   1      34.980  24.560  25.038  1.00  0.00     0.002 C 
BRANCH   2   3
ATOM      3  C   UNL A   1      33.921  24.774  26.124  1.00  0.00     0.021 C 
BRANCH   3   4
ATOM      4  C   UNL A   1      32.611  24.007  26.013  1.00  0.00     0.116 C 
BRANCH   4   5
ATOM      5  N   UNL A   1      31.404  24.781  25.931  1.00  0.00    -0.352 N 
ATOM      6  C   UNL A   1      31.024  25.726  25.010  1.00  0.00     0.252 C 
ATOM      7  O   UNL A   1      29.871  26.161  25.112  1.00  0.00    -0.269 OA
ATOM      8  H   UNL A   1      30.750  24.609  26.647  1.00  0.00     0.163 HD
BRANCH   6   9
ATOM      9  C   UNL A   1      31.901  26.339  23.953  1.00  0.00     0.050 A 
ATOM     10  C   UNL A   1      32.708  27.503  24.017  1.00  0.00    -0.005 A 
ATOM     11  C   UNL A   1      33.571  27.788  22.922  1.00  0.00     0.012 A 
ATOM     12  C   UNL A   1      33.630  26.982  21.789  1.00  0.00     0.040 A 
ATOM     13  C   UNL A   1      31.983  25.536  22.788  1.00  0.00     0.053 A 
ATOM     14  C   UNL A   1      32.828  25.860  21.733  1.00  0.00     0.124 A 
ATOM     15  F   UNL A   1      32.880  25.068  20.655  1.00  0.00    -0.207 F 
BRANCH  10  16
ATOM     16  C   UNL A   1      32.798  28.456  25.136  1.00  0.00    -0.012 A 
ATOM     17  C   UNL A   1      30.666  29.726  24.406  1.00  0.00     0.045 C 
ATOM     18  C   UNL A   1      31.881  29.537  25.284  1.00  0.00    -0.043 A 
ATOM     19  C   UNL A   1      32.040  30.445  26.349  1.00  0.00     0.007 A 
ATOM     20  C   UNL A   1      33.098  30.312  27.243  1.00  0.00     0.039 A 
ATOM     21  C   UNL A   1      33.862  28.348  26.048  1.00  0.00     0.048 A 
ATOM     22  C   UNL A   1      33.997  29.266  27.085  1.00  0.00     0.123 A 
ATOM     23  F   UNL A   1      35.002  29.127  27.959  1.00  0.00    -0.207 F 
ENDBRANCH  10  16
ENDBRANCH   6   9
ENDBRANCH   4   5
ENDBRANCH   3   4
ENDBRANCH   2   3
ENDBRANCH   1   2
BRANCH   1  24
ATOM     24  C   UNL A   1      35.294  22.067  24.257  1.00  0.00     0.021 C 
BRANCH  24  25
ATOM     25  C   UNL A   1      35.957  21.808  25.605  1.00  0.00     0.116 C 
BRANCH  25  26
ATOM     26  N   UNL A   1      36.974  20.779  25.551  1.00  0.00    -0.352 N 
ATOM     27  C   UNL A   1      38.332  20.842  25.729  1.00  0.00     0.251 C 
ATOM     28  H   UNL A   1      36.630  19.878  25.352  1.00  0.00     0.163 HD
ATOM     29  O   UNL A   1      38.991  19.826  25.497  1.00  0.00    -0.269 OA
BRANCH  27  30
ATOM     30  C   UNL A   1      39.032  22.080  26.169  1.00  0.00     0.039 A 
ATOM     31  C   UNL A   1      38.504  23.310  25.755  1.00  0.00     0.014 A 
ATOM     32  C   UNL A   1      40.231  22.068  26.889  1.00  0.00     0.014 A 
ATOM     33  C   UNL A   1      39.157  24.507  26.070  1.00  0.00     0.010 A 
ATOM     34  C   UNL A   1      40.846  23.270  27.265  1.00  0.00     0.010 A 
ATOM     35  C   UNL A   1      40.330  24.503  26.836  1.00  0.00    -0.014 A 
BRANCH  35  36
ATOM     36  C   UNL A   1      41.046  25.778  27.127  1.00  0.00     0.031 A 
ATOM     37  C   UNL A   1      40.403  26.829  27.996  1.00  0.00     0.074 A 
ATOM     38  C   UNL A   1      42.284  25.986  26.636  1.00  0.00     0.049 A 
ATOM     39  N   UNL A   1      40.878  27.986  28.383  1.00  0.00    -0.248 NA
ATOM     40  C   UNL A   1      39.042  26.552  28.479  1.00  0.00     0.031 C 
ATOM     41  C   UNL A   1      43.016  25.057  25.774  1.00  0.00     0.029 A 
ATOM     42  N   UNL A   1      43.156  27.034  26.808  1.00  0.00    -0.354 N 
ATOM     43  C   UNL A   1      39.879  28.572  29.151  1.00  0.00     0.074 A 
ATOM     44  C   UNL A   1      38.746  27.672  29.121  1.00  0.00     0.031 C 
ATOM     45  C   UNL A   1      44.241  25.551  25.534  1.00  0.00     0.029 A 
ATOM     46  C   UNL A   1      44.374  26.848  26.193  1.00  0.00     0.049 A 
ATOM     47  H   UNL A   1      42.931  27.843  27.321  1.00  0.00     0.167 HD
ATOM     48  C   UNL A   1      39.908  29.736  29.847  1.00  0.00     0.034 A 
ATOM     49  C   UNL A   1      45.475  27.626  26.165  1.00  0.00     0.034 A 
ATOM     50  C   UNL A   1      41.048  30.615  29.899  1.00  0.00     0.049 A 
ATOM     51  C   UNL A   1      45.470  28.939  26.902  1.00  0.00     0.074 A 
ATOM     52  C   UNL A   1      41.196  31.788  30.619  1.00  0.00     0.029 A 
ATOM     53  N   UNL A   1      42.233  30.421  29.205  1.00  0.00    -0.354 N 
ATOM     54  N   UNL A   1      44.518  29.468  27.633  1.00  0.00    -0.248 NA
ATOM     55  C   UNL A   1      46.683  29.765  26.804  1.00  0.00     0.031 C 
ATOM     56  C   UNL A   1      42.447  32.334  30.315  1.00  0.00     0.029 A 
ATOM     57  C   UNL A   1      43.103  31.470  29.452  1.00  0.00     0.049 A 
ATOM     58  H   UNL A   1      42.428  29.651  28.624  1.00  0.00     0.167 HD
ATOM     59  C   UNL A   1      45.021  30.680  28.094  1.00  0.00     0.074 A 
ATOM     60  C   UNL A   1      46.362  30.807  27.561  1.00  0.00     0.031 C 
ATOM     61  C   UNL A   1      44.427  31.598  28.894  1.00  0.00     0.034 A 
BRANCH  48  62
ATOM     62  C   UNL A   1      38.665  30.128  30.604  1.00  0.00     0.023 A 
ATOM     63  C   UNL A   1      37.728  31.022  30.059  1.00  0.00     0.031 A 
ATOM     64  C   UNL A   1      38.411  29.598  31.881  1.00  0.00     0.131 A 
ATOM     65  C   UNL A   1      36.611  31.407  30.814  1.00  0.00     0.055 A 
ATOM     66  C   UNL A   1      37.260  29.931  32.598  1.00  0.00     0.041 A 
ATOM     67  F   UNL A   1      39.281  28.752  32.454  1.00  0.00    -0.206 F 
ATOM     68  C   UNL A   1      36.357  30.848  32.070  1.00  0.00     0.022 A 
BRANCH  65  69
ATOM     69  S   UNL A   1      35.544  32.726  30.176  1.00  0.00     0.124 S 
ATOM     70  O   UNL A   1      34.303  32.477  30.906  1.00  0.00    -0.237 OA
ATOM     71  O   UNL A   1      36.274  33.934  30.555  1.00  0.00    -0.237 OA
ATOM     72  O   UNL A   1      35.484  32.459  28.744  1.00  0.00    -0.744 OA
ENDBRANCH  65  69
ENDBRANCH  48  62
BRANCH  49  73
ATOM     73  C   UNL A   1      46.676  27.176  25.411  1.00  0.00     0.023 A 
ATOM     74  C   UNL A   1      46.921  27.630  24.105  1.00  0.00     0.031 A 
ATOM     75  C   UNL A   1      47.609  26.303  25.997  1.00  0.00     0.131 A 
ATOM     76  C   UNL A   1      48.070  27.202  23.423  1.00  0.00     0.055 A 
ATOM     77  C   UNL A   1      48.767  25.906  25.326  1.00  0.00     0.041 A 
ATOM     78  F   UNL A   1      47.421  25.851  27.247  1.00  0.00    -0.206 F 
ATOM     79  C   UNL A   1      49.001  26.353  24.030  1.00  0.00     0.022 A 
BRANCH  76  80
ATOM     80  S   UNL A   1      48.336  27.765  21.720  1.00  0.00     0.124 S 
ATOM     81  O   UNL A   1      48.488  26.500  21.009  1.00  0.00    -0.237 OA
ATOM     82  O   UNL A   1      47.111  28.511  21.448  1.00  0.00    -0.237 OA
ATOM     83  O   UNL A   1      49.547  28.577  21.815  1.00  0.00    -0.744 OA
ENDBRANCH  76  80
ENDBRANCH  49  73
BRANCH  61  84
ATOM     84  C   UNL A   1      45.212  32.828  29.257  1.00  0.00     0.023 A 
ATOM     85  C   UNL A   1      45.091  34.014  28.514  1.00  0.00     0.031 A 
ATOM     86  C   UNL A   1      46.020  32.839  30.407  1.00  0.00     0.131 A 
ATOM     87  C   UNL A   1      45.775  35.166  28.929  1.00  0.00     0.055 A 
ATOM     88  C   UNL A   1      46.668  33.997  30.836  1.00  0.00     0.041 A 
ATOM     89  F   UNL A   1      46.158  31.730  31.153  1.00  0.00    -0.206 F 
ATOM     90  C   UNL A   1      46.547  35.169  30.095  1.00  0.00     0.022 A 
BRANCH  87  91
ATOM     91  S   UNL A   1      45.634  36.675  27.933  1.00  0.00     0.124 S 
ATOM     92  O   UNL A   1      46.527  37.587  28.642  1.00  0.00    -0.237 OA
ATOM     93  O   UNL A   1      46.087  36.234  26.618  1.00  0.00    -0.237 OA
ATOM     94  O   UNL A   1      44.213  37.009  28.015  1.00  0.00    -0.744 OA
ENDBRANCH  87  91
ENDBRANCH  61  84
ENDBRANCH  35  36
ENDBRANCH  27  30
ENDBRANCH  25  26
ENDBRANCH  24  25
ENDBRANCH   1  24
TORSDOF 17
ENDMDL
MODEL 2
REMARK VINA RESULT:     -11.8      2.556      8.093
REMARK SMILES Cc1ccc(F)cc1-c1ccc(F)cc1C(=O)NCCCCCCNC(=O)c1ccc(-c2c3nc(c(-c4cc(S(=O)(=O)[O-])ccc4F)c4ccc([nH]4)c(-c4cc(S(=O)(=O)[O-])ccc4F)c4nc(c(-c5cc(S(=O)(=O)[O-])ccc5F)c5ccc2[nH]5)C=C4)C=C3)cc1
REMARK SMILES IDX 22 1 21 2 20 3 19 4 18 5 16 6 17 7 15 9 9 10 10 11 11 12
REMARK SMILES IDX 14 13 12 14 13 15 8 16 1 17 2 18 3 19 4 20 7 21 5 22 6 23
REMARK SMILES IDX 23 24 24 25 25 26 26 27 27 29 28 30 29 31 90 32 30 33 89 34
REMARK SMILES IDX 31 35 32 36 33 37 83 38 34 39 88 40 82 41 84 42 35 43 87 44
REMARK SMILES IDX 81 45 80 46 36 48 68 49 48 50 67 51 49 52 52 53 66 54 85 55
REMARK SMILES IDX 50 56 51 57 65 59 86 60 53 61 37 62 38 63 46 64 39 65 45 66
REMARK SMILES IDX 47 67 44 68 40 69 41 70 42 71 43 72 69 73 70 74 78 75 71 76
REMARK SMILES IDX 77 77 79 78 76 79 72 80 73 81 74 82 75 83 54 84 55 85 63 86
REMARK SMILES IDX 56 87 62 88 64 89 61 90 57 91 58 92 59 93 60 94
REMARK H PARENT 18 8 25 28 84 47 52 58
REMARK Flexibility Score: inf
ROOT
ATOM      1  C   UNL A   1      35.644  20.161  25.002  1.00  0.00     0.002 C 
ENDROOT
BRANCH   1   2
ATOM      2  C   UNL A   1      34.378  19.338  24.742  1.00  0.00     0.002 C 
BRANCH   2   3
ATOM      3  C   UNL A   1      33.164  20.026  24.110  1.00  0.00     0.021 C 
BRANCH   3   4
ATOM      4  C   UNL A   1      32.149  20.684  25.033  1.00  0.00     0.116 C 
BRANCH   4   5
ATOM      5  N   UNL A   1      32.612  21.093  26.330  1.00  0.00    -0.352 N 
ATOM      6  C   UNL A   1      32.624  22.338  26.910  1.00  0.00     0.252 C 
ATOM      7  O   UNL A   1      32.976  22.390  28.093  1.00  0.00    -0.269 OA
ATOM      8  H   UNL A   1      32.977  20.369  26.888  1.00  0.00     0.163 HD
BRANCH   6   9
ATOM      9  C   UNL A   1      32.336  23.642  26.218  1.00  0.00     0.050 A 
ATOM     10  C   UNL A   1      33.111  24.343  25.260  1.00  0.00    -0.005 A 
ATOM     11  C   UNL A   1      32.542  25.489  24.638  1.00  0.00     0.012 A 
ATOM     12  C   UNL A   1      31.269  25.955  24.954  1.00  0.00     0.040 A 
ATOM     13  C   UNL A   1      31.043  24.138  26.520  1.00  0.00     0.053 A 
ATOM     14  C   UNL A   1      30.532  25.272  25.900  1.00  0.00     0.124 A 
ATOM     15  F   UNL A   1      29.301  25.701  26.208  1.00  0.00    -0.207 F 
BRANCH  10  16
ATOM     16  C   UNL A   1      34.458  23.988  24.781  1.00  0.00    -0.012 A 
ATOM     17  C   UNL A   1      33.590  23.263  22.454  1.00  0.00     0.045 C 
ATOM     18  C   UNL A   1      34.678  23.422  23.492  1.00  0.00    -0.043 A 
ATOM     19  C   UNL A   1      35.982  23.061  23.102  1.00  0.00     0.007 A 
ATOM     20  C   UNL A   1      37.055  23.229  23.973  1.00  0.00     0.039 A 
ATOM     21  C   UNL A   1      35.557  24.141  25.644  1.00  0.00     0.048 A 
ATOM     22  C   UNL A   1      36.832  23.767  25.233  1.00  0.00     0.123 A 
ATOM     23  F   UNL A   1      37.869  23.947  26.061  1.00  0.00    -0.207 F 
ENDBRANCH  10  16
ENDBRANCH   6   9
ENDBRANCH   4   5
ENDBRANCH   3   4
ENDBRANCH   2   3
ENDBRANCH   1   2
BRANCH   1  24
ATOM     24  C   UNL A   1      36.998  19.450  24.965  1.00  0.00     0.021 C 
BRANCH  24  25
ATOM     25  C   UNL A   1      38.230  20.243  25.387  1.00  0.00     0.116 C 
BRANCH  25  26
ATOM     26  N   UNL A   1      39.377  19.406  25.666  1.00  0.00    -0.352 N 
ATOM     27  C   UNL A   1      40.630  19.718  26.130  1.00  0.00     0.251 C 
ATOM     28  H   UNL A   1      39.234  18.448  25.492  1.00  0.00     0.163 HD
ATOM     29  O   UNL A   1      41.474  18.820  26.156  1.00  0.00    -0.269 OA
BRANCH  27  30
ATOM     30  C   UNL A   1      41.008  21.086  26.580  1.00  0.00     0.039 A 
ATOM     31  C   UNL A   1      40.753  22.152  25.708  1.00  0.00     0.014 A 
ATOM     32  C   UNL A   1      41.681  21.340  27.780  1.00  0.00     0.014 A 
ATOM     33  C   UNL A   1      41.154  23.452  26.038  1.00  0.00     0.010 A 
ATOM     34  C   UNL A   1      42.016  22.651  28.142  1.00  0.00     0.010 A 
ATOM     35  C   UNL A   1      41.781  23.719  27.263  1.00  0.00    -0.014 A 
BRANCH  35  36
ATOM     36  C   UNL A   1      42.247  25.098  27.587  1.00  0.00     0.031 A 
ATOM     37  C   UNL A   1      43.624  25.552  27.170  1.00  0.00     0.074 A 
ATOM     38  C   UNL A   1      41.430  25.955  28.231  1.00  0.00     0.049 A 
ATOM     39  N   UNL A   1      44.195  26.718  27.338  1.00  0.00    -0.248 NA
ATOM     40  C   UNL A   1      44.475  24.562  26.494  1.00  0.00     0.031 C 
ATOM     41  C   UNL A   1      40.079  25.640  28.700  1.00  0.00     0.029 A 
ATOM     42  N   UNL A   1      41.604  27.271  28.585  1.00  0.00    -0.354 N 
ATOM     43  C   UNL A   1      45.468  26.602  26.789  1.00  0.00     0.074 A 
ATOM     44  C   UNL A   1      45.608  25.232  26.343  1.00  0.00     0.031 C 
ATOM     45  C   UNL A   1      39.530  26.743  29.232  1.00  0.00     0.029 A 
ATOM     46  C   UNL A   1      40.498  27.836  29.177  1.00  0.00     0.049 A 
ATOM     47  H   UNL A   1      42.442  27.764  28.430  1.00  0.00     0.167 HD
ATOM     48  C   UNL A   1      46.422  27.554  26.637  1.00  0.00     0.034 A 
ATOM     49  C   UNL A   1      40.280  29.091  29.622  1.00  0.00     0.034 A 
ATOM     50  C   UNL A   1      46.267  28.924  27.054  1.00  0.00     0.049 A 
ATOM     51  C   UNL A   1      41.372  30.120  29.492  1.00  0.00     0.074 A 
ATOM     52  C   UNL A   1      47.154  29.975  26.895  1.00  0.00     0.029 A 
ATOM     53  N   UNL A   1      45.159  29.433  27.713  1.00  0.00    -0.354 N 
ATOM     54  N   UNL A   1      42.563  29.991  28.958  1.00  0.00    -0.248 NA
ATOM     55  C   UNL A   1      41.094  31.460  30.029  1.00  0.00     0.031 C 
ATOM     56  C   UNL A   1      46.607  31.106  27.509  1.00  0.00     0.029 A 
ATOM     57  C   UNL A   1      45.353  30.774  27.998  1.00  0.00     0.049 A 
ATOM     58  H   UNL A   1      44.352  28.918  27.943  1.00  0.00     0.167 HD
ATOM     59  C   UNL A   1      43.171  31.236  29.083  1.00  0.00     0.074 A 
ATOM     60  C   UNL A   1      42.218  32.105  29.741  1.00  0.00     0.031 C 
ATOM     61  C   UNL A   1      44.406  31.623  28.678  1.00  0.00     0.034 A 
BRANCH  48  62
ATOM     62  C   UNL A   1      47.723  27.141  25.997  1.00  0.00     0.023 A 
ATOM     63  C   UNL A   1      48.718  26.471  26.728  1.00  0.00     0.031 A 
ATOM     64  C   UNL A   1      47.969  27.415  24.640  1.00  0.00     0.131 A 
ATOM     65  C   UNL A   1      49.938  26.150  26.116  1.00  0.00     0.055 A 
ATOM     66  C   UNL A   1      49.158  27.030  24.018  1.00  0.00     0.041 A 
ATOM     67  F   UNL A   1      47.059  28.066  23.900  1.00  0.00    -0.206 F 
ATOM     68  C   UNL A   1      50.155  26.404  24.758  1.00  0.00     0.022 A 
BRANCH  65  69
ATOM     69  S   UNL A   1      51.279  25.491  27.141  1.00  0.00     0.124 S 
ATOM     70  O   UNL A   1      51.890  26.718  27.647  1.00  0.00    -0.237 OA
ATOM     71  O   UNL A   1      50.558  24.686  28.125  1.00  0.00    -0.237 OA
ATOM     72  O   UNL A   1      52.095  24.737  26.197  1.00  0.00    -0.744 OA
ENDBRANCH  65  69
ENDBRANCH  48  62
BRANCH  49  73
ATOM     73  C   UNL A   1      38.969  29.440  30.232  1.00  0.00     0.023 A 
ATOM     74  C   UNL A   1      38.025  30.203  29.526  1.00  0.00     0.031 A 
ATOM     75  C   UNL A   1      38.632  28.993  31.521  1.00  0.00     0.131 A 
ATOM     76  C   UNL A   1      36.790  30.505  30.120  1.00  0.00     0.055 A 
ATOM     77  C   UNL A   1      37.389  29.269  32.094  1.00  0.00     0.041 A 
ATOM     78  F   UNL A   1      39.499  28.253  32.230  1.00  0.00    -0.206 F 
ATOM     79  C   UNL A   1      36.461  30.031  31.394  1.00  0.00     0.022 A 
BRANCH  76  80
ATOM     80  S   UNL A   1      35.609  31.534  29.206  1.00  0.00     0.124 S 
ATOM     81  O   UNL A   1      34.879  32.183  30.290  1.00  0.00    -0.237 OA
ATOM     82  O   UNL A   1      36.492  32.393  28.422  1.00  0.00    -0.237 OA
ATOM     83  O   UNL A   1      34.841  30.563  28.429  1.00  0.00    -0.744 OA
ENDBRANCH  76  80
ENDBRANCH  49  73
BRANCH  61  84
ATOM     84  C   UNL A   1      44.811  33.050  28.925  1.00  0.00     0.023 A 
ATOM     85  C   UNL A   1      44.302  34.097  28.139  1.00  0.00     0.031 A 
ATOM     86  C   UNL A   1      45.642  33.372  30.012  1.00  0.00     0.131 A 
ATOM     87  C   UNL A   1      44.636  35.423  28.450  1.00  0.00     0.055 A 
ATOM     88  C   UNL A   1      45.941  34.694  30.338  1.00  0.00     0.041 A 
ATOM     89  F   UNL A   1      46.145  32.404  30.796  1.00  0.00    -0.206 F 
ATOM     90  C   UNL A   1      45.436  35.729  29.555  1.00  0.00     0.022 A 
BRANCH  87  91
ATOM     91  S   UNL A   1      43.998  36.757  27.398  1.00  0.00     0.124 S 
ATOM     92  O   UNL A   1      45.226  37.437  26.998  1.00  0.00    -0.237 OA
ATOM     93  O   UNL A   1      43.301  36.028  26.344  1.00  0.00    -0.237 OA
ATOM     94  O   UNL A   1      43.132  37.518  28.297  1.00  0.00    -0.744 OA
ENDBRANCH  87  91
ENDBRANCH  61  84
ENDBRANCH  35  36
ENDBRANCH  27  30
ENDBRANCH  25  26
ENDBRANCH  24  25
ENDBRANCH   1  24
TORSDOF 17
ENDMDL
MODEL 3
REMARK VINA RESULT:     -11.7      1.178      7.544
REMARK SMILES Cc1ccc(F)cc1-c1ccc(F)cc1C(=O)NCCCCCCNC(=O)c1ccc(-c2c3nc(c(-c4cc(S(=O)(=O)[O-])ccc4F)c4ccc([nH]4)c(-c4cc(S(=O)(=O)[O-])ccc4F)c4nc(c(-c5cc(S(=O)(=O)[O-])ccc5F)c5ccc2[nH]5)C=C4)C=C3)cc1
REMARK SMILES IDX 22 1 21 2 20 3 19 4 18 5 16 6 17 7 15 9 9 10 10 11 11 12
REMARK SMILES IDX 14 13 12 14 13 15 8 16 1 17 2 18 3 19 4 20 7 21 5 22 6 23
REMARK SMILES IDX 23 24 24 25 25 26 26 27 27 29 28 30 29 31 90 32 30 33 89 34
REMARK SMILES IDX 31 35 32 36 33 37 83 38 34 39 88 40 82 41 84 42 35 43 87 44
REMARK SMILES IDX 81 45 80 46 36 48 68 49 48 50 67 51 49 52 52 53 66 54 85 55
REMARK SMILES IDX 50 56 51 57 65 59 86 60 53 61 37 62 38 63 46 64 39 65 45 66
REMARK SMILES IDX 47 67 44 68 40 69 41 70 42 71 43 72 69 73 70 74 78 75 71 76
REMARK SMILES IDX 77 77 79 78 76 79 72 80 73 81 74 82 75 83 54 84 55 85 63 86
REMARK SMILES IDX 56 87 62 88 64 89 61 90 57 91 58 92 59 93 60 94
REMARK H PARENT 18 8 25 28 84 47 52 58
REMARK Flexibility Score: inf
ROOT
ATOM      1  C   UNL A   1      34.838  21.983  25.086  1.00  0.00     0.002 C 
ENDROOT
BRANCH   1   2
ATOM      2  C   UNL A   1      34.755  23.207  26.004  1.00  0.00     0.002 C 
BRANCH   2   3
ATOM      3  C   UNL A   1      33.942  23.107  27.299  1.00  0.00     0.021 C 
BRANCH   3   4
ATOM      4  C   UNL A   1      32.500  22.628  27.208  1.00  0.00     0.116 C 
BRANCH   4   5
ATOM      5  N   UNL A   1      31.475  23.635  27.205  1.00  0.00    -0.352 N 
ATOM      6  C   UNL A   1      31.040  24.447  26.186  1.00  0.00     0.252 C 
ATOM      7  O   UNL A   1      30.055  25.153  26.428  1.00  0.00    -0.269 OA
ATOM      8  H   UNL A   1      31.015  23.763  28.066  1.00  0.00     0.163 HD
BRANCH   6   9
ATOM      9  C   UNL A   1      31.700  24.620  24.845  1.00  0.00     0.050 A 
ATOM     10  C   UNL A   1      32.434  25.721  24.338  1.00  0.00    -0.005 A 
ATOM     11  C   UNL A   1      33.093  25.576  23.086  1.00  0.00     0.012 A 
ATOM     12  C   UNL A   1      33.021  24.405  22.337  1.00  0.00     0.040 A 
ATOM     13  C   UNL A   1      31.645  23.440  24.063  1.00  0.00     0.053 A 
ATOM     14  C   UNL A   1      32.291  23.346  22.835  1.00  0.00     0.124 A 
ATOM     15  F   UNL A   1      32.221  22.208  22.132  1.00  0.00    -0.207 F 
BRANCH  10  16
ATOM     16  C   UNL A   1      32.641  27.024  24.996  1.00  0.00    -0.012 A 
ATOM     17  C   UNL A   1      30.527  28.057  23.920  1.00  0.00     0.045 C 
ATOM     18  C   UNL A   1      31.787  28.138  24.751  1.00  0.00    -0.043 A 
ATOM     19  C   UNL A   1      32.057  29.373  25.373  1.00  0.00     0.007 A 
ATOM     20  C   UNL A   1      33.164  29.521  26.204  1.00  0.00     0.039 A 
ATOM     21  C   UNL A   1      33.756  27.202  25.833  1.00  0.00     0.048 A 
ATOM     22  C   UNL A   1      34.000  28.436  26.426  1.00  0.00     0.123 A 
ATOM     23  F   UNL A   1      35.053  28.576  27.242  1.00  0.00    -0.207 F 
ENDBRANCH  10  16
ENDBRANCH   6   9
ENDBRANCH   4   5
ENDBRANCH   3   4
ENDBRANCH   2   3
ENDBRANCH   1   2
BRANCH   1  24
ATOM     24  C   UNL A   1      36.009  21.014  25.264  1.00  0.00     0.021 C 
BRANCH  24  25
ATOM     25  C   UNL A   1      37.415  21.599  25.321  1.00  0.00     0.116 C 
BRANCH  25  26
ATOM     26  N   UNL A   1      38.419  20.632  25.712  1.00  0.00    -0.352 N 
ATOM     27  C   UNL A   1      39.649  20.794  26.296  1.00  0.00     0.251 C 
ATOM     28  H   UNL A   1      38.177  19.697  25.525  1.00  0.00     0.163 HD
ATOM     29  O   UNL A   1      40.370  19.800  26.405  1.00  0.00    -0.269 OA
BRANCH  27  30
ATOM     30  C   UNL A   1      40.146  22.112  26.780  1.00  0.00     0.039 A 
ATOM     31  C   UNL A   1      39.683  23.262  26.128  1.00  0.00     0.014 A 
ATOM     32  C   UNL A   1      41.114  22.246  27.781  1.00  0.00     0.014 A 
ATOM     33  C   UNL A   1      40.170  24.526  26.483  1.00  0.00     0.010 A 
ATOM     34  C   UNL A   1      41.547  23.516  28.185  1.00  0.00     0.010 A 
ATOM     35  C   UNL A   1      41.100  24.669  27.522  1.00  0.00    -0.014 A 
BRANCH  35  36
ATOM     36  C   UNL A   1      41.650  26.012  27.863  1.00  0.00     0.031 A 
ATOM     37  C   UNL A   1      43.022  26.415  27.385  1.00  0.00     0.074 A 
ATOM     38  C   UNL A   1      40.911  26.884  28.577  1.00  0.00     0.049 A 
ATOM     39  N   UNL A   1      43.658  27.547  27.557  1.00  0.00    -0.248 NA
ATOM     40  C   UNL A   1      43.786  25.409  26.632  1.00  0.00     0.031 C 
ATOM     41  C   UNL A   1      39.573  26.617  29.110  1.00  0.00     0.029 A 
ATOM     42  N   UNL A   1      41.168  28.178  28.962  1.00  0.00    -0.354 N 
ATOM     43  C   UNL A   1      44.892  27.390  26.935  1.00  0.00     0.074 A 
ATOM     44  C   UNL A   1      44.941  26.031  26.440  1.00  0.00     0.031 C 
ATOM     45  C   UNL A   1      39.108  27.727  29.706  1.00  0.00     0.029 A 
ATOM     46  C   UNL A   1      40.123  28.774  29.632  1.00  0.00     0.049 A 
ATOM     47  H   UNL A   1      42.019  28.636  28.776  1.00  0.00     0.167 HD
ATOM     48  C   UNL A   1      45.882  28.300  26.761  1.00  0.00     0.034 A 
ATOM     49  C   UNL A   1      39.992  30.022  30.127  1.00  0.00     0.034 A 
ATOM     50  C   UNL A   1      45.817  29.661  27.228  1.00  0.00     0.049 A 
ATOM     51  C   UNL A   1      41.124  31.002  29.969  1.00  0.00     0.074 A 
ATOM     52  C   UNL A   1      46.744  30.674  27.053  1.00  0.00     0.029 A 
ATOM     53  N   UNL A   1      44.772  30.199  27.962  1.00  0.00    -0.354 N 
ATOM     54  N   UNL A   1      42.277  30.836  29.366  1.00  0.00    -0.248 NA
ATOM     55  C   UNL A   1      40.941  32.335  30.563  1.00  0.00     0.031 C 
ATOM     56  C   UNL A   1      46.286  31.808  27.731  1.00  0.00     0.029 A 
ATOM     57  C   UNL A   1      45.046  31.519  28.279  1.00  0.00     0.049 A 
ATOM     58  H   UNL A   1      43.954  29.715  28.221  1.00  0.00     0.167 HD
ATOM     59  C   UNL A   1      42.951  32.046  29.496  1.00  0.00     0.074 A 
ATOM     60  C   UNL A   1      42.078  32.936  30.233  1.00  0.00     0.031 C 
ATOM     61  C   UNL A   1      44.179  32.388  29.036  1.00  0.00     0.034 A 
BRANCH  48  62
ATOM     62  C   UNL A   1      47.125  27.848  26.037  1.00  0.00     0.023 A 
ATOM     63  C   UNL A   1      47.269  28.023  24.651  1.00  0.00     0.031 A 
ATOM     64  C   UNL A   1      48.180  27.242  26.741  1.00  0.00     0.131 A 
ATOM     65  C   UNL A   1      48.415  27.542  24.002  1.00  0.00     0.055 A 
ATOM     66  C   UNL A   1      49.349  26.830  26.100  1.00  0.00     0.041 A 
ATOM     67  F   UNL A   1      48.088  27.037  28.064  1.00  0.00    -0.206 F 
ATOM     68  C   UNL A   1      49.467  26.968  24.721  1.00  0.00     0.022 A 
BRANCH  65  69
ATOM     69  S   UNL A   1      48.469  27.582  22.190  1.00  0.00     0.124 S 
ATOM     70  O   UNL A   1      48.598  26.161  21.871  1.00  0.00    -0.237 OA
ATOM     71  O   UNL A   1      47.189  28.198  21.849  1.00  0.00    -0.237 OA
ATOM     72  O   UNL A   1      49.647  28.390  21.899  1.00  0.00    -0.744 OA
ENDBRANCH  65  69
ENDBRANCH  48  62
BRANCH  49  73
ATOM     73  C   UNL A   1      38.734  30.411  30.819  1.00  0.00     0.023 A 
ATOM     74  C   UNL A   1      37.718  31.100  30.137  1.00  0.00     0.031 A 
ATOM     75  C   UNL A   1      38.520  30.078  32.168  1.00  0.00     0.131 A 
ATOM     76  C   UNL A   1      36.535  31.442  30.810  1.00  0.00     0.055 A 
ATOM     77  C   UNL A   1      37.328  30.392  32.824  1.00  0.00     0.041 A 
ATOM     78  F   UNL A   1      39.460  29.412  32.858  1.00  0.00    -0.206 F 
ATOM     79  C   UNL A   1      36.329  31.080  32.145  1.00  0.00     0.022 A 
BRANCH  76  80
ATOM     80  S   UNL A   1      35.260  32.374  29.919  1.00  0.00     0.124 S 
ATOM     81  O   UNL A   1      34.850  31.415  28.899  1.00  0.00    -0.237 OA
ATOM     82  O   UNL A   1      34.287  32.648  30.971  1.00  0.00    -0.237 OA
ATOM     83  O   UNL A   1      35.980  33.545  29.421  1.00  0.00    -0.744 OA
ENDBRANCH  76  80
ENDBRANCH  49  73
BRANCH  61  84
ATOM     84  C   UNL A   1      44.666  33.785  29.304  1.00  0.00     0.023 A 
ATOM     85  C   UNL A   1      44.321  34.851  28.457  1.00  0.00     0.031 A 
ATOM     86  C   UNL A   1      45.405  34.066  30.467  1.00  0.00     0.131 A 
ATOM     87  C   UNL A   1      44.724  36.154  28.783  1.00  0.00     0.055 A 
ATOM     88  C   UNL A   1      45.771  35.369  30.804  1.00  0.00     0.041 A 
ATOM     89  F   UNL A   1      45.749  33.079  31.310  1.00  0.00    -0.206 F 
ATOM     90  C   UNL A   1      45.430  36.422  29.960  1.00  0.00     0.022 A 
BRANCH  87  91
ATOM     91  S   UNL A   1      44.301  37.510  27.654  1.00  0.00     0.124 S 
ATOM     92  O   UNL A   1      43.182  36.942  26.909  1.00  0.00    -0.237 OA
ATOM     93  O   UNL A   1      43.971  38.597  28.569  1.00  0.00    -0.237 OA
ATOM     94  O   UNL A   1      45.526  37.706  26.881  1.00  0.00    -0.744 OA
ENDBRANCH  87  91
ENDBRANCH  61  84
ENDBRANCH  35  36
ENDBRANCH  27  30
ENDBRANCH  25  26
ENDBRANCH  24  25
ENDBRANCH   1  24
TORSDOF 17
ENDMDL
