MODEL 1
REMARK VINA RESULT:     -11.2      0.000      0.000
REMARK SMILES O=C(NCCCCCCNC(=O)[C@@H]1C=C[C@H](NC(=O)c2ccc(CO)cc2)C1)c1ccc(-c2c3nc(c(-c4cc(S(=O)(=O)[O-])ccc4F)c4ccc([nH]4)c(-c4cc(S(=O)(=O)[O-])ccc4F)c4nc(c(-c5cc(S(=O)(=O)[O-])ccc5F)c5ccc2[nH]5)C=C4)C=C3)cc1
REMARK SMILES IDX 7 1 6 2 5 3 4 4 3 5 1 6 2 7 29 9 30 10 91 11 31 12 90 13
REMARK SMILES IDX 32 14 33 15 34 16 84 17 35 18 89 19 83 20 85 21 36 22 88 23
REMARK SMILES IDX 82 24 81 25 37 27 69 28 49 29 68 30 50 31 53 32 67 33 86 34
REMARK SMILES IDX 51 35 52 36 66 38 87 39 54 40 38 41 39 42 47 43 40 44 46 45
REMARK SMILES IDX 48 46 45 47 41 48 42 49 43 50 44 51 70 52 71 53 79 54 72 55
REMARK SMILES IDX 78 56 80 57 77 58 73 59 74 60 75 61 76 62 55 63 56 64 64 65
REMARK SMILES IDX 57 66 63 67 65 68 62 69 58 70 59 71 60 72 61 73 8 74 9 75
REMARK SMILES IDX 10 76 11 77 12 79 13 80 14 81 28 82 15 83 16 84 17 85 18 86
REMARK SMILES IDX 19 88 20 89 21 90 27 91 22 92 26 93 23 94 24 95 25 96
REMARK H PARENT 3 8 85 26 53 37 10 78 17 87 25 97
REMARK Flexibility Score: inf
ROOT
ATOM      1  C   UNL A   1      32.639  30.169  26.655  1.00  0.00     0.002 C 
ENDROOT
BRANCH   1   2
ATOM      2  C   UNL A   1      31.464  30.981  26.120  1.00  0.00     0.002 C 
BRANCH   2   3
ATOM      3  C   UNL A   1      31.353  32.394  26.674  1.00  0.00     0.021 C 
BRANCH   3   4
ATOM      4  C   UNL A   1      32.649  32.972  27.222  1.00  0.00     0.116 C 
BRANCH   4   5
ATOM      5  N   UNL A   1      32.496  34.277  27.861  1.00  0.00    -0.352 N 
ATOM      6  O   UNL A   1      33.071  35.891  29.366  1.00  0.00    -0.269 OA
ATOM      7  C   UNL A   1      33.310  34.811  28.841  1.00  0.00     0.251 C 
ATOM      8  H   UNL A   1      31.738  34.830  27.565  1.00  0.00     0.163 HD
BRANCH   7   9
ATOM      9  C   UNL A   1      34.474  34.002  29.250  1.00  0.00     0.039 A 
ATOM     10  C   UNL A   1      34.268  32.953  30.148  1.00  0.00     0.014 A 
ATOM     11  C   UNL A   1      35.759  34.432  28.917  1.00  0.00     0.014 A 
ATOM     12  C   UNL A   1      35.354  32.442  30.841  1.00  0.00     0.010 A 
ATOM     13  C   UNL A   1      36.858  33.842  29.547  1.00  0.00     0.010 A 
ATOM     14  C   UNL A   1      36.661  32.868  30.540  1.00  0.00    -0.014 A 
BRANCH  14  15
ATOM     15  C   UNL A   1      37.804  32.221  31.232  1.00  0.00     0.031 A 
ATOM     16  C   UNL A   1      38.611  31.130  30.584  1.00  0.00     0.074 A 
ATOM     17  C   UNL A   1      38.125  32.672  32.461  1.00  0.00     0.049 A 
ATOM     18  N   UNL A   1      39.616  30.450  31.072  1.00  0.00    -0.248 NA
ATOM     19  C   UNL A   1      38.237  30.744  29.216  1.00  0.00     0.031 C 
ATOM     20  C   UNL A   1      37.406  33.731  33.176  1.00  0.00     0.029 A 
ATOM     21  N   UNL A   1      39.138  32.327  33.315  1.00  0.00    -0.354 N 
ATOM     22  C   UNL A   1      39.980  29.535  30.089  1.00  0.00     0.074 A 
ATOM     23  C   UNL A   1      39.072  29.740  28.978  1.00  0.00     0.031 C 
ATOM     24  C   UNL A   1      38.037  33.994  34.327  1.00  0.00     0.029 A 
ATOM     25  C   UNL A   1      39.140  33.056  34.480  1.00  0.00     0.049 A 
ATOM     26  H   UNL A   1      39.798  31.626  33.114  1.00  0.00     0.167 HD
ATOM     27  C   UNL A   1      40.974  28.610  30.121  1.00  0.00     0.034 A 
ATOM     28  C   UNL A   1      39.918  32.960  35.573  1.00  0.00     0.034 A 
ATOM     29  C   UNL A   1      41.868  28.435  31.245  1.00  0.00     0.049 A 
ATOM     30  C   UNL A   1      40.991  31.911  35.592  1.00  0.00     0.074 A 
ATOM     31  C   UNL A   1      42.921  27.545  31.381  1.00  0.00     0.029 A 
ATOM     32  N   UNL A   1      41.812  29.160  32.430  1.00  0.00    -0.354 N 
ATOM     33  N   UNL A   1      41.308  31.041  34.660  1.00  0.00    -0.248 NA
ATOM     34  C   UNL A   1      41.806  31.826  36.807  1.00  0.00     0.031 C 
ATOM     35  C   UNL A   1      43.459  27.690  32.665  1.00  0.00     0.029 A 
ATOM     36  C   UNL A   1      42.792  28.720  33.309  1.00  0.00     0.049 A 
ATOM     37  H   UNL A   1      41.171  29.883  32.618  1.00  0.00     0.167 HD
ATOM     38  C   UNL A   1      42.366  30.305  35.178  1.00  0.00     0.074 A 
ATOM     39  C   UNL A   1      42.650  30.856  36.490  1.00  0.00     0.031 C 
ATOM     40  C   UNL A   1      43.040  29.265  34.624  1.00  0.00     0.034 A 
BRANCH  27  41
ATOM     41  C   UNL A   1      41.110  27.684  28.934  1.00  0.00     0.023 A 
ATOM     42  C   UNL A   1      42.088  27.876  27.943  1.00  0.00     0.031 A 
ATOM     43  C   UNL A   1      40.236  26.590  28.789  1.00  0.00     0.131 A 
ATOM     44  C   UNL A   1      42.130  27.027  26.824  1.00  0.00     0.055 A 
ATOM     45  C   UNL A   1      40.329  25.708  27.710  1.00  0.00     0.041 A 
ATOM     46  F   UNL A   1      39.268  26.364  29.690  1.00  0.00    -0.206 F 
ATOM     47  C   UNL A   1      41.273  25.931  26.712  1.00  0.00     0.022 A 
BRANCH  44  48
ATOM     48  S   UNL A   1      43.237  27.455  25.451  1.00  0.00     0.124 S 
ATOM     49  O   UNL A   1      43.623  26.136  24.956  1.00  0.00    -0.237 OA
ATOM     50  O   UNL A   1      42.368  28.234  24.576  1.00  0.00    -0.237 OA
ATOM     51  O   UNL A   1      44.311  28.208  26.096  1.00  0.00    -0.744 OA
ENDBRANCH  44  48
ENDBRANCH  27  41
BRANCH  28  52
ATOM     52  C   UNL A   1      39.667  33.845  36.742  1.00  0.00     0.023 A 
ATOM     53  C   UNL A   1      39.086  33.349  37.917  1.00  0.00     0.031 A 
ATOM     54  C   UNL A   1      40.022  35.208  36.702  1.00  0.00     0.131 A 
ATOM     55  C   UNL A   1      38.854  34.214  38.997  1.00  0.00     0.055 A 
ATOM     56  C   UNL A   1      39.839  36.050  37.798  1.00  0.00     0.041 A 
ATOM     57  F   UNL A   1      40.588  35.730  35.602  1.00  0.00    -0.206 F 
ATOM     58  C   UNL A   1      39.242  35.556  38.952  1.00  0.00     0.022 A 
BRANCH  55  59
ATOM     59  S   UNL A   1      37.976  33.572  40.448  1.00  0.00     0.124 S 
ATOM     60  O   UNL A   1      38.938  32.611  40.977  1.00  0.00    -0.237 OA
ATOM     61  O   UNL A   1      37.775  34.781  41.239  1.00  0.00    -0.237 OA
ATOM     62  O   UNL A   1      36.762  32.991  39.879  1.00  0.00    -0.744 OA
ENDBRANCH  55  59
ENDBRANCH  28  52
BRANCH  40  63
ATOM     63  C   UNL A   1      44.164  28.687  35.444  1.00  0.00     0.023 A 
ATOM     64  C   UNL A   1      43.955  27.603  36.314  1.00  0.00     0.031 A 
ATOM     65  C   UNL A   1      45.447  29.258  35.388  1.00  0.00     0.131 A 
ATOM     66  C   UNL A   1      44.997  27.165  37.143  1.00  0.00     0.055 A 
ATOM     67  C   UNL A   1      46.496  28.779  36.173  1.00  0.00     0.041 A 
ATOM     68  F   UNL A   1      45.697  30.298  34.577  1.00  0.00    -0.206 F 
ATOM     69  C   UNL A   1      46.269  27.736  37.067  1.00  0.00     0.022 A 
BRANCH  66  70
ATOM     70  S   UNL A   1      44.638  25.902  38.395  1.00  0.00     0.124 S 
ATOM     71  O   UNL A   1      43.551  25.156  37.770  1.00  0.00    -0.237 OA
ATOM     72  O   UNL A   1      45.913  25.200  38.505  1.00  0.00    -0.237 OA
ATOM     73  O   UNL A   1      44.259  26.684  39.570  1.00  0.00    -0.744 OA
ENDBRANCH  66  70
ENDBRANCH  40  63
ENDBRANCH  14  15
ENDBRANCH   7   9
ENDBRANCH   4   5
ENDBRANCH   3   4
ENDBRANCH   2   3
ENDBRANCH   1   2
BRANCH   1  74
ATOM     74  C   UNL A   1      33.129  28.975  25.827  1.00  0.00     0.021 C 
BRANCH  74  75
ATOM     75  C   UNL A   1      32.972  27.595  26.479  1.00  0.00     0.116 C 
BRANCH  75  76
ATOM     76  N   UNL A   1      31.700  26.957  26.192  1.00  0.00    -0.356 N 
ATOM     77  C   UNL A   1      31.177  26.355  25.090  1.00  0.00     0.227 C 
ATOM     78  H   UNL A   1      31.083  26.960  26.959  1.00  0.00     0.163 HD
ATOM     79  O   UNL A   1      30.095  25.780  25.268  1.00  0.00    -0.274 OA
BRANCH  77  80
ATOM     80  C   UNL A   1      31.917  26.251  23.741  1.00  0.00     0.103 C 
ATOM     81  C   UNL A   1      31.603  25.095  22.837  1.00  0.00    -0.016 C 
ATOM     82  C   UNL A   1      33.451  26.089  23.967  1.00  0.00     0.047 C 
ATOM     83  C   UNL A   1      32.693  24.434  22.431  1.00  0.00    -0.006 C 
ATOM     84  C   UNL A   1      33.940  25.021  22.982  1.00  0.00     0.106 C 
BRANCH  84  85
ATOM     85  N   UNL A   1      34.854  23.990  23.455  1.00  0.00    -0.346 N 
ATOM     86  C   UNL A   1      34.784  22.990  24.392  1.00  0.00     0.251 C 
ATOM     87  H   UNL A   1      35.723  24.017  22.996  1.00  0.00     0.164 HD
ATOM     88  O   UNL A   1      35.778  22.309  24.631  1.00  0.00    -0.269 OA
BRANCH  86  89
ATOM     89  C   UNL A   1      33.555  22.755  25.161  1.00  0.00     0.039 A 
ATOM     90  C   UNL A   1      33.343  23.487  26.332  1.00  0.00     0.014 A 
ATOM     91  C   UNL A   1      32.617  21.823  24.738  1.00  0.00     0.014 A 
ATOM     92  C   UNL A   1      32.106  23.420  26.971  1.00  0.00     0.007 A 
ATOM     93  C   UNL A   1      31.390  21.746  25.393  1.00  0.00     0.007 A 
ATOM     94  C   UNL A   1      31.088  22.609  26.457  1.00  0.00    -0.023 A 
BRANCH  94  95
ATOM     95  C   UNL A   1      29.691  22.734  27.001  1.00  0.00     0.191 C 
BRANCH  95  96
ATOM     96  O   UNL A   1      29.370  24.089  27.250  1.00  0.00    -0.392 OA
ATOM     97  H   UNL A   1      28.427  24.163  27.463  1.00  0.00     0.211 HD
ENDBRANCH  95  96
ENDBRANCH  94  95
ENDBRANCH  86  89
ENDBRANCH  84  85
ENDBRANCH  77  80
ENDBRANCH  75  76
ENDBRANCH  74  75
ENDBRANCH   1  74
TORSDOF 20
ENDMDL
MODEL 2
REMARK VINA RESULT:     -11.2      0.836      2.142
REMARK SMILES O=C(NCCCCCCNC(=O)[C@@H]1C=C[C@H](NC(=O)c2ccc(CO)cc2)C1)c1ccc(-c2c3nc(c(-c4cc(S(=O)(=O)[O-])ccc4F)c4ccc([nH]4)c(-c4cc(S(=O)(=O)[O-])ccc4F)c4nc(c(-c5cc(S(=O)(=O)[O-])ccc5F)c5ccc2[nH]5)C=C4)C=C3)cc1
REMARK SMILES IDX 7 1 6 2 5 3 4 4 3 5 1 6 2 7 29 9 30 10 91 11 31 12 90 13
REMARK SMILES IDX 32 14 33 15 34 16 84 17 35 18 89 19 83 20 85 21 36 22 88 23
REMARK SMILES IDX 82 24 81 25 37 27 69 28 49 29 68 30 50 31 53 32 67 33 86 34
REMARK SMILES IDX 51 35 52 36 66 38 87 39 54 40 38 41 39 42 47 43 40 44 46 45
REMARK SMILES IDX 48 46 45 47 41 48 42 49 43 50 44 51 70 52 71 53 79 54 72 55
REMARK SMILES IDX 78 56 80 57 77 58 73 59 74 60 75 61 76 62 55 63 56 64 64 65
REMARK SMILES IDX 57 66 63 67 65 68 62 69 58 70 59 71 60 72 61 73 8 74 9 75
REMARK SMILES IDX 10 76 11 77 12 79 13 80 14 81 28 82 15 83 16 84 17 85 18 86
REMARK SMILES IDX 19 88 20 89 21 90 27 91 22 92 26 93 23 94 24 95 25 96
REMARK H PARENT 3 8 85 26 53 37 10 78 17 87 25 97
REMARK Flexibility Score: inf
ROOT
ATOM      1  C   UNL A   1      32.784  28.953  27.322  1.00  0.00     0.002 C 
ENDROOT
BRANCH   1   2
ATOM      2  C   UNL A   1      32.855  30.104  26.324  1.00  0.00     0.002 C 
BRANCH   2   3
ATOM      3  C   UNL A   1      32.265  31.418  26.814  1.00  0.00     0.021 C 
BRANCH   3   4
ATOM      4  C   UNL A   1      33.248  32.338  27.524  1.00  0.00     0.116 C 
BRANCH   4   5
ATOM      5  N   UNL A   1      32.761  33.702  27.710  1.00  0.00    -0.352 N 
ATOM      6  O   UNL A   1      32.699  35.720  28.771  1.00  0.00    -0.269 OA
ATOM      7  C   UNL A   1      33.208  34.613  28.646  1.00  0.00     0.251 C 
ATOM      8  H   UNL A   1      32.042  34.002  27.108  1.00  0.00     0.163 HD
BRANCH   7   9
ATOM      9  C   UNL A   1      34.319  34.179  29.515  1.00  0.00     0.039 A 
ATOM     10  C   UNL A   1      35.624  34.482  29.121  1.00  0.00     0.014 A 
ATOM     11  C   UNL A   1      34.063  33.301  30.569  1.00  0.00     0.014 A 
ATOM     12  C   UNL A   1      36.674  33.771  29.681  1.00  0.00     0.010 A 
ATOM     13  C   UNL A   1      35.135  32.664  31.198  1.00  0.00     0.010 A 
ATOM     14  C   UNL A   1      36.445  32.866  30.735  1.00  0.00    -0.014 A 
BRANCH  14  15
ATOM     15  C   UNL A   1      37.609  32.203  31.376  1.00  0.00     0.031 A 
ATOM     16  C   UNL A   1      38.385  31.117  30.684  1.00  0.00     0.074 A 
ATOM     17  C   UNL A   1      37.976  32.635  32.599  1.00  0.00     0.049 A 
ATOM     18  N   UNL A   1      39.404  30.425  31.125  1.00  0.00    -0.248 NA
ATOM     19  C   UNL A   1      37.960  30.753  29.324  1.00  0.00     0.031 C 
ATOM     20  C   UNL A   1      37.290  33.687  33.355  1.00  0.00     0.029 A 
ATOM     21  N   UNL A   1      39.018  32.272  33.410  1.00  0.00    -0.354 N 
ATOM     22  C   UNL A   1      39.726  29.522  30.116  1.00  0.00     0.074 A 
ATOM     23  C   UNL A   1      38.780  29.749  29.042  1.00  0.00     0.031 C 
ATOM     24  C   UNL A   1      37.964  33.929  34.485  1.00  0.00     0.029 A 
ATOM     25  C   UNL A   1      39.067  32.983  34.585  1.00  0.00     0.049 A 
ATOM     26  H   UNL A   1      39.666  31.570  33.175  1.00  0.00     0.167 HD
ATOM     27  C   UNL A   1      40.715  28.592  30.099  1.00  0.00     0.034 A 
ATOM     28  C   UNL A   1      39.883  32.867  35.648  1.00  0.00     0.034 A 
ATOM     29  C   UNL A   1      41.648  28.396  31.186  1.00  0.00     0.049 A 
ATOM     30  C   UNL A   1      40.950  31.812  35.613  1.00  0.00     0.074 A 
ATOM     31  C   UNL A   1      42.700  27.498  31.272  1.00  0.00     0.029 A 
ATOM     32  N   UNL A   1      41.640  29.104  32.383  1.00  0.00    -0.354 N 
ATOM     33  N   UNL A   1      41.228  30.954  34.658  1.00  0.00    -0.248 NA
ATOM     34  C   UNL A   1      41.807  31.706  36.796  1.00  0.00     0.031 C 
ATOM     35  C   UNL A   1      43.285  27.622  32.538  1.00  0.00     0.029 A 
ATOM     36  C   UNL A   1      42.648  28.646  33.220  1.00  0.00     0.049 A 
ATOM     37  H   UNL A   1      41.010  29.827  32.605  1.00  0.00     0.167 HD
ATOM     38  C   UNL A   1      42.299  30.205  35.126  1.00  0.00     0.074 A 
ATOM     39  C   UNL A   1      42.634  30.735  36.434  1.00  0.00     0.031 C 
ATOM     40  C   UNL A   1      42.946  29.170  34.533  1.00  0.00     0.034 A 
BRANCH  27  41
ATOM     41  C   UNL A   1      40.803  27.682  28.894  1.00  0.00     0.023 A 
ATOM     42  C   UNL A   1      41.777  27.854  27.896  1.00  0.00     0.031 A 
ATOM     43  C   UNL A   1      39.885  26.626  28.740  1.00  0.00     0.131 A 
ATOM     44  C   UNL A   1      41.775  27.025  26.762  1.00  0.00     0.055 A 
ATOM     45  C   UNL A   1      39.933  25.760  27.644  1.00  0.00     0.041 A 
ATOM     46  F   UNL A   1      38.918  26.422  29.648  1.00  0.00    -0.206 F 
ATOM     47  C   UNL A   1      40.874  25.965  26.640  1.00  0.00     0.022 A 
BRANCH  44  48
ATOM     48  S   UNL A   1      42.883  27.434  25.385  1.00  0.00     0.124 S 
ATOM     49  O   UNL A   1      44.089  27.863  26.090  1.00  0.00    -0.237 OA
ATOM     50  O   UNL A   1      42.980  26.167  24.670  1.00  0.00    -0.237 OA
ATOM     51  O   UNL A   1      42.174  28.498  24.676  1.00  0.00    -0.744 OA
ENDBRANCH  44  48
ENDBRANCH  27  41
BRANCH  28  52
ATOM     52  C   UNL A   1      39.679  33.737  36.838  1.00  0.00     0.023 A 
ATOM     53  C   UNL A   1      39.141  33.226  38.026  1.00  0.00     0.031 A 
ATOM     54  C   UNL A   1      40.037  35.099  36.803  1.00  0.00     0.131 A 
ATOM     55  C   UNL A   1      38.953  34.076  39.127  1.00  0.00     0.055 A 
ATOM     56  C   UNL A   1      39.900  35.926  37.917  1.00  0.00     0.041 A 
ATOM     57  F   UNL A   1      40.564  35.634  35.690  1.00  0.00    -0.206 F 
ATOM     58  C   UNL A   1      39.344  35.417  39.086  1.00  0.00     0.022 A 
BRANCH  55  59
ATOM     59  S   UNL A   1      38.127  33.416  40.600  1.00  0.00     0.124 S 
ATOM     60  O   UNL A   1      36.750  33.289  40.137  1.00  0.00    -0.237 OA
ATOM     61  O   UNL A   1      38.850  32.167  40.817  1.00  0.00    -0.237 OA
ATOM     62  O   UNL A   1      38.355  34.449  41.607  1.00  0.00    -0.744 OA
ENDBRANCH  55  59
ENDBRANCH  28  52
BRANCH  40  63
ATOM     63  C   UNL A   1      44.096  28.574  35.303  1.00  0.00     0.023 A 
ATOM     64  C   UNL A   1      43.905  27.506  36.196  1.00  0.00     0.031 A 
ATOM     65  C   UNL A   1      45.388  29.112  35.176  1.00  0.00     0.131 A 
ATOM     66  C   UNL A   1      44.976  27.052  36.978  1.00  0.00     0.055 A 
ATOM     67  C   UNL A   1      46.463  28.616  35.913  1.00  0.00     0.041 A 
ATOM     68  F   UNL A   1      45.622  30.136  34.339  1.00  0.00    -0.206 F 
ATOM     69  C   UNL A   1      46.257  27.590  36.832  1.00  0.00     0.022 A 
BRANCH  66  70
ATOM     70  S   UNL A   1      44.650  25.814  38.263  1.00  0.00     0.124 S 
ATOM     71  O   UNL A   1      45.978  25.252  38.487  1.00  0.00    -0.237 OA
ATOM     72  O   UNL A   1      44.110  26.626  39.349  1.00  0.00    -0.237 OA
ATOM     73  O   UNL A   1      43.693  24.908  37.632  1.00  0.00    -0.744 OA
ENDBRANCH  66  70
ENDBRANCH  40  63
ENDBRANCH  14  15
ENDBRANCH   7   9
ENDBRANCH   4   5
ENDBRANCH   3   4
ENDBRANCH   2   3
ENDBRANCH   1   2
BRANCH   1  74
ATOM     74  C   UNL A   1      31.498  28.121  27.376  1.00  0.00     0.021 C 
BRANCH  74  75
ATOM     75  C   UNL A   1      31.605  26.680  26.858  1.00  0.00     0.116 C 
BRANCH  75  76
ATOM     76  N   UNL A   1      30.917  26.463  25.598  1.00  0.00    -0.356 N 
ATOM     77  C   UNL A   1      30.433  25.360  24.968  1.00  0.00     0.227 C 
ATOM     78  H   UNL A   1      30.769  27.294  25.090  1.00  0.00     0.163 HD
ATOM     79  O   UNL A   1      29.759  25.585  23.955  1.00  0.00    -0.274 OA
BRANCH  77  80
ATOM     80  C   UNL A   1      30.571  23.928  25.526  1.00  0.00     0.103 C 
ATOM     81  C   UNL A   1      31.361  23.721  26.785  1.00  0.00    -0.016 C 
ATOM     82  C   UNL A   1      31.319  23.012  24.510  1.00  0.00     0.047 C 
ATOM     83  C   UNL A   1      32.297  22.772  26.668  1.00  0.00    -0.006 C 
ATOM     84  C   UNL A   1      32.309  22.163  25.315  1.00  0.00     0.106 C 
BRANCH  84  85
ATOM     85  N   UNL A   1      33.666  21.996  24.815  1.00  0.00    -0.346 N 
ATOM     86  C   UNL A   1      34.523  22.764  24.067  1.00  0.00     0.251 C 
ATOM     87  H   UNL A   1      34.060  21.133  25.072  1.00  0.00     0.164 HD
ATOM     88  O   UNL A   1      35.610  22.306  23.725  1.00  0.00    -0.269 OA
BRANCH  86  89
ATOM     89  C   UNL A   1      34.139  24.108  23.615  1.00  0.00     0.039 A 
ATOM     90  C   UNL A   1      33.541  24.251  22.360  1.00  0.00     0.014 A 
ATOM     91  C   UNL A   1      34.366  25.220  24.414  1.00  0.00     0.014 A 
ATOM     92  C   UNL A   1      33.000  25.482  21.993  1.00  0.00     0.007 A 
ATOM     93  C   UNL A   1      33.839  26.452  24.032  1.00  0.00     0.007 A 
ATOM     94  C   UNL A   1      33.071  26.574  22.865  1.00  0.00    -0.023 A 
BRANCH  94  95
ATOM     95  C   UNL A   1      32.273  27.814  22.570  1.00  0.00     0.191 C 
BRANCH  95  96
ATOM     96  O   UNL A   1      31.094  27.493  21.857  1.00  0.00    -0.392 OA
ATOM     97  H   UNL A   1      30.748  26.643  22.171  1.00  0.00     0.211 HD
ENDBRANCH  95  96
ENDBRANCH  94  95
ENDBRANCH  86  89
ENDBRANCH  84  85
ENDBRANCH  77  80
ENDBRANCH  75  76
ENDBRANCH  74  75
ENDBRANCH   1  74
TORSDOF 20
ENDMDL
MODEL 3
REMARK VINA RESULT:     -11.1      1.790      7.846
REMARK SMILES O=C(NCCCCCCNC(=O)[C@@H]1C=C[C@H](NC(=O)c2ccc(CO)cc2)C1)c1ccc(-c2c3nc(c(-c4cc(S(=O)(=O)[O-])ccc4F)c4ccc([nH]4)c(-c4cc(S(=O)(=O)[O-])ccc4F)c4nc(c(-c5cc(S(=O)(=O)[O-])ccc5F)c5ccc2[nH]5)C=C4)C=C3)cc1
REMARK SMILES IDX 7 1 6 2 5 3 4 4 3 5 1 6 2 7 29 9 30 10 91 11 31 12 90 13
REMARK SMILES IDX 32 14 33 15 34 16 84 17 35 18 89 19 83 20 85 21 36 22 88 23
REMARK SMILES IDX 82 24 81 25 37 27 69 28 49 29 68 30 50 31 53 32 67 33 86 34
REMARK SMILES IDX 51 35 52 36 66 38 87 39 54 40 38 41 39 42 47 43 40 44 46 45
REMARK SMILES IDX 48 46 45 47 41 48 42 49 43 50 44 51 70 52 71 53 79 54 72 55
REMARK SMILES IDX 78 56 80 57 77 58 73 59 74 60 75 61 76 62 55 63 56 64 64 65
REMARK SMILES IDX 57 66 63 67 65 68 62 69 58 70 59 71 60 72 61 73 8 74 9 75
REMARK SMILES IDX 10 76 11 77 12 79 13 80 14 81 28 82 15 83 16 84 17 85 18 86
REMARK SMILES IDX 19 88 20 89 21 90 27 91 22 92 26 93 23 94 24 95 25 96
REMARK H PARENT 3 8 85 26 53 37 10 78 17 87 25 97
REMARK Flexibility Score: inf
ROOT
ATOM      1  C   UNL A   1      34.434  29.210  27.606  1.00  0.00     0.002 C 
ENDROOT
BRANCH   1   2
ATOM      2  C   UNL A   1      34.859  30.652  27.862  1.00  0.00     0.002 C 
BRANCH   2   3
ATOM      3  C   UNL A   1      33.726  31.666  27.869  1.00  0.00     0.021 C 
BRANCH   3   4
ATOM      4  C   UNL A   1      34.128  33.081  27.479  1.00  0.00     0.116 C 
BRANCH   4   5
ATOM      5  N   UNL A   1      33.261  34.120  28.027  1.00  0.00    -0.352 N 
ATOM      6  O   UNL A   1      32.541  35.515  29.682  1.00  0.00    -0.269 OA
ATOM      7  C   UNL A   1      33.352  34.689  29.282  1.00  0.00     0.251 C 
ATOM      8  H   UNL A   1      32.538  34.448  27.444  1.00  0.00     0.163 HD
BRANCH   7   9
ATOM      9  C   UNL A   1      34.464  34.233  30.137  1.00  0.00     0.039 A 
ATOM     10  C   UNL A   1      35.766  34.583  29.772  1.00  0.00     0.014 A 
ATOM     11  C   UNL A   1      34.219  33.294  31.140  1.00  0.00     0.014 A 
ATOM     12  C   UNL A   1      36.826  33.866  30.304  1.00  0.00     0.010 A 
ATOM     13  C   UNL A   1      35.299  32.647  31.744  1.00  0.00     0.010 A 
ATOM     14  C   UNL A   1      36.609  32.901  31.305  1.00  0.00    -0.014 A 
BRANCH  14  15
ATOM     15  C   UNL A   1      37.781  32.229  31.921  1.00  0.00     0.031 A 
ATOM     16  C   UNL A   1      38.252  32.569  33.307  1.00  0.00     0.074 A 
ATOM     17  C   UNL A   1      38.395  31.267  31.204  1.00  0.00     0.049 A 
ATOM     18  N   UNL A   1      39.275  32.090  33.969  1.00  0.00    -0.248 NA
ATOM     19  C   UNL A   1      37.484  33.582  34.046  1.00  0.00     0.031 C 
ATOM     20  C   UNL A   1      38.011  30.860  29.849  1.00  0.00     0.029 A 
ATOM     21  N   UNL A   1      39.444  30.442  31.512  1.00  0.00    -0.354 N 
ATOM     22  C   UNL A   1      39.297  32.761  35.188  1.00  0.00     0.074 A 
ATOM     23  C   UNL A   1      38.188  33.693  35.166  1.00  0.00     0.031 C 
ATOM     24  C   UNL A   1      38.768  29.823  29.469  1.00  0.00     0.029 A 
ATOM     25  C   UNL A   1      39.756  29.559  30.506  1.00  0.00     0.049 A 
ATOM     26  H   UNL A   1      39.928  30.479  32.368  1.00  0.00     0.167 HD
ATOM     27  C   UNL A   1      40.168  32.611  36.219  1.00  0.00     0.034 A 
ATOM     28  C   UNL A   1      40.750  28.659  30.405  1.00  0.00     0.034 A 
ATOM     29  C   UNL A   1      41.262  31.666  36.211  1.00  0.00     0.049 A 
ATOM     30  C   UNL A   1      41.714  28.533  31.549  1.00  0.00     0.074 A 
ATOM     31  C   UNL A   1      42.195  31.414  37.205  1.00  0.00     0.029 A 
ATOM     32  N   UNL A   1      41.577  30.818  35.155  1.00  0.00    -0.354 N 
ATOM     33  N   UNL A   1      41.731  29.190  32.687  1.00  0.00    -0.248 NA
ATOM     34  C   UNL A   1      42.793  27.554  31.394  1.00  0.00     0.031 C 
ATOM     35  C   UNL A   1      43.104  30.463  36.726  1.00  0.00     0.029 A 
ATOM     36  C   UNL A   1      42.702  30.064  35.462  1.00  0.00     0.049 A 
ATOM     37  H   UNL A   1      41.074  30.759  34.311  1.00  0.00     0.167 HD
ATOM     38  C   UNL A   1      42.824  28.698  33.388  1.00  0.00     0.074 A 
ATOM     39  C   UNL A   1      43.419  27.669  32.556  1.00  0.00     0.031 C 
ATOM     40  C   UNL A   1      43.296  29.064  34.606  1.00  0.00     0.034 A 
BRANCH  27  41
ATOM     41  C   UNL A   1      40.007  33.525  37.413  1.00  0.00     0.023 A 
ATOM     42  C   UNL A   1      40.767  34.697  37.565  1.00  0.00     0.031 A 
ATOM     43  C   UNL A   1      39.078  33.210  38.423  1.00  0.00     0.131 A 
ATOM     44  C   UNL A   1      40.630  35.478  38.726  1.00  0.00     0.055 A 
ATOM     45  C   UNL A   1      38.896  34.029  39.540  1.00  0.00     0.041 A 
ATOM     46  F   UNL A   1      38.337  32.094  38.345  1.00  0.00    -0.206 F 
ATOM     47  C   UNL A   1      39.683  35.164  39.703  1.00  0.00     0.022 A 
BRANCH  44  48
ATOM     48  S   UNL A   1      41.800  36.837  39.002  1.00  0.00     0.124 S 
ATOM     49  O   UNL A   1      40.904  37.933  39.363  1.00  0.00    -0.237 OA
ATOM     50  O   UNL A   1      42.638  36.319  40.077  1.00  0.00    -0.237 OA
ATOM     51  O   UNL A   1      42.465  36.987  37.709  1.00  0.00    -0.744 OA
ENDBRANCH  44  48
ENDBRANCH  27  41
BRANCH  28  52
ATOM     52  C   UNL A   1      40.901  27.857  29.161  1.00  0.00     0.023 A 
ATOM     53  C   UNL A   1      41.891  28.162  28.218  1.00  0.00     0.031 A 
ATOM     54  C   UNL A   1      40.058  26.758  28.906  1.00  0.00     0.131 A 
ATOM     55  C   UNL A   1      42.000  27.391  27.050  1.00  0.00     0.055 A 
ATOM     56  C   UNL A   1      40.206  25.962  27.771  1.00  0.00     0.041 A 
ATOM     57  F   UNL A   1      39.098  26.420  29.783  1.00  0.00    -0.206 F 
ATOM     58  C   UNL A   1      41.177  26.284  26.829  1.00  0.00     0.022 A 
BRANCH  55  59
ATOM     59  S   UNL A   1      43.199  27.897  25.787  1.00  0.00     0.124 S 
ATOM     60  O   UNL A   1      44.199  26.839  25.885  1.00  0.00    -0.237 OA
ATOM     61  O   UNL A   1      42.382  27.899  24.579  1.00  0.00    -0.237 OA
ATOM     62  O   UNL A   1      43.637  29.214  26.244  1.00  0.00    -0.744 OA
ENDBRANCH  55  59
ENDBRANCH  28  52
BRANCH  40  63
ATOM     63  C   UNL A   1      44.505  28.315  35.104  1.00  0.00     0.023 A 
ATOM     64  C   UNL A   1      44.379  27.154  35.885  1.00  0.00     0.031 A 
ATOM     65  C   UNL A   1      45.797  28.796  34.832  1.00  0.00     0.131 A 
ATOM     66  C   UNL A   1      45.522  26.548  36.424  1.00  0.00     0.055 A 
ATOM     67  C   UNL A   1      46.935  28.155  35.321  1.00  0.00     0.041 A 
ATOM     68  F   UNL A   1      45.972  29.904  34.093  1.00  0.00    -0.206 F 
ATOM     69  C   UNL A   1      46.800  27.033  36.134  1.00  0.00     0.022 A 
BRANCH  66  70
ATOM     70  S   UNL A   1      45.312  25.176  37.591  1.00  0.00     0.124 S 
ATOM     71  O   UNL A   1      44.100  25.568  38.303  1.00  0.00    -0.237 OA
ATOM     72  O   UNL A   1      45.186  24.026  36.702  1.00  0.00    -0.237 OA
ATOM     73  O   UNL A   1      46.537  25.213  38.387  1.00  0.00    -0.744 OA
ENDBRANCH  66  70
ENDBRANCH  40  63
ENDBRANCH  14  15
ENDBRANCH   7   9
ENDBRANCH   4   5
ENDBRANCH   3   4
ENDBRANCH   2   3
ENDBRANCH   1   2
BRANCH   1  74
ATOM     74  C   UNL A   1      34.028  28.817  26.182  1.00  0.00     0.021 C 
BRANCH  74  75
ATOM     75  C   UNL A   1      33.778  27.322  25.940  1.00  0.00     0.116 C 
BRANCH  75  76
ATOM     76  N   UNL A   1      33.739  26.959  24.535  1.00  0.00    -0.356 N 
ATOM     77  C   UNL A   1      34.038  25.825  23.847  1.00  0.00     0.227 C 
ATOM     78  H   UNL A   1      33.429  27.692  23.954  1.00  0.00     0.163 HD
ATOM     79  O   UNL A   1      33.730  25.840  22.648  1.00  0.00    -0.274 OA
BRANCH  77  80
ATOM     80  C   UNL A   1      34.584  24.543  24.510  1.00  0.00     0.103 C 
ATOM     81  C   UNL A   1      34.486  23.249  23.758  1.00  0.00    -0.016 C 
ATOM     82  C   UNL A   1      33.802  24.227  25.820  1.00  0.00     0.047 C 
ATOM     83  C   UNL A   1      33.924  22.267  24.472  1.00  0.00    -0.006 C 
ATOM     84  C   UNL A   1      33.541  22.716  25.833  1.00  0.00     0.106 C 
BRANCH  84  85
ATOM     85  N   UNL A   1      32.220  22.231  26.206  1.00  0.00    -0.346 N 
ATOM     86  C   UNL A   1      30.933  22.637  25.955  1.00  0.00     0.251 C 
ATOM     87  H   UNL A   1      32.258  21.425  26.769  1.00  0.00     0.164 HD
ATOM     88  O   UNL A   1      29.994  22.053  26.490  1.00  0.00    -0.269 OA
BRANCH  86  89
ATOM     89  C   UNL A   1      30.658  23.799  25.100  1.00  0.00     0.039 A 
ATOM     90  C   UNL A   1      30.355  25.022  25.704  1.00  0.00     0.014 A 
ATOM     91  C   UNL A   1      30.694  23.691  23.716  1.00  0.00     0.014 A 
ATOM     92  C   UNL A   1      30.278  26.175  24.923  1.00  0.00     0.007 A 
ATOM     93  C   UNL A   1      30.597  24.844  22.940  1.00  0.00     0.007 A 
ATOM     94  C   UNL A   1      30.482  26.107  23.540  1.00  0.00    -0.023 A 
BRANCH  94  95
ATOM     95  C   UNL A   1      30.645  27.375  22.749  1.00  0.00     0.191 C 
BRANCH  95  96
ATOM     96  O   UNL A   1      31.349  27.128  21.548  1.00  0.00    -0.392 OA
ATOM     97  H   UNL A   1      31.439  26.171  21.416  1.00  0.00     0.211 HD
ENDBRANCH  95  96
ENDBRANCH  94  95
ENDBRANCH  86  89
ENDBRANCH  84  85
ENDBRANCH  77  80
ENDBRANCH  75  76
ENDBRANCH  74  75
ENDBRANCH   1  74
TORSDOF 20
ENDMDL
