MODEL 1
REMARK VINA RESULT:     -12.9      0.000      0.000
REMARK SMILES CN1C(=O)C[C@H](C(=O)Nc2ccc(C(=O)NCCCCCCNC(=O)c3ccc(-c4c5nc(c(-c6cc(S(=O)(=O)[O-])ccc6F)c6ccc([nH]6)c(-c6cc(S(=O)(=O)[O-])ccc6F)c6nc(c(-c7cc(S(=O)(=O)[O-])ccc7F)c7ccc4[nH]7)C=C6)C=C5)cc3)cc2)S/C1=[NH+]\c1cccc(C(F)(F)F)c1
REMARK SMILES IDX 19 1 18 2 17 3 16 4 14 5 15 6 13 8 10 9 11 10 90 11 12 12
REMARK SMILES IDX 89 13 9 14 7 15 8 16 6 18 1 19 2 20 3 21 92 22 4 23 5 24
REMARK SMILES IDX 91 25 93 26 94 28 95 29 103 30 96 31 98 32 97 33 99 34
REMARK SMILES IDX 100 35 101 36 102 37 20 38 21 39 22 40 23 41 24 42 25 44
REMARK SMILES IDX 26 45 27 46 88 47 28 48 87 49 29 50 30 51 31 52 81 53 32 54
REMARK SMILES IDX 86 55 80 56 82 57 33 58 85 59 79 60 78 61 34 63 66 64 46 65
REMARK SMILES IDX 65 66 47 67 50 68 64 69 83 70 48 71 49 72 63 74 84 75 51 76
REMARK SMILES IDX 35 77 36 78 44 79 37 80 43 81 45 82 42 83 38 84 39 85 40 86
REMARK SMILES IDX 41 87 67 88 68 89 76 90 69 91 75 92 77 93 74 94 70 95 71 96
REMARK SMILES IDX 72 97 73 98 52 99 53 100 61 101 54 102 60 103 62 104 59 105
REMARK SMILES IDX 55 106 56 107 57 108 58 109
REMARK H PARENT 16 7 9 17 93 27 23 43 82 62 50 73
REMARK Flexibility Score: inf
ROOT
ATOM      1  C   UNL A   1      34.594  29.794  27.671  1.00  0.00     0.002 C 
ENDROOT
BRANCH   1   2
ATOM      2  C   UNL A   1      33.853  29.548  26.353  1.00  0.00     0.021 C 
BRANCH   2   3
ATOM      3  C   UNL A   1      32.450  28.970  26.546  1.00  0.00     0.116 C 
BRANCH   3   4
ATOM      4  N   UNL A   1      31.462  29.737  25.817  1.00  0.00    -0.352 N 
ATOM      5  C   UNL A   1      31.017  29.661  24.517  1.00  0.00     0.251 C 
ATOM      6  O   UNL A   1      30.113  30.433  24.188  1.00  0.00    -0.269 OA
ATOM      7  H   UNL A   1      31.028  30.443  26.349  1.00  0.00     0.163 HD
BRANCH   5   8
ATOM      8  C   UNL A   1      31.487  28.635  23.528  1.00  0.00     0.039 A 
ATOM      9  C   UNL A   1      32.409  26.289  22.251  1.00  0.00     0.041 A 
ATOM     10  C   UNL A   1      31.052  26.446  22.558  1.00  0.00     0.027 A 
ATOM     11  C   UNL A   1      33.208  27.418  22.296  1.00  0.00     0.027 A 
ATOM     12  C   UNL A   1      30.607  27.586  23.241  1.00  0.00     0.016 A 
ATOM     13  C   UNL A   1      32.734  28.601  22.904  1.00  0.00     0.016 A 
BRANCH   9  14
ATOM     14  N   UNL A   1      32.820  25.010  21.859  1.00  0.00    -0.325 N 
ATOM     15  C   UNL A   1      33.568  23.990  22.355  1.00  0.00     0.238 C 
ATOM     16  O   UNL A   1      33.676  23.038  21.559  1.00  0.00    -0.273 OA
ATOM     17  H   UNL A   1      32.464  24.785  20.969  1.00  0.00     0.169 HD
BRANCH  15  18
ATOM     18  C   UNL A   1      34.190  23.788  23.740  1.00  0.00     0.160 C 
ATOM     19  C   UNL A   1      31.290  23.221  26.922  1.00  0.00     0.301 C 
ATOM     20  N   UNL A   1      32.350  23.267  25.927  1.00  0.00    -0.194 N 
ATOM     21  C   UNL A   1      32.702  24.575  25.581  1.00  0.00     0.311 C 
ATOM     22  C   UNL A   1      32.742  22.081  25.274  1.00  0.00     0.319 C 
ATOM     23  O   UNL A   1      32.003  25.549  25.874  1.00  0.00    -0.247 OA
ATOM     24  C   UNL A   1      33.957  24.802  24.813  1.00  0.00     0.153 C 
ATOM     25  S   UNL A   1      34.239  22.140  24.386  1.00  0.00    -0.024 SA
ATOM     26  N   UNL A   1      32.027  20.997  25.353  1.00  0.00    -0.235 N 
ATOM     27  H   UNL A   1      31.238  20.993  25.942  1.00  0.00     0.313 HD
BRANCH  26  28
ATOM     28  C   UNL A   1      32.340  19.822  24.624  1.00  0.00     0.126 A 
ATOM     29  C   UNL A   1      32.293  19.752  23.223  1.00  0.00     0.052 A 
ATOM     30  C   UNL A   1      32.663  18.652  25.304  1.00  0.00     0.064 A 
ATOM     31  C   UNL A   1      32.528  18.579  22.510  1.00  0.00     0.005 A 
ATOM     32  C   UNL A   1      32.966  17.464  24.603  1.00  0.00     0.060 A 
ATOM     33  C   UNL A   1      32.867  17.432  23.204  1.00  0.00     0.013 A 
BRANCH  32  34
ATOM     34  C   UNL A   1      33.441  16.235  25.327  1.00  0.00     0.416 C 
ATOM     35  F   UNL A   1      34.760  16.296  25.657  1.00  0.00    -0.166 F 
ATOM     36  F   UNL A   1      32.774  16.047  26.501  1.00  0.00    -0.166 F 
ATOM     37  F   UNL A   1      33.280  15.083  24.620  1.00  0.00    -0.166 F 
ENDBRANCH  32  34
ENDBRANCH  26  28
ENDBRANCH  15  18
ENDBRANCH   9  14
ENDBRANCH   5   8
ENDBRANCH   3   4
ENDBRANCH   2   3
ENDBRANCH   1   2
BRANCH   1  38
ATOM     38  C   UNL A   1      34.493  31.229  28.206  1.00  0.00     0.002 C 
BRANCH  38  39
ATOM     39  C   UNL A   1      33.874  32.255  27.249  1.00  0.00     0.021 C 
BRANCH  39  40
ATOM     40  C   UNL A   1      32.534  32.842  27.691  1.00  0.00     0.116 C 
BRANCH  40  41
ATOM     41  N   UNL A   1      32.597  34.282  27.867  1.00  0.00    -0.352 N 
ATOM     42  C   UNL A   1      33.390  35.037  28.699  1.00  0.00     0.251 C 
ATOM     43  H   UNL A   1      31.975  34.799  27.305  1.00  0.00     0.163 HD
ATOM     44  O   UNL A   1      33.139  36.227  28.846  1.00  0.00    -0.269 OA
BRANCH  42  45
ATOM     45  C   UNL A   1      34.524  34.419  29.428  1.00  0.00     0.039 A 
ATOM     46  C   UNL A   1      34.265  33.767  30.638  1.00  0.00     0.014 A 
ATOM     47  C   UNL A   1      35.836  34.505  28.954  1.00  0.00     0.014 A 
ATOM     48  C   UNL A   1      35.310  33.157  31.338  1.00  0.00     0.010 A 
ATOM     49  C   UNL A   1      36.865  33.833  29.615  1.00  0.00     0.010 A 
ATOM     50  C   UNL A   1      36.614  33.152  30.816  1.00  0.00    -0.014 A 
BRANCH  50  51
ATOM     51  C   UNL A   1      37.716  32.439  31.522  1.00  0.00     0.031 A 
ATOM     52  C   UNL A   1      38.402  31.264  30.878  1.00  0.00     0.074 A 
ATOM     53  C   UNL A   1      38.084  32.841  32.756  1.00  0.00     0.049 A 
ATOM     54  N   UNL A   1      39.358  30.503  31.349  1.00  0.00    -0.248 NA
ATOM     55  C   UNL A   1      37.939  30.877  29.536  1.00  0.00     0.031 C 
ATOM     56  C   UNL A   1      37.473  33.946  33.501  1.00  0.00     0.029 A 
ATOM     57  N   UNL A   1      39.059  32.374  33.604  1.00  0.00    -0.354 N 
ATOM     58  C   UNL A   1      39.619  29.561  30.361  1.00  0.00     0.074 A 
ATOM     59  C   UNL A   1      38.666  29.796  29.297  1.00  0.00     0.031 C 
ATOM     60  C   UNL A   1      38.109  34.090  34.674  1.00  0.00     0.029 A 
ATOM     61  C   UNL A   1      39.135  33.061  34.794  1.00  0.00     0.049 A 
ATOM     62  H   UNL A   1      39.648  31.618  33.380  1.00  0.00     0.167 HD
ATOM     63  C   UNL A   1      40.586  28.608  30.325  1.00  0.00     0.034 A 
ATOM     64  C   UNL A   1      39.935  32.877  35.866  1.00  0.00     0.034 A 
ATOM     65  C   UNL A   1      41.528  28.378  31.393  1.00  0.00     0.049 A 
ATOM     66  C   UNL A   1      40.964  31.772  35.822  1.00  0.00     0.074 A 
ATOM     67  C   UNL A   1      42.551  27.447  31.454  1.00  0.00     0.029 A 
ATOM     68  N   UNL A   1      41.567  29.085  32.587  1.00  0.00    -0.354 N 
ATOM     69  N   UNL A   1      41.219  30.917  34.858  1.00  0.00    -0.248 NA
ATOM     70  C   UNL A   1      41.823  31.621  37.003  1.00  0.00     0.031 C 
ATOM     71  C   UNL A   1      43.164  27.547  32.707  1.00  0.00     0.029 A 
ATOM     72  C   UNL A   1      42.580  28.595  33.399  1.00  0.00     0.049 A 
ATOM     73  H   UNL A   1      40.963  29.825  32.825  1.00  0.00     0.167 HD
ATOM     74  C   UNL A   1      42.296  30.154  35.306  1.00  0.00     0.074 A 
ATOM     75  C   UNL A   1      42.655  30.670  36.609  1.00  0.00     0.031 C 
ATOM     76  C   UNL A   1      42.930  29.119  34.698  1.00  0.00     0.034 A 
BRANCH  63  77
ATOM     77  C   UNL A   1      40.667  27.744  29.089  1.00  0.00     0.023 A 
ATOM     78  C   UNL A   1      41.590  28.020  28.065  1.00  0.00     0.031 A 
ATOM     79  C   UNL A   1      39.822  26.633  28.930  1.00  0.00     0.131 A 
ATOM     80  C   UNL A   1      41.604  27.236  26.902  1.00  0.00     0.055 A 
ATOM     81  C   UNL A   1      39.895  25.807  27.806  1.00  0.00     0.041 A 
ATOM     82  F   UNL A   1      38.905  26.330  29.864  1.00  0.00    -0.206 F 
ATOM     83  C   UNL A   1      40.783  26.113  26.778  1.00  0.00     0.022 A 
BRANCH  80  84
ATOM     84  S   UNL A   1      42.624  27.777  25.504  1.00  0.00     0.124 S 
ATOM     85  O   UNL A   1      43.899  28.056  26.161  1.00  0.00    -0.237 OA
ATOM     86  O   UNL A   1      42.599  26.614  24.625  1.00  0.00    -0.237 OA
ATOM     87  O   UNL A   1      41.919  28.954  25.002  1.00  0.00    -0.744 OA
ENDBRANCH  80  84
ENDBRANCH  63  77
BRANCH  64  88
ATOM     88  C   UNL A   1      39.798  33.733  37.082  1.00  0.00     0.023 A 
ATOM     89  C   UNL A   1      40.647  34.831  37.295  1.00  0.00     0.031 A 
ATOM     90  C   UNL A   1      38.880  33.410  38.097  1.00  0.00     0.131 A 
ATOM     91  C   UNL A   1      40.619  35.512  38.521  1.00  0.00     0.055 A 
ATOM     92  C   UNL A   1      38.803  34.139  39.286  1.00  0.00     0.041 A 
ATOM     93  F   UNL A   1      38.041  32.371  37.951  1.00  0.00    -0.206 F 
ATOM     94  C   UNL A   1      39.693  35.184  39.513  1.00  0.00     0.022 A 
BRANCH  91  95
ATOM     95  S   UNL A   1      41.914  36.738  38.861  1.00  0.00     0.124 S 
ATOM     96  O   UNL A   1      42.857  35.957  39.654  1.00  0.00    -0.237 OA
ATOM     97  O   UNL A   1      42.349  37.097  37.516  1.00  0.00    -0.237 OA
ATOM     98  O   UNL A   1      41.205  37.788  39.588  1.00  0.00    -0.744 OA
ENDBRANCH  91  95
ENDBRANCH  64  88
BRANCH  76  99
ATOM     99  C   UNL A   1      44.113  28.520  35.421  1.00  0.00     0.023 A 
ATOM    100  C   UNL A   1      43.961  27.496  36.372  1.00  0.00     0.031 A 
ATOM    101  C   UNL A   1      45.411  29.005  35.175  1.00  0.00     0.131 A 
ATOM    102  C   UNL A   1      45.073  27.043  37.097  1.00  0.00     0.055 A 
ATOM    103  C   UNL A   1      46.525  28.498  35.847  1.00  0.00     0.041 A 
ATOM    104  F   UNL A   1      45.618  29.983  34.280  1.00  0.00    -0.206 F 
ATOM    105  C   UNL A   1      46.357  27.524  36.827  1.00  0.00     0.022 A 
BRANCH 102 106
ATOM    106  S   UNL A   1      44.802  25.901  38.480  1.00  0.00     0.124 S 
ATOM    107  O   UNL A   1      44.641  24.625  37.792  1.00  0.00    -0.237 OA
ATOM    108  O   UNL A   1      46.027  26.056  39.257  1.00  0.00    -0.237 OA
ATOM    109  O   UNL A   1      43.593  26.419  39.119  1.00  0.00    -0.744 OA
ENDBRANCH 102 106
ENDBRANCH  76  99
ENDBRANCH  50  51
ENDBRANCH  42  45
ENDBRANCH  40  41
ENDBRANCH  39  40
ENDBRANCH  38  39
ENDBRANCH   1  38
TORSDOF 20
ENDMDL
MODEL 2
REMARK VINA RESULT:     -12.6      2.923      8.122
REMARK SMILES CN1C(=O)C[C@H](C(=O)Nc2ccc(C(=O)NCCCCCCNC(=O)c3ccc(-c4c5nc(c(-c6cc(S(=O)(=O)[O-])ccc6F)c6ccc([nH]6)c(-c6cc(S(=O)(=O)[O-])ccc6F)c6nc(c(-c7cc(S(=O)(=O)[O-])ccc7F)c7ccc4[nH]7)C=C6)C=C5)cc3)cc2)S/C1=[NH+]\c1cccc(C(F)(F)F)c1
REMARK SMILES IDX 19 1 18 2 17 3 16 4 14 5 15 6 13 8 10 9 11 10 90 11 12 12
REMARK SMILES IDX 89 13 9 14 7 15 8 16 6 18 1 19 2 20 3 21 92 22 4 23 5 24
REMARK SMILES IDX 91 25 93 26 94 28 95 29 103 30 96 31 98 32 97 33 99 34
REMARK SMILES IDX 100 35 101 36 102 37 20 38 21 39 22 40 23 41 24 42 25 44
REMARK SMILES IDX 26 45 27 46 88 47 28 48 87 49 29 50 30 51 31 52 81 53 32 54
REMARK SMILES IDX 86 55 80 56 82 57 33 58 85 59 79 60 78 61 34 63 66 64 46 65
REMARK SMILES IDX 65 66 47 67 50 68 64 69 83 70 48 71 49 72 63 74 84 75 51 76
REMARK SMILES IDX 35 77 36 78 44 79 37 80 43 81 45 82 42 83 38 84 39 85 40 86
REMARK SMILES IDX 41 87 67 88 68 89 76 90 69 91 75 92 77 93 74 94 70 95 71 96
REMARK SMILES IDX 72 97 73 98 52 99 53 100 61 101 54 102 60 103 62 104 59 105
REMARK SMILES IDX 55 106 56 107 57 108 58 109
REMARK H PARENT 16 7 9 17 93 27 23 43 82 62 50 73
REMARK Flexibility Score: inf
ROOT
ATOM      1  C   UNL A   1      35.207  32.301  28.608  1.00  0.00     0.002 C 
ENDROOT
BRANCH   1   2
ATOM      2  C   UNL A   1      36.011  31.147  28.001  1.00  0.00     0.021 C 
BRANCH   2   3
ATOM      3  C   UNL A   1      35.137  30.093  27.318  1.00  0.00     0.116 C 
BRANCH   3   4
ATOM      4  N   UNL A   1      33.910  30.676  26.817  1.00  0.00    -0.352 N 
ATOM      5  C   UNL A   1      32.772  30.110  26.290  1.00  0.00     0.251 C 
ATOM      6  O   UNL A   1      31.853  30.874  25.988  1.00  0.00    -0.269 OA
ATOM      7  H   UNL A   1      33.884  31.659  26.862  1.00  0.00     0.163 HD
BRANCH   5   8
ATOM      8  C   UNL A   1      32.553  28.630  26.166  1.00  0.00     0.039 A 
ATOM      9  C   UNL A   1      32.176  25.872  26.650  1.00  0.00     0.041 A 
ATOM     10  C   UNL A   1      31.106  26.767  26.765  1.00  0.00     0.027 A 
ATOM     11  C   UNL A   1      33.313  26.316  25.997  1.00  0.00     0.027 A 
ATOM     12  C   UNL A   1      31.308  28.141  26.579  1.00  0.00     0.016 A 
ATOM     13  C   UNL A   1      33.484  27.691  25.724  1.00  0.00     0.016 A 
BRANCH   9  14
ATOM     14  N   UNL A   1      31.972  24.581  27.149  1.00  0.00    -0.325 N 
ATOM     15  C   UNL A   1      32.384  23.313  26.882  1.00  0.00     0.238 C 
ATOM     16  O   UNL A   1      31.850  22.465  27.621  1.00  0.00    -0.273 OA
ATOM     17  H   UNL A   1      31.351  24.594  27.914  1.00  0.00     0.169 HD
BRANCH  15  18
ATOM     18  C   UNL A   1      33.454  22.794  25.918  1.00  0.00     0.160 C 
ATOM     19  C   UNL A   1      31.862  20.975  22.311  1.00  0.00     0.301 C 
ATOM     20  N   UNL A   1      32.510  21.674  23.408  1.00  0.00    -0.194 N 
ATOM     21  C   UNL A   1      32.653  20.871  24.544  1.00  0.00     0.311 C 
ATOM     22  C   UNL A   1      32.714  23.066  23.321  1.00  0.00     0.319 C 
ATOM     23  O   UNL A   1      32.049  19.804  24.682  1.00  0.00    -0.247 OA
ATOM     24  C   UNL A   1      33.553  21.329  25.638  1.00  0.00     0.153 C 
ATOM     25  S   UNL A   1      33.807  23.767  24.481  1.00  0.00    -0.024 SA
ATOM     26  N   UNL A   1      32.127  23.780  22.406  1.00  0.00    -0.235 N 
ATOM     27  H   UNL A   1      31.590  23.321  21.720  1.00  0.00     0.313 HD
BRANCH  26  28
ATOM     28  C   UNL A   1      32.229  25.194  22.358  1.00  0.00     0.126 A 
ATOM     29  C   UNL A   1      33.408  25.866  21.999  1.00  0.00     0.052 A 
ATOM     30  C   UNL A   1      31.142  25.979  22.727  1.00  0.00     0.064 A 
ATOM     31  C   UNL A   1      33.531  27.253  22.023  1.00  0.00     0.005 A 
ATOM     32  C   UNL A   1      31.220  27.388  22.701  1.00  0.00     0.060 A 
ATOM     33  C   UNL A   1      32.432  28.016  22.374  1.00  0.00     0.013 A 
BRANCH  32  34
ATOM     34  C   UNL A   1      30.011  28.238  22.973  1.00  0.00     0.416 C 
ATOM     35  F   UNL A   1      28.958  27.519  23.449  1.00  0.00    -0.166 F 
ATOM     36  F   UNL A   1      30.262  29.193  23.913  1.00  0.00    -0.166 F 
ATOM     37  F   UNL A   1      29.550  28.906  21.880  1.00  0.00    -0.166 F 
ENDBRANCH  32  34
ENDBRANCH  26  28
ENDBRANCH  15  18
ENDBRANCH   9  14
ENDBRANCH   5   8
ENDBRANCH   3   4
ENDBRANCH   2   3
ENDBRANCH   1   2
BRANCH   1  38
ATOM     38  C   UNL A   1      35.549  33.687  28.042  1.00  0.00     0.002 C 
BRANCH  38  39
ATOM     39  C   UNL A   1      34.490  34.774  28.258  1.00  0.00     0.021 C 
BRANCH  39  40
ATOM     40  C   UNL A   1      33.213  34.320  28.963  1.00  0.00     0.116 C 
BRANCH  40  41
ATOM     41  N   UNL A   1      32.892  35.154  30.109  1.00  0.00    -0.352 N 
ATOM     42  C   UNL A   1      33.412  35.146  31.381  1.00  0.00     0.251 C 
ATOM     43  H   UNL A   1      32.193  35.829  29.950  1.00  0.00     0.163 HD
ATOM     44  O   UNL A   1      32.855  35.794  32.259  1.00  0.00    -0.269 OA
BRANCH  42  45
ATOM     45  C   UNL A   1      34.621  34.347  31.699  1.00  0.00     0.039 A 
ATOM     46  C   UNL A   1      35.877  34.942  31.542  1.00  0.00     0.014 A 
ATOM     47  C   UNL A   1      34.532  33.015  32.113  1.00  0.00     0.014 A 
ATOM     48  C   UNL A   1      37.033  34.221  31.853  1.00  0.00     0.010 A 
ATOM     49  C   UNL A   1      35.682  32.322  32.493  1.00  0.00     0.010 A 
ATOM     50  C   UNL A   1      36.946  32.916  32.366  1.00  0.00    -0.014 A 
BRANCH  50  51
ATOM     51  C   UNL A   1      38.173  32.172  32.768  1.00  0.00     0.031 A 
ATOM     52  C   UNL A   1      38.855  32.473  34.077  1.00  0.00     0.074 A 
ATOM     53  C   UNL A   1      38.684  31.236  31.942  1.00  0.00     0.049 A 
ATOM     54  N   UNL A   1      39.944  31.951  34.582  1.00  0.00    -0.248 NA
ATOM     55  C   UNL A   1      38.245  33.513  34.920  1.00  0.00     0.031 C 
ATOM     56  C   UNL A   1      38.134  30.877  30.632  1.00  0.00     0.029 A 
ATOM     57  N   UNL A   1      39.776  30.414  32.076  1.00  0.00    -0.354 N 
ATOM     58  C   UNL A   1      40.142  32.586  35.803  1.00  0.00     0.074 A 
ATOM     59  C   UNL A   1      39.105  33.588  35.925  1.00  0.00     0.031 C 
ATOM     60  C   UNL A   1      38.870  29.887  30.102  1.00  0.00     0.029 A 
ATOM     61  C   UNL A   1      39.974  29.574  31.003  1.00  0.00     0.049 A 
ATOM     62  H   UNL A   1      40.363  30.424  32.866  1.00  0.00     0.167 HD
ATOM     63  C   UNL A   1      41.080  32.336  36.752  1.00  0.00     0.034 A 
ATOM     64  C   UNL A   1      40.940  28.663  30.766  1.00  0.00     0.034 A 
ATOM     65  C   UNL A   1      42.113  31.339  36.619  1.00  0.00     0.049 A 
ATOM     66  C   UNL A   1      42.005  28.445  31.816  1.00  0.00     0.074 A 
ATOM     67  C   UNL A   1      43.106  30.999  37.522  1.00  0.00     0.029 A 
ATOM     68  N   UNL A   1      42.289  30.517  35.513  1.00  0.00    -0.354 N 
ATOM     69  N   UNL A   1      42.149  29.032  32.982  1.00  0.00    -0.248 NA
ATOM     70  C   UNL A   1      43.026  27.431  31.522  1.00  0.00     0.031 C 
ATOM     71  C   UNL A   1      43.918  30.021  36.939  1.00  0.00     0.029 A 
ATOM     72  C   UNL A   1      43.387  29.689  35.704  1.00  0.00     0.049 A 
ATOM     73  H   UNL A   1      41.719  30.521  34.710  1.00  0.00     0.167 HD
ATOM     74  C   UNL A   1      43.255  28.425  33.575  1.00  0.00     0.074 A 
ATOM     75  C   UNL A   1      43.718  27.413  32.650  1.00  0.00     0.031 C 
ATOM     76  C   UNL A   1      43.838  28.682  34.774  1.00  0.00     0.034 A 
BRANCH  63  77
ATOM     77  C   UNL A   1      41.029  33.160  38.016  1.00  0.00     0.023 A 
ATOM     78  C   UNL A   1      40.176  32.814  39.079  1.00  0.00     0.031 A 
ATOM     79  C   UNL A   1      41.838  34.299  38.169  1.00  0.00     0.131 A 
ATOM     80  C   UNL A   1      40.106  33.630  40.219  1.00  0.00     0.055 A 
ATOM     81  C   UNL A   1      41.824  35.062  39.337  1.00  0.00     0.041 A 
ATOM     82  F   UNL A   1      42.658  34.693  37.179  1.00  0.00    -0.206 F 
ATOM     83  C   UNL A   1      40.945  34.736  40.367  1.00  0.00     0.022 A 
BRANCH  80  84
ATOM     84  S   UNL A   1      38.815  33.294  41.447  1.00  0.00     0.124 S 
ATOM     85  O   UNL A   1      37.698  32.890  40.596  1.00  0.00    -0.237 OA
ATOM     86  O   UNL A   1      39.415  32.240  42.256  1.00  0.00    -0.237 OA
ATOM     87  O   UNL A   1      38.643  34.578  42.122  1.00  0.00    -0.744 OA
ENDBRANCH  80  84
ENDBRANCH  63  77
BRANCH  64  88
ATOM     88  C   UNL A   1      40.973  27.893  29.487  1.00  0.00     0.023 A 
ATOM     89  C   UNL A   1      41.910  28.194  28.485  1.00  0.00     0.031 A 
ATOM     90  C   UNL A   1      40.008  26.909  29.206  1.00  0.00     0.131 A 
ATOM     91  C   UNL A   1      41.812  27.582  27.226  1.00  0.00     0.055 A 
ATOM     92  C   UNL A   1      39.962  26.247  27.977  1.00  0.00     0.041 A 
ATOM     93  F   UNL A   1      39.087  26.578  30.125  1.00  0.00    -0.206 F 
ATOM     94  C   UNL A   1      40.854  26.599  26.970  1.00  0.00     0.022 A 
BRANCH  91  95
ATOM     95  S   UNL A   1      42.861  28.197  25.879  1.00  0.00     0.124 S 
ATOM     96  O   UNL A   1      42.191  27.644  24.707  1.00  0.00    -0.237 OA
ATOM     97  O   UNL A   1      42.759  29.642  26.054  1.00  0.00    -0.237 OA
ATOM     98  O   UNL A   1      44.171  27.625  26.179  1.00  0.00    -0.744 OA
ENDBRANCH  91  95
ENDBRANCH  64  88
BRANCH  76  99
ATOM     99  C   UNL A   1      45.006  27.809  35.169  1.00  0.00     0.023 A 
ATOM    100  C   UNL A   1      44.824  26.572  35.812  1.00  0.00     0.031 A 
ATOM    101  C   UNL A   1      46.324  28.239  34.925  1.00  0.00     0.131 A 
ATOM    102  C   UNL A   1      45.938  25.845  36.258  1.00  0.00     0.055 A 
ATOM    103  C   UNL A   1      47.428  27.475  35.305  1.00  0.00     0.041 A 
ATOM    104  F   UNL A   1      46.559  29.412  34.316  1.00  0.00    -0.206 F 
ATOM    105  C   UNL A   1      47.239  26.279  35.991  1.00  0.00     0.022 A 
BRANCH 102 106
ATOM    106  S   UNL A   1      45.662  24.382  37.295  1.00  0.00     0.124 S 
ATOM    107  O   UNL A   1      45.011  23.468  36.363  1.00  0.00    -0.237 OA
ATOM    108  O   UNL A   1      47.018  24.024  37.697  1.00  0.00    -0.237 OA
ATOM    109  O   UNL A   1      44.808  24.883  38.372  1.00  0.00    -0.744 OA
ENDBRANCH 102 106
ENDBRANCH  76  99
ENDBRANCH  50  51
ENDBRANCH  42  45
ENDBRANCH  40  41
ENDBRANCH  39  40
ENDBRANCH  38  39
ENDBRANCH   1  38
TORSDOF 20
ENDMDL
MODEL 3
REMARK VINA RESULT:     -12.4      2.947      4.341
REMARK SMILES CN1C(=O)C[C@H](C(=O)Nc2ccc(C(=O)NCCCCCCNC(=O)c3ccc(-c4c5nc(c(-c6cc(S(=O)(=O)[O-])ccc6F)c6ccc([nH]6)c(-c6cc(S(=O)(=O)[O-])ccc6F)c6nc(c(-c7cc(S(=O)(=O)[O-])ccc7F)c7ccc4[nH]7)C=C6)C=C5)cc3)cc2)S/C1=[NH+]\c1cccc(C(F)(F)F)c1
REMARK SMILES IDX 19 1 18 2 17 3 16 4 14 5 15 6 13 8 10 9 11 10 90 11 12 12
REMARK SMILES IDX 89 13 9 14 7 15 8 16 6 18 1 19 2 20 3 21 92 22 4 23 5 24
REMARK SMILES IDX 91 25 93 26 94 28 95 29 103 30 96 31 98 32 97 33 99 34
REMARK SMILES IDX 100 35 101 36 102 37 20 38 21 39 22 40 23 41 24 42 25 44
REMARK SMILES IDX 26 45 27 46 88 47 28 48 87 49 29 50 30 51 31 52 81 53 32 54
REMARK SMILES IDX 86 55 80 56 82 57 33 58 85 59 79 60 78 61 34 63 66 64 46 65
REMARK SMILES IDX 65 66 47 67 50 68 64 69 83 70 48 71 49 72 63 74 84 75 51 76
REMARK SMILES IDX 35 77 36 78 44 79 37 80 43 81 45 82 42 83 38 84 39 85 40 86
REMARK SMILES IDX 41 87 67 88 68 89 76 90 69 91 75 92 77 93 74 94 70 95 71 96
REMARK SMILES IDX 72 97 73 98 52 99 53 100 61 101 54 102 60 103 62 104 59 105
REMARK SMILES IDX 55 106 56 107 57 108 58 109
REMARK H PARENT 16 7 9 17 93 27 23 43 82 62 50 73
REMARK Flexibility Score: inf
ROOT
ATOM      1  C   UNL A   1      35.703  32.288  28.828  1.00  0.00     0.002 C 
ENDROOT
BRANCH   1   2
ATOM      2  C   UNL A   1      35.895  31.123  27.850  1.00  0.00     0.021 C 
BRANCH   2   3
ATOM      3  C   UNL A   1      34.749  30.111  27.882  1.00  0.00     0.116 C 
BRANCH   3   4
ATOM      4  N   UNL A   1      33.602  30.595  27.142  1.00  0.00    -0.352 N 
ATOM      5  C   UNL A   1      32.671  29.946  26.364  1.00  0.00     0.251 C 
ATOM      6  O   UNL A   1      31.761  30.631  25.891  1.00  0.00    -0.269 OA
ATOM      7  H   UNL A   1      33.462  31.567  27.208  1.00  0.00     0.163 HD
BRANCH   5   8
ATOM      8  C   UNL A   1      32.642  28.460  26.156  1.00  0.00     0.039 A 
ATOM      9  C   UNL A   1      32.555  25.655  26.479  1.00  0.00     0.041 A 
ATOM     10  C   UNL A   1      31.379  26.414  26.528  1.00  0.00     0.027 A 
ATOM     11  C   UNL A   1      33.685  26.262  25.959  1.00  0.00     0.027 A 
ATOM     12  C   UNL A   1      31.432  27.810  26.423  1.00  0.00     0.016 A 
ATOM     13  C   UNL A   1      33.715  27.660  25.766  1.00  0.00     0.016 A 
BRANCH   9  14
ATOM     14  N   UNL A   1      32.461  24.323  26.899  1.00  0.00    -0.325 N 
ATOM     15  C   UNL A   1      32.879  23.098  26.485  1.00  0.00     0.238 C 
ATOM     16  O   UNL A   1      32.474  22.175  27.217  1.00  0.00    -0.273 OA
ATOM     17  H   UNL A   1      31.944  24.254  27.734  1.00  0.00     0.169 HD
BRANCH  15  18
ATOM     18  C   UNL A   1      33.832  22.697  25.356  1.00  0.00     0.160 C 
ATOM     19  C   UNL A   1      31.845  21.182  21.805  1.00  0.00     0.301 C 
ATOM     20  N   UNL A   1      32.610  21.792  22.880  1.00  0.00    -0.194 N 
ATOM     21  C   UNL A   1      32.900  20.891  23.909  1.00  0.00     0.311 C 
ATOM     22  C   UNL A   1      32.783  23.191  22.902  1.00  0.00     0.319 C 
ATOM     23  O   UNL A   1      32.331  19.801  24.015  1.00  0.00    -0.247 OA
ATOM     24  C   UNL A   1      33.918  21.267  24.928  1.00  0.00     0.153 C 
ATOM     25  S   UNL A   1      33.998  23.808  23.987  1.00  0.00    -0.024 SA
ATOM     26  N   UNL A   1      32.082  23.972  22.135  1.00  0.00    -0.235 N 
ATOM     27  H   UNL A   1      31.473  23.565  21.476  1.00  0.00     0.313 HD
BRANCH  26  28
ATOM     28  C   UNL A   1      32.158  25.386  22.210  1.00  0.00     0.126 A 
ATOM     29  C   UNL A   1      33.319  26.110  21.895  1.00  0.00     0.052 A 
ATOM     30  C   UNL A   1      31.063  26.115  22.662  1.00  0.00     0.064 A 
ATOM     31  C   UNL A   1      33.417  27.492  22.038  1.00  0.00     0.005 A 
ATOM     32  C   UNL A   1      31.116  27.522  22.759  1.00  0.00     0.060 A 
ATOM     33  C   UNL A   1      32.311  28.199  22.471  1.00  0.00     0.013 A 
BRANCH  32  34
ATOM     34  C   UNL A   1      29.896  28.322  23.122  1.00  0.00     0.416 C 
ATOM     35  F   UNL A   1      29.234  28.796  22.031  1.00  0.00    -0.166 F 
ATOM     36  F   UNL A   1      28.986  27.577  23.812  1.00  0.00    -0.166 F 
ATOM     37  F   UNL A   1      30.160  29.404  23.905  1.00  0.00    -0.166 F 
ENDBRANCH  32  34
ENDBRANCH  26  28
ENDBRANCH  15  18
ENDBRANCH   9  14
ENDBRANCH   5   8
ENDBRANCH   3   4
ENDBRANCH   2   3
ENDBRANCH   1   2
BRANCH   1  38
ATOM     38  C   UNL A   1      35.950  33.678  28.225  1.00  0.00     0.002 C 
BRANCH  38  39
ATOM     39  C   UNL A   1      34.825  34.701  28.427  1.00  0.00     0.021 C 
BRANCH  39  40
ATOM     40  C   UNL A   1      33.497  34.131  28.922  1.00  0.00     0.116 C 
BRANCH  40  41
ATOM     41  N   UNL A   1      32.940  34.908  30.015  1.00  0.00    -0.352 N 
ATOM     42  C   UNL A   1      33.296  34.948  31.343  1.00  0.00     0.251 C 
ATOM     43  H   UNL A   1      32.191  35.498  29.768  1.00  0.00     0.163 HD
ATOM     44  O   UNL A   1      32.561  35.516  32.142  1.00  0.00    -0.269 OA
BRANCH  42  45
ATOM     45  C   UNL A   1      34.541  34.294  31.812  1.00  0.00     0.039 A 
ATOM     46  C   UNL A   1      34.465  32.991  32.313  1.00  0.00     0.014 A 
ATOM     47  C   UNL A   1      35.770  34.960  31.795  1.00  0.00     0.014 A 
ATOM     48  C   UNL A   1      35.626  32.341  32.743  1.00  0.00     0.010 A 
ATOM     49  C   UNL A   1      36.937  34.284  32.154  1.00  0.00     0.010 A 
ATOM     50  C   UNL A   1      36.879  32.967  32.634  1.00  0.00    -0.014 A 
BRANCH  50  51
ATOM     51  C   UNL A   1      38.126  32.249  33.022  1.00  0.00     0.031 A 
ATOM     52  C   UNL A   1      38.695  31.173  32.136  1.00  0.00     0.074 A 
ATOM     53  C   UNL A   1      38.735  32.556  34.186  1.00  0.00     0.049 A 
ATOM     54  N   UNL A   1      39.751  30.422  32.320  1.00  0.00    -0.248 NA
ATOM     55  C   UNL A   1      37.970  30.887  30.888  1.00  0.00     0.031 C 
ATOM     56  C   UNL A   1      38.263  33.557  35.147  1.00  0.00     0.029 A 
ATOM     57  N   UNL A   1      39.881  32.064  34.761  1.00  0.00    -0.354 N 
ATOM     58  C   UNL A   1      39.826  29.587  31.210  1.00  0.00     0.074 A 
ATOM     59  C   UNL A   1      38.662  29.870  30.397  1.00  0.00     0.031 C 
ATOM     60  C   UNL A   1      39.128  33.626  36.171  1.00  0.00     0.029 A 
ATOM     61  C   UNL A   1      40.188  32.643  35.972  1.00  0.00     0.049 A 
ATOM     62  H   UNL A   1      40.432  31.361  34.346  1.00  0.00     0.167 HD
ATOM     63  C   UNL A   1      40.791  28.692  30.880  1.00  0.00     0.034 A 
ATOM     64  C   UNL A   1      41.201  32.404  36.830  1.00  0.00     0.034 A 
ATOM     65  C   UNL A   1      41.945  28.413  31.700  1.00  0.00     0.049 A 
ATOM     66  C   UNL A   1      42.230  31.360  36.463  1.00  0.00     0.074 A 
ATOM     67  C   UNL A   1      42.985  27.533  31.455  1.00  0.00     0.029 A 
ATOM     68  N   UNL A   1      42.215  29.010  32.924  1.00  0.00    -0.354 N 
ATOM     69  N   UNL A   1      42.300  30.609  35.388  1.00  0.00    -0.248 NA
ATOM     70  C   UNL A   1      43.324  31.146  37.419  1.00  0.00     0.031 C 
ATOM     71  C   UNL A   1      43.846  27.550  32.556  1.00  0.00     0.029 A 
ATOM     72  C   UNL A   1      43.392  28.500  33.455  1.00  0.00     0.049 A 
ATOM     73  H   UNL A   1      41.652  29.695  33.355  1.00  0.00     0.167 HD
ATOM     74  C   UNL A   1      43.471  29.864  35.524  1.00  0.00     0.074 A 
ATOM     75  C   UNL A   1      44.082  30.277  36.768  1.00  0.00     0.031 C 
ATOM     76  C   UNL A   1      43.992  28.922  34.698  1.00  0.00     0.034 A 
BRANCH  63  77
ATOM     77  C   UNL A   1      40.635  27.948  29.575  1.00  0.00     0.023 A 
ATOM     78  C   UNL A   1      41.507  28.176  28.496  1.00  0.00     0.031 A 
ATOM     79  C   UNL A   1      39.611  27.001  29.403  1.00  0.00     0.131 A 
ATOM     80  C   UNL A   1      41.303  27.514  27.276  1.00  0.00     0.055 A 
ATOM     81  C   UNL A   1      39.462  26.285  28.214  1.00  0.00     0.041 A 
ATOM     82  F   UNL A   1      38.733  26.755  30.390  1.00  0.00    -0.206 F 
ATOM     83  C   UNL A   1      40.304  26.548  27.136  1.00  0.00     0.022 A 
BRANCH  80  84
ATOM     84  S   UNL A   1      42.284  28.023  25.839  1.00  0.00     0.124 S 
ATOM     85  O   UNL A   1      41.954  26.979  24.872  1.00  0.00    -0.237 OA
ATOM     86  O   UNL A   1      41.756  29.351  25.550  1.00  0.00    -0.237 OA
ATOM     87  O   UNL A   1      43.659  27.992  26.335  1.00  0.00    -0.744 OA
ENDBRANCH  80  84
ENDBRANCH  63  77
BRANCH  64  88
ATOM     88  C   UNL A   1      41.299  33.138  38.126  1.00  0.00     0.023 A 
ATOM     89  C   UNL A   1      40.713  32.626  39.295  1.00  0.00     0.031 A 
ATOM     90  C   UNL A   1      41.898  34.408  38.198  1.00  0.00     0.131 A 
ATOM     91  C   UNL A   1      40.664  33.410  40.458  1.00  0.00     0.055 A 
ATOM     92  C   UNL A   1      41.914  35.154  39.378  1.00  0.00     0.041 A 
ATOM     93  F   UNL A   1      42.476  34.950  37.113  1.00  0.00    -0.206 F 
ATOM     94  C   UNL A   1      41.274  34.665  40.512  1.00  0.00     0.022 A 
BRANCH  91  95
ATOM     95  S   UNL A   1      39.660  32.830  41.853  1.00  0.00     0.124 S 
ATOM     96  O   UNL A   1      39.173  31.549  41.354  1.00  0.00    -0.237 OA
ATOM     97  O   UNL A   1      40.645  32.768  42.928  1.00  0.00    -0.237 OA
ATOM     98  O   UNL A   1      38.645  33.872  41.998  1.00  0.00    -0.744 OA
ENDBRANCH  91  95
ENDBRANCH  64  88
BRANCH  76  99
ATOM     99  C   UNL A   1      45.320  28.320  35.095  1.00  0.00     0.023 A 
ATOM    100  C   UNL A   1      45.401  27.156  35.880  1.00  0.00     0.031 A 
ATOM    101  C   UNL A   1      46.522  28.941  34.708  1.00  0.00     0.131 A 
ATOM    102  C   UNL A   1      46.652  26.693  36.317  1.00  0.00     0.055 A 
ATOM    103  C   UNL A   1      47.766  28.432  35.084  1.00  0.00     0.041 A 
ATOM    104  F   UNL A   1      46.506  30.055  33.960  1.00  0.00    -0.206 F 
ATOM    105  C   UNL A   1      47.835  27.312  35.907  1.00  0.00     0.022 A 
BRANCH 102 106
ATOM    106  S   UNL A   1      46.703  25.339  37.522  1.00  0.00     0.124 S 
ATOM    107  O   UNL A   1      46.686  26.061  38.790  1.00  0.00    -0.237 OA
ATOM    108  O   UNL A   1      45.494  24.588  37.200  1.00  0.00    -0.237 OA
ATOM    109  O   UNL A   1      47.958  24.654  37.215  1.00  0.00    -0.744 OA
ENDBRANCH 102 106
ENDBRANCH  76  99
ENDBRANCH  50  51
ENDBRANCH  42  45
ENDBRANCH  40  41
ENDBRANCH  39  40
ENDBRANCH  38  39
ENDBRANCH   1  38
TORSDOF 20
ENDMDL
