MODEL 1
REMARK VINA RESULT:     -10.6      0.000      0.000
REMARK SMILES O=C(Cc1ccccc1[N+](=O)[O-])N[C@@H]1C=C[C@H](C(=O)NCCCCCCNC(=O)c2ccc(-c3c4nc(c(-c5cc(S(=O)(=O)[O-])ccc5F)c5ccc([nH]5)c(-c5cc(S(=O)(=O)[O-])ccc5F)c5nc(c(-c6cc(S(=O)(=O)[O-])ccc6F)c6ccc3[nH]6)C=C5)C=C4)cc2)C1
REMARK SMILES IDX 23 1 22 2 21 3 20 4 18 5 19 6 17 8 14 9 15 10 93 11 16 12
REMARK SMILES IDX 13 13 1 14 2 15 3 17 4 18 5 19 9 20 6 21 8 22 7 23 10 24
REMARK SMILES IDX 11 25 12 26 24 27 25 28 26 29 27 30 28 31 29 33 30 34 31 35
REMARK SMILES IDX 92 36 32 37 91 38 33 39 34 40 35 41 85 42 36 43 90 44 84 45
REMARK SMILES IDX 86 46 37 47 89 48 83 49 82 50 38 52 70 53 50 54 69 55 51 56
REMARK SMILES IDX 54 57 68 58 87 59 52 60 53 61 67 63 88 64 55 65 39 66 40 67
REMARK SMILES IDX 48 68 41 69 47 70 49 71 46 72 42 73 43 74 44 75 45 76 71 77
REMARK SMILES IDX 72 78 80 79 73 80 79 81 81 82 78 83 74 84 75 85 76 86 77 87
REMARK SMILES IDX 56 88 57 89 65 90 58 91 64 92 66 93 63 94 59 95 60 96 61 97
REMARK SMILES IDX 62 98
REMARK H PARENT 20 7 13 16 27 32 86 51 54 62
REMARK Flexibility Score: inf
ROOT
ATOM      1  C   UNL A   1      38.574  22.560  26.102  1.00  0.00     0.002 C 
ENDROOT
BRANCH   1   2
ATOM      2  C   UNL A   1      37.743  23.847  26.163  1.00  0.00     0.021 C 
BRANCH   2   3
ATOM      3  C   UNL A   1      36.282  23.676  25.756  1.00  0.00     0.116 C 
BRANCH   3   4
ATOM      4  N   UNL A   1      35.492  22.989  26.756  1.00  0.00    -0.356 N 
ATOM      5  C   UNL A   1      34.695  21.893  26.666  1.00  0.00     0.227 C 
ATOM      6  O   UNL A   1      34.187  21.492  27.723  1.00  0.00    -0.274 OA
ATOM      7  H   UNL A   1      35.541  23.384  27.656  1.00  0.00     0.163 HD
BRANCH   5   8
ATOM      8  C   UNL A   1      34.463  21.087  25.374  1.00  0.00     0.103 C 
ATOM      9  C   UNL A   1      33.109  21.873  23.448  1.00  0.00     0.106 C 
ATOM     10  C   UNL A   1      32.465  20.753  24.187  1.00  0.00    -0.006 C 
ATOM     11  C   UNL A   1      34.496  21.974  24.116  1.00  0.00     0.047 C 
ATOM     12  C   UNL A   1      33.197  20.315  25.220  1.00  0.00    -0.016 C 
BRANCH   9  13
ATOM     13  N   UNL A   1      32.432  23.163  23.496  1.00  0.00    -0.350 N 
ATOM     14  O   UNL A   1      33.271  24.294  21.668  1.00  0.00    -0.275 OA
ATOM     15  C   UNL A   1      32.560  24.257  22.660  1.00  0.00     0.225 C 
ATOM     16  H   UNL A   1      31.788  23.272  24.234  1.00  0.00     0.164 HD
BRANCH  15  17
ATOM     17  C   UNL A   1      31.674  25.441  23.068  1.00  0.00     0.142 C 
BRANCH  17  18
ATOM     18  C   UNL A   1      32.414  26.525  23.833  1.00  0.00     0.039 A 
ATOM     19  C   UNL A   1      32.971  27.600  23.107  1.00  0.00     0.011 A 
ATOM     20  C   UNL A   1      32.554  26.570  25.236  1.00  0.00     0.273 A 
ATOM     21  C   UNL A   1      33.665  28.637  23.738  1.00  0.00     0.001 A 
ATOM     22  C   UNL A   1      33.234  27.627  25.874  1.00  0.00     0.086 A 
ATOM     23  C   UNL A   1      33.800  28.650  25.121  1.00  0.00     0.007 A 
BRANCH  20  24
ATOM     24  N   UNL A   1      32.029  25.523  26.110  1.00  0.00     0.063 N 
ATOM     25  O   UNL A   1      30.932  25.737  26.644  1.00  0.00    -0.258 OA
ATOM     26  O   UNL A   1      32.734  24.526  26.295  1.00  0.00    -0.258 OA
ENDBRANCH  20  24
ENDBRANCH  17  18
ENDBRANCH  15  17
ENDBRANCH   9  13
ENDBRANCH   5   8
ENDBRANCH   3   4
ENDBRANCH   2   3
ENDBRANCH   1   2
BRANCH   1  27
ATOM     27  C   UNL A   1      38.139  21.531  25.051  1.00  0.00     0.002 C 
BRANCH  27  28
ATOM     28  C   UNL A   1      38.837  20.172  25.134  1.00  0.00     0.021 C 
BRANCH  28  29
ATOM     29  C   UNL A   1      39.536  19.882  26.455  1.00  0.00     0.116 C 
BRANCH  29  30
ATOM     30  N   UNL A   1      40.818  19.233  26.217  1.00  0.00    -0.352 N 
ATOM     31  C   UNL A   1      42.048  19.787  25.950  1.00  0.00     0.251 C 
ATOM     32  H   UNL A   1      40.801  18.249  26.253  1.00  0.00     0.163 HD
ATOM     33  O   UNL A   1      42.907  19.079  25.428  1.00  0.00    -0.269 OA
BRANCH  31  34
ATOM     34  C   UNL A   1      42.353  21.202  26.283  1.00  0.00     0.039 A 
ATOM     35  C   UNL A   1      42.588  21.548  27.619  1.00  0.00     0.014 A 
ATOM     36  C   UNL A   1      42.325  22.208  25.314  1.00  0.00     0.014 A 
ATOM     37  C   UNL A   1      42.825  22.882  27.973  1.00  0.00     0.010 A 
ATOM     38  C   UNL A   1      42.643  23.524  25.654  1.00  0.00     0.010 A 
ATOM     39  C   UNL A   1      42.877  23.882  26.990  1.00  0.00    -0.014 A 
BRANCH  39  40
ATOM     40  C   UNL A   1      43.133  25.311  27.331  1.00  0.00     0.031 A 
ATOM     41  C   UNL A   1      44.522  25.880  27.196  1.00  0.00     0.074 A 
ATOM     42  C   UNL A   1      42.139  26.077  27.823  1.00  0.00     0.049 A 
ATOM     43  N   UNL A   1      44.983  27.049  27.565  1.00  0.00    -0.248 NA
ATOM     44  C   UNL A   1      45.535  25.003  26.589  1.00  0.00     0.031 C 
ATOM     45  C   UNL A   1      40.756  25.643  28.023  1.00  0.00     0.029 A 
ATOM     46  N   UNL A   1      42.144  27.380  28.260  1.00  0.00    -0.354 N 
ATOM     47  C   UNL A   1      46.341  27.038  27.261  1.00  0.00     0.074 A 
ATOM     48  C   UNL A   1      46.636  25.725  26.726  1.00  0.00     0.031 C 
ATOM     49  C   UNL A   1      40.042  26.664  28.524  1.00  0.00     0.029 A 
ATOM     50  C   UNL A   1      40.925  27.807  28.735  1.00  0.00     0.049 A 
ATOM     51  H   UNL A   1      42.943  27.953  28.235  1.00  0.00     0.167 HD
ATOM     52  C   UNL A   1      47.252  28.034  27.395  1.00  0.00     0.034 A 
ATOM     53  C   UNL A   1      40.564  28.978  29.300  1.00  0.00     0.034 A 
ATOM     54  C   UNL A   1      46.940  29.345  27.912  1.00  0.00     0.049 A 
ATOM     55  C   UNL A   1      41.602  30.058  29.475  1.00  0.00     0.074 A 
ATOM     56  C   UNL A   1      47.774  30.443  28.045  1.00  0.00     0.029 A 
ATOM     57  N   UNL A   1      45.694  29.737  28.387  1.00  0.00    -0.354 N 
ATOM     58  N   UNL A   1      42.877  30.040  29.160  1.00  0.00    -0.248 NA
ATOM     59  C   UNL A   1      41.150  31.319  30.079  1.00  0.00     0.031 C 
ATOM     60  C   UNL A   1      47.054  31.473  28.657  1.00  0.00     0.029 A 
ATOM     61  C   UNL A   1      45.747  31.048  28.839  1.00  0.00     0.049 A 
ATOM     62  H   UNL A   1      44.891  29.168  28.402  1.00  0.00     0.167 HD
ATOM     63  C   UNL A   1      43.369  31.298  29.500  1.00  0.00     0.074 A 
ATOM     64  C   UNL A   1      42.253  32.051  30.031  1.00  0.00     0.031 C 
ATOM     65  C   UNL A   1      44.629  31.787  29.377  1.00  0.00     0.034 A 
BRANCH  52  66
ATOM     66  C   UNL A   1      48.681  27.730  27.003  1.00  0.00     0.023 A 
ATOM     67  C   UNL A   1      49.196  28.089  25.745  1.00  0.00     0.031 A 
ATOM     68  C   UNL A   1      49.533  27.048  27.890  1.00  0.00     0.131 A 
ATOM     69  C   UNL A   1      50.494  27.699  25.381  1.00  0.00     0.055 A 
ATOM     70  C   UNL A   1      50.853  26.736  27.552  1.00  0.00     0.041 A 
ATOM     71  F   UNL A   1      49.097  26.662  29.099  1.00  0.00    -0.206 F 
ATOM     72  C   UNL A   1      51.335  27.048  26.285  1.00  0.00     0.022 A 
BRANCH  69  73
ATOM     73  S   UNL A   1      51.015  27.928  23.659  1.00  0.00     0.124 S 
ATOM     74  O   UNL A   1      51.964  26.829  23.488  1.00  0.00    -0.237 OA
ATOM     75  O   UNL A   1      49.759  27.807  22.929  1.00  0.00    -0.237 OA
ATOM     76  O   UNL A   1      51.613  29.262  23.656  1.00  0.00    -0.744 OA
ENDBRANCH  69  73
ENDBRANCH  52  66
BRANCH  53  77
ATOM     77  C   UNL A   1      39.163  29.191  29.766  1.00  0.00     0.023 A 
ATOM     78  C   UNL A   1      38.263  29.962  29.013  1.00  0.00     0.031 A 
ATOM     79  C   UNL A   1      38.717  28.663  30.989  1.00  0.00     0.131 A 
ATOM     80  C   UNL A   1      36.976  30.220  29.513  1.00  0.00     0.055 A 
ATOM     81  C   UNL A   1      37.420  28.877  31.456  1.00  0.00     0.041 A 
ATOM     82  F   UNL A   1      39.538  27.919  31.749  1.00  0.00    -0.206 F 
ATOM     83  C   UNL A   1      36.544  29.671  30.722  1.00  0.00     0.022 A 
BRANCH  80  84
ATOM     84  S   UNL A   1      35.901  31.358  28.598  1.00  0.00     0.124 S 
ATOM     85  O   UNL A   1      36.795  32.483  28.354  1.00  0.00    -0.237 OA
ATOM     86  O   UNL A   1      35.538  30.560  27.430  1.00  0.00    -0.237 OA
ATOM     87  O   UNL A   1      34.808  31.621  29.532  1.00  0.00    -0.744 OA
ENDBRANCH  80  84
ENDBRANCH  53  77
BRANCH  65  88
ATOM     88  C   UNL A   1      44.850  33.224  29.782  1.00  0.00     0.023 A 
ATOM     89  C   UNL A   1      44.689  34.285  28.875  1.00  0.00     0.031 A 
ATOM     90  C   UNL A   1      45.237  33.532  31.099  1.00  0.00     0.131 A 
ATOM     91  C   UNL A   1      44.962  35.600  29.282  1.00  0.00     0.055 A 
ATOM     92  C   UNL A   1      45.452  34.847  31.514  1.00  0.00     0.041 A 
ATOM     93  F   UNL A   1      45.408  32.558  32.007  1.00  0.00    -0.206 F 
ATOM     94  C   UNL A   1      45.326  35.889  30.600  1.00  0.00     0.022 A 
BRANCH  91  95
ATOM     95  S   UNL A   1      44.914  36.925  28.044  1.00  0.00     0.124 S 
ATOM     96  O   UNL A   1      43.639  36.677  27.380  1.00  0.00    -0.237 OA
ATOM     97  O   UNL A   1      44.980  38.128  28.870  1.00  0.00    -0.237 OA
ATOM     98  O   UNL A   1      46.100  36.674  27.225  1.00  0.00    -0.744 OA
ENDBRANCH  91  95
ENDBRANCH  65  88
ENDBRANCH  39  40
ENDBRANCH  31  34
ENDBRANCH  29  30
ENDBRANCH  28  29
ENDBRANCH  27  28
ENDBRANCH   1  27
TORSDOF 20
ENDMDL
MODEL 2
REMARK VINA RESULT:     -10.5      1.781      2.152
REMARK SMILES O=C(Cc1ccccc1[N+](=O)[O-])N[C@@H]1C=C[C@H](C(=O)NCCCCCCNC(=O)c2ccc(-c3c4nc(c(-c5cc(S(=O)(=O)[O-])ccc5F)c5ccc([nH]5)c(-c5cc(S(=O)(=O)[O-])ccc5F)c5nc(c(-c6cc(S(=O)(=O)[O-])ccc6F)c6ccc3[nH]6)C=C5)C=C4)cc2)C1
REMARK SMILES IDX 23 1 22 2 21 3 20 4 18 5 19 6 17 8 14 9 15 10 93 11 16 12
REMARK SMILES IDX 13 13 1 14 2 15 3 17 4 18 5 19 9 20 6 21 8 22 7 23 10 24
REMARK SMILES IDX 11 25 12 26 24 27 25 28 26 29 27 30 28 31 29 33 30 34 31 35
REMARK SMILES IDX 92 36 32 37 91 38 33 39 34 40 35 41 85 42 36 43 90 44 84 45
REMARK SMILES IDX 86 46 37 47 89 48 83 49 82 50 38 52 70 53 50 54 69 55 51 56
REMARK SMILES IDX 54 57 68 58 87 59 52 60 53 61 67 63 88 64 55 65 39 66 40 67
REMARK SMILES IDX 48 68 41 69 47 70 49 71 46 72 42 73 43 74 44 75 45 76 71 77
REMARK SMILES IDX 72 78 80 79 73 80 79 81 81 82 78 83 74 84 75 85 76 86 77 87
REMARK SMILES IDX 56 88 57 89 65 90 58 91 64 92 66 93 63 94 59 95 60 96 61 97
REMARK SMILES IDX 62 98
REMARK H PARENT 20 7 13 16 27 32 86 51 54 62
REMARK Flexibility Score: inf
ROOT
ATOM      1  C   UNL A   1      39.892  22.437  26.749  1.00  0.00     0.002 C 
ENDROOT
BRANCH   1   2
ATOM      2  C   UNL A   1      38.744  21.869  25.907  1.00  0.00     0.021 C 
BRANCH   2   3
ATOM      3  C   UNL A   1      37.807  22.922  25.324  1.00  0.00     0.116 C 
BRANCH   3   4
ATOM      4  N   UNL A   1      36.581  23.071  26.080  1.00  0.00    -0.356 N 
ATOM      5  C   UNL A   1      35.310  22.675  25.809  1.00  0.00     0.227 C 
ATOM      6  O   UNL A   1      34.466  22.891  26.689  1.00  0.00    -0.274 OA
ATOM      7  H   UNL A   1      36.687  23.540  26.938  1.00  0.00     0.163 HD
BRANCH   5   8
ATOM      8  C   UNL A   1      34.888  21.911  24.540  1.00  0.00     0.103 C 
ATOM      9  C   UNL A   1      33.313  22.783  22.831  1.00  0.00     0.106 C 
ATOM     10  C   UNL A   1      32.742  21.658  23.621  1.00  0.00    -0.006 C 
ATOM     11  C   UNL A   1      34.778  22.831  23.311  1.00  0.00     0.047 C 
ATOM     12  C   UNL A   1      33.591  21.175  24.537  1.00  0.00    -0.016 C 
BRANCH   9  13
ATOM     13  N   UNL A   1      32.684  24.087  23.000  1.00  0.00    -0.350 N 
ATOM     14  O   UNL A   1      33.276  25.236  21.088  1.00  0.00    -0.275 OA
ATOM     15  C   UNL A   1      32.717  25.195  22.173  1.00  0.00     0.225 C 
ATOM     16  H   UNL A   1      32.158  24.196  23.826  1.00  0.00     0.164 HD
BRANCH  15  17
ATOM     17  C   UNL A   1      31.932  26.390  22.727  1.00  0.00     0.142 C 
BRANCH  17  18
ATOM     18  C   UNL A   1      32.387  26.837  24.106  1.00  0.00     0.039 A 
ATOM     19  C   UNL A   1      33.456  27.753  24.197  1.00  0.00     0.011 A 
ATOM     20  C   UNL A   1      31.790  26.438  25.320  1.00  0.00     0.273 A 
ATOM     21  C   UNL A   1      33.931  28.214  25.430  1.00  0.00     0.001 A 
ATOM     22  C   UNL A   1      32.254  26.919  26.561  1.00  0.00     0.086 A 
ATOM     23  C   UNL A   1      33.334  27.794  26.612  1.00  0.00     0.007 A 
BRANCH  20  24
ATOM     24  N   UNL A   1      30.677  25.492  25.373  1.00  0.00     0.063 N 
ATOM     25  O   UNL A   1      29.539  25.972  25.475  1.00  0.00    -0.258 OA
ATOM     26  O   UNL A   1      30.950  24.287  25.366  1.00  0.00    -0.258 OA
ENDBRANCH  20  24
ENDBRANCH  17  18
ENDBRANCH  15  17
ENDBRANCH   9  13
ENDBRANCH   5   8
ENDBRANCH   3   4
ENDBRANCH   2   3
ENDBRANCH   1   2
BRANCH   1  27
ATOM     27  C   UNL A   1      40.879  21.408  27.316  1.00  0.00     0.002 C 
BRANCH  27  28
ATOM     28  C   UNL A   1      41.053  20.136  26.484  1.00  0.00     0.021 C 
BRANCH  28  29
ATOM     29  C   UNL A   1      42.140  19.188  26.970  1.00  0.00     0.116 C 
BRANCH  29  30
ATOM     30  N   UNL A   1      43.121  18.962  25.918  1.00  0.00    -0.352 N 
ATOM     31  C   UNL A   1      43.783  19.869  25.124  1.00  0.00     0.251 C 
ATOM     32  H   UNL A   1      43.345  18.017  25.751  1.00  0.00     0.163 HD
ATOM     33  O   UNL A   1      44.283  19.471  24.073  1.00  0.00    -0.269 OA
BRANCH  31  34
ATOM     34  C   UNL A   1      43.910  21.297  25.513  1.00  0.00     0.039 A 
ATOM     35  C   UNL A   1      43.438  22.283  24.638  1.00  0.00     0.014 A 
ATOM     36  C   UNL A   1      44.565  21.684  26.685  1.00  0.00     0.014 A 
ATOM     37  C   UNL A   1      43.592  23.639  24.951  1.00  0.00     0.010 A 
ATOM     38  C   UNL A   1      44.644  23.033  27.037  1.00  0.00     0.010 A 
ATOM     39  C   UNL A   1      44.177  24.029  26.165  1.00  0.00    -0.014 A 
BRANCH  39  40
ATOM     40  C   UNL A   1      44.351  25.463  26.532  1.00  0.00     0.031 A 
ATOM     41  C   UNL A   1      45.700  26.120  26.384  1.00  0.00     0.074 A 
ATOM     42  C   UNL A   1      43.321  26.157  27.057  1.00  0.00     0.049 A 
ATOM     43  N   UNL A   1      46.095  27.307  26.769  1.00  0.00    -0.248 NA
ATOM     44  C   UNL A   1      46.753  25.319  25.742  1.00  0.00     0.031 C 
ATOM     45  C   UNL A   1      41.972  25.634  27.272  1.00  0.00     0.029 A 
ATOM     46  N   UNL A   1      43.254  27.448  27.521  1.00  0.00    -0.354 N 
ATOM     47  C   UNL A   1      47.445  27.386  26.441  1.00  0.00     0.074 A 
ATOM     48  C   UNL A   1      47.810  26.104  25.874  1.00  0.00     0.031 C 
ATOM     49  C   UNL A   1      41.206  26.600  27.806  1.00  0.00     0.029 A 
ATOM     50  C   UNL A   1      42.021  27.791  28.026  1.00  0.00     0.049 A 
ATOM     51  H   UNL A   1      44.017  28.070  27.494  1.00  0.00     0.167 HD
ATOM     52  C   UNL A   1      48.296  28.433  26.581  1.00  0.00     0.034 A 
ATOM     53  C   UNL A   1      41.599  28.925  28.621  1.00  0.00     0.034 A 
ATOM     54  C   UNL A   1      47.914  29.712  27.131  1.00  0.00     0.049 A 
ATOM     55  C   UNL A   1      42.572  30.064  28.800  1.00  0.00     0.074 A 
ATOM     56  C   UNL A   1      48.682  30.856  27.271  1.00  0.00     0.029 A 
ATOM     57  N   UNL A   1      46.656  30.017  27.635  1.00  0.00    -0.354 N 
ATOM     58  N   UNL A   1      43.839  30.131  28.463  1.00  0.00    -0.248 NA
ATOM     59  C   UNL A   1      42.055  31.282  29.438  1.00  0.00     0.031 C 
ATOM     60  C   UNL A   1      47.911  31.828  27.917  1.00  0.00     0.029 A 
ATOM     61  C   UNL A   1      46.637  31.319  28.113  1.00  0.00     0.049 A 
ATOM     62  H   UNL A   1      45.889  29.400  27.652  1.00  0.00     0.167 HD
ATOM     63  C   UNL A   1      44.260  31.409  28.821  1.00  0.00     0.074 A 
ATOM     64  C   UNL A   1      43.110  32.082  29.387  1.00  0.00     0.031 C 
ATOM     65  C   UNL A   1      45.486  31.978  28.686  1.00  0.00     0.034 A 
BRANCH  52  66
ATOM     66  C   UNL A   1      49.733  28.225  26.158  1.00  0.00     0.023 A 
ATOM     67  C   UNL A   1      50.167  28.502  24.850  1.00  0.00     0.031 A 
ATOM     68  C   UNL A   1      50.678  27.720  27.068  1.00  0.00     0.131 A 
ATOM     69  C   UNL A   1      51.483  28.199  24.468  1.00  0.00     0.055 A 
ATOM     70  C   UNL A   1      52.009  27.499  26.705  1.00  0.00     0.041 A 
ATOM     71  F   UNL A   1      50.323  27.419  28.328  1.00  0.00    -0.206 F 
ATOM     72  C   UNL A   1      52.415  27.725  25.393  1.00  0.00     0.022 A 
BRANCH  69  73
ATOM     73  S   UNL A   1      51.920  28.300  22.710  1.00  0.00     0.124 S 
ATOM     74  O   UNL A   1      51.326  29.581  22.332  1.00  0.00    -0.237 OA
ATOM     75  O   UNL A   1      53.376  28.256  22.743  1.00  0.00    -0.237 OA
ATOM     76  O   UNL A   1      51.273  27.127  22.128  1.00  0.00    -0.744 OA
ENDBRANCH  69  73
ENDBRANCH  52  66
BRANCH  53  77
ATOM     77  C   UNL A   1      40.197  29.042  29.115  1.00  0.00     0.023 A 
ATOM     78  C   UNL A   1      39.899  28.898  30.480  1.00  0.00     0.031 A 
ATOM     79  C   UNL A   1      39.130  29.255  28.227  1.00  0.00     0.131 A 
ATOM     80  C   UNL A   1      38.563  28.926  30.911  1.00  0.00     0.055 A 
ATOM     81  C   UNL A   1      37.808  29.336  28.667  1.00  0.00     0.041 A 
ATOM     82  F   UNL A   1      39.359  29.399  26.911  1.00  0.00    -0.206 F 
ATOM     83  C   UNL A   1      37.517  29.158  30.015  1.00  0.00     0.022 A 
BRANCH  80  84
ATOM     84  S   UNL A   1      38.204  28.567  32.652  1.00  0.00     0.124 S 
ATOM     85  O   UNL A   1      36.924  29.238  32.837  1.00  0.00    -0.237 OA
ATOM     86  O   UNL A   1      38.173  27.108  32.662  1.00  0.00    -0.237 OA
ATOM     87  O   UNL A   1      39.332  29.167  33.363  1.00  0.00    -0.744 OA
ENDBRANCH  80  84
ENDBRANCH  53  77
BRANCH  65  88
ATOM     88  C   UNL A   1      45.626  33.417  29.118  1.00  0.00     0.023 A 
ATOM     89  C   UNL A   1      45.373  34.484  28.239  1.00  0.00     0.031 A 
ATOM     90  C   UNL A   1      46.028  33.722  30.430  1.00  0.00     0.131 A 
ATOM     91  C   UNL A   1      45.572  35.805  28.667  1.00  0.00     0.055 A 
ATOM     92  C   UNL A   1      46.170  35.040  30.869  1.00  0.00     0.041 A 
ATOM     93  F   UNL A   1      46.285  32.743  31.312  1.00  0.00    -0.206 F 
ATOM     94  C   UNL A   1      45.953  36.090  29.982  1.00  0.00     0.022 A 
BRANCH  91  95
ATOM     95  S   UNL A   1      45.407  37.150  27.461  1.00  0.00     0.124 S 
ATOM     96  O   UNL A   1      44.012  37.024  27.053  1.00  0.00    -0.237 OA
ATOM     97  O   UNL A   1      45.734  38.328  28.258  1.00  0.00    -0.237 OA
ATOM     98  O   UNL A   1      46.387  36.810  26.431  1.00  0.00    -0.744 OA
ENDBRANCH  91  95
ENDBRANCH  65  88
ENDBRANCH  39  40
ENDBRANCH  31  34
ENDBRANCH  29  30
ENDBRANCH  28  29
ENDBRANCH  27  28
ENDBRANCH   1  27
TORSDOF 20
ENDMDL
MODEL 3
REMARK VINA RESULT:     -10.4      2.292      7.900
REMARK SMILES O=C(Cc1ccccc1[N+](=O)[O-])N[C@@H]1C=C[C@H](C(=O)NCCCCCCNC(=O)c2ccc(-c3c4nc(c(-c5cc(S(=O)(=O)[O-])ccc5F)c5ccc([nH]5)c(-c5cc(S(=O)(=O)[O-])ccc5F)c5nc(c(-c6cc(S(=O)(=O)[O-])ccc6F)c6ccc3[nH]6)C=C5)C=C4)cc2)C1
REMARK SMILES IDX 23 1 22 2 21 3 20 4 18 5 19 6 17 8 14 9 15 10 93 11 16 12
REMARK SMILES IDX 13 13 1 14 2 15 3 17 4 18 5 19 9 20 6 21 8 22 7 23 10 24
REMARK SMILES IDX 11 25 12 26 24 27 25 28 26 29 27 30 28 31 29 33 30 34 31 35
REMARK SMILES IDX 92 36 32 37 91 38 33 39 34 40 35 41 85 42 36 43 90 44 84 45
REMARK SMILES IDX 86 46 37 47 89 48 83 49 82 50 38 52 70 53 50 54 69 55 51 56
REMARK SMILES IDX 54 57 68 58 87 59 52 60 53 61 67 63 88 64 55 65 39 66 40 67
REMARK SMILES IDX 48 68 41 69 47 70 49 71 46 72 42 73 43 74 44 75 45 76 71 77
REMARK SMILES IDX 72 78 80 79 73 80 79 81 81 82 78 83 74 84 75 85 76 86 77 87
REMARK SMILES IDX 56 88 57 89 65 90 58 91 64 92 66 93 63 94 59 95 60 96 61 97
REMARK SMILES IDX 62 98
REMARK H PARENT 20 7 13 16 27 32 86 51 54 62
REMARK Flexibility Score: inf
ROOT
ATOM      1  C   UNL A   1      36.920  21.907  25.016  1.00  0.00     0.002 C 
ENDROOT
BRANCH   1   2
ATOM      2  C   UNL A   1      36.206  22.659  23.887  1.00  0.00     0.021 C 
BRANCH   2   3
ATOM      3  C   UNL A   1      34.734  22.958  24.159  1.00  0.00     0.116 C 
BRANCH   3   4
ATOM      4  N   UNL A   1      33.836  22.052  23.475  1.00  0.00    -0.356 N 
ATOM      5  C   UNL A   1      32.832  21.266  23.944  1.00  0.00     0.227 C 
ATOM      6  O   UNL A   1      32.186  20.634  23.097  1.00  0.00    -0.274 OA
ATOM      7  H   UNL A   1      33.977  21.995  22.503  1.00  0.00     0.163 HD
BRANCH   5   8
ATOM      8  C   UNL A   1      32.406  21.186  25.422  1.00  0.00     0.103 C 
ATOM      9  C   UNL A   1      31.889  23.151  26.847  1.00  0.00     0.106 C 
ATOM     10  C   UNL A   1      33.153  22.469  27.240  1.00  0.00    -0.006 C 
ATOM     11  C   UNL A   1      31.310  22.207  25.773  1.00  0.00     0.047 C 
ATOM     12  C   UNL A   1      33.431  21.400  26.483  1.00  0.00    -0.016 C 
BRANCH   9  13
ATOM     13  N   UNL A   1      32.013  24.503  26.317  1.00  0.00    -0.350 N 
ATOM     14  O   UNL A   1      29.944  25.444  26.723  1.00  0.00    -0.275 OA
ATOM     15  C   UNL A   1      31.074  25.517  26.264  1.00  0.00     0.225 C 
ATOM     16  H   UNL A   1      32.894  24.727  25.940  1.00  0.00     0.164 HD
BRANCH  15  17
ATOM     17  C   UNL A   1      31.600  26.797  25.604  1.00  0.00     0.142 C 
BRANCH  17  18
ATOM     18  C   UNL A   1      31.958  26.628  24.137  1.00  0.00     0.039 A 
ATOM     19  C   UNL A   1      33.274  26.238  23.807  1.00  0.00     0.011 A 
ATOM     20  C   UNL A   1      31.057  26.787  23.063  1.00  0.00     0.273 A 
ATOM     21  C   UNL A   1      33.680  26.059  22.480  1.00  0.00     0.001 A 
ATOM     22  C   UNL A   1      31.461  26.586  21.728  1.00  0.00     0.086 A 
ATOM     23  C   UNL A   1      32.776  26.236  21.440  1.00  0.00     0.007 A 
BRANCH  20  24
ATOM     24  N   UNL A   1      29.666  27.191  23.260  1.00  0.00     0.063 N 
ATOM     25  O   UNL A   1      29.379  28.363  22.985  1.00  0.00    -0.258 OA
ATOM     26  O   UNL A   1      28.890  26.354  23.734  1.00  0.00    -0.258 OA
ENDBRANCH  20  24
ENDBRANCH  17  18
ENDBRANCH  15  17
ENDBRANCH   9  13
ENDBRANCH   5   8
ENDBRANCH   3   4
ENDBRANCH   2   3
ENDBRANCH   1   2
BRANCH   1  27
ATOM     27  C   UNL A   1      36.823  20.377  24.968  1.00  0.00     0.002 C 
BRANCH  27  28
ATOM     28  C   UNL A   1      38.161  19.635  24.931  1.00  0.00     0.021 C 
BRANCH  28  29
ATOM     29  C   UNL A   1      39.269  20.253  25.773  1.00  0.00     0.116 C 
BRANCH  29  30
ATOM     30  N   UNL A   1      40.359  19.305  25.948  1.00  0.00    -0.352 N 
ATOM     31  C   UNL A   1      41.716  19.525  26.001  1.00  0.00     0.251 C 
ATOM     32  H   UNL A   1      40.084  18.364  26.043  1.00  0.00     0.163 HD
ATOM     33  O   UNL A   1      42.471  18.577  25.790  1.00  0.00    -0.269 OA
BRANCH  31  34
ATOM     34  C   UNL A   1      42.275  20.865  26.313  1.00  0.00     0.039 A 
ATOM     35  C   UNL A   1      42.518  21.205  27.649  1.00  0.00     0.014 A 
ATOM     36  C   UNL A   1      42.481  21.825  25.318  1.00  0.00     0.014 A 
ATOM     37  C   UNL A   1      42.994  22.479  27.980  1.00  0.00     0.010 A 
ATOM     38  C   UNL A   1      43.034  23.066  25.639  1.00  0.00     0.010 A 
ATOM     39  C   UNL A   1      43.279  23.417  26.975  1.00  0.00    -0.014 A 
BRANCH  39  40
ATOM     40  C   UNL A   1      43.792  24.780  27.292  1.00  0.00     0.031 A 
ATOM     41  C   UNL A   1      42.856  25.829  27.838  1.00  0.00     0.074 A 
ATOM     42  C   UNL A   1      45.075  25.098  27.031  1.00  0.00     0.049 A 
ATOM     43  N   UNL A   1      43.065  27.103  28.051  1.00  0.00    -0.248 NA
ATOM     44  C   UNL A   1      41.491  25.386  28.160  1.00  0.00     0.031 C 
ATOM     45  C   UNL A   1      46.078  24.184  26.483  1.00  0.00     0.029 A 
ATOM     46  N   UNL A   1      45.752  26.285  27.175  1.00  0.00    -0.354 N 
ATOM     47  C   UNL A   1      41.856  27.620  28.505  1.00  0.00     0.074 A 
ATOM     48  C   UNL A   1      40.905  26.528  28.485  1.00  0.00     0.031 C 
ATOM     49  C   UNL A   1      47.246  24.836  26.357  1.00  0.00     0.029 A 
ATOM     50  C   UNL A   1      47.063  26.228  26.759  1.00  0.00     0.049 A 
ATOM     51  H   UNL A   1      45.339  27.099  27.544  1.00  0.00     0.167 HD
ATOM     52  C   UNL A   1      41.568  28.879  28.919  1.00  0.00     0.034 A 
ATOM     53  C   UNL A   1      48.004  27.191  26.684  1.00  0.00     0.034 A 
ATOM     54  C   UNL A   1      42.532  29.954  28.952  1.00  0.00     0.049 A 
ATOM     55  C   UNL A   1      47.652  28.594  27.114  1.00  0.00     0.074 A 
ATOM     56  C   UNL A   1      42.361  31.253  29.399  1.00  0.00     0.029 A 
ATOM     57  N   UNL A   1      43.848  29.856  28.517  1.00  0.00    -0.354 N 
ATOM     58  N   UNL A   1      46.510  29.060  27.563  1.00  0.00    -0.248 NA
ATOM     59  C   UNL A   1      48.720  29.599  27.029  1.00  0.00     0.031 C 
ATOM     60  C   UNL A   1      43.549  31.957  29.176  1.00  0.00     0.029 A 
ATOM     61  C   UNL A   1      44.489  31.079  28.658  1.00  0.00     0.049 A 
ATOM     62  H   UNL A   1      44.265  29.040  28.160  1.00  0.00     0.167 HD
ATOM     63  C   UNL A   1      46.733  30.406  27.843  1.00  0.00     0.074 A 
ATOM     64  C   UNL A   1      48.120  30.672  27.524  1.00  0.00     0.031 C 
ATOM     65  C   UNL A   1      45.871  31.336  28.327  1.00  0.00     0.034 A 
BRANCH  52  66
ATOM     66  C   UNL A   1      40.145  29.167  29.340  1.00  0.00     0.023 A 
ATOM     67  C   UNL A   1      39.759  29.170  30.692  1.00  0.00     0.031 A 
ATOM     68  C   UNL A   1      39.153  29.418  28.376  1.00  0.00     0.131 A 
ATOM     69  C   UNL A   1      38.410  29.340  31.037  1.00  0.00     0.055 A 
ATOM     70  C   UNL A   1      37.825  29.670  28.731  1.00  0.00     0.041 A 
ATOM     71  F   UNL A   1      39.453  29.413  27.067  1.00  0.00    -0.206 F 
ATOM     72  C   UNL A   1      37.444  29.617  30.068  1.00  0.00     0.022 A 
BRANCH  69  73
ATOM     73  S   UNL A   1      37.912  29.052  32.758  1.00  0.00     0.124 S 
ATOM     74  O   UNL A   1      36.671  29.820  32.839  1.00  0.00    -0.237 OA
ATOM     75  O   UNL A   1      37.771  27.602  32.808  1.00  0.00    -0.237 OA
ATOM     76  O   UNL A   1      39.025  29.598  33.532  1.00  0.00    -0.744 OA
ENDBRANCH  69  73
ENDBRANCH  52  66
BRANCH  53  77
ATOM     77  C   UNL A   1      49.365  26.878  26.162  1.00  0.00     0.023 A 
ATOM     78  C   UNL A   1      50.444  26.679  27.038  1.00  0.00     0.031 A 
ATOM     79  C   UNL A   1      49.616  26.815  24.781  1.00  0.00     0.131 A 
ATOM     80  C   UNL A   1      51.734  26.470  26.522  1.00  0.00     0.055 A 
ATOM     81  C   UNL A   1      50.889  26.554  24.273  1.00  0.00     0.041 A 
ATOM     82  F   UNL A   1      48.619  26.999  23.899  1.00  0.00    -0.206 F 
ATOM     83  C   UNL A   1      51.960  26.392  25.146  1.00  0.00     0.022 A 
BRANCH  80  84
ATOM     84  S   UNL A   1      53.129  26.388  27.678  1.00  0.00     0.124 S 
ATOM     85  O   UNL A   1      52.454  26.117  28.941  1.00  0.00    -0.237 OA
ATOM     86  O   UNL A   1      53.919  25.293  27.123  1.00  0.00    -0.237 OA
ATOM     87  O   UNL A   1      53.741  27.711  27.568  1.00  0.00    -0.744 OA
ENDBRANCH  80  84
ENDBRANCH  53  77
BRANCH  65  88
ATOM     88  C   UNL A   1      46.423  32.716  28.585  1.00  0.00     0.023 A 
ATOM     89  C   UNL A   1      46.550  33.669  27.560  1.00  0.00     0.031 A 
ATOM     90  C   UNL A   1      46.835  33.078  29.879  1.00  0.00     0.131 A 
ATOM     91  C   UNL A   1      47.123  34.921  27.835  1.00  0.00     0.055 A 
ATOM     92  C   UNL A   1      47.352  34.344  30.160  1.00  0.00     0.041 A 
ATOM     93  F   UNL A   1      46.739  32.208  30.897  1.00  0.00    -0.206 F 
ATOM     94  C   UNL A   1      47.509  35.270  29.133  1.00  0.00     0.022 A 
BRANCH  91  95
ATOM     95  S   UNL A   1      47.434  36.061  26.460  1.00  0.00     0.124 S 
ATOM     96  O   UNL A   1      48.240  37.096  27.099  1.00  0.00    -0.237 OA
ATOM     97  O   UNL A   1      48.132  35.211  25.500  1.00  0.00    -0.237 OA
ATOM     98  O   UNL A   1      46.095  36.482  26.051  1.00  0.00    -0.744 OA
ENDBRANCH  91  95
ENDBRANCH  65  88
ENDBRANCH  39  40
ENDBRANCH  31  34
ENDBRANCH  29  30
ENDBRANCH  28  29
ENDBRANCH  27  28
ENDBRANCH   1  27
TORSDOF 20
ENDMDL
