MODEL 1
REMARK VINA RESULT:     -11.8      0.000      0.000
REMARK SMILES CC(C)Cc1cc2c(cc1Cl)C=C(C(=O)NCCCCCCNC(=O)c1ccc(-c3c4nc(c(-c5cc(S(=O)(=O)[O-])ccc5F)c5ccc([nH]5)c(-c5cc(S(=O)(=O)[O-])ccc5F)c5nc(c(-c6cc(S(=O)(=O)[O-])ccc6F)c6ccc3[nH]6)C=C5)C=C4)cc1)[C@H](C(F)(F)F)O2
REMARK SMILES IDX 20 1 19 2 18 3 17 4 16 5 14 6 15 7 13 9 5 10 6 11 10 12 7 13
REMARK SMILES IDX 9 14 11 15 8 16 94 17 12 18 89 19 4 20 2 21 1 22 3 23 90 24
REMARK SMILES IDX 91 25 92 26 93 27 21 28 22 29 23 30 24 31 25 33 26 34 27 35
REMARK SMILES IDX 88 36 28 37 87 38 29 39 30 40 31 41 81 42 32 43 86 44 80 45
REMARK SMILES IDX 82 46 33 47 85 48 79 49 78 50 34 52 66 53 46 54 65 55 47 56
REMARK SMILES IDX 50 57 64 58 83 59 48 60 49 61 63 63 84 64 51 65 35 66 36 67
REMARK SMILES IDX 44 68 37 69 43 70 45 71 42 72 38 73 39 74 40 75 41 76 67 77
REMARK SMILES IDX 68 78 76 79 69 80 75 81 77 82 74 83 70 84 71 85 72 86 73 87
REMARK SMILES IDX 52 88 53 89 61 90 54 91 60 92 62 93 59 94 55 95 56 96 57 97
REMARK SMILES IDX 58 98
REMARK H PARENT 16 8 23 32 82 51 50 62
REMARK Flexibility Score: inf
ROOT
ATOM      1  C   UNL A   1      36.912  20.981  24.559  1.00  0.00     0.002 C 
ENDROOT
BRANCH   1   2
ATOM      2  C   UNL A   1      37.244  22.365  25.129  1.00  0.00     0.002 C 
BRANCH   2   3
ATOM      3  C   UNL A   1      36.283  23.491  24.734  1.00  0.00     0.021 C 
BRANCH   3   4
ATOM      4  C   UNL A   1      35.499  24.091  25.900  1.00  0.00     0.116 C 
BRANCH   4   5
ATOM      5  N   UNL A   1      34.297  23.326  26.187  1.00  0.00    -0.352 N 
ATOM      6  C   UNL A   1      32.990  23.360  25.844  1.00  0.00     0.251 C 
ATOM      7  O   UNL A   1      32.300  22.456  26.330  1.00  0.00    -0.270 OA
ATOM      8  H   UNL A   1      34.487  22.579  26.799  1.00  0.00     0.163 HD
BRANCH   6   9
ATOM      9  C   UNL A   1      32.346  24.376  24.955  1.00  0.00     0.067 C 
ATOM     10  C   UNL A   1      30.555  28.717  23.088  1.00  0.00    -0.025 A 
ATOM     11  C   UNL A   1      30.591  27.389  22.635  1.00  0.00     0.052 A 
ATOM     12  C   UNL A   1      31.000  28.987  24.392  1.00  0.00     0.045 A 
ATOM     13  C   UNL A   1      31.109  26.376  23.438  1.00  0.00     0.128 A 
ATOM     14  C   UNL A   1      31.508  27.962  25.200  1.00  0.00     0.032 A 
ATOM     15  Cl  UNL A   1      30.941  30.578  25.067  1.00  0.00    -0.084 Cl
ATOM     16  C   UNL A   1      31.579  26.654  24.717  1.00  0.00     0.019 A 
ATOM     17  O   UNL A   1      31.100  25.121  22.909  1.00  0.00    -0.475 OA
ATOM     18  C   UNL A   1      32.128  25.575  25.526  1.00  0.00     0.025 C 
ATOM     19  C   UNL A   1      32.006  24.152  23.505  1.00  0.00     0.314 C 
BRANCH  10  20
ATOM     20  C   UNL A   1      30.093  29.788  22.127  1.00  0.00     0.040 C 
BRANCH  20  21
ATOM     21  C   UNL A   1      28.723  30.400  22.492  1.00  0.00    -0.013 C 
ATOM     22  C   UNL A   1      28.224  31.401  21.446  1.00  0.00     0.008 C 
ATOM     23  C   UNL A   1      27.691  29.285  22.669  1.00  0.00     0.008 C 
ENDBRANCH  20  21
ENDBRANCH  10  20
BRANCH  19  24
ATOM     24  C   UNL A   1      33.243  24.002  22.601  1.00  0.00     0.429 C 
ATOM     25  F   UNL A   1      32.939  24.039  21.285  1.00  0.00    -0.167 F 
ATOM     26  F   UNL A   1      34.118  25.014  22.826  1.00  0.00    -0.167 F 
ATOM     27  F   UNL A   1      33.904  22.840  22.813  1.00  0.00    -0.167 F 
ENDBRANCH  19  24
ENDBRANCH   6   9
ENDBRANCH   4   5
ENDBRANCH   3   4
ENDBRANCH   2   3
ENDBRANCH   1   2
BRANCH   1  28
ATOM     28  C   UNL A   1      37.899  19.866  24.913  1.00  0.00     0.021 C 
BRANCH  28  29
ATOM     29  C   UNL A   1      39.082  20.297  25.773  1.00  0.00     0.116 C 
BRANCH  29  30
ATOM     30  N   UNL A   1      40.108  19.272  25.863  1.00  0.00    -0.352 N 
ATOM     31  C   UNL A   1      41.459  19.409  26.073  1.00  0.00     0.251 C 
ATOM     32  H   UNL A   1      39.788  18.346  25.758  1.00  0.00     0.163 HD
ATOM     33  O   UNL A   1      42.199  18.437  25.950  1.00  0.00    -0.269 OA
BRANCH  31  34
ATOM     34  C   UNL A   1      42.016  20.737  26.411  1.00  0.00     0.039 A 
ATOM     35  C   UNL A   1      42.216  21.109  27.742  1.00  0.00     0.014 A 
ATOM     36  C   UNL A   1      42.315  21.630  25.379  1.00  0.00     0.014 A 
ATOM     37  C   UNL A   1      42.561  22.422  28.047  1.00  0.00     0.010 A 
ATOM     38  C   UNL A   1      42.735  22.928  25.686  1.00  0.00     0.010 A 
ATOM     39  C   UNL A   1      42.813  23.350  27.023  1.00  0.00    -0.014 A 
BRANCH  39  40
ATOM     40  C   UNL A   1      43.141  24.759  27.364  1.00  0.00     0.031 A 
ATOM     41  C   UNL A   1      44.501  25.323  27.050  1.00  0.00     0.074 A 
ATOM     42  C   UNL A   1      42.197  25.542  27.923  1.00  0.00     0.049 A 
ATOM     43  N   UNL A   1      44.969  26.523  27.282  1.00  0.00    -0.248 NA
ATOM     44  C   UNL A   1      45.463  24.425  26.390  1.00  0.00     0.031 C 
ATOM     45  C   UNL A   1      40.841  25.107  28.252  1.00  0.00     0.029 A 
ATOM     46  N   UNL A   1      42.225  26.863  28.298  1.00  0.00    -0.354 N 
ATOM     47  C   UNL A   1      46.278  26.521  26.814  1.00  0.00     0.074 A 
ATOM     48  C   UNL A   1      46.544  25.190  26.313  1.00  0.00     0.031 C 
ATOM     49  C   UNL A   1      40.151  26.150  28.735  1.00  0.00     0.029 A 
ATOM     50  C   UNL A   1      41.033  27.311  28.820  1.00  0.00     0.049 A 
ATOM     51  H   UNL A   1      43.020  27.435  28.201  1.00  0.00     0.167 HD
ATOM     52  C   UNL A   1      47.169  27.541  26.789  1.00  0.00     0.034 A 
ATOM     53  C   UNL A   1      40.690  28.514  29.326  1.00  0.00     0.034 A 
ATOM     54  C   UNL A   1      46.882  28.867  27.275  1.00  0.00     0.049 A 
ATOM     55  C   UNL A   1      41.715  29.619  29.329  1.00  0.00     0.074 A 
ATOM     56  C   UNL A   1      47.716  29.971  27.283  1.00  0.00     0.029 A 
ATOM     57  N   UNL A   1      45.676  29.273  27.826  1.00  0.00    -0.354 N 
ATOM     58  N   UNL A   1      42.939  29.607  28.857  1.00  0.00    -0.248 NA
ATOM     59  C   UNL A   1      41.318  30.900  29.930  1.00  0.00     0.031 C 
ATOM     60  C   UNL A   1      47.035  31.028  27.888  1.00  0.00     0.029 A 
ATOM     61  C   UNL A   1      45.751  30.606  28.196  1.00  0.00     0.049 A 
ATOM     62  H   UNL A   1      44.883  28.699  27.938  1.00  0.00     0.167 HD
ATOM     63  C   UNL A   1      43.451  30.882  29.082  1.00  0.00     0.074 A 
ATOM     64  C   UNL A   1      42.395  31.646  29.714  1.00  0.00     0.031 C 
ATOM     65  C   UNL A   1      44.685  31.370  28.799  1.00  0.00     0.034 A 
BRANCH  52  66
ATOM     66  C   UNL A   1      48.541  27.294  26.210  1.00  0.00     0.023 A 
ATOM     67  C   UNL A   1      48.779  27.517  24.841  1.00  0.00     0.031 A 
ATOM     68  C   UNL A   1      49.564  26.712  26.978  1.00  0.00     0.131 A 
ATOM     69  C   UNL A   1      49.999  27.126  24.274  1.00  0.00     0.055 A 
ATOM     70  C   UNL A   1      50.792  26.361  26.416  1.00  0.00     0.041 A 
ATOM     71  F   UNL A   1      49.387  26.482  28.289  1.00  0.00    -0.206 F 
ATOM     72  C   UNL A   1      51.009  26.555  25.055  1.00  0.00     0.022 A 
BRANCH  69  73
ATOM     73  S   UNL A   1      50.301  27.287  22.492  1.00  0.00     0.124 S 
ATOM     74  O   UNL A   1      49.269  26.416  21.935  1.00  0.00    -0.237 OA
ATOM     75  O   UNL A   1      50.096  28.716  22.276  1.00  0.00    -0.237 OA
ATOM     76  O   UNL A   1      51.670  26.812  22.325  1.00  0.00    -0.744 OA
ENDBRANCH  69  73
ENDBRANCH  52  66
BRANCH  53  77
ATOM     77  C   UNL A   1      39.299  28.725  29.825  1.00  0.00     0.023 A 
ATOM     78  C   UNL A   1      38.296  29.238  28.982  1.00  0.00     0.031 A 
ATOM     79  C   UNL A   1      38.982  28.520  31.179  1.00  0.00     0.131 A 
ATOM     80  C   UNL A   1      37.051  29.597  29.516  1.00  0.00     0.055 A 
ATOM     81  C   UNL A   1      37.716  28.810  31.691  1.00  0.00     0.041 A 
ATOM     82  F   UNL A   1      39.908  28.044  32.025  1.00  0.00    -0.206 F 
ATOM     83  C   UNL A   1      36.749  29.370  30.862  1.00  0.00     0.022 A 
BRANCH  80  84
ATOM     84  S   UNL A   1      35.838  30.502  28.515  1.00  0.00     0.124 S 
ATOM     85  O   UNL A   1      36.693  31.204  27.564  1.00  0.00    -0.237 OA
ATOM     86  O   UNL A   1      35.037  29.413  27.960  1.00  0.00    -0.237 OA
ATOM     87  O   UNL A   1      35.149  31.343  29.487  1.00  0.00    -0.744 OA
ENDBRANCH  80  84
ENDBRANCH  53  77
BRANCH  65  88
ATOM     88  C   UNL A   1      44.994  32.806  29.142  1.00  0.00     0.023 A 
ATOM     89  C   UNL A   1      44.897  33.799  28.148  1.00  0.00     0.031 A 
ATOM     90  C   UNL A   1      45.545  33.158  30.386  1.00  0.00     0.131 A 
ATOM     91  C   UNL A   1      45.390  35.086  28.399  1.00  0.00     0.055 A 
ATOM     92  C   UNL A   1      45.991  34.455  30.646  1.00  0.00     0.041 A 
ATOM     93  F   UNL A   1      45.668  32.243  31.359  1.00  0.00    -0.206 F 
ATOM     94  C   UNL A   1      45.931  35.420  29.645  1.00  0.00     0.022 A 
BRANCH  91  95
ATOM     95  S   UNL A   1      45.437  36.341  27.091  1.00  0.00     0.124 S 
ATOM     96  O   UNL A   1      46.484  37.240  27.572  1.00  0.00    -0.237 OA
ATOM     97  O   UNL A   1      45.786  35.549  25.916  1.00  0.00    -0.237 OA
ATOM     98  O   UNL A   1      44.089  36.903  27.093  1.00  0.00    -0.744 OA
ENDBRANCH  91  95
ENDBRANCH  65  88
ENDBRANCH  39  40
ENDBRANCH  31  34
ENDBRANCH  29  30
ENDBRANCH  28  29
ENDBRANCH   1  28
TORSDOF 19
ENDMDL
MODEL 2
REMARK VINA RESULT:     -11.3      6.405     11.507
REMARK SMILES CC(C)Cc1cc2c(cc1Cl)C=C(C(=O)NCCCCCCNC(=O)c1ccc(-c3c4nc(c(-c5cc(S(=O)(=O)[O-])ccc5F)c5ccc([nH]5)c(-c5cc(S(=O)(=O)[O-])ccc5F)c5nc(c(-c6cc(S(=O)(=O)[O-])ccc6F)c6ccc3[nH]6)C=C5)C=C4)cc1)[C@H](C(F)(F)F)O2
REMARK SMILES IDX 20 1 19 2 18 3 17 4 16 5 14 6 15 7 13 9 5 10 6 11 10 12 7 13
REMARK SMILES IDX 9 14 11 15 8 16 94 17 12 18 89 19 4 20 2 21 1 22 3 23 90 24
REMARK SMILES IDX 91 25 92 26 93 27 21 28 22 29 23 30 24 31 25 33 26 34 27 35
REMARK SMILES IDX 88 36 28 37 87 38 29 39 30 40 31 41 81 42 32 43 86 44 80 45
REMARK SMILES IDX 82 46 33 47 85 48 79 49 78 50 34 52 66 53 46 54 65 55 47 56
REMARK SMILES IDX 50 57 64 58 83 59 48 60 49 61 63 63 84 64 51 65 35 66 36 67
REMARK SMILES IDX 44 68 37 69 43 70 45 71 42 72 38 73 39 74 40 75 41 76 67 77
REMARK SMILES IDX 68 78 76 79 69 80 75 81 77 82 74 83 70 84 71 85 72 86 73 87
REMARK SMILES IDX 52 88 53 89 61 90 54 91 60 92 62 93 59 94 55 95 56 96 57 97
REMARK SMILES IDX 58 98
REMARK H PARENT 16 8 23 32 82 51 50 62
REMARK Flexibility Score: inf
ROOT
ATOM      1  C   UNL A   1      33.278  30.164  27.074  1.00  0.00     0.002 C 
ENDROOT
BRANCH   1   2
ATOM      2  C   UNL A   1      32.382  28.941  27.304  1.00  0.00     0.002 C 
BRANCH   2   3
ATOM      3  C   UNL A   1      32.195  28.023  26.092  1.00  0.00     0.021 C 
BRANCH   3   4
ATOM      4  C   UNL A   1      33.486  27.393  25.571  1.00  0.00     0.116 C 
BRANCH   4   5
ATOM      5  N   UNL A   1      33.515  27.358  24.118  1.00  0.00    -0.352 N 
ATOM      6  C   UNL A   1      33.478  26.420  23.144  1.00  0.00     0.251 C 
ATOM      7  O   UNL A   1      33.506  26.865  21.991  1.00  0.00    -0.270 OA
ATOM      8  H   UNL A   1      33.579  28.264  23.740  1.00  0.00     0.163 HD
BRANCH   6   9
ATOM      9  C   UNL A   1      33.410  24.942  23.357  1.00  0.00     0.067 C 
ATOM     10  C   UNL A   1      34.594  20.174  24.543  1.00  0.00    -0.025 A 
ATOM     11  C   UNL A   1      33.451  20.808  24.032  1.00  0.00     0.052 A 
ATOM     12  C   UNL A   1      35.765  20.934  24.695  1.00  0.00     0.045 A 
ATOM     13  C   UNL A   1      33.463  22.170  23.739  1.00  0.00     0.128 A 
ATOM     14  C   UNL A   1      35.774  22.300  24.387  1.00  0.00     0.032 A 
ATOM     15  Cl  UNL A   1      37.242  20.235  25.258  1.00  0.00    -0.084 Cl
ATOM     16  C   UNL A   1      34.615  22.926  23.923  1.00  0.00     0.019 A 
ATOM     17  O   UNL A   1      32.304  22.692  23.248  1.00  0.00    -0.475 OA
ATOM     18  C   UNL A   1      34.590  24.350  23.622  1.00  0.00     0.025 C 
ATOM     19  C   UNL A   1      32.140  24.134  23.354  1.00  0.00     0.314 C 
BRANCH  10  20
ATOM     20  C   UNL A   1      34.484  18.723  24.952  1.00  0.00     0.040 C 
BRANCH  20  21
ATOM     21  C   UNL A   1      33.432  17.930  24.147  1.00  0.00    -0.013 C 
ATOM     22  C   UNL A   1      34.052  16.815  23.298  1.00  0.00     0.008 C 
ATOM     23  C   UNL A   1      32.396  17.333  25.100  1.00  0.00     0.008 C 
ENDBRANCH  20  21
ENDBRANCH  10  20
BRANCH  19  24
ATOM     24  C   UNL A   1      31.211  24.445  24.541  1.00  0.00     0.429 C 
ATOM     25  F   UNL A   1      30.336  23.447  24.799  1.00  0.00    -0.167 F 
ATOM     26  F   UNL A   1      31.936  24.629  25.673  1.00  0.00    -0.167 F 
ATOM     27  F   UNL A   1      30.475  25.563  24.345  1.00  0.00    -0.167 F 
ENDBRANCH  19  24
ENDBRANCH   6   9
ENDBRANCH   4   5
ENDBRANCH   3   4
ENDBRANCH   2   3
ENDBRANCH   1   2
BRANCH   1  28
ATOM     28  C   UNL A   1      32.695  31.505  27.526  1.00  0.00     0.021 C 
BRANCH  28  29
ATOM     29  C   UNL A   1      33.556  32.724  27.212  1.00  0.00     0.116 C 
BRANCH  29  30
ATOM     30  N   UNL A   1      33.018  33.948  27.783  1.00  0.00    -0.352 N 
ATOM     31  C   UNL A   1      33.360  34.586  28.951  1.00  0.00     0.251 C 
ATOM     32  H   UNL A   1      32.306  34.380  27.258  1.00  0.00     0.163 HD
ATOM     33  O   UNL A   1      32.678  35.522  29.359  1.00  0.00    -0.269 OA
BRANCH  31  34
ATOM     34  C   UNL A   1      34.528  34.117  29.727  1.00  0.00     0.039 A 
ATOM     35  C   UNL A   1      35.825  34.460  29.342  1.00  0.00     0.014 A 
ATOM     36  C   UNL A   1      34.319  33.299  30.841  1.00  0.00     0.014 A 
ATOM     37  C   UNL A   1      36.913  33.859  29.968  1.00  0.00     0.010 A 
ATOM     38  C   UNL A   1      35.415  32.755  31.516  1.00  0.00     0.010 A 
ATOM     39  C   UNL A   1      36.720  32.991  31.054  1.00  0.00    -0.014 A 
BRANCH  39  40
ATOM     40  C   UNL A   1      37.889  32.325  31.688  1.00  0.00     0.031 A 
ATOM     41  C   UNL A   1      38.329  32.712  33.074  1.00  0.00     0.074 A 
ATOM     42  C   UNL A   1      38.530  31.342  31.025  1.00  0.00     0.049 A 
ATOM     43  N   UNL A   1      39.328  32.250  33.781  1.00  0.00    -0.248 NA
ATOM     44  C   UNL A   1      37.547  33.756  33.759  1.00  0.00     0.031 C 
ATOM     45  C   UNL A   1      38.177  30.871  29.686  1.00  0.00     0.029 A 
ATOM     46  N   UNL A   1      39.595  30.554  31.386  1.00  0.00    -0.354 N 
ATOM     47  C   UNL A   1      39.306  32.951  34.981  1.00  0.00     0.074 A 
ATOM     48  C   UNL A   1      38.214  33.896  34.896  1.00  0.00     0.031 C 
ATOM     49  C   UNL A   1      38.978  29.848  29.357  1.00  0.00     0.029 A 
ATOM     50  C   UNL A   1      39.949  29.633  30.427  1.00  0.00     0.049 A 
ATOM     51  H   UNL A   1      40.060  30.639  32.250  1.00  0.00     0.167 HD
ATOM     52  C   UNL A   1      40.113  32.807  36.060  1.00  0.00     0.034 A 
ATOM     53  C   UNL A   1      40.950  28.729  30.400  1.00  0.00     0.034 A 
ATOM     54  C   UNL A   1      41.185  31.847  36.136  1.00  0.00     0.049 A 
ATOM     55  C   UNL A   1      41.862  28.621  31.595  1.00  0.00     0.074 A 
ATOM     56  C   UNL A   1      42.051  31.618  37.190  1.00  0.00     0.029 A 
ATOM     57  N   UNL A   1      41.532  30.955  35.132  1.00  0.00    -0.354 N 
ATOM     58  N   UNL A   1      41.810  29.273  32.732  1.00  0.00    -0.248 NA
ATOM     59  C   UNL A   1      42.968  27.657  31.509  1.00  0.00     0.031 C 
ATOM     60  C   UNL A   1      42.955  30.627  36.805  1.00  0.00     0.029 A 
ATOM     61  C   UNL A   1      42.613  30.188  35.535  1.00  0.00     0.049 A 
ATOM     62  H   UNL A   1      41.078  30.878  34.261  1.00  0.00     0.167 HD
ATOM     63  C   UNL A   1      42.859  28.784  33.505  1.00  0.00     0.074 A 
ATOM     64  C   UNL A   1      43.516  27.765  32.714  1.00  0.00     0.031 C 
ATOM     65  C   UNL A   1      43.245  29.154  34.752  1.00  0.00     0.034 A 
BRANCH  52  66
ATOM     66  C   UNL A   1      39.880  33.686  37.264  1.00  0.00     0.023 A 
ATOM     67  C   UNL A   1      39.181  33.184  38.378  1.00  0.00     0.031 A 
ATOM     68  C   UNL A   1      40.225  35.048  37.253  1.00  0.00     0.131 A 
ATOM     69  C   UNL A   1      38.818  34.048  39.419  1.00  0.00     0.055 A 
ATOM     70  C   UNL A   1      39.895  35.897  38.311  1.00  0.00     0.041 A 
ATOM     71  F   UNL A   1      40.894  35.574  36.214  1.00  0.00    -0.206 F 
ATOM     72  C   UNL A   1      39.176  35.401  39.394  1.00  0.00     0.022 A 
BRANCH  69  73
ATOM     73  S   UNL A   1      37.815  33.469  40.816  1.00  0.00     0.124 S 
ATOM     74  O   UNL A   1      36.605  33.006  40.142  1.00  0.00    -0.237 OA
ATOM     75  O   UNL A   1      38.657  32.418  41.379  1.00  0.00    -0.237 OA
ATOM     76  O   UNL A   1      37.648  34.657  41.645  1.00  0.00    -0.744 OA
ENDBRANCH  69  73
ENDBRANCH  52  66
BRANCH  53  77
ATOM     77  C   UNL A   1      41.096  27.838  29.211  1.00  0.00     0.023 A 
ATOM     78  C   UNL A   1      42.093  28.072  28.247  1.00  0.00     0.031 A 
ATOM     79  C   UNL A   1      40.172  26.807  28.969  1.00  0.00     0.131 A 
ATOM     80  C   UNL A   1      42.097  27.337  27.054  1.00  0.00     0.055 A 
ATOM     81  C   UNL A   1      40.225  26.028  27.811  1.00  0.00     0.041 A 
ATOM     82  F   UNL A   1      39.196  26.553  29.853  1.00  0.00    -0.206 F 
ATOM     83  C   UNL A   1      41.180  26.305  26.838  1.00  0.00     0.022 A 
BRANCH  80  84
ATOM     84  S   UNL A   1      43.199  27.794  25.686  1.00  0.00     0.124 S 
ATOM     85  O   UNL A   1      42.250  28.086  24.616  1.00  0.00    -0.237 OA
ATOM     86  O   UNL A   1      43.900  28.949  26.240  1.00  0.00    -0.237 OA
ATOM     87  O   UNL A   1      44.020  26.604  25.494  1.00  0.00    -0.744 OA
ENDBRANCH  80  84
ENDBRANCH  53  77
BRANCH  65  88
ATOM     88  C   UNL A   1      44.427  28.457  35.381  1.00  0.00     0.023 A 
ATOM     89  C   UNL A   1      44.216  27.489  36.383  1.00  0.00     0.031 A 
ATOM     90  C   UNL A   1      45.744  28.871  35.120  1.00  0.00     0.131 A 
ATOM     91  C   UNL A   1      45.302  27.004  37.121  1.00  0.00     0.055 A 
ATOM     92  C   UNL A   1      46.828  28.347  35.826  1.00  0.00     0.041 A 
ATOM     93  F   UNL A   1      45.992  29.798  34.182  1.00  0.00    -0.206 F 
ATOM     94  C   UNL A   1      46.608  27.423  36.843  1.00  0.00     0.022 A 
BRANCH  91  95
ATOM     95  S   UNL A   1      45.053  25.887  38.529  1.00  0.00     0.124 S 
ATOM     96  O   UNL A   1      44.836  24.604  37.863  1.00  0.00    -0.237 OA
ATOM     97  O   UNL A   1      46.318  26.010  39.247  1.00  0.00    -0.237 OA
ATOM     98  O   UNL A   1      43.886  26.436  39.213  1.00  0.00    -0.744 OA
ENDBRANCH  91  95
ENDBRANCH  65  88
ENDBRANCH  39  40
ENDBRANCH  31  34
ENDBRANCH  29  30
ENDBRANCH  28  29
ENDBRANCH   1  28
TORSDOF 19
ENDMDL
MODEL 3
REMARK VINA RESULT:     -11.2      1.825      2.168
REMARK SMILES CC(C)Cc1cc2c(cc1Cl)C=C(C(=O)NCCCCCCNC(=O)c1ccc(-c3c4nc(c(-c5cc(S(=O)(=O)[O-])ccc5F)c5ccc([nH]5)c(-c5cc(S(=O)(=O)[O-])ccc5F)c5nc(c(-c6cc(S(=O)(=O)[O-])ccc6F)c6ccc3[nH]6)C=C5)C=C4)cc1)[C@H](C(F)(F)F)O2
REMARK SMILES IDX 20 1 19 2 18 3 17 4 16 5 14 6 15 7 13 9 5 10 6 11 10 12 7 13
REMARK SMILES IDX 9 14 11 15 8 16 94 17 12 18 89 19 4 20 2 21 1 22 3 23 90 24
REMARK SMILES IDX 91 25 92 26 93 27 21 28 22 29 23 30 24 31 25 33 26 34 27 35
REMARK SMILES IDX 88 36 28 37 87 38 29 39 30 40 31 41 81 42 32 43 86 44 80 45
REMARK SMILES IDX 82 46 33 47 85 48 79 49 78 50 34 52 66 53 46 54 65 55 47 56
REMARK SMILES IDX 50 57 64 58 83 59 48 60 49 61 63 63 84 64 51 65 35 66 36 67
REMARK SMILES IDX 44 68 37 69 43 70 45 71 42 72 38 73 39 74 40 75 41 76 67 77
REMARK SMILES IDX 68 78 76 79 69 80 75 81 77 82 74 83 70 84 71 85 72 86 73 87
REMARK SMILES IDX 52 88 53 89 61 90 54 91 60 92 62 93 59 94 55 95 56 96 57 97
REMARK SMILES IDX 58 98
REMARK H PARENT 16 8 23 32 82 51 50 62
REMARK Flexibility Score: inf
ROOT
ATOM      1  C   UNL A   1      37.159  20.608  24.622  1.00  0.00     0.002 C 
ENDROOT
BRANCH   1   2
ATOM      2  C   UNL A   1      36.936  21.807  25.552  1.00  0.00     0.002 C 
BRANCH   2   3
ATOM      3  C   UNL A   1      36.601  23.130  24.857  1.00  0.00     0.021 C 
BRANCH   3   4
ATOM      4  C   UNL A   1      35.662  24.039  25.649  1.00  0.00     0.116 C 
BRANCH   4   5
ATOM      5  N   UNL A   1      34.457  23.338  26.058  1.00  0.00    -0.352 N 
ATOM      6  C   UNL A   1      33.130  23.405  25.802  1.00  0.00     0.251 C 
ATOM      7  O   UNL A   1      32.445  22.555  26.383  1.00  0.00    -0.270 OA
ATOM      8  H   UNL A   1      34.662  22.617  26.696  1.00  0.00     0.163 HD
BRANCH   6   9
ATOM      9  C   UNL A   1      32.463  24.396  24.904  1.00  0.00     0.067 C 
ATOM     10  C   UNL A   1      30.554  28.673  23.006  1.00  0.00    -0.025 A 
ATOM     11  C   UNL A   1      30.634  27.345  22.558  1.00  0.00     0.052 A 
ATOM     12  C   UNL A   1      30.979  28.962  24.312  1.00  0.00     0.045 A 
ATOM     13  C   UNL A   1      31.177  26.351  23.369  1.00  0.00     0.128 A 
ATOM     14  C   UNL A   1      31.512  27.956  25.129  1.00  0.00     0.032 A 
ATOM     15  Cl  UNL A   1      30.865  30.552  24.980  1.00  0.00    -0.084 Cl
ATOM     16  C   UNL A   1      31.627  26.649  24.651  1.00  0.00     0.019 A 
ATOM     17  O   UNL A   1      31.211  25.095  22.845  1.00  0.00    -0.475 OA
ATOM     18  C   UNL A   1      32.203  25.591  25.469  1.00  0.00     0.025 C 
ATOM     19  C   UNL A   1      32.142  24.157  23.453  1.00  0.00     0.314 C 
BRANCH  10  20
ATOM     20  C   UNL A   1      30.067  29.725  22.036  1.00  0.00     0.040 C 
BRANCH  20  21
ATOM     21  C   UNL A   1      28.697  30.330  22.414  1.00  0.00    -0.013 C 
ATOM     22  C   UNL A   1      28.157  31.287  21.347  1.00  0.00     0.008 C 
ATOM     23  C   UNL A   1      27.686  29.207  22.654  1.00  0.00     0.008 C 
ENDBRANCH  20  21
ENDBRANCH  10  20
BRANCH  19  24
ATOM     24  C   UNL A   1      33.390  24.042  22.560  1.00  0.00     0.429 C 
ATOM     25  F   UNL A   1      34.060  22.882  22.738  1.00  0.00    -0.167 F 
ATOM     26  F   UNL A   1      33.041  24.091  21.249  1.00  0.00    -0.167 F 
ATOM     27  F   UNL A   1      34.279  25.039  22.779  1.00  0.00    -0.167 F 
ENDBRANCH  19  24
ENDBRANCH   6   9
ENDBRANCH   4   5
ENDBRANCH   3   4
ENDBRANCH   2   3
ENDBRANCH   1   2
BRANCH   1  28
ATOM     28  C   UNL A   1      38.103  19.527  25.152  1.00  0.00     0.021 C 
BRANCH  28  29
ATOM     29  C   UNL A   1      39.360  20.046  25.842  1.00  0.00     0.116 C 
BRANCH  29  30
ATOM     30  N   UNL A   1      40.408  19.042  25.918  1.00  0.00    -0.352 N 
ATOM     31  C   UNL A   1      41.758  19.207  26.112  1.00  0.00     0.251 C 
ATOM     32  H   UNL A   1      40.107  18.109  25.814  1.00  0.00     0.163 HD
ATOM     33  O   UNL A   1      42.517  18.251  25.978  1.00  0.00    -0.269 OA
BRANCH  31  34
ATOM     34  C   UNL A   1      42.291  20.545  26.446  1.00  0.00     0.039 A 
ATOM     35  C   UNL A   1      42.382  20.966  27.775  1.00  0.00     0.014 A 
ATOM     36  C   UNL A   1      42.680  21.399  25.411  1.00  0.00     0.014 A 
ATOM     37  C   UNL A   1      42.706  22.289  28.060  1.00  0.00     0.010 A 
ATOM     38  C   UNL A   1      43.078  22.706  25.704  1.00  0.00     0.010 A 
ATOM     39  C   UNL A   1      43.046  23.177  27.027  1.00  0.00    -0.014 A 
BRANCH  39  40
ATOM     40  C   UNL A   1      43.352  24.598  27.342  1.00  0.00     0.031 A 
ATOM     41  C   UNL A   1      44.702  25.179  27.018  1.00  0.00     0.074 A 
ATOM     42  C   UNL A   1      42.395  25.375  27.887  1.00  0.00     0.049 A 
ATOM     43  N   UNL A   1      45.151  26.389  27.228  1.00  0.00    -0.248 NA
ATOM     44  C   UNL A   1      45.679  24.284  26.373  1.00  0.00     0.031 C 
ATOM     45  C   UNL A   1      41.046  24.924  28.224  1.00  0.00     0.029 A 
ATOM     46  N   UNL A   1      42.401  26.703  28.238  1.00  0.00    -0.354 N 
ATOM     47  C   UNL A   1      46.460  26.400  26.759  1.00  0.00     0.074 A 
ATOM     48  C   UNL A   1      46.747  25.065  26.282  1.00  0.00     0.031 C 
ATOM     49  C   UNL A   1      40.339  25.964  28.689  1.00  0.00     0.029 A 
ATOM     50  C   UNL A   1      41.202  27.141  28.753  1.00  0.00     0.049 A 
ATOM     51  H   UNL A   1      43.187  27.286  28.131  1.00  0.00     0.167 HD
ATOM     52  C   UNL A   1      47.334  27.434  26.716  1.00  0.00     0.034 A 
ATOM     53  C   UNL A   1      40.840  28.348  29.237  1.00  0.00     0.034 A 
ATOM     54  C   UNL A   1      47.025  28.764  27.178  1.00  0.00     0.049 A 
ATOM     55  C   UNL A   1      41.846  29.469  29.219  1.00  0.00     0.074 A 
ATOM     56  C   UNL A   1      47.841  29.881  27.166  1.00  0.00     0.029 A 
ATOM     57  N   UNL A   1      45.813  29.160  27.722  1.00  0.00    -0.354 N 
ATOM     58  N   UNL A   1      43.071  29.468  28.747  1.00  0.00    -0.248 NA
ATOM     59  C   UNL A   1      41.429  30.754  29.798  1.00  0.00     0.031 C 
ATOM     60  C   UNL A   1      47.143  30.938  27.752  1.00  0.00     0.029 A 
ATOM     61  C   UNL A   1      45.866  30.500  28.068  1.00  0.00     0.049 A 
ATOM     62  H   UNL A   1      45.029  28.575  27.844  1.00  0.00     0.167 HD
ATOM     63  C   UNL A   1      43.561  30.755  28.950  1.00  0.00     0.074 A 
ATOM     64  C   UNL A   1      42.493  31.513  29.568  1.00  0.00     0.031 C 
ATOM     65  C   UNL A   1      44.788  31.257  28.657  1.00  0.00     0.034 A 
BRANCH  52  66
ATOM     66  C   UNL A   1      48.709  27.199  26.141  1.00  0.00     0.023 A 
ATOM     67  C   UNL A   1      49.793  26.925  26.997  1.00  0.00     0.031 A 
ATOM     68  C   UNL A   1      48.971  27.381  24.773  1.00  0.00     0.131 A 
ATOM     69  C   UNL A   1      51.094  26.877  26.479  1.00  0.00     0.055 A 
ATOM     70  C   UNL A   1      50.264  27.294  24.256  1.00  0.00     0.041 A 
ATOM     71  F   UNL A   1      47.971  27.642  23.916  1.00  0.00    -0.206 F 
ATOM     72  C   UNL A   1      51.335  27.054  25.112  1.00  0.00     0.022 A 
BRANCH  69  73
ATOM     73  S   UNL A   1      52.529  26.645  27.564  1.00  0.00     0.124 S 
ATOM     74  O   UNL A   1      53.088  27.994  27.613  1.00  0.00    -0.237 OA
ATOM     75  O   UNL A   1      51.905  26.183  28.800  1.00  0.00    -0.237 OA
ATOM     76  O   UNL A   1      53.345  25.661  26.861  1.00  0.00    -0.744 OA
ENDBRANCH  69  73
ENDBRANCH  52  66
BRANCH  53  77
ATOM     77  C   UNL A   1      39.446  28.545  29.732  1.00  0.00     0.023 A 
ATOM     78  C   UNL A   1      38.437  29.038  28.884  1.00  0.00     0.031 A 
ATOM     79  C   UNL A   1      39.130  28.345  31.088  1.00  0.00     0.131 A 
ATOM     80  C   UNL A   1      37.188  29.386  29.415  1.00  0.00     0.055 A 
ATOM     81  C   UNL A   1      37.859  28.623  31.596  1.00  0.00     0.041 A 
ATOM     82  F   UNL A   1      40.060  27.887  31.938  1.00  0.00    -0.206 F 
ATOM     83  C   UNL A   1      36.886  29.165  30.761  1.00  0.00     0.022 A 
BRANCH  80  84
ATOM     84  S   UNL A   1      35.964  30.268  28.405  1.00  0.00     0.124 S 
ATOM     85  O   UNL A   1      34.999  29.214  28.108  1.00  0.00    -0.237 OA
ATOM     86  O   UNL A   1      35.505  31.303  29.328  1.00  0.00    -0.237 OA
ATOM     87  O   UNL A   1      36.741  30.752  27.269  1.00  0.00    -0.744 OA
ENDBRANCH  80  84
ENDBRANCH  53  77
BRANCH  65  88
ATOM     88  C   UNL A   1      45.073  32.705  28.975  1.00  0.00     0.023 A 
ATOM     89  C   UNL A   1      45.517  33.064  30.262  1.00  0.00     0.031 A 
ATOM     90  C   UNL A   1      44.743  33.730  28.073  1.00  0.00     0.131 A 
ATOM     91  C   UNL A   1      45.571  34.415  30.628  1.00  0.00     0.055 A 
ATOM     92  C   UNL A   1      44.845  35.076  28.427  1.00  0.00     0.041 A 
ATOM     93  F   UNL A   1      44.305  33.435  26.838  1.00  0.00    -0.206 F 
ATOM     94  C   UNL A   1      45.244  35.423  29.714  1.00  0.00     0.022 A 
BRANCH  91  95
ATOM     95  S   UNL A   1      45.974  34.909  32.326  1.00  0.00     0.124 S 
ATOM     96  O   UNL A   1      44.689  34.747  33.002  1.00  0.00    -0.237 OA
ATOM     97  O   UNL A   1      47.000  33.938  32.694  1.00  0.00    -0.237 OA
ATOM     98  O   UNL A   1      46.434  36.289  32.192  1.00  0.00    -0.744 OA
ENDBRANCH  91  95
ENDBRANCH  65  88
ENDBRANCH  39  40
ENDBRANCH  31  34
ENDBRANCH  29  30
ENDBRANCH  28  29
ENDBRANCH   1  28
TORSDOF 19
ENDMDL
