MODEL 1
REMARK VINA RESULT:     -11.2      0.000      0.000
REMARK SMILES CC(C)(C)OC(=O)Nc1ccc(-c2cccc(Cl)c2C(=O)NCCCCCCNC(=O)c2ccc(-c3c4nc(c(-c5cc(S(=O)(=O)[O-])ccc5F)c5ccc([nH]5)c(-c5cc(S(=O)(=O)[O-])ccc5F)c5nc(c(-c6cc(S(=O)(=O)[O-])ccc6F)c6ccc3[nH]6)C=C5)C=C4)cc2)cc1
REMARK SMILES IDX 25 1 24 2 23 3 22 4 20 5 21 6 19 8 13 9 14 10 15 11 17 12
REMARK SMILES IDX 16 13 18 14 12 15 9 16 10 17 96 18 11 19 95 20 8 21 6 22
REMARK SMILES IDX 7 23 5 25 2 26 1 27 3 28 4 29 26 30 27 31 28 32 29 33 30 34
REMARK SMILES IDX 31 36 32 37 33 38 94 39 34 40 93 41 35 42 36 43 37 44 87 45
REMARK SMILES IDX 38 46 92 47 86 48 88 49 39 50 91 51 85 52 84 53 40 55 72 56
REMARK SMILES IDX 52 57 71 58 53 59 56 60 70 61 89 62 54 63 55 64 69 66 90 67
REMARK SMILES IDX 57 68 41 69 42 70 50 71 43 72 49 73 51 74 48 75 44 76 45 77
REMARK SMILES IDX 46 78 47 79 73 80 74 81 82 82 75 83 81 84 83 85 80 86 76 87
REMARK SMILES IDX 77 88 78 89 79 90 58 91 59 92 67 93 60 94 66 95 68 96 65 97
REMARK SMILES IDX 61 98 62 99 63 100 64 101
REMARK H PARENT 22 7 8 24 29 35 88 54 56 65
REMARK Flexibility Score: inf
ROOT
ATOM      1  C   UNL A   1      35.367  23.753  23.180  1.00  0.00     0.002 C 
ENDROOT
BRANCH   1   2
ATOM      2  C   UNL A   1      34.351  23.320  22.123  1.00  0.00     0.021 C 
BRANCH   2   3
ATOM      3  C   UNL A   1      32.970  23.959  22.124  1.00  0.00     0.116 C 
BRANCH   3   4
ATOM      4  N   UNL A   1      31.866  23.224  22.681  1.00  0.00    -0.352 N 
ATOM      5  C   UNL A   1      31.614  22.878  23.997  1.00  0.00     0.253 C 
ATOM      6  O   UNL A   1      30.415  22.771  24.277  1.00  0.00    -0.269 OA
ATOM      7  H   UNL A   1      31.191  22.923  22.031  1.00  0.00     0.163 HD
BRANCH   5   8
ATOM      8  C   UNL A   1      32.617  22.568  25.092  1.00  0.00     0.066 A 
ATOM      9  C   UNL A   1      33.032  23.409  26.166  1.00  0.00    -0.004 A 
ATOM     10  C   UNL A   1      33.806  22.858  27.225  1.00  0.00     0.009 A 
ATOM     11  C   UNL A   1      34.195  21.530  27.257  1.00  0.00     0.002 A 
ATOM     12  C   UNL A   1      33.084  21.220  25.127  1.00  0.00     0.054 A 
ATOM     13  C   UNL A   1      33.845  20.715  26.199  1.00  0.00     0.021 A 
ATOM     14  Cl  UNL A   1      32.854  20.077  23.833  1.00  0.00    -0.083 Cl
BRANCH   9  15
ATOM     15  C   UNL A   1      32.807  24.850  26.308  1.00  0.00    -0.017 A 
ATOM     16  C   UNL A   1      32.420  27.648  26.394  1.00  0.00     0.044 A 
ATOM     17  C   UNL A   1      33.629  27.120  25.936  1.00  0.00     0.027 A 
ATOM     18  C   UNL A   1      31.450  26.773  26.893  1.00  0.00     0.027 A 
ATOM     19  C   UNL A   1      33.827  25.740  25.910  1.00  0.00     0.011 A 
ATOM     20  C   UNL A   1      31.640  25.383  26.853  1.00  0.00     0.011 A 
BRANCH  16  21
ATOM     21  N   UNL A   1      32.264  29.035  26.261  1.00  0.00    -0.291 N 
ATOM     22  C   UNL A   1      31.528  29.799  25.399  1.00  0.00     0.412 C 
ATOM     23  O   UNL A   1      31.644  31.018  25.438  1.00  0.00    -0.224 OA
ATOM     24  H   UNL A   1      32.784  29.559  26.913  1.00  0.00     0.173 HD
BRANCH  22  25
ATOM     25  O   UNL A   1      30.740  29.120  24.539  1.00  0.00    -0.444 OA
BRANCH  25  26
ATOM     26  C   UNL A   1      31.234  28.677  23.248  1.00  0.00     0.106 C 
ATOM     27  C   UNL A   1      30.361  29.421  22.232  1.00  0.00     0.056 C 
ATOM     28  C   UNL A   1      31.040  27.168  23.076  1.00  0.00     0.056 C 
ATOM     29  C   UNL A   1      32.692  29.066  23.010  1.00  0.00     0.056 C 
ENDBRANCH  25  26
ENDBRANCH  22  25
ENDBRANCH  16  21
ENDBRANCH   9  15
ENDBRANCH   5   8
ENDBRANCH   3   4
ENDBRANCH   2   3
ENDBRANCH   1   2
BRANCH   1  30
ATOM     30  C   UNL A   1      36.689  22.983  23.276  1.00  0.00     0.002 C 
BRANCH  30  31
ATOM     31  C   UNL A   1      36.810  21.905  24.355  1.00  0.00     0.021 C 
BRANCH  31  32
ATOM     32  C   UNL A   1      37.355  22.323  25.722  1.00  0.00     0.116 C 
BRANCH  32  33
ATOM     33  N   UNL A   1      38.509  21.541  26.125  1.00  0.00    -0.352 N 
ATOM     34  C   UNL A   1      39.761  21.914  26.560  1.00  0.00     0.251 C 
ATOM     35  H   UNL A   1      38.373  20.566  26.078  1.00  0.00     0.163 HD
ATOM     36  O   UNL A   1      40.623  21.036  26.633  1.00  0.00    -0.269 OA
BRANCH  34  37
ATOM     37  C   UNL A   1      40.120  23.314  26.926  1.00  0.00     0.039 A 
ATOM     38  C   UNL A   1      40.848  23.521  28.108  1.00  0.00     0.014 A 
ATOM     39  C   UNL A   1      39.690  24.429  26.206  1.00  0.00     0.014 A 
ATOM     40  C   UNL A   1      41.177  24.817  28.535  1.00  0.00     0.010 A 
ATOM     41  C   UNL A   1      40.085  25.722  26.595  1.00  0.00     0.010 A 
ATOM     42  C   UNL A   1      40.830  25.939  27.767  1.00  0.00    -0.014 A 
BRANCH  42  43
ATOM     43  C   UNL A   1      41.217  27.326  28.191  1.00  0.00     0.031 A 
ATOM     44  C   UNL A   1      42.661  27.758  28.174  1.00  0.00     0.074 A 
ATOM     45  C   UNL A   1      40.289  28.207  28.624  1.00  0.00     0.049 A 
ATOM     46  N   UNL A   1      43.191  28.902  28.537  1.00  0.00    -0.248 NA
ATOM     47  C   UNL A   1      43.637  26.773  27.695  1.00  0.00     0.031 C 
ATOM     48  C   UNL A   1      38.855  27.949  28.670  1.00  0.00     0.029 A 
ATOM     49  N   UNL A   1      40.400  29.489  29.111  1.00  0.00    -0.354 N 
ATOM     50  C   UNL A   1      44.559  28.773  28.328  1.00  0.00     0.074 A 
ATOM     51  C   UNL A   1      44.781  27.411  27.886  1.00  0.00     0.031 C 
ATOM     52  C   UNL A   1      38.216  29.020  29.165  1.00  0.00     0.029 A 
ATOM     53  C   UNL A   1      39.197  30.048  29.487  1.00  0.00     0.049 A 
ATOM     54  H   UNL A   1      41.259  29.963  29.186  1.00  0.00     0.167 HD
ATOM     55  C   UNL A   1      45.536  29.707  28.456  1.00  0.00     0.034 A 
ATOM     56  C   UNL A   1      38.903  31.251  30.023  1.00  0.00     0.034 A 
ATOM     57  C   UNL A   1      45.308  31.063  28.899  1.00  0.00     0.049 A 
ATOM     58  C   UNL A   1      40.016  32.240  30.254  1.00  0.00     0.074 A 
ATOM     59  C   UNL A   1      46.221  32.097  29.012  1.00  0.00     0.029 A 
ATOM     60  N   UNL A   1      44.085  31.572  29.321  1.00  0.00    -0.354 N 
ATOM     61  N   UNL A   1      41.297  32.116  29.998  1.00  0.00    -0.248 NA
ATOM     62  C   UNL A   1      39.638  33.539  30.825  1.00  0.00     0.031 C 
ATOM     63  C   UNL A   1      45.574  33.198  29.585  1.00  0.00     0.029 A 
ATOM     64  C   UNL A   1      44.234  32.887  29.743  1.00  0.00     0.049 A 
ATOM     65  H   UNL A   1      43.237  31.073  29.321  1.00  0.00     0.167 HD
ATOM     66  C   UNL A   1      41.869  33.341  30.329  1.00  0.00     0.074 A 
ATOM     67  C   UNL A   1      40.793  34.188  30.801  1.00  0.00     0.031 C 
ATOM     68  C   UNL A   1      43.166  33.730  30.234  1.00  0.00     0.034 A 
BRANCH  55  69
ATOM     69  C   UNL A   1      46.951  29.269  28.143  1.00  0.00     0.023 A 
ATOM     70  C   UNL A   1      47.365  28.992  26.827  1.00  0.00     0.031 A 
ATOM     71  C   UNL A   1      47.884  29.074  29.176  1.00  0.00     0.131 A 
ATOM     72  C   UNL A   1      48.629  28.434  26.593  1.00  0.00     0.055 A 
ATOM     73  C   UNL A   1      49.178  28.614  28.924  1.00  0.00     0.041 A 
ATOM     74  F   UNL A   1      47.547  29.303  30.456  1.00  0.00    -0.206 F 
ATOM     75  C   UNL A   1      49.551  28.269  27.628  1.00  0.00     0.022 A 
BRANCH  72  76
ATOM     76  S   UNL A   1      48.976  27.744  24.950  1.00  0.00     0.124 S 
ATOM     77  O   UNL A   1      50.252  28.379  24.627  1.00  0.00    -0.237 OA
ATOM     78  O   UNL A   1      49.024  26.311  25.215  1.00  0.00    -0.237 OA
ATOM     79  O   UNL A   1      47.844  28.195  24.143  1.00  0.00    -0.744 OA
ENDBRANCH  72  76
ENDBRANCH  55  69
BRANCH  56  80
ATOM     80  C   UNL A   1      37.494  31.607  30.360  1.00  0.00     0.023 A 
ATOM     81  C   UNL A   1      36.612  32.075  29.372  1.00  0.00     0.031 A 
ATOM     82  C   UNL A   1      37.018  31.527  31.682  1.00  0.00     0.131 A 
ATOM     83  C   UNL A   1      35.318  32.489  29.724  1.00  0.00     0.055 A 
ATOM     84  C   UNL A   1      35.711  31.890  32.019  1.00  0.00     0.041 A 
ATOM     85  F   UNL A   1      37.817  31.085  32.666  1.00  0.00    -0.206 F 
ATOM     86  C   UNL A   1      34.858  32.385  31.039  1.00  0.00     0.022 A 
BRANCH  83  87
ATOM     87  S   UNL A   1      34.269  33.241  28.450  1.00  0.00     0.124 S 
ATOM     88  O   UNL A   1      33.380  34.074  29.252  1.00  0.00    -0.237 OA
ATOM     89  O   UNL A   1      35.248  33.947  27.630  1.00  0.00    -0.237 OA
ATOM     90  O   UNL A   1      33.636  32.090  27.808  1.00  0.00    -0.744 OA
ENDBRANCH  83  87
ENDBRANCH  56  80
BRANCH  68  91
ATOM     91  C   UNL A   1      43.487  35.160  30.605  1.00  0.00     0.023 A 
ATOM     92  C   UNL A   1      43.603  35.572  31.945  1.00  0.00     0.031 A 
ATOM     93  C   UNL A   1      43.661  36.129  29.601  1.00  0.00     0.131 A 
ATOM     94  C   UNL A   1      43.826  36.926  32.245  1.00  0.00     0.055 A 
ATOM     95  C   UNL A   1      43.951  37.461  29.903  1.00  0.00     0.041 A 
ATOM     96  F   UNL A   1      43.551  35.798  28.304  1.00  0.00    -0.206 F 
ATOM     97  C   UNL A   1      44.021  37.868  31.232  1.00  0.00     0.022 A 
BRANCH  94  98
ATOM     98  S   UNL A   1      43.755  37.459  33.977  1.00  0.00     0.124 S 
ATOM     99  O   UNL A   1      43.208  36.277  34.635  1.00  0.00    -0.237 OA
ATOM    100  O   UNL A   1      45.153  37.759  34.269  1.00  0.00    -0.237 OA
ATOM    101  O   UNL A   1      42.866  38.619  33.944  1.00  0.00    -0.744 OA
ENDBRANCH  94  98
ENDBRANCH  68  91
ENDBRANCH  42  43
ENDBRANCH  34  37
ENDBRANCH  32  33
ENDBRANCH  31  32
ENDBRANCH  30  31
ENDBRANCH   1  30
TORSDOF 20
ENDMDL
MODEL 2
REMARK VINA RESULT:     -10.9      3.233      8.362
REMARK SMILES CC(C)(C)OC(=O)Nc1ccc(-c2cccc(Cl)c2C(=O)NCCCCCCNC(=O)c2ccc(-c3c4nc(c(-c5cc(S(=O)(=O)[O-])ccc5F)c5ccc([nH]5)c(-c5cc(S(=O)(=O)[O-])ccc5F)c5nc(c(-c6cc(S(=O)(=O)[O-])ccc6F)c6ccc3[nH]6)C=C5)C=C4)cc2)cc1
REMARK SMILES IDX 25 1 24 2 23 3 22 4 20 5 21 6 19 8 13 9 14 10 15 11 17 12
REMARK SMILES IDX 16 13 18 14 12 15 9 16 10 17 96 18 11 19 95 20 8 21 6 22
REMARK SMILES IDX 7 23 5 25 2 26 1 27 3 28 4 29 26 30 27 31 28 32 29 33 30 34
REMARK SMILES IDX 31 36 32 37 33 38 94 39 34 40 93 41 35 42 36 43 37 44 87 45
REMARK SMILES IDX 38 46 92 47 86 48 88 49 39 50 91 51 85 52 84 53 40 55 72 56
REMARK SMILES IDX 52 57 71 58 53 59 56 60 70 61 89 62 54 63 55 64 69 66 90 67
REMARK SMILES IDX 57 68 41 69 42 70 50 71 43 72 49 73 51 74 48 75 44 76 45 77
REMARK SMILES IDX 46 78 47 79 73 80 74 81 82 82 75 83 81 84 83 85 80 86 76 87
REMARK SMILES IDX 77 88 78 89 79 90 58 91 59 92 67 93 60 94 66 95 68 96 65 97
REMARK SMILES IDX 61 98 62 99 63 100 64 101
REMARK H PARENT 22 7 8 24 29 35 88 54 56 65
REMARK Flexibility Score: inf
ROOT
ATOM      1  C   UNL A   1      39.812  23.403  26.646  1.00  0.00     0.002 C 
ENDROOT
BRANCH   1   2
ATOM      2  C   UNL A   1      38.404  23.811  27.082  1.00  0.00     0.021 C 
BRANCH   2   3
ATOM      3  C   UNL A   1      37.372  24.149  26.014  1.00  0.00     0.116 C 
BRANCH   3   4
ATOM      4  N   UNL A   1      37.495  23.543  24.715  1.00  0.00    -0.352 N 
ATOM      5  C   UNL A   1      36.550  22.860  23.971  1.00  0.00     0.253 C 
ATOM      6  O   UNL A   1      36.707  22.942  22.747  1.00  0.00    -0.269 OA
ATOM      7  H   UNL A   1      38.381  23.626  24.295  1.00  0.00     0.163 HD
BRANCH   5   8
ATOM      8  C   UNL A   1      35.407  21.997  24.472  1.00  0.00     0.066 A 
ATOM      9  C   UNL A   1      34.036  22.358  24.623  1.00  0.00    -0.004 A 
ATOM     10  C   UNL A   1      33.072  21.345  24.886  1.00  0.00     0.009 A 
ATOM     11  C   UNL A   1      33.407  20.008  25.019  1.00  0.00     0.002 A 
ATOM     12  C   UNL A   1      35.725  20.621  24.673  1.00  0.00     0.054 A 
ATOM     13  C   UNL A   1      34.738  19.649  24.927  1.00  0.00     0.021 A 
ATOM     14  Cl  UNL A   1      37.349  19.994  24.720  1.00  0.00    -0.083 Cl
BRANCH   9  15
ATOM     15  C   UNL A   1      33.462  23.706  24.600  1.00  0.00    -0.017 A 
ATOM     16  C   UNL A   1      32.235  26.245  24.414  1.00  0.00     0.044 A 
ATOM     17  C   UNL A   1      32.784  25.645  23.278  1.00  0.00     0.027 A 
ATOM     18  C   UNL A   1      32.390  25.611  25.651  1.00  0.00     0.027 A 
ATOM     19  C   UNL A   1      33.404  24.400  23.373  1.00  0.00     0.011 A 
ATOM     20  C   UNL A   1      33.000  24.351  25.746  1.00  0.00     0.011 A 
BRANCH  16  21
ATOM     21  N   UNL A   1      31.520  27.431  24.199  1.00  0.00    -0.291 N 
ATOM     22  C   UNL A   1      31.716  28.714  24.630  1.00  0.00     0.412 C 
ATOM     23  O   UNL A   1      30.874  29.564  24.368  1.00  0.00    -0.224 OA
ATOM     24  H   UNL A   1      30.726  27.321  23.628  1.00  0.00     0.173 HD
BRANCH  22  25
ATOM     25  O   UNL A   1      32.836  28.926  25.352  1.00  0.00    -0.444 OA
BRANCH  25  26
ATOM     26  C   UNL A   1      32.775  29.321  26.747  1.00  0.00     0.106 C 
ATOM     27  C   UNL A   1      34.155  28.958  27.306  1.00  0.00     0.056 C 
ATOM     28  C   UNL A   1      31.700  28.529  27.495  1.00  0.00     0.056 C 
ATOM     29  C   UNL A   1      32.562  30.824  26.925  1.00  0.00     0.056 C 
ENDBRANCH  25  26
ENDBRANCH  22  25
ENDBRANCH  16  21
ENDBRANCH   9  15
ENDBRANCH   5   8
ENDBRANCH   3   4
ENDBRANCH   2   3
ENDBRANCH   1   2
BRANCH   1  30
ATOM     30  C   UNL A   1      40.441  22.163  27.290  1.00  0.00     0.002 C 
BRANCH  30  31
ATOM     31  C   UNL A   1      40.394  20.851  26.504  1.00  0.00     0.021 C 
BRANCH  31  32
ATOM     32  C   UNL A   1      41.251  19.687  27.006  1.00  0.00     0.116 C 
BRANCH  32  33
ATOM     33  N   UNL A   1      42.272  19.295  26.053  1.00  0.00    -0.352 N 
ATOM     34  C   UNL A   1      43.235  20.024  25.393  1.00  0.00     0.251 C 
ATOM     35  H   UNL A   1      42.278  18.334  25.840  1.00  0.00     0.163 HD
ATOM     36  O   UNL A   1      43.839  19.468  24.473  1.00  0.00    -0.269 OA
BRANCH  34  37
ATOM     37  C   UNL A   1      43.566  21.440  25.723  1.00  0.00     0.039 A 
ATOM     38  C   UNL A   1      44.022  21.727  27.019  1.00  0.00     0.014 A 
ATOM     39  C   UNL A   1      43.355  22.502  24.842  1.00  0.00     0.014 A 
ATOM     40  C   UNL A   1      44.304  23.045  27.409  1.00  0.00     0.010 A 
ATOM     41  C   UNL A   1      43.711  23.811  25.210  1.00  0.00     0.010 A 
ATOM     42  C   UNL A   1      44.186  24.107  26.500  1.00  0.00    -0.014 A 
BRANCH  42  43
ATOM     43  C   UNL A   1      44.530  25.514  26.893  1.00  0.00     0.031 A 
ATOM     44  C   UNL A   1      43.470  26.440  27.436  1.00  0.00     0.074 A 
ATOM     45  C   UNL A   1      45.783  25.994  26.740  1.00  0.00     0.049 A 
ATOM     46  N   UNL A   1      43.570  27.697  27.795  1.00  0.00    -0.248 NA
ATOM     47  C   UNL A   1      42.123  25.879  27.587  1.00  0.00     0.031 C 
ATOM     48  C   UNL A   1      46.919  25.217  26.257  1.00  0.00     0.029 A 
ATOM     49  N   UNL A   1      46.321  27.241  26.967  1.00  0.00    -0.354 N 
ATOM     50  C   UNL A   1      42.300  28.075  28.216  1.00  0.00     0.074 A 
ATOM     51  C   UNL A   1      41.434  26.936  27.987  1.00  0.00     0.031 C 
ATOM     52  C   UNL A   1      48.012  25.993  26.208  1.00  0.00     0.029 A 
ATOM     53  C   UNL A   1      47.659  27.337  26.647  1.00  0.00     0.049 A 
ATOM     54  H   UNL A   1      45.798  27.995  27.323  1.00  0.00     0.167 HD
ATOM     55  C   UNL A   1      41.896  29.246  28.773  1.00  0.00     0.034 A 
ATOM     56  C   UNL A   1      48.515  28.378  26.704  1.00  0.00     0.034 A 
ATOM     57  C   UNL A   1      42.765  30.378  28.997  1.00  0.00     0.049 A 
ATOM     58  C   UNL A   1      48.023  29.701  27.230  1.00  0.00     0.074 A 
ATOM     59  C   UNL A   1      42.466  31.588  29.600  1.00  0.00     0.029 A 
ATOM     60  N   UNL A   1      44.098  30.454  28.610  1.00  0.00    -0.354 N 
ATOM     61  N   UNL A   1      46.831  30.021  27.675  1.00  0.00    -0.248 NA
ATOM     62  C   UNL A   1      49.001  30.795  27.285  1.00  0.00     0.031 C 
ATOM     63  C   UNL A   1      43.584  32.423  29.498  1.00  0.00     0.029 A 
ATOM     64  C   UNL A   1      44.616  31.706  28.916  1.00  0.00     0.049 A 
ATOM     65  H   UNL A   1      44.602  29.726  28.181  1.00  0.00     0.167 HD
ATOM     66  C   UNL A   1      46.930  31.339  28.109  1.00  0.00     0.074 A 
ATOM     67  C   UNL A   1      48.299  31.753  27.874  1.00  0.00     0.031 C 
ATOM     68  C   UNL A   1      45.976  32.129  28.666  1.00  0.00     0.034 A 
BRANCH  55  69
ATOM     69  C   UNL A   1      40.434  29.363  29.144  1.00  0.00     0.023 A 
ATOM     70  C   UNL A   1      40.006  29.315  30.484  1.00  0.00     0.031 A 
ATOM     71  C   UNL A   1      39.449  29.469  28.147  1.00  0.00     0.131 A 
ATOM     72  C   UNL A   1      38.636  29.262  30.780  1.00  0.00     0.055 A 
ATOM     73  C   UNL A   1      38.088  29.518  28.456  1.00  0.00     0.041 A 
ATOM     74  F   UNL A   1      39.790  29.501  26.848  1.00  0.00    -0.206 F 
ATOM     75  C   UNL A   1      37.673  29.392  29.778  1.00  0.00     0.022 A 
BRANCH  72  76
ATOM     76  S   UNL A   1      38.136  28.821  32.468  1.00  0.00     0.124 S 
ATOM     77  O   UNL A   1      36.728  29.212  32.470  1.00  0.00    -0.237 OA
ATOM     78  O   UNL A   1      38.403  27.389  32.512  1.00  0.00    -0.237 OA
ATOM     79  O   UNL A   1      39.002  29.646  33.308  1.00  0.00    -0.744 OA
ENDBRANCH  72  76
ENDBRANCH  55  69
BRANCH  56  80
ATOM     80  C   UNL A   1      49.935  28.216  26.274  1.00  0.00     0.023 A 
ATOM     81  C   UNL A   1      50.284  28.241  24.914  1.00  0.00     0.031 A 
ATOM     82  C   UNL A   1      50.959  27.991  27.212  1.00  0.00     0.131 A 
ATOM     83  C   UNL A   1      51.611  27.999  24.525  1.00  0.00     0.055 A 
ATOM     84  C   UNL A   1      52.288  27.803  26.824  1.00  0.00     0.041 A 
ATOM     85  F   UNL A   1      50.683  27.959  28.526  1.00  0.00    -0.206 F 
ATOM     86  C   UNL A   1      52.617  27.794  25.472  1.00  0.00     0.022 A 
BRANCH  83  87
ATOM     87  S   UNL A   1      51.988  27.874  22.755  1.00  0.00     0.124 S 
ATOM     88  O   UNL A   1      52.789  26.655  22.708  1.00  0.00    -0.237 OA
ATOM     89  O   UNL A   1      50.657  27.793  22.166  1.00  0.00    -0.237 OA
ATOM     90  O   UNL A   1      52.717  29.110  22.476  1.00  0.00    -0.744 OA
ENDBRANCH  83  87
ENDBRANCH  56  80
BRANCH  68  91
ATOM     91  C   UNL A   1      46.396  33.512  29.108  1.00  0.00     0.023 A 
ATOM     92  C   UNL A   1      46.312  34.624  28.251  1.00  0.00     0.031 A 
ATOM     93  C   UNL A   1      46.906  33.716  30.403  1.00  0.00     0.131 A 
ATOM     94  C   UNL A   1      46.785  35.875  28.678  1.00  0.00     0.055 A 
ATOM     95  C   UNL A   1      47.310  34.976  30.846  1.00  0.00     0.041 A 
ATOM     96  F   UNL A   1      47.019  32.691  31.262  1.00  0.00    -0.206 F 
ATOM     97  C   UNL A   1      47.265  36.062  29.977  1.00  0.00     0.022 A 
BRANCH  94  98
ATOM     98  S   UNL A   1      46.863  37.235  27.480  1.00  0.00     0.124 S 
ATOM     99  O   UNL A   1      46.132  36.680  26.345  1.00  0.00    -0.237 OA
ATOM    100  O   UNL A   1      46.199  38.320  28.195  1.00  0.00    -0.237 OA
ATOM    101  O   UNL A   1      48.296  37.421  27.264  1.00  0.00    -0.744 OA
ENDBRANCH  94  98
ENDBRANCH  68  91
ENDBRANCH  42  43
ENDBRANCH  34  37
ENDBRANCH  32  33
ENDBRANCH  31  32
ENDBRANCH  30  31
ENDBRANCH   1  30
TORSDOF 20
ENDMDL
MODEL 3
REMARK VINA RESULT:     -10.9      2.372      3.364
REMARK SMILES CC(C)(C)OC(=O)Nc1ccc(-c2cccc(Cl)c2C(=O)NCCCCCCNC(=O)c2ccc(-c3c4nc(c(-c5cc(S(=O)(=O)[O-])ccc5F)c5ccc([nH]5)c(-c5cc(S(=O)(=O)[O-])ccc5F)c5nc(c(-c6cc(S(=O)(=O)[O-])ccc6F)c6ccc3[nH]6)C=C5)C=C4)cc2)cc1
REMARK SMILES IDX 25 1 24 2 23 3 22 4 20 5 21 6 19 8 13 9 14 10 15 11 17 12
REMARK SMILES IDX 16 13 18 14 12 15 9 16 10 17 96 18 11 19 95 20 8 21 6 22
REMARK SMILES IDX 7 23 5 25 2 26 1 27 3 28 4 29 26 30 27 31 28 32 29 33 30 34
REMARK SMILES IDX 31 36 32 37 33 38 94 39 34 40 93 41 35 42 36 43 37 44 87 45
REMARK SMILES IDX 38 46 92 47 86 48 88 49 39 50 91 51 85 52 84 53 40 55 72 56
REMARK SMILES IDX 52 57 71 58 53 59 56 60 70 61 89 62 54 63 55 64 69 66 90 67
REMARK SMILES IDX 57 68 41 69 42 70 50 71 43 72 49 73 51 74 48 75 44 76 45 77
REMARK SMILES IDX 46 78 47 79 73 80 74 81 82 82 75 83 81 84 83 85 80 86 76 87
REMARK SMILES IDX 77 88 78 89 79 90 58 91 59 92 67 93 60 94 66 95 68 96 65 97
REMARK SMILES IDX 61 98 62 99 63 100 64 101
REMARK H PARENT 22 7 8 24 29 35 88 54 56 65
REMARK Flexibility Score: inf
ROOT
ATOM      1  C   UNL A   1      39.825  23.508  26.554  1.00  0.00     0.002 C 
ENDROOT
BRANCH   1   2
ATOM      2  C   UNL A   1      38.554  24.302  26.860  1.00  0.00     0.021 C 
BRANCH   2   3
ATOM      3  C   UNL A   1      37.284  23.986  26.083  1.00  0.00     0.116 C 
BRANCH   3   4
ATOM      4  N   UNL A   1      37.393  23.285  24.831  1.00  0.00    -0.352 N 
ATOM      5  C   UNL A   1      36.402  22.710  24.056  1.00  0.00     0.253 C 
ATOM      6  O   UNL A   1      36.650  22.686  22.845  1.00  0.00    -0.269 OA
ATOM      7  H   UNL A   1      38.307  23.202  24.475  1.00  0.00     0.163 HD
BRANCH   5   8
ATOM      8  C   UNL A   1      35.105  22.071  24.516  1.00  0.00     0.066 A 
ATOM      9  C   UNL A   1      33.837  22.695  24.700  1.00  0.00    -0.004 A 
ATOM     10  C   UNL A   1      32.685  21.886  24.911  1.00  0.00     0.009 A 
ATOM     11  C   UNL A   1      32.739  20.504  24.962  1.00  0.00     0.002 A 
ATOM     12  C   UNL A   1      35.134  20.649  24.632  1.00  0.00     0.054 A 
ATOM     13  C   UNL A   1      33.968  19.887  24.837  1.00  0.00     0.021 A 
ATOM     14  Cl  UNL A   1      36.596  19.702  24.627  1.00  0.00    -0.083 Cl
BRANCH   9  15
ATOM     15  C   UNL A   1      33.550  24.131  24.761  1.00  0.00    -0.017 A 
ATOM     16  C   UNL A   1      33.115  26.910  25.034  1.00  0.00     0.044 A 
ATOM     17  C   UNL A   1      32.895  26.055  26.117  1.00  0.00     0.027 A 
ATOM     18  C   UNL A   1      33.460  26.355  23.798  1.00  0.00     0.027 A 
ATOM     19  C   UNL A   1      33.093  24.682  25.978  1.00  0.00     0.011 A 
ATOM     20  C   UNL A   1      33.675  24.975  23.659  1.00  0.00     0.011 A 
BRANCH  16  21
ATOM     21  N   UNL A   1      33.017  28.282  25.304  1.00  0.00    -0.291 N 
ATOM     22  C   UNL A   1      31.989  29.174  25.167  1.00  0.00     0.412 C 
ATOM     23  O   UNL A   1      32.199  30.360  25.393  1.00  0.00    -0.224 OA
ATOM     24  H   UNL A   1      33.844  28.679  25.660  1.00  0.00     0.173 HD
BRANCH  22  25
ATOM     25  O   UNL A   1      30.814  28.657  24.756  1.00  0.00    -0.444 OA
BRANCH  25  26
ATOM     26  C   UNL A   1      30.248  28.995  23.462  1.00  0.00     0.106 C 
ATOM     27  C   UNL A   1      29.317  27.823  23.136  1.00  0.00     0.056 C 
ATOM     28  C   UNL A   1      31.341  29.089  22.394  1.00  0.00     0.056 C 
ATOM     29  C   UNL A   1      29.417  30.277  23.499  1.00  0.00     0.056 C 
ENDBRANCH  25  26
ENDBRANCH  22  25
ENDBRANCH  16  21
ENDBRANCH   9  15
ENDBRANCH   5   8
ENDBRANCH   3   4
ENDBRANCH   2   3
ENDBRANCH   1   2
BRANCH   1  30
ATOM     30  C   UNL A   1      40.023  22.157  27.249  1.00  0.00     0.002 C 
BRANCH  30  31
ATOM     31  C   UNL A   1      40.280  20.933  26.367  1.00  0.00     0.021 C 
BRANCH  31  32
ATOM     32  C   UNL A   1      41.224  19.854  26.902  1.00  0.00     0.116 C 
BRANCH  32  33
ATOM     33  N   UNL A   1      42.368  19.635  26.036  1.00  0.00    -0.352 N 
ATOM     34  C   UNL A   1      43.291  20.506  25.502  1.00  0.00     0.251 C 
ATOM     35  H   UNL A   1      42.509  18.694  25.784  1.00  0.00     0.163 HD
ATOM     36  O   UNL A   1      44.039  20.074  24.623  1.00  0.00    -0.269 OA
BRANCH  34  37
ATOM     37  C   UNL A   1      43.416  21.932  25.921  1.00  0.00     0.039 A 
ATOM     38  C   UNL A   1      43.743  22.200  27.259  1.00  0.00     0.014 A 
ATOM     39  C   UNL A   1      43.132  23.006  25.077  1.00  0.00     0.014 A 
ATOM     40  C   UNL A   1      43.829  23.519  27.730  1.00  0.00     0.010 A 
ATOM     41  C   UNL A   1      43.293  24.327  25.531  1.00  0.00     0.010 A 
ATOM     42  C   UNL A   1      43.638  24.607  26.865  1.00  0.00    -0.014 A 
BRANCH  42  43
ATOM     43  C   UNL A   1      43.773  26.023  27.347  1.00  0.00     0.031 A 
ATOM     44  C   UNL A   1      45.116  26.709  27.344  1.00  0.00     0.074 A 
ATOM     45  C   UNL A   1      42.707  26.702  27.822  1.00  0.00     0.049 A 
ATOM     46  N   UNL A   1      45.434  27.913  27.754  1.00  0.00    -0.248 NA
ATOM     47  C   UNL A   1      46.248  25.937  26.819  1.00  0.00     0.031 C 
ATOM     48  C   UNL A   1      41.343  26.187  27.862  1.00  0.00     0.029 A 
ATOM     49  N   UNL A   1      42.590  27.962  28.364  1.00  0.00    -0.354 N 
ATOM     50  C   UNL A   1      46.801  28.043  27.534  1.00  0.00     0.074 A 
ATOM     51  C   UNL A   1      47.260  26.764  27.032  1.00  0.00     0.031 C 
ATOM     52  C   UNL A   1      40.527  27.103  28.406  1.00  0.00     0.029 A 
ATOM     53  C   UNL A   1      41.310  28.277  28.769  1.00  0.00     0.049 A 
ATOM     54  H   UNL A   1      43.350  28.580  28.456  1.00  0.00     0.167 HD
ATOM     55  C   UNL A   1      47.595  29.132  27.699  1.00  0.00     0.034 A 
ATOM     56  C   UNL A   1      40.811  29.383  29.358  1.00  0.00     0.034 A 
ATOM     57  C   UNL A   1      47.130  30.404  28.201  1.00  0.00     0.049 A 
ATOM     58  C   UNL A   1      41.729  30.547  29.627  1.00  0.00     0.074 A 
ATOM     59  C   UNL A   1      47.843  31.581  28.356  1.00  0.00     0.029 A 
ATOM     60  N   UNL A   1      45.841  30.666  28.650  1.00  0.00    -0.354 N 
ATOM     61  N   UNL A   1      43.008  30.668  29.361  1.00  0.00    -0.248 NA
ATOM     62  C   UNL A   1      41.130  31.731  30.256  1.00  0.00     0.031 C 
ATOM     63  C   UNL A   1      47.015  32.522  28.979  1.00  0.00     0.029 A 
ATOM     64  C   UNL A   1      45.755  31.967  29.128  1.00  0.00     0.049 A 
ATOM     65  H   UNL A   1      45.097  30.022  28.632  1.00  0.00     0.167 HD
ATOM     66  C   UNL A   1      43.354  31.960  29.743  1.00  0.00     0.074 A 
ATOM     67  C   UNL A   1      42.149  32.579  30.256  1.00  0.00     0.031 C 
ATOM     68  C   UNL A   1      44.558  32.582  29.660  1.00  0.00     0.034 A 
BRANCH  55  69
ATOM     69  C   UNL A   1      49.061  28.971  27.362  1.00  0.00     0.023 A 
ATOM     70  C   UNL A   1      49.520  28.990  26.031  1.00  0.00     0.031 A 
ATOM     71  C   UNL A   1      50.008  28.741  28.376  1.00  0.00     0.131 A 
ATOM     72  C   UNL A   1      50.857  28.676  25.747  1.00  0.00     0.055 A 
ATOM     73  C   UNL A   1      51.358  28.530  28.091  1.00  0.00     0.041 A 
ATOM     74  F   UNL A   1      49.632  28.692  29.665  1.00  0.00    -0.206 F 
ATOM     75  C   UNL A   1      51.787  28.474  26.768  1.00  0.00     0.022 A 
BRANCH  72  76
ATOM     76  S   UNL A   1      51.314  28.340  24.023  1.00  0.00     0.124 S 
ATOM     77  O   UNL A   1      50.122  27.656  23.529  1.00  0.00    -0.237 OA
ATOM     78  O   UNL A   1      51.551  29.678  23.493  1.00  0.00    -0.237 OA
ATOM     79  O   UNL A   1      52.501  27.495  24.142  1.00  0.00    -0.744 OA
ENDBRANCH  72  76
ENDBRANCH  55  69
BRANCH  56  80
ATOM     80  C   UNL A   1      39.364  29.464  29.715  1.00  0.00     0.023 A 
ATOM     81  C   UNL A   1      38.465  30.194  28.920  1.00  0.00     0.031 A 
ATOM     82  C   UNL A   1      38.866  28.852  30.880  1.00  0.00     0.131 A 
ATOM     83  C   UNL A   1      37.126  30.331  29.321  1.00  0.00     0.055 A 
ATOM     84  C   UNL A   1      37.521  28.947  31.246  1.00  0.00     0.041 A 
ATOM     85  F   UNL A   1      39.681  28.141  31.676  1.00  0.00    -0.206 F 
ATOM     86  C   UNL A   1      36.646  29.701  30.471  1.00  0.00     0.022 A 
BRANCH  83  87
ATOM     87  S   UNL A   1      36.038  31.416  28.356  1.00  0.00     0.124 S 
ATOM     88  O   UNL A   1      35.681  30.555  27.234  1.00  0.00    -0.237 OA
ATOM     89  O   UNL A   1      34.974  31.703  29.311  1.00  0.00    -0.237 OA
ATOM     90  O   UNL A   1      36.898  32.550  28.023  1.00  0.00    -0.744 OA
ENDBRANCH  83  87
ENDBRANCH  56  80
BRANCH  68  91
ATOM     91  C   UNL A   1      44.620  34.029  30.092  1.00  0.00     0.023 A 
ATOM     92  C   UNL A   1      44.293  35.081  29.218  1.00  0.00     0.031 A 
ATOM     93  C   UNL A   1      45.030  34.361  31.396  1.00  0.00     0.131 A 
ATOM     94  C   UNL A   1      44.439  36.413  29.638  1.00  0.00     0.055 A 
ATOM     95  C   UNL A   1      45.107  35.684  31.830  1.00  0.00     0.041 A 
ATOM     96  F   UNL A   1      45.364  33.400  32.272  1.00  0.00    -0.206 F 
ATOM     97  C   UNL A   1      44.824  36.720  30.945  1.00  0.00     0.022 A 
BRANCH  94  98
ATOM     98  S   UNL A   1      44.218  37.741  28.423  1.00  0.00     0.124 S 
ATOM     99  O   UNL A   1      44.058  36.991  27.181  1.00  0.00    -0.237 OA
ATOM    100  O   UNL A   1      43.023  38.419  28.914  1.00  0.00    -0.237 OA
ATOM    101  O   UNL A   1      45.455  38.512  28.527  1.00  0.00    -0.744 OA
ENDBRANCH  94  98
ENDBRANCH  68  91
ENDBRANCH  42  43
ENDBRANCH  34  37
ENDBRANCH  32  33
ENDBRANCH  31  32
ENDBRANCH  30  31
ENDBRANCH   1  30
TORSDOF 20
ENDMDL
