MODEL 1
REMARK VINA RESULT:     -12.2      0.000      0.000
REMARK SMILES Cc1ccccc1C[C@H](C[C@@H]1Cc2ccccc21)C(=O)NCCCCCCNC(=O)c1ccc(-c2c3nc(c(-c4cc(S(=O)(=O)[O-])ccc4F)c4ccc([nH]4)c(-c4cc(S(=O)(=O)[O-])ccc4F)c4nc(c(-c5cc(S(=O)(=O)[O-])ccc5F)c5ccc2[nH]5)C=C4)C=C3)cc1
REMARK SMILES IDX 25 1 24 2 23 3 22 4 21 5 19 6 20 7 9 9 8 10 7 11 1 12 2 13
REMARK SMILES IDX 3 14 4 15 6 16 5 17 10 18 11 19 12 20 18 21 13 22 17 23
REMARK SMILES IDX 14 24 16 25 15 26 26 27 27 28 28 29 29 30 30 32 31 33 32 34
REMARK SMILES IDX 93 35 33 36 92 37 34 38 35 39 36 40 86 41 37 42 91 43 85 44
REMARK SMILES IDX 87 45 38 46 90 47 84 48 83 49 39 51 71 52 51 53 70 54 52 55
REMARK SMILES IDX 55 56 69 57 88 58 53 59 54 60 68 62 89 63 56 64 40 65 41 66
REMARK SMILES IDX 49 67 42 68 48 69 50 70 47 71 43 72 44 73 45 74 46 75 72 76
REMARK SMILES IDX 73 77 81 78 74 79 80 80 82 81 79 82 75 83 76 84 77 85 78 86
REMARK SMILES IDX 57 87 58 88 66 89 59 90 65 91 67 92 64 93 60 94 61 95 62 96
REMARK SMILES IDX 63 97
REMARK H PARENT 21 8 28 31 87 50 55 61
REMARK Flexibility Score: inf
ROOT
ATOM      1  C   UNL A   1      32.392  30.109  26.539  1.00  0.00     0.002 C 
ENDROOT
BRANCH   1   2
ATOM      2  C   UNL A   1      31.984  28.745  25.961  1.00  0.00     0.002 C 
BRANCH   2   3
ATOM      3  C   UNL A   1      31.873  28.628  24.438  1.00  0.00     0.021 C 
BRANCH   3   4
ATOM      4  C   UNL A   1      31.234  27.351  23.899  1.00  0.00     0.116 C 
BRANCH   4   5
ATOM      5  N   UNL A   1      30.299  26.712  24.800  1.00  0.00    -0.356 N 
ATOM      6  C   UNL A   1      30.492  25.689  25.676  1.00  0.00     0.223 C 
ATOM      7  O   UNL A   1      29.651  25.543  26.572  1.00  0.00    -0.275 OA
ATOM      8  H   UNL A   1      29.384  27.072  24.776  1.00  0.00     0.163 HD
BRANCH   6   9
ATOM      9  C   UNL A   1      31.672  24.708  25.605  1.00  0.00     0.083 C 
BRANCH   9  10
ATOM     10  C   UNL A   1      31.299  23.259  26.008  1.00  0.00     0.049 C 
BRANCH  10  11
ATOM     11  C   UNL A   1      32.227  22.128  25.611  1.00  0.00    -0.044 A 
ATOM     12  C   UNL A   1      33.546  22.205  27.815  1.00  0.00     0.044 C 
ATOM     13  C   UNL A   1      33.279  21.670  26.434  1.00  0.00    -0.048 A 
ATOM     14  C   UNL A   1      34.171  20.702  25.934  1.00  0.00     0.004 A 
ATOM     15  C   UNL A   1      34.004  20.154  24.664  1.00  0.00     0.000 A 
ATOM     16  C   UNL A   1      32.038  21.512  24.358  1.00  0.00     0.004 A 
ATOM     17  C   UNL A   1      32.927  20.547  23.881  1.00  0.00     0.000 A 
ENDBRANCH  10  11
ENDBRANCH   9  10
BRANCH   9  18
ATOM     18  C   UNL A   1      33.027  25.193  26.147  1.00  0.00     0.022 C 
BRANCH  18  19
ATOM     19  C   UNL A   1      34.028  25.498  25.024  1.00  0.00     0.025 C 
ATOM     20  C   UNL A   1      33.688  24.920  23.595  1.00  0.00     0.044 C 
ATOM     21  C   UNL A   1      35.187  24.528  25.010  1.00  0.00    -0.041 A 
ATOM     22  C   UNL A   1      34.859  24.000  23.786  1.00  0.00    -0.044 A 
ATOM     23  C   UNL A   1      36.276  24.095  25.731  1.00  0.00     0.004 A 
ATOM     24  C   UNL A   1      35.594  22.988  23.217  1.00  0.00     0.004 A 
ATOM     25  C   UNL A   1      37.044  23.071  25.177  1.00  0.00     0.000 A 
ATOM     26  C   UNL A   1      36.701  22.517  23.929  1.00  0.00     0.000 A 
ENDBRANCH  18  19
ENDBRANCH   9  18
ENDBRANCH   6   9
ENDBRANCH   4   5
ENDBRANCH   3   4
ENDBRANCH   2   3
ENDBRANCH   1   2
BRANCH   1  27
ATOM     27  C   UNL A   1      33.859  30.280  26.929  1.00  0.00     0.021 C 
BRANCH  27  28
ATOM     28  C   UNL A   1      34.140  30.235  28.427  1.00  0.00     0.116 C 
BRANCH  28  29
ATOM     29  N   UNL A   1      35.061  31.283  28.866  1.00  0.00    -0.352 N 
ATOM     30  C   UNL A   1      36.418  31.200  29.152  1.00  0.00     0.251 C 
ATOM     31  H   UNL A   1      34.662  32.176  28.976  1.00  0.00     0.163 HD
ATOM     32  O   UNL A   1      37.065  32.151  29.536  1.00  0.00    -0.269 OA
BRANCH  30  33
ATOM     33  C   UNL A   1      37.104  29.928  28.826  1.00  0.00     0.039 A 
ATOM     34  C   UNL A   1      37.387  29.076  29.899  1.00  0.00     0.014 A 
ATOM     35  C   UNL A   1      37.709  29.746  27.587  1.00  0.00     0.014 A 
ATOM     36  C   UNL A   1      38.471  28.211  29.805  1.00  0.00     0.010 A 
ATOM     37  C   UNL A   1      38.841  28.953  27.522  1.00  0.00     0.010 A 
ATOM     38  C   UNL A   1      39.266  28.252  28.657  1.00  0.00    -0.014 A 
BRANCH  38  39
ATOM     39  C   UNL A   1      40.635  27.741  28.649  1.00  0.00     0.031 A 
ATOM     40  C   UNL A   1      40.930  26.354  28.236  1.00  0.00     0.074 A 
ATOM     41  C   UNL A   1      41.658  28.516  29.071  1.00  0.00     0.049 A 
ATOM     42  N   UNL A   1      41.878  25.634  28.739  1.00  0.00    -0.248 NA
ATOM     43  C   UNL A   1      40.146  25.653  27.229  1.00  0.00     0.031 C 
ATOM     44  C   UNL A   1      43.088  28.223  28.973  1.00  0.00     0.029 A 
ATOM     45  N   UNL A   1      41.632  29.659  29.846  1.00  0.00    -0.354 N 
ATOM     46  C   UNL A   1      42.030  24.529  27.936  1.00  0.00     0.074 A 
ATOM     47  C   UNL A   1      40.875  24.545  27.064  1.00  0.00     0.031 C 
ATOM     48  C   UNL A   1      43.745  28.968  29.878  1.00  0.00     0.029 A 
ATOM     49  C   UNL A   1      42.753  29.671  30.671  1.00  0.00     0.049 A 
ATOM     50  H   UNL A   1      40.934  30.351  29.820  1.00  0.00     0.167 HD
ATOM     51  C   UNL A   1      43.188  23.809  27.977  1.00  0.00     0.034 A 
ATOM     52  C   UNL A   1      42.683  29.664  32.034  1.00  0.00     0.034 A 
ATOM     53  C   UNL A   1      44.140  24.351  28.946  1.00  0.00     0.049 A 
ATOM     54  C   UNL A   1      43.380  28.475  32.668  1.00  0.00     0.074 A 
ATOM     55  C   UNL A   1      45.272  25.138  28.800  1.00  0.00     0.029 A 
ATOM     56  N   UNL A   1      43.854  24.327  30.307  1.00  0.00    -0.354 N 
ATOM     57  N   UNL A   1      43.736  27.403  32.015  1.00  0.00    -0.248 NA
ATOM     58  C   UNL A   1      43.700  28.387  34.089  1.00  0.00     0.031 C 
ATOM     59  C   UNL A   1      45.647  25.617  30.080  1.00  0.00     0.029 A 
ATOM     60  C   UNL A   1      44.756  25.107  31.008  1.00  0.00     0.049 A 
ATOM     61  H   UNL A   1      43.112  23.824  30.715  1.00  0.00     0.167 HD
ATOM     62  C   UNL A   1      44.277  26.486  32.883  1.00  0.00     0.074 A 
ATOM     63  C   UNL A   1      44.260  27.166  34.166  1.00  0.00     0.031 C 
ATOM     64  C   UNL A   1      44.668  25.245  32.458  1.00  0.00     0.034 A 
BRANCH  51  65
ATOM     65  C   UNL A   1      43.588  22.826  26.895  1.00  0.00     0.023 A 
ATOM     66  C   UNL A   1      42.991  21.548  26.860  1.00  0.00     0.031 A 
ATOM     67  C   UNL A   1      44.566  23.058  25.911  1.00  0.00     0.131 A 
ATOM     68  C   UNL A   1      43.453  20.542  25.993  1.00  0.00     0.055 A 
ATOM     69  C   UNL A   1      45.072  22.042  25.088  1.00  0.00     0.041 A 
ATOM     70  F   UNL A   1      45.041  24.290  25.672  1.00  0.00    -0.206 F 
ATOM     71  C   UNL A   1      44.527  20.767  25.140  1.00  0.00     0.022 A 
BRANCH  68  72
ATOM     72  S   UNL A   1      42.620  18.930  25.995  1.00  0.00     0.124 S 
ATOM     73  O   UNL A   1      43.501  18.124  25.158  1.00  0.00    -0.237 OA
ATOM     74  O   UNL A   1      42.592  18.600  27.415  1.00  0.00    -0.237 OA
ATOM     75  O   UNL A   1      41.313  19.225  25.407  1.00  0.00    -0.744 OA
ENDBRANCH  68  72
ENDBRANCH  51  65
BRANCH  52  76
ATOM     76  C   UNL A   1      41.468  30.328  32.582  1.00  0.00     0.023 A 
ATOM     77  C   UNL A   1      41.454  31.737  32.598  1.00  0.00     0.031 A 
ATOM     78  C   UNL A   1      40.246  29.656  32.718  1.00  0.00     0.131 A 
ATOM     79  C   UNL A   1      40.237  32.432  32.573  1.00  0.00     0.055 A 
ATOM     80  C   UNL A   1      39.034  30.356  32.757  1.00  0.00     0.041 A 
ATOM     81  F   UNL A   1      40.193  28.317  32.684  1.00  0.00    -0.206 F 
ATOM     82  C   UNL A   1      39.023  31.747  32.637  1.00  0.00     0.022 A 
BRANCH  79  83
ATOM     83  S   UNL A   1      40.241  34.210  32.185  1.00  0.00     0.124 S 
ATOM     84  O   UNL A   1      41.084  34.262  30.998  1.00  0.00    -0.237 OA
ATOM     85  O   UNL A   1      38.825  34.501  31.972  1.00  0.00    -0.237 OA
ATOM     86  O   UNL A   1      40.801  34.814  33.392  1.00  0.00    -0.744 OA
ENDBRANCH  79  83
ENDBRANCH  52  76
BRANCH  64  87
ATOM     87  C   UNL A   1      45.097  24.082  33.337  1.00  0.00     0.023 A 
ATOM     88  C   UNL A   1      46.348  23.996  33.966  1.00  0.00     0.031 A 
ATOM     89  C   UNL A   1      44.202  23.019  33.628  1.00  0.00     0.131 A 
ATOM     90  C   UNL A   1      46.701  22.883  34.755  1.00  0.00     0.055 A 
ATOM     91  C   UNL A   1      44.528  21.950  34.470  1.00  0.00     0.041 A 
ATOM     92  F   UNL A   1      42.964  22.975  33.116  1.00  0.00    -0.206 F 
ATOM     93  C   UNL A   1      45.792  21.867  35.028  1.00  0.00     0.022 A 
BRANCH  90  94
ATOM     94  S   UNL A   1      48.404  22.767  35.365  1.00  0.00     0.124 S 
ATOM     95  O   UNL A   1      48.873  21.544  34.719  1.00  0.00    -0.237 OA
ATOM     96  O   UNL A   1      48.996  24.007  34.877  1.00  0.00    -0.237 OA
ATOM     97  O   UNL A   1      48.247  22.681  36.816  1.00  0.00    -0.744 OA
ENDBRANCH  90  94
ENDBRANCH  64  87
ENDBRANCH  38  39
ENDBRANCH  30  33
ENDBRANCH  28  29
ENDBRANCH  27  28
ENDBRANCH   1  27
TORSDOF 20
ENDMDL
MODEL 2
REMARK VINA RESULT:     -12.1      2.238      2.605
REMARK SMILES Cc1ccccc1C[C@H](C[C@@H]1Cc2ccccc21)C(=O)NCCCCCCNC(=O)c1ccc(-c2c3nc(c(-c4cc(S(=O)(=O)[O-])ccc4F)c4ccc([nH]4)c(-c4cc(S(=O)(=O)[O-])ccc4F)c4nc(c(-c5cc(S(=O)(=O)[O-])ccc5F)c5ccc2[nH]5)C=C4)C=C3)cc1
REMARK SMILES IDX 25 1 24 2 23 3 22 4 21 5 19 6 20 7 9 9 8 10 7 11 1 12 2 13
REMARK SMILES IDX 3 14 4 15 6 16 5 17 10 18 11 19 12 20 18 21 13 22 17 23
REMARK SMILES IDX 14 24 16 25 15 26 26 27 27 28 28 29 29 30 30 32 31 33 32 34
REMARK SMILES IDX 93 35 33 36 92 37 34 38 35 39 36 40 86 41 37 42 91 43 85 44
REMARK SMILES IDX 87 45 38 46 90 47 84 48 83 49 39 51 71 52 51 53 70 54 52 55
REMARK SMILES IDX 55 56 69 57 88 58 53 59 54 60 68 62 89 63 56 64 40 65 41 66
REMARK SMILES IDX 49 67 42 68 48 69 50 70 47 71 43 72 44 73 45 74 46 75 72 76
REMARK SMILES IDX 73 77 81 78 74 79 80 80 82 81 79 82 75 83 76 84 77 85 78 86
REMARK SMILES IDX 57 87 58 88 66 89 59 90 65 91 67 92 64 93 60 94 61 95 62 96
REMARK SMILES IDX 63 97
REMARK H PARENT 21 8 28 31 87 50 55 61
REMARK Flexibility Score: inf
ROOT
ATOM      1  C   UNL A   1      31.469  29.479  25.956  1.00  0.00     0.002 C 
ENDROOT
BRANCH   1   2
ATOM      2  C   UNL A   1      32.208  28.775  24.808  1.00  0.00     0.002 C 
BRANCH   2   3
ATOM      3  C   UNL A   1      31.415  28.481  23.531  1.00  0.00     0.021 C 
BRANCH   3   4
ATOM      4  C   UNL A   1      30.853  27.070  23.389  1.00  0.00     0.116 C 
BRANCH   4   5
ATOM      5  N   UNL A   1      30.062  26.615  24.512  1.00  0.00    -0.356 N 
ATOM      6  C   UNL A   1      30.387  25.758  25.517  1.00  0.00     0.223 C 
ATOM      7  O   UNL A   1      29.684  25.785  26.535  1.00  0.00    -0.275 OA
ATOM      8  H   UNL A   1      29.149  26.980  24.555  1.00  0.00     0.163 HD
BRANCH   6   9
ATOM      9  C   UNL A   1      31.553  24.759  25.452  1.00  0.00     0.083 C 
BRANCH   9  10
ATOM     10  C   UNL A   1      31.137  23.299  25.760  1.00  0.00     0.049 C 
BRANCH  10  11
ATOM     11  C   UNL A   1      32.126  22.184  25.487  1.00  0.00    -0.044 A 
ATOM     12  C   UNL A   1      33.183  22.310  27.826  1.00  0.00     0.044 C 
ATOM     13  C   UNL A   1      33.086  21.756  26.430  1.00  0.00    -0.048 A 
ATOM     14  C   UNL A   1      34.048  20.802  26.047  1.00  0.00     0.004 A 
ATOM     15  C   UNL A   1      34.038  20.238  24.773  1.00  0.00     0.000 A 
ATOM     16  C   UNL A   1      32.094  21.552  24.228  1.00  0.00     0.004 A 
ATOM     17  C   UNL A   1      33.050  20.601  23.867  1.00  0.00     0.000 A 
ENDBRANCH  10  11
ENDBRANCH   9  10
BRANCH   9  18
ATOM     18  C   UNL A   1      32.888  25.190  26.083  1.00  0.00     0.022 C 
BRANCH  18  19
ATOM     19  C   UNL A   1      33.946  25.539  25.028  1.00  0.00     0.025 C 
ATOM     20  C   UNL A   1      33.661  25.054  23.553  1.00  0.00     0.044 C 
ATOM     21  C   UNL A   1      35.085  24.545  25.008  1.00  0.00    -0.041 A 
ATOM     22  C   UNL A   1      34.804  24.099  23.741  1.00  0.00    -0.044 A 
ATOM     23  C   UNL A   1      36.130  24.046  25.751  1.00  0.00     0.004 A 
ATOM     24  C   UNL A   1      35.545  23.105  23.146  1.00  0.00     0.004 A 
ATOM     25  C   UNL A   1      36.903  23.040  25.172  1.00  0.00     0.000 A 
ATOM     26  C   UNL A   1      36.608  22.568  23.878  1.00  0.00     0.000 A 
ENDBRANCH  18  19
ENDBRANCH   9  18
ENDBRANCH   6   9
ENDBRANCH   4   5
ENDBRANCH   3   4
ENDBRANCH   2   3
ENDBRANCH   1   2
BRANCH   1  27
ATOM     27  C   UNL A   1      32.267  29.739  27.233  1.00  0.00     0.021 C 
BRANCH  27  28
ATOM     28  C   UNL A   1      33.737  30.086  27.018  1.00  0.00     0.116 C 
BRANCH  28  29
ATOM     29  N   UNL A   1      34.219  31.116  27.939  1.00  0.00    -0.352 N 
ATOM     30  C   UNL A   1      35.380  31.142  28.699  1.00  0.00     0.251 C 
ATOM     31  H   UNL A   1      33.636  31.903  28.033  1.00  0.00     0.163 HD
ATOM     32  O   UNL A   1      35.650  32.056  29.450  1.00  0.00    -0.269 OA
BRANCH  30  33
ATOM     33  C   UNL A   1      36.378  30.074  28.455  1.00  0.00     0.039 A 
ATOM     34  C   UNL A   1      36.620  29.190  29.512  1.00  0.00     0.014 A 
ATOM     35  C   UNL A   1      37.241  30.144  27.366  1.00  0.00     0.014 A 
ATOM     36  C   UNL A   1      37.863  28.574  29.603  1.00  0.00     0.010 A 
ATOM     37  C   UNL A   1      38.508  29.605  27.501  1.00  0.00     0.010 A 
ATOM     38  C   UNL A   1      38.841  28.890  28.657  1.00  0.00    -0.014 A 
BRANCH  38  39
ATOM     39  C   UNL A   1      40.262  28.667  28.915  1.00  0.00     0.031 A 
ATOM     40  C   UNL A   1      40.946  27.454  28.423  1.00  0.00     0.074 A 
ATOM     41  C   UNL A   1      40.971  29.548  29.655  1.00  0.00     0.049 A 
ATOM     42  N   UNL A   1      41.909  26.862  29.048  1.00  0.00    -0.248 NA
ATOM     43  C   UNL A   1      40.569  26.790  27.183  1.00  0.00     0.031 C 
ATOM     44  C   UNL A   1      42.418  29.563  29.866  1.00  0.00     0.029 A 
ATOM     45  N   UNL A   1      40.524  30.518  30.531  1.00  0.00    -0.354 N 
ATOM     46  C   UNL A   1      42.472  25.957  28.180  1.00  0.00     0.074 A 
ATOM     47  C   UNL A   1      41.549  25.891  27.067  1.00  0.00     0.031 C 
ATOM     48  C   UNL A   1      42.687  30.261  30.981  1.00  0.00     0.029 A 
ATOM     49  C   UNL A   1      41.418  30.613  31.593  1.00  0.00     0.049 A 
ATOM     50  H   UNL A   1      39.707  31.054  30.421  1.00  0.00     0.167 HD
ATOM     51  C   UNL A   1      43.731  25.482  28.409  1.00  0.00     0.034 A 
ATOM     52  C   UNL A   1      41.072  30.366  32.891  1.00  0.00     0.034 A 
ATOM     53  C   UNL A   1      44.313  26.033  29.634  1.00  0.00     0.049 A 
ATOM     54  C   UNL A   1      41.878  29.249  33.527  1.00  0.00     0.074 A 
ATOM     55  C   UNL A   1      45.239  27.040  29.854  1.00  0.00     0.029 A 
ATOM     56  N   UNL A   1      43.766  25.727  30.875  1.00  0.00    -0.354 N 
ATOM     57  N   UNL A   1      42.596  28.392  32.856  1.00  0.00    -0.248 NA
ATOM     58  C   UNL A   1      41.909  28.990  34.963  1.00  0.00     0.031 C 
ATOM     59  C   UNL A   1      45.222  27.364  31.233  1.00  0.00     0.029 A 
ATOM     60  C   UNL A   1      44.300  26.542  31.857  1.00  0.00     0.049 A 
ATOM     61  H   UNL A   1      43.091  25.027  31.034  1.00  0.00     0.167 HD
ATOM     62  C   UNL A   1      43.142  27.468  33.713  1.00  0.00     0.074 A 
ATOM     63  C   UNL A   1      42.706  27.908  35.027  1.00  0.00     0.031 C 
ATOM     64  C   UNL A   1      43.887  26.416  33.251  1.00  0.00     0.034 A 
BRANCH  51  65
ATOM     65  C   UNL A   1      44.559  24.792  27.345  1.00  0.00     0.023 A 
ATOM     66  C   UNL A   1      45.530  25.528  26.633  1.00  0.00     0.031 A 
ATOM     67  C   UNL A   1      44.418  23.448  26.953  1.00  0.00     0.131 A 
ATOM     68  C   UNL A   1      46.198  24.985  25.521  1.00  0.00     0.055 A 
ATOM     69  C   UNL A   1      45.034  22.923  25.807  1.00  0.00     0.041 A 
ATOM     70  F   UNL A   1      43.715  22.574  27.688  1.00  0.00    -0.206 F 
ATOM     71  C   UNL A   1      45.916  23.700  25.071  1.00  0.00     0.022 A 
BRANCH  68  72
ATOM     72  S   UNL A   1      47.447  25.989  24.670  1.00  0.00     0.124 S 
ATOM     73  O   UNL A   1      46.671  27.144  24.231  1.00  0.00    -0.237 OA
ATOM     74  O   UNL A   1      48.422  26.227  25.728  1.00  0.00    -0.237 OA
ATOM     75  O   UNL A   1      47.908  25.113  23.594  1.00  0.00    -0.744 OA
ENDBRANCH  68  72
ENDBRANCH  51  65
BRANCH  52  76
ATOM     76  C   UNL A   1      39.651  30.677  33.209  1.00  0.00     0.023 A 
ATOM     77  C   UNL A   1      39.288  32.038  33.279  1.00  0.00     0.031 A 
ATOM     78  C   UNL A   1      38.629  29.729  33.068  1.00  0.00     0.131 A 
ATOM     79  C   UNL A   1      37.965  32.429  33.038  1.00  0.00     0.055 A 
ATOM     80  C   UNL A   1      37.296  30.122  32.890  1.00  0.00     0.041 A 
ATOM     81  F   UNL A   1      38.914  28.423  32.969  1.00  0.00    -0.206 F 
ATOM     82  C   UNL A   1      36.966  31.477  32.827  1.00  0.00     0.022 A 
BRANCH  79  83
ATOM     83  S   UNL A   1      37.603  34.186  32.732  1.00  0.00     0.124 S 
ATOM     84  O   UNL A   1      37.701  34.756  34.069  1.00  0.00    -0.237 OA
ATOM     85  O   UNL A   1      38.653  34.577  31.795  1.00  0.00    -0.237 OA
ATOM     86  O   UNL A   1      36.263  34.153  32.149  1.00  0.00    -0.744 OA
ENDBRANCH  79  83
ENDBRANCH  52  76
BRANCH  64  87
ATOM     87  C   UNL A   1      44.380  25.231  34.064  1.00  0.00     0.023 A 
ATOM     88  C   UNL A   1      45.735  24.916  34.245  1.00  0.00     0.031 A 
ATOM     89  C   UNL A   1      43.468  24.391  34.755  1.00  0.00     0.131 A 
ATOM     90  C   UNL A   1      46.136  23.791  34.992  1.00  0.00     0.055 A 
ATOM     91  C   UNL A   1      43.870  23.316  35.557  1.00  0.00     0.041 A 
ATOM     92  F   UNL A   1      42.142  24.581  34.693  1.00  0.00    -0.206 F 
ATOM     93  C   UNL A   1      45.213  22.998  35.667  1.00  0.00     0.022 A 
BRANCH  90  94
ATOM     94  S   UNL A   1      47.895  23.352  35.010  1.00  0.00     0.124 S 
ATOM     95  O   UNL A   1      48.284  23.723  36.368  1.00  0.00    -0.237 OA
ATOM     96  O   UNL A   1      47.862  21.921  34.729  1.00  0.00    -0.237 OA
ATOM     97  O   UNL A   1      48.469  24.181  33.952  1.00  0.00    -0.744 OA
ENDBRANCH  90  94
ENDBRANCH  64  87
ENDBRANCH  38  39
ENDBRANCH  30  33
ENDBRANCH  28  29
ENDBRANCH  27  28
ENDBRANCH   1  27
TORSDOF 20
ENDMDL
MODEL 3
REMARK VINA RESULT:     -11.9      0.733      1.939
REMARK SMILES Cc1ccccc1C[C@H](C[C@@H]1Cc2ccccc21)C(=O)NCCCCCCNC(=O)c1ccc(-c2c3nc(c(-c4cc(S(=O)(=O)[O-])ccc4F)c4ccc([nH]4)c(-c4cc(S(=O)(=O)[O-])ccc4F)c4nc(c(-c5cc(S(=O)(=O)[O-])ccc5F)c5ccc2[nH]5)C=C4)C=C3)cc1
REMARK SMILES IDX 25 1 24 2 23 3 22 4 21 5 19 6 20 7 9 9 8 10 7 11 1 12 2 13
REMARK SMILES IDX 3 14 4 15 6 16 5 17 10 18 11 19 12 20 18 21 13 22 17 23
REMARK SMILES IDX 14 24 16 25 15 26 26 27 27 28 28 29 29 30 30 32 31 33 32 34
REMARK SMILES IDX 93 35 33 36 92 37 34 38 35 39 36 40 86 41 37 42 91 43 85 44
REMARK SMILES IDX 87 45 38 46 90 47 84 48 83 49 39 51 71 52 51 53 70 54 52 55
REMARK SMILES IDX 55 56 69 57 88 58 53 59 54 60 68 62 89 63 56 64 40 65 41 66
REMARK SMILES IDX 49 67 42 68 48 69 50 70 47 71 43 72 44 73 45 74 46 75 72 76
REMARK SMILES IDX 73 77 81 78 74 79 80 80 82 81 79 82 75 83 76 84 77 85 78 86
REMARK SMILES IDX 57 87 58 88 66 89 59 90 65 91 67 92 64 93 60 94 61 95 62 96
REMARK SMILES IDX 63 97
REMARK H PARENT 21 8 28 31 87 50 55 61
REMARK Flexibility Score: inf
ROOT
ATOM      1  C   UNL A   1      33.379  29.781  26.535  1.00  0.00     0.002 C 
ENDROOT
BRANCH   1   2
ATOM      2  C   UNL A   1      32.043  30.398  26.094  1.00  0.00     0.002 C 
BRANCH   2   3
ATOM      3  C   UNL A   1      31.285  29.704  24.957  1.00  0.00     0.021 C 
BRANCH   3   4
ATOM      4  C   UNL A   1      31.404  28.184  24.890  1.00  0.00     0.116 C 
BRANCH   4   5
ATOM      5  N   UNL A   1      30.372  27.527  24.115  1.00  0.00    -0.356 N 
ATOM      6  C   UNL A   1      30.152  26.202  23.904  1.00  0.00     0.223 C 
ATOM      7  O   UNL A   1      29.031  25.871  23.499  1.00  0.00    -0.275 OA
ATOM      8  H   UNL A   1      29.733  28.131  23.675  1.00  0.00     0.163 HD
BRANCH   6   9
ATOM      9  C   UNL A   1      31.211  25.109  24.118  1.00  0.00     0.083 C 
BRANCH   9  10
ATOM     10  C   UNL A   1      32.550  25.391  23.390  1.00  0.00     0.049 C 
BRANCH  10  11
ATOM     11  C   UNL A   1      33.796  24.656  23.841  1.00  0.00    -0.044 A 
ATOM     12  C   UNL A   1      34.120  26.127  25.924  1.00  0.00     0.044 C 
ATOM     13  C   UNL A   1      34.532  25.020  24.990  1.00  0.00    -0.048 A 
ATOM     14  C   UNL A   1      35.748  24.364  25.263  1.00  0.00     0.004 A 
ATOM     15  C   UNL A   1      36.210  23.331  24.451  1.00  0.00     0.000 A 
ATOM     16  C   UNL A   1      34.249  23.566  23.072  1.00  0.00     0.004 A 
ATOM     17  C   UNL A   1      35.451  22.921  23.363  1.00  0.00     0.000 A 
ENDBRANCH  10  11
ENDBRANCH   9  10
BRANCH   9  18
ATOM     18  C   UNL A   1      30.741  23.647  24.048  1.00  0.00     0.022 C 
BRANCH  18  19
ATOM     19  C   UNL A   1      30.665  22.992  25.434  1.00  0.00     0.025 C 
ATOM     20  C   UNL A   1      31.108  23.880  26.662  1.00  0.00     0.044 C 
ATOM     21  C   UNL A   1      31.889  22.162  25.744  1.00  0.00    -0.041 A 
ATOM     22  C   UNL A   1      32.291  22.963  26.783  1.00  0.00    -0.044 A 
ATOM     23  C   UNL A   1      32.593  21.044  25.361  1.00  0.00     0.004 A 
ATOM     24  C   UNL A   1      33.440  22.703  27.492  1.00  0.00     0.004 A 
ATOM     25  C   UNL A   1      33.761  20.750  26.064  1.00  0.00     0.000 A 
ATOM     26  C   UNL A   1      34.185  21.579  27.120  1.00  0.00     0.000 A 
ENDBRANCH  18  19
ENDBRANCH   9  18
ENDBRANCH   6   9
ENDBRANCH   4   5
ENDBRANCH   3   4
ENDBRANCH   2   3
ENDBRANCH   1   2
BRANCH   1  27
ATOM     27  C   UNL A   1      33.987  30.310  27.833  1.00  0.00     0.021 C 
BRANCH  27  28
ATOM     28  C   UNL A   1      35.044  31.396  27.658  1.00  0.00     0.116 C 
BRANCH  28  29
ATOM     29  N   UNL A   1      35.572  31.886  28.931  1.00  0.00    -0.352 N 
ATOM     30  C   UNL A   1      36.465  31.281  29.805  1.00  0.00     0.251 C 
ATOM     31  H   UNL A   1      35.248  32.773  29.208  1.00  0.00     0.163 HD
ATOM     32  O   UNL A   1      36.804  31.792  30.852  1.00  0.00    -0.269 OA
BRANCH  30  33
ATOM     33  C   UNL A   1      37.124  30.034  29.349  1.00  0.00     0.039 A 
ATOM     34  C   UNL A   1      37.378  29.067  30.326  1.00  0.00     0.014 A 
ATOM     35  C   UNL A   1      37.733  29.970  28.100  1.00  0.00     0.014 A 
ATOM     36  C   UNL A   1      38.442  28.190  30.146  1.00  0.00     0.010 A 
ATOM     37  C   UNL A   1      38.846  29.161  27.957  1.00  0.00     0.010 A 
ATOM     38  C   UNL A   1      39.246  28.333  29.012  1.00  0.00    -0.014 A 
BRANCH  38  39
ATOM     39  C   UNL A   1      40.602  27.793  28.957  1.00  0.00     0.031 A 
ATOM     40  C   UNL A   1      40.855  26.407  28.513  1.00  0.00     0.074 A 
ATOM     41  C   UNL A   1      41.654  28.538  29.361  1.00  0.00     0.049 A 
ATOM     42  N   UNL A   1      41.800  25.658  28.976  1.00  0.00    -0.248 NA
ATOM     43  C   UNL A   1      40.027  25.741  27.517  1.00  0.00     0.031 C 
ATOM     44  C   UNL A   1      43.073  28.216  29.218  1.00  0.00     0.029 A 
ATOM     45  N   UNL A   1      41.676  29.668  30.156  1.00  0.00    -0.354 N 
ATOM     46  C   UNL A   1      41.904  24.563  28.151  1.00  0.00     0.074 A 
ATOM     47  C   UNL A   1      40.725  24.620  27.313  1.00  0.00     0.031 C 
ATOM     48  C   UNL A   1      43.773  28.930  30.115  1.00  0.00     0.029 A 
ATOM     49  C   UNL A   1      42.820  29.641  30.948  1.00  0.00     0.049 A 
ATOM     50  H   UNL A   1      40.992  30.376  30.161  1.00  0.00     0.167 HD
ATOM     51  C   UNL A   1      43.046  23.817  28.146  1.00  0.00     0.034 A 
ATOM     52  C   UNL A   1      42.788  29.612  32.313  1.00  0.00     0.034 A 
ATOM     53  C   UNL A   1      44.038  24.323  29.097  1.00  0.00     0.049 A 
ATOM     54  C   UNL A   1      43.477  28.398  32.906  1.00  0.00     0.074 A 
ATOM     55  C   UNL A   1      45.183  25.087  28.931  1.00  0.00     0.029 A 
ATOM     56  N   UNL A   1      43.791  24.281  30.464  1.00  0.00    -0.354 N 
ATOM     57  N   UNL A   1      43.790  27.330  32.225  1.00  0.00    -0.248 NA
ATOM     58  C   UNL A   1      43.834  28.278  34.315  1.00  0.00     0.031 C 
ATOM     59  C   UNL A   1      45.604  25.535  30.207  1.00  0.00     0.029 A 
ATOM     60  C   UNL A   1      44.729  25.030  31.152  1.00  0.00     0.049 A 
ATOM     61  H   UNL A   1      43.049  23.788  30.885  1.00  0.00     0.167 HD
ATOM     62  C   UNL A   1      44.334  26.387  33.062  1.00  0.00     0.074 A 
ATOM     63  C   UNL A   1      44.369  27.045  34.356  1.00  0.00     0.031 C 
ATOM     64  C   UNL A   1      44.686  25.144  32.606  1.00  0.00     0.034 A 
BRANCH  51  65
ATOM     65  C   UNL A   1      43.393  22.845  27.037  1.00  0.00     0.023 A 
ATOM     66  C   UNL A   1      42.824  21.554  27.041  1.00  0.00     0.031 A 
ATOM     67  C   UNL A   1      44.297  23.100  25.989  1.00  0.00     0.131 A 
ATOM     68  C   UNL A   1      43.248  20.559  26.141  1.00  0.00     0.055 A 
ATOM     69  C   UNL A   1      44.768  22.096  25.131  1.00  0.00     0.041 A 
ATOM     70  F   UNL A   1      44.727  24.342  25.722  1.00  0.00    -0.206 F 
ATOM     71  C   UNL A   1      44.257  20.809  25.217  1.00  0.00     0.022 A 
BRANCH  68  72
ATOM     72  S   UNL A   1      42.453  18.929  26.196  1.00  0.00     0.124 S 
ATOM     73  O   UNL A   1      43.276  18.151  25.277  1.00  0.00    -0.237 OA
ATOM     74  O   UNL A   1      42.556  18.584  27.609  1.00  0.00    -0.237 OA
ATOM     75  O   UNL A   1      41.095  19.200  25.727  1.00  0.00    -0.744 OA
ENDBRANCH  68  72
ENDBRANCH  51  65
BRANCH  52  76
ATOM     76  C   UNL A   1      41.605  30.293  32.906  1.00  0.00     0.023 A 
ATOM     77  C   UNL A   1      41.587  31.703  32.874  1.00  0.00     0.031 A 
ATOM     78  C   UNL A   1      40.395  29.624  33.135  1.00  0.00     0.131 A 
ATOM     79  C   UNL A   1      40.368  32.395  32.895  1.00  0.00     0.055 A 
ATOM     80  C   UNL A   1      39.184  30.324  33.219  1.00  0.00     0.041 A 
ATOM     81  F   UNL A   1      40.345  28.285  33.150  1.00  0.00    -0.206 F 
ATOM     82  C   UNL A   1      39.162  31.710  33.052  1.00  0.00     0.022 A 
BRANCH  79  83
ATOM     83  S   UNL A   1      40.344  34.157  32.446  1.00  0.00     0.124 S 
ATOM     84  O   UNL A   1      38.923  34.396  32.222  1.00  0.00    -0.237 OA
ATOM     85  O   UNL A   1      40.919  34.803  33.624  1.00  0.00    -0.237 OA
ATOM     86  O   UNL A   1      41.194  34.211  31.259  1.00  0.00    -0.744 OA
ENDBRANCH  79  83
ENDBRANCH  52  76
BRANCH  64  87
ATOM     87  C   UNL A   1      45.113  23.957  33.453  1.00  0.00     0.023 A 
ATOM     88  C   UNL A   1      46.426  23.750  33.904  1.00  0.00     0.031 A 
ATOM     89  C   UNL A   1      44.165  23.000  33.899  1.00  0.00     0.131 A 
ATOM     90  C   UNL A   1      46.771  22.619  34.671  1.00  0.00     0.055 A 
ATOM     91  C   UNL A   1      44.495  21.917  34.721  1.00  0.00     0.041 A 
ATOM     92  F   UNL A   1      42.868  23.078  33.565  1.00  0.00    -0.206 F 
ATOM     93  C   UNL A   1      45.810  21.710  35.100  1.00  0.00     0.022 A 
BRANCH  90  94
ATOM     94  S   UNL A   1      48.522  22.334  35.042  1.00  0.00     0.124 S 
ATOM     95  O   UNL A   1      48.513  22.265  36.501  1.00  0.00    -0.237 OA
ATOM     96  O   UNL A   1      48.787  21.078  34.351  1.00  0.00    -0.237 OA
ATOM     97  O   UNL A   1      49.191  23.506  34.481  1.00  0.00    -0.744 OA
ENDBRANCH  90  94
ENDBRANCH  64  87
ENDBRANCH  38  39
ENDBRANCH  30  33
ENDBRANCH  28  29
ENDBRANCH  27  28
ENDBRANCH   1  27
TORSDOF 20
ENDMDL
