MODEL 1
REMARK VINA RESULT:     -11.5      0.000      0.000
REMARK SMILES C[C@@H]1[C@H](C)CCC[C@H]1NC(=O)C[N@H+]1CCC[C@@H]1C(=O)NCCCCCCNC(=O)c1ccc(-c2c3nc(c(-c4cc(S(=O)(=O)[O-])ccc4F)c4ccc([nH]4)c(-c4cc(S(=O)(=O)[O-])ccc4F)c4nc(c(-c5cc(S(=O)(=O)[O-])ccc5F)c5ccc2[nH]5)C=C4)C=C3)cc1
REMARK SMILES IDX 23 1 22 2 21 3 20 4 18 5 19 6 17 8 13 9 14 10 15 12 16 13
REMARK SMILES IDX 12 14 10 15 9 16 11 18 8 19 1 20 2 21 3 22 4 23 5 24 7 25
REMARK SMILES IDX 6 26 24 27 25 28 26 29 27 30 28 31 29 33 30 34 31 35 92 36
REMARK SMILES IDX 32 37 91 38 33 39 34 40 35 41 85 42 36 43 90 44 84 45 86 46
REMARK SMILES IDX 37 47 89 48 83 49 82 50 38 52 70 53 50 54 69 55 51 56 54 57
REMARK SMILES IDX 68 58 87 59 52 60 53 61 67 63 88 64 55 65 39 66 40 67 48 68
REMARK SMILES IDX 41 69 47 70 49 71 46 72 42 73 43 74 44 75 45 76 71 77 72 78
REMARK SMILES IDX 80 79 73 80 79 81 81 82 78 83 74 84 75 85 76 86 77 87 56 88
REMARK SMILES IDX 57 89 65 90 58 91 64 92 66 93 63 94 59 95 60 96 61 97 62 98
REMARK H PARENT 20 7 13 11 9 17 27 32 86 51 54 62
REMARK Flexibility Score: inf
ROOT
ATOM      1  C   UNL A   1      33.193  29.544  26.714  1.00  0.00     0.002 C 
ENDROOT
BRANCH   1   2
ATOM      2  C   UNL A   1      32.795  28.171  27.258  1.00  0.00     0.021 C 
BRANCH   2   3
ATOM      3  C   UNL A   1      31.352  27.775  26.995  1.00  0.00     0.116 C 
BRANCH   3   4
ATOM      4  N   UNL A   1      31.152  26.352  26.855  1.00  0.00    -0.351 N 
ATOM      5  C   UNL A   1      31.246  25.598  25.725  1.00  0.00     0.278 C 
ATOM      6  O   UNL A   1      31.239  24.367  25.859  1.00  0.00    -0.268 OA
ATOM      7  H   UNL A   1      30.919  25.866  27.678  1.00  0.00     0.163 HD
BRANCH   5   8
ATOM      8  C   UNL A   1      31.232  26.207  24.321  1.00  0.00     0.274 C 
ATOM      9  N   UNL A   1      32.294  27.176  23.985  1.00  0.00    -0.317 N 
ATOM     10  C   UNL A   1      31.812  27.800  22.765  1.00  0.00     0.263 C 
ATOM     11  H   UNL A   1      32.407  27.818  24.770  1.00  0.00     0.349 HD
ATOM     12  C   UNL A   1      30.469  28.269  23.294  1.00  0.00     0.068 C 
ATOM     13  C   UNL A   1      29.969  27.055  24.079  1.00  0.00     0.081 C 
BRANCH   9  14
ATOM     14  C   UNL A   1      33.695  26.781  23.991  1.00  0.00     0.364 C 
BRANCH  14  15
ATOM     15  C   UNL A   1      33.836  25.478  23.169  1.00  0.00     0.275 C 
ATOM     16  N   UNL A   1      33.813  24.239  23.757  1.00  0.00    -0.348 N 
ATOM     17  H   UNL A   1      33.317  23.547  23.263  1.00  0.00     0.163 HD
ATOM     18  O   UNL A   1      33.892  25.518  21.935  1.00  0.00    -0.268 OA
BRANCH  16  19
ATOM     19  C   UNL A   1      34.422  23.793  25.017  1.00  0.00     0.085 C 
ATOM     20  C   UNL A   1      34.312  22.107  26.916  1.00  0.00     0.010 C 
ATOM     21  C   UNL A   1      34.048  22.339  25.414  1.00  0.00     0.011 C 
ATOM     22  C   UNL A   1      34.714  21.273  24.513  1.00  0.00    -0.009 C 
ATOM     23  C   UNL A   1      34.351  19.842  24.929  1.00  0.00     0.008 C 
ATOM     24  C   UNL A   1      36.232  21.458  24.451  1.00  0.00     0.004 C 
ATOM     25  C   UNL A   1      35.951  23.944  24.901  1.00  0.00     0.025 C 
ATOM     26  C   UNL A   1      36.594  22.873  24.012  1.00  0.00     0.002 C 
ENDBRANCH  16  19
ENDBRANCH  14  15
ENDBRANCH   9  14
ENDBRANCH   5   8
ENDBRANCH   3   4
ENDBRANCH   2   3
ENDBRANCH   1   2
BRANCH   1  27
ATOM     27  C   UNL A   1      32.085  30.324  25.995  1.00  0.00     0.002 C 
BRANCH  27  28
ATOM     28  C   UNL A   1      31.747  31.696  26.583  1.00  0.00     0.021 C 
BRANCH  28  29
ATOM     29  C   UNL A   1      32.860  32.337  27.406  1.00  0.00     0.116 C 
BRANCH  29  30
ATOM     30  N   UNL A   1      32.615  33.744  27.671  1.00  0.00    -0.352 N 
ATOM     31  C   UNL A   1      33.179  34.571  28.613  1.00  0.00     0.251 C 
ATOM     32  H   UNL A   1      31.943  34.169  27.089  1.00  0.00     0.163 HD
ATOM     33  O   UNL A   1      32.713  35.686  28.805  1.00  0.00    -0.269 OA
BRANCH  31  34
ATOM     34  C   UNL A   1      34.332  34.092  29.407  1.00  0.00     0.039 A 
ATOM     35  C   UNL A   1      34.099  33.229  30.479  1.00  0.00     0.014 A 
ATOM     36  C   UNL A   1      35.634  34.485  29.087  1.00  0.00     0.014 A 
ATOM     37  C   UNL A   1      35.181  32.702  31.186  1.00  0.00     0.010 A 
ATOM     38  C   UNL A   1      36.713  33.902  29.744  1.00  0.00     0.010 A 
ATOM     39  C   UNL A   1      36.498  32.998  30.797  1.00  0.00    -0.014 A 
BRANCH  39  40
ATOM     40  C   UNL A   1      37.663  32.360  31.465  1.00  0.00     0.031 A 
ATOM     41  C   UNL A   1      38.400  31.238  30.789  1.00  0.00     0.074 A 
ATOM     42  C   UNL A   1      38.012  32.752  32.707  1.00  0.00     0.049 A 
ATOM     43  N   UNL A   1      39.378  30.498  31.245  1.00  0.00    -0.248 NA
ATOM     44  C   UNL A   1      37.960  30.884  29.432  1.00  0.00     0.031 C 
ATOM     45  C   UNL A   1      37.353  33.811  33.474  1.00  0.00     0.029 A 
ATOM     46  N   UNL A   1      38.998  32.301  33.548  1.00  0.00    -0.354 N 
ATOM     47  C   UNL A   1      39.666  29.587  30.236  1.00  0.00     0.074 A 
ATOM     48  C   UNL A   1      38.716  29.828  29.170  1.00  0.00     0.031 C 
ATOM     49  C   UNL A   1      37.970  33.947  34.658  1.00  0.00     0.029 A 
ATOM     50  C   UNL A   1      39.029  32.948  34.763  1.00  0.00     0.049 A 
ATOM     51  H   UNL A   1      39.625  31.582  33.306  1.00  0.00     0.167 HD
ATOM     52  C   UNL A   1      40.648  28.652  30.193  1.00  0.00     0.034 A 
ATOM     53  C   UNL A   1      39.806  32.748  35.845  1.00  0.00     0.034 A 
ATOM     54  C   UNL A   1      41.588  28.428  31.265  1.00  0.00     0.049 A 
ATOM     55  C   UNL A   1      40.853  31.661  35.796  1.00  0.00     0.074 A 
ATOM     56  C   UNL A   1      42.649  27.541  31.308  1.00  0.00     0.029 A 
ATOM     57  N   UNL A   1      41.574  29.087  32.488  1.00  0.00    -0.354 N 
ATOM     58  N   UNL A   1      41.141  30.836  34.816  1.00  0.00    -0.248 NA
ATOM     59  C   UNL A   1      41.679  31.482  36.996  1.00  0.00     0.031 C 
ATOM     60  C   UNL A   1      43.223  27.604  32.582  1.00  0.00     0.029 A 
ATOM     61  C   UNL A   1      42.580  28.595  33.306  1.00  0.00     0.049 A 
ATOM     62  H   UNL A   1      40.942  29.799  32.738  1.00  0.00     0.167 HD
ATOM     63  C   UNL A   1      42.206  30.063  35.272  1.00  0.00     0.074 A 
ATOM     64  C   UNL A   1      42.515  30.530  36.607  1.00  0.00     0.031 C 
ATOM     65  C   UNL A   1      42.871  29.062  34.642  1.00  0.00     0.034 A 
BRANCH  52  66
ATOM     66  C   UNL A   1      40.732  27.784  28.959  1.00  0.00     0.023 A 
ATOM     67  C   UNL A   1      41.681  28.026  27.949  1.00  0.00     0.031 A 
ATOM     68  C   UNL A   1      39.841  26.711  28.778  1.00  0.00     0.131 A 
ATOM     69  C   UNL A   1      41.666  27.259  26.775  1.00  0.00     0.055 A 
ATOM     70  C   UNL A   1      39.889  25.895  27.646  1.00  0.00     0.041 A 
ATOM     71  F   UNL A   1      38.898  26.444  29.696  1.00  0.00    -0.206 F 
ATOM     72  C   UNL A   1      40.795  26.176  26.628  1.00  0.00     0.022 A 
BRANCH  69  73
ATOM     73  S   UNL A   1      42.697  27.791  25.381  1.00  0.00     0.124 S 
ATOM     74  O   UNL A   1      42.810  26.554  24.610  1.00  0.00    -0.237 OA
ATOM     75  O   UNL A   1      41.893  28.847  24.779  1.00  0.00    -0.237 OA
ATOM     76  O   UNL A   1      43.935  28.234  26.019  1.00  0.00    -0.744 OA
ENDBRANCH  69  73
ENDBRANCH  52  66
BRANCH  53  77
ATOM     77  C   UNL A   1      39.621  33.571  37.075  1.00  0.00     0.023 A 
ATOM     78  C   UNL A   1      40.391  34.724  37.296  1.00  0.00     0.031 A 
ATOM     79  C   UNL A   1      38.704  33.192  38.072  1.00  0.00     0.131 A 
ATOM     80  C   UNL A   1      40.270  35.427  38.504  1.00  0.00     0.055 A 
ATOM     81  C   UNL A   1      38.541  33.931  39.246  1.00  0.00     0.041 A 
ATOM     82  F   UNL A   1      37.941  32.097  37.915  1.00  0.00    -0.206 F 
ATOM     83  C   UNL A   1      39.337  35.048  39.474  1.00  0.00     0.022 A 
BRANCH  80  84
ATOM     84  S   UNL A   1      41.423  36.787  38.837  1.00  0.00     0.124 S 
ATOM     85  O   UNL A   1      40.514  37.918  38.974  1.00  0.00    -0.237 OA
ATOM     86  O   UNL A   1      42.077  36.336  40.061  1.00  0.00    -0.237 OA
ATOM     87  O   UNL A   1      42.274  36.809  37.650  1.00  0.00    -0.744 OA
ENDBRANCH  80  84
ENDBRANCH  53  77
BRANCH  65  88
ATOM     88  C   UNL A   1      44.029  28.433  35.379  1.00  0.00     0.023 A 
ATOM     89  C   UNL A   1      43.885  27.241  36.109  1.00  0.00     0.031 A 
ATOM     90  C   UNL A   1      45.299  29.037  35.345  1.00  0.00     0.131 A 
ATOM     91  C   UNL A   1      44.978  26.718  36.818  1.00  0.00     0.055 A 
ATOM     92  C   UNL A   1      46.399  28.477  35.997  1.00  0.00     0.041 A 
ATOM     93  F   UNL A   1      45.495  30.179  34.667  1.00  0.00    -0.206 F 
ATOM     94  C   UNL A   1      46.238  27.317  36.749  1.00  0.00     0.022 A 
BRANCH  91  95
ATOM     95  S   UNL A   1      44.710  25.291  37.904  1.00  0.00     0.124 S 
ATOM     96  O   UNL A   1      43.418  24.795  37.440  1.00  0.00    -0.237 OA
ATOM     97  O   UNL A   1      45.861  24.446  37.602  1.00  0.00    -0.237 OA
ATOM     98  O   UNL A   1      44.705  25.875  39.244  1.00  0.00    -0.744 OA
ENDBRANCH  91  95
ENDBRANCH  65  88
ENDBRANCH  39  40
ENDBRANCH  31  34
ENDBRANCH  29  30
ENDBRANCH  28  29
ENDBRANCH  27  28
ENDBRANCH   1  27
TORSDOF 19
ENDMDL
MODEL 2
REMARK VINA RESULT:     -11.4      5.600     11.371
REMARK SMILES C[C@@H]1[C@H](C)CCC[C@H]1NC(=O)C[N@H+]1CCC[C@@H]1C(=O)NCCCCCCNC(=O)c1ccc(-c2c3nc(c(-c4cc(S(=O)(=O)[O-])ccc4F)c4ccc([nH]4)c(-c4cc(S(=O)(=O)[O-])ccc4F)c4nc(c(-c5cc(S(=O)(=O)[O-])ccc5F)c5ccc2[nH]5)C=C4)C=C3)cc1
REMARK SMILES IDX 23 1 22 2 21 3 20 4 18 5 19 6 17 8 13 9 14 10 15 12 16 13
REMARK SMILES IDX 12 14 10 15 9 16 11 18 8 19 1 20 2 21 3 22 4 23 5 24 7 25
REMARK SMILES IDX 6 26 24 27 25 28 26 29 27 30 28 31 29 33 30 34 31 35 92 36
REMARK SMILES IDX 32 37 91 38 33 39 34 40 35 41 85 42 36 43 90 44 84 45 86 46
REMARK SMILES IDX 37 47 89 48 83 49 82 50 38 52 70 53 50 54 69 55 51 56 54 57
REMARK SMILES IDX 68 58 87 59 52 60 53 61 67 63 88 64 55 65 39 66 40 67 48 68
REMARK SMILES IDX 41 69 47 70 49 71 46 72 42 73 43 74 44 75 45 76 71 77 72 78
REMARK SMILES IDX 80 79 73 80 79 81 81 82 78 83 74 84 75 85 76 86 77 87 56 88
REMARK SMILES IDX 57 89 65 90 58 91 64 92 66 93 63 94 59 95 60 96 61 97 62 98
REMARK H PARENT 20 7 13 11 9 17 27 32 86 51 54 62
REMARK Flexibility Score: inf
ROOT
ATOM      1  C   UNL A   1      37.371  22.846  24.757  1.00  0.00     0.002 C 
ENDROOT
BRANCH   1   2
ATOM      2  C   UNL A   1      36.463  23.273  25.912  1.00  0.00     0.021 C 
BRANCH   2   3
ATOM      3  C   UNL A   1      35.116  23.831  25.490  1.00  0.00     0.116 C 
BRANCH   3   4
ATOM      4  N   UNL A   1      34.949  23.939  24.059  1.00  0.00    -0.351 N 
ATOM      5  C   UNL A   1      33.958  23.413  23.288  1.00  0.00     0.278 C 
ATOM      6  O   UNL A   1      33.888  23.795  22.112  1.00  0.00    -0.268 OA
ATOM      7  H   UNL A   1      35.637  24.456  23.583  1.00  0.00     0.163 HD
BRANCH   5   8
ATOM      8  C   UNL A   1      33.031  22.299  23.779  1.00  0.00     0.274 C 
ATOM      9  N   UNL A   1      32.268  22.542  25.019  1.00  0.00    -0.317 N 
ATOM     10  C   UNL A   1      31.781  21.223  25.384  1.00  0.00     0.263 C 
ATOM     11  H   UNL A   1      32.891  22.965  25.706  1.00  0.00     0.349 HD
ATOM     12  C   UNL A   1      33.123  20.515  25.421  1.00  0.00     0.068 C 
ATOM     13  C   UNL A   1      33.815  21.028  24.157  1.00  0.00     0.081 C 
BRANCH   9  14
ATOM     14  C   UNL A   1      31.299  23.625  25.101  1.00  0.00     0.364 C 
BRANCH  14  15
ATOM     15  C   UNL A   1      31.480  24.337  26.462  1.00  0.00     0.275 C 
ATOM     16  N   UNL A   1      31.782  25.673  26.552  1.00  0.00    -0.348 N 
ATOM     17  H   UNL A   1      31.315  26.163  27.268  1.00  0.00     0.163 HD
ATOM     18  O   UNL A   1      31.276  23.731  27.520  1.00  0.00    -0.268 OA
BRANCH  16  19
ATOM     19  C   UNL A   1      32.700  26.479  25.737  1.00  0.00     0.085 C 
ATOM     20  C   UNL A   1      33.353  27.164  23.378  1.00  0.00     0.010 C 
ATOM     21  C   UNL A   1      32.186  26.746  24.295  1.00  0.00     0.011 C 
ATOM     22  C   UNL A   1      30.998  27.735  24.247  1.00  0.00    -0.009 C 
ATOM     23  C   UNL A   1      30.515  28.004  22.817  1.00  0.00     0.008 C 
ATOM     24  C   UNL A   1      31.325  29.043  24.970  1.00  0.00     0.004 C 
ATOM     25  C   UNL A   1      32.966  27.807  26.469  1.00  0.00     0.025 C 
ATOM     26  C   UNL A   1      31.780  28.778  26.402  1.00  0.00     0.002 C 
ENDBRANCH  16  19
ENDBRANCH  14  15
ENDBRANCH   9  14
ENDBRANCH   5   8
ENDBRANCH   3   4
ENDBRANCH   2   3
ENDBRANCH   1   2
BRANCH   1  27
ATOM     27  C   UNL A   1      37.219  21.392  24.292  1.00  0.00     0.002 C 
BRANCH  27  28
ATOM     28  C   UNL A   1      37.799  20.329  25.228  1.00  0.00     0.021 C 
BRANCH  28  29
ATOM     29  C   UNL A   1      39.109  20.715  25.909  1.00  0.00     0.116 C 
BRANCH  29  30
ATOM     30  N   UNL A   1      40.045  19.606  25.980  1.00  0.00    -0.352 N 
ATOM     31  C   UNL A   1      41.412  19.621  26.126  1.00  0.00     0.251 C 
ATOM     32  H   UNL A   1      39.641  18.711  25.912  1.00  0.00     0.163 HD
ATOM     33  O   UNL A   1      42.052  18.588  25.982  1.00  0.00    -0.269 OA
BRANCH  31  34
ATOM     34  C   UNL A   1      42.099  20.894  26.432  1.00  0.00     0.039 A 
ATOM     35  C   UNL A   1      42.476  21.727  25.376  1.00  0.00     0.014 A 
ATOM     36  C   UNL A   1      42.361  21.267  27.753  1.00  0.00     0.014 A 
ATOM     37  C   UNL A   1      43.050  22.969  25.650  1.00  0.00     0.010 A 
ATOM     38  C   UNL A   1      42.865  22.536  28.026  1.00  0.00     0.010 A 
ATOM     39  C   UNL A   1      43.208  23.403  26.977  1.00  0.00    -0.014 A 
BRANCH  39  40
ATOM     40  C   UNL A   1      43.713  24.766  27.289  1.00  0.00     0.031 A 
ATOM     41  C   UNL A   1      42.773  25.823  27.797  1.00  0.00     0.074 A 
ATOM     42  C   UNL A   1      45.006  25.065  27.050  1.00  0.00     0.049 A 
ATOM     43  N   UNL A   1      43.003  27.088  28.038  1.00  0.00    -0.248 NA
ATOM     44  C   UNL A   1      41.384  25.406  28.039  1.00  0.00     0.031 C 
ATOM     45  C   UNL A   1      46.007  24.129  26.531  1.00  0.00     0.029 A 
ATOM     46  N   UNL A   1      45.701  26.239  27.203  1.00  0.00    -0.354 N 
ATOM     47  C   UNL A   1      41.788  27.621  28.454  1.00  0.00     0.074 A 
ATOM     48  C   UNL A   1      40.812  26.555  28.370  1.00  0.00     0.031 C 
ATOM     49  C   UNL A   1      47.189  24.757  26.436  1.00  0.00     0.029 A 
ATOM     50  C   UNL A   1      47.023  26.153  26.828  1.00  0.00     0.049 A 
ATOM     51  H   UNL A   1      45.292  27.065  27.548  1.00  0.00     0.167 HD
ATOM     52  C   UNL A   1      41.518  28.877  28.888  1.00  0.00     0.034 A 
ATOM     53  C   UNL A   1      47.986  27.094  26.785  1.00  0.00     0.034 A 
ATOM     54  C   UNL A   1      42.506  29.927  28.968  1.00  0.00     0.049 A 
ATOM     55  C   UNL A   1      47.647  28.500  27.217  1.00  0.00     0.074 A 
ATOM     56  C   UNL A   1      42.352  31.220  29.435  1.00  0.00     0.029 A 
ATOM     57  N   UNL A   1      43.828  29.809  28.558  1.00  0.00    -0.354 N 
ATOM     58  N   UNL A   1      46.502  28.978  27.649  1.00  0.00    -0.248 NA
ATOM     59  C   UNL A   1      48.728  29.491  27.158  1.00  0.00     0.031 C 
ATOM     60  C   UNL A   1      43.554  31.906  29.232  1.00  0.00     0.029 A 
ATOM     61  C   UNL A   1      44.488  31.018  28.723  1.00  0.00     0.049 A 
ATOM     62  H   UNL A   1      44.238  28.987  28.203  1.00  0.00     0.167 HD
ATOM     63  C   UNL A   1      46.739  30.319  27.945  1.00  0.00     0.074 A 
ATOM     64  C   UNL A   1      48.135  30.567  27.655  1.00  0.00     0.031 C 
ATOM     65  C   UNL A   1      45.880  31.256  28.418  1.00  0.00     0.034 A 
BRANCH  52  66
ATOM     66  C   UNL A   1      40.092  29.190  29.280  1.00  0.00     0.023 A 
ATOM     67  C   UNL A   1      39.700  29.276  30.628  1.00  0.00     0.031 A 
ATOM     68  C   UNL A   1      39.108  29.385  28.296  1.00  0.00     0.131 A 
ATOM     69  C   UNL A   1      38.349  29.473  30.953  1.00  0.00     0.055 A 
ATOM     70  C   UNL A   1      37.781  29.668  28.627  1.00  0.00     0.041 A 
ATOM     71  F   UNL A   1      39.416  29.292  26.992  1.00  0.00    -0.206 F 
ATOM     72  C   UNL A   1      37.391  29.698  29.962  1.00  0.00     0.022 A 
BRANCH  69  73
ATOM     73  S   UNL A   1      37.839  29.278  32.682  1.00  0.00     0.124 S 
ATOM     74  O   UNL A   1      38.927  29.953  33.388  1.00  0.00    -0.237 OA
ATOM     75  O   UNL A   1      36.546  29.951  32.707  1.00  0.00    -0.237 OA
ATOM     76  O   UNL A   1      37.793  27.829  32.865  1.00  0.00    -0.744 OA
ENDBRANCH  69  73
ENDBRANCH  52  66
BRANCH  53  77
ATOM     77  C   UNL A   1      49.356  26.756  26.302  1.00  0.00     0.023 A 
ATOM     78  C   UNL A   1      49.808  27.193  25.047  1.00  0.00     0.031 A 
ATOM     79  C   UNL A   1      50.218  25.949  27.066  1.00  0.00     0.131 A 
ATOM     80  C   UNL A   1      51.062  26.781  24.571  1.00  0.00     0.055 A 
ATOM     81  C   UNL A   1      51.491  25.594  26.616  1.00  0.00     0.041 A 
ATOM     82  F   UNL A   1      49.838  25.501  28.274  1.00  0.00    -0.206 F 
ATOM     83  C   UNL A   1      51.914  25.998  25.354  1.00  0.00     0.022 A 
BRANCH  80  84
ATOM     84  S   UNL A   1      51.523  27.198  22.867  1.00  0.00     0.124 S 
ATOM     85  O   UNL A   1      50.274  26.956  22.155  1.00  0.00    -0.237 OA
ATOM     86  O   UNL A   1      51.930  28.593  22.996  1.00  0.00    -0.237 OA
ATOM     87  O   UNL A   1      52.603  26.261  22.568  1.00  0.00    -0.744 OA
ENDBRANCH  80  84
ENDBRANCH  53  77
BRANCH  65  88
ATOM     88  C   UNL A   1      46.443  32.631  28.692  1.00  0.00     0.023 A 
ATOM     89  C   UNL A   1      46.402  33.654  27.730  1.00  0.00     0.031 A 
ATOM     90  C   UNL A   1      47.026  32.919  29.939  1.00  0.00     0.131 A 
ATOM     91  C   UNL A   1      46.980  34.902  28.012  1.00  0.00     0.055 A 
ATOM     92  C   UNL A   1      47.540  34.182  30.237  1.00  0.00     0.041 A 
ATOM     93  F   UNL A   1      47.096  31.978  30.895  1.00  0.00    -0.206 F 
ATOM     94  C   UNL A   1      47.530  35.178  29.265  1.00  0.00     0.022 A 
BRANCH  91  95
ATOM     95  S   UNL A   1      47.083  36.134  26.685  1.00  0.00     0.124 S 
ATOM     96  O   UNL A   1      48.464  35.983  26.237  1.00  0.00    -0.237 OA
ATOM     97  O   UNL A   1      46.059  35.677  25.752  1.00  0.00    -0.237 OA
ATOM     98  O   UNL A   1      46.785  37.394  27.363  1.00  0.00    -0.744 OA
ENDBRANCH  91  95
ENDBRANCH  65  88
ENDBRANCH  39  40
ENDBRANCH  31  34
ENDBRANCH  29  30
ENDBRANCH  28  29
ENDBRANCH  27  28
ENDBRANCH   1  27
TORSDOF 19
ENDMDL
MODEL 3
REMARK VINA RESULT:     -11.3      5.666      9.516
REMARK SMILES C[C@@H]1[C@H](C)CCC[C@H]1NC(=O)C[N@H+]1CCC[C@@H]1C(=O)NCCCCCCNC(=O)c1ccc(-c2c3nc(c(-c4cc(S(=O)(=O)[O-])ccc4F)c4ccc([nH]4)c(-c4cc(S(=O)(=O)[O-])ccc4F)c4nc(c(-c5cc(S(=O)(=O)[O-])ccc5F)c5ccc2[nH]5)C=C4)C=C3)cc1
REMARK SMILES IDX 23 1 22 2 21 3 20 4 18 5 19 6 17 8 13 9 14 10 15 12 16 13
REMARK SMILES IDX 12 14 10 15 9 16 11 18 8 19 1 20 2 21 3 22 4 23 5 24 7 25
REMARK SMILES IDX 6 26 24 27 25 28 26 29 27 30 28 31 29 33 30 34 31 35 92 36
REMARK SMILES IDX 32 37 91 38 33 39 34 40 35 41 85 42 36 43 90 44 84 45 86 46
REMARK SMILES IDX 37 47 89 48 83 49 82 50 38 52 70 53 50 54 69 55 51 56 54 57
REMARK SMILES IDX 68 58 87 59 52 60 53 61 67 63 88 64 55 65 39 66 40 67 48 68
REMARK SMILES IDX 41 69 47 70 49 71 46 72 42 73 43 74 44 75 45 76 71 77 72 78
REMARK SMILES IDX 80 79 73 80 79 81 81 82 78 83 74 84 75 85 76 86 77 87 56 88
REMARK SMILES IDX 57 89 65 90 58 91 64 92 66 93 63 94 59 95 60 96 61 97 62 98
REMARK H PARENT 20 7 13 11 9 17 27 32 86 51 54 62
REMARK Flexibility Score: inf
ROOT
ATOM      1  C   UNL A   1      37.136  22.964  24.931  1.00  0.00     0.002 C 
ENDROOT
BRANCH   1   2
ATOM      2  C   UNL A   1      36.070  23.254  25.989  1.00  0.00     0.021 C 
BRANCH   2   3
ATOM      3  C   UNL A   1      34.932  24.144  25.519  1.00  0.00     0.116 C 
BRANCH   3   4
ATOM      4  N   UNL A   1      34.845  24.271  24.083  1.00  0.00    -0.351 N 
ATOM      5  C   UNL A   1      33.874  23.793  23.256  1.00  0.00     0.278 C 
ATOM      6  O   UNL A   1      33.880  24.188  22.082  1.00  0.00    -0.268 OA
ATOM      7  H   UNL A   1      35.577  24.764  23.648  1.00  0.00     0.163 HD
BRANCH   5   8
ATOM      8  C   UNL A   1      32.879  22.714  23.687  1.00  0.00     0.274 C 
ATOM      9  N   UNL A   1      32.040  22.989  24.870  1.00  0.00    -0.317 N 
ATOM     10  C   UNL A   1      31.486  21.690  25.206  1.00  0.00     0.263 C 
ATOM     11  H   UNL A   1      32.628  23.397  25.596  1.00  0.00     0.349 HD
ATOM     12  C   UNL A   1      32.798  20.939  25.340  1.00  0.00     0.068 C 
ATOM     13  C   UNL A   1      33.592  21.420  24.125  1.00  0.00     0.081 C 
BRANCH   9  14
ATOM     14  C   UNL A   1      31.104  24.104  24.878  1.00  0.00     0.364 C 
BRANCH  14  15
ATOM     15  C   UNL A   1      31.070  24.698  26.306  1.00  0.00     0.275 C 
ATOM     16  N   UNL A   1      31.436  25.995  26.566  1.00  0.00    -0.348 N 
ATOM     17  H   UNL A   1      30.875  26.468  27.223  1.00  0.00     0.163 HD
ATOM     18  O   UNL A   1      30.628  24.035  27.252  1.00  0.00    -0.268 OA
BRANCH  16  19
ATOM     19  C   UNL A   1      32.543  26.781  26.007  1.00  0.00     0.085 C 
ATOM     20  C   UNL A   1      33.559  27.757  23.891  1.00  0.00     0.010 C 
ATOM     21  C   UNL A   1      32.245  27.369  24.600  1.00  0.00     0.011 C 
ATOM     22  C   UNL A   1      31.214  28.520  24.628  1.00  0.00    -0.009 C 
ATOM     23  C   UNL A   1      30.945  29.103  23.235  1.00  0.00     0.008 C 
ATOM     24  C   UNL A   1      31.622  29.618  25.613  1.00  0.00     0.004 C 
ATOM     25  C   UNL A   1      32.893  27.907  26.998  1.00  0.00     0.025 C 
ATOM     26  C   UNL A   1      31.863  29.043  27.005  1.00  0.00     0.002 C 
ENDBRANCH  16  19
ENDBRANCH  14  15
ENDBRANCH   9  14
ENDBRANCH   5   8
ENDBRANCH   3   4
ENDBRANCH   2   3
ENDBRANCH   1   2
BRANCH   1  27
ATOM     27  C   UNL A   1      37.075  21.574  24.287  1.00  0.00     0.002 C 
BRANCH  27  28
ATOM     28  C   UNL A   1      37.889  20.480  24.984  1.00  0.00     0.021 C 
BRANCH  28  29
ATOM     29  C   UNL A   1      39.004  20.986  25.892  1.00  0.00     0.116 C 
BRANCH  29  30
ATOM     30  N   UNL A   1      40.078  20.020  26.045  1.00  0.00    -0.352 N 
ATOM     31  C   UNL A   1      41.413  20.224  26.300  1.00  0.00     0.251 C 
ATOM     32  H   UNL A   1      39.810  19.077  25.950  1.00  0.00     0.163 HD
ATOM     33  O   UNL A   1      42.201  19.292  26.214  1.00  0.00    -0.269 OA
BRANCH  31  34
ATOM     34  C   UNL A   1      41.889  21.580  26.652  1.00  0.00     0.039 A 
ATOM     35  C   UNL A   1      42.137  22.494  25.626  1.00  0.00     0.014 A 
ATOM     36  C   UNL A   1      42.080  21.948  27.986  1.00  0.00     0.014 A 
ATOM     37  C   UNL A   1      42.506  23.802  25.943  1.00  0.00     0.010 A 
ATOM     38  C   UNL A   1      42.375  23.271  28.302  1.00  0.00     0.010 A 
ATOM     39  C   UNL A   1      42.585  24.214  27.284  1.00  0.00    -0.014 A 
BRANCH  39  40
ATOM     40  C   UNL A   1      42.866  25.629  27.642  1.00  0.00     0.031 A 
ATOM     41  C   UNL A   1      44.267  26.167  27.548  1.00  0.00     0.074 A 
ATOM     42  C   UNL A   1      41.870  26.405  28.112  1.00  0.00     0.049 A 
ATOM     43  N   UNL A   1      44.727  27.341  27.899  1.00  0.00    -0.248 NA
ATOM     44  C   UNL A   1      45.288  25.256  27.014  1.00  0.00     0.031 C 
ATOM     45  C   UNL A   1      40.476  25.984  28.274  1.00  0.00     0.029 A 
ATOM     46  N   UNL A   1      41.873  27.706  28.550  1.00  0.00    -0.354 N 
ATOM     47  C   UNL A   1      46.091  27.307  27.636  1.00  0.00     0.074 A 
ATOM     48  C   UNL A   1      46.392  25.975  27.156  1.00  0.00     0.031 C 
ATOM     49  C   UNL A   1      39.757  27.013  28.747  1.00  0.00     0.029 A 
ATOM     50  C   UNL A   1      40.642  28.149  28.980  1.00  0.00     0.049 A 
ATOM     51  H   UNL A   1      42.680  28.270  28.556  1.00  0.00     0.167 HD
ATOM     52  C   UNL A   1      47.003  28.304  27.761  1.00  0.00     0.034 A 
ATOM     53  C   UNL A   1      40.273  29.328  29.519  1.00  0.00     0.034 A 
ATOM     54  C   UNL A   1      46.683  29.627  28.240  1.00  0.00     0.049 A 
ATOM     55  C   UNL A   1      41.318  30.401  29.704  1.00  0.00     0.074 A 
ATOM     56  C   UNL A   1      47.518  30.723  28.362  1.00  0.00     0.029 A 
ATOM     57  N   UNL A   1      45.432  30.032  28.687  1.00  0.00    -0.354 N 
ATOM     58  N   UNL A   1      42.597  30.367  29.409  1.00  0.00    -0.248 NA
ATOM     59  C   UNL A   1      40.869  31.669  30.291  1.00  0.00     0.031 C 
ATOM     60  C   UNL A   1      46.796  31.762  28.959  1.00  0.00     0.029 A 
ATOM     61  C   UNL A   1      45.484  31.347  29.125  1.00  0.00     0.049 A 
ATOM     62  H   UNL A   1      44.625  29.467  28.692  1.00  0.00     0.167 HD
ATOM     63  C   UNL A   1      43.096  31.624  29.745  1.00  0.00     0.074 A 
ATOM     64  C   UNL A   1      41.978  32.392  30.250  1.00  0.00     0.031 C 
ATOM     65  C   UNL A   1      44.363  32.099  29.639  1.00  0.00     0.034 A 
BRANCH  52  66
ATOM     66  C   UNL A   1      48.437  27.987  27.403  1.00  0.00     0.023 A 
ATOM     67  C   UNL A   1      48.951  28.244  26.119  1.00  0.00     0.031 A 
ATOM     68  C   UNL A   1      49.297  27.403  28.350  1.00  0.00     0.131 A 
ATOM     69  C   UNL A   1      50.258  27.849  25.796  1.00  0.00     0.055 A 
ATOM     70  C   UNL A   1      50.624  27.092  28.047  1.00  0.00     0.041 A 
ATOM     71  F   UNL A   1      48.857  27.112  29.585  1.00  0.00    -0.206 F 
ATOM     72  C   UNL A   1      51.107  27.300  26.759  1.00  0.00     0.022 A 
BRANCH  69  73
ATOM     73  S   UNL A   1      50.778  27.921  24.060  1.00  0.00     0.124 S 
ATOM     74  O   UNL A   1      51.441  29.222  24.006  1.00  0.00    -0.237 OA
ATOM     75  O   UNL A   1      51.646  26.756  23.943  1.00  0.00    -0.237 OA
ATOM     76  O   UNL A   1      49.520  27.841  23.321  1.00  0.00    -0.744 OA
ENDBRANCH  69  73
ENDBRANCH  52  66
BRANCH  53  77
ATOM     77  C   UNL A   1      38.862  29.558  29.943  1.00  0.00     0.023 A 
ATOM     78  C   UNL A   1      37.959  30.241  29.112  1.00  0.00     0.031 A 
ATOM     79  C   UNL A   1      38.404  29.142  31.206  1.00  0.00     0.131 A 
ATOM     80  C   UNL A   1      36.666  30.533  29.571  1.00  0.00     0.055 A 
ATOM     81  C   UNL A   1      37.097  29.378  31.635  1.00  0.00     0.041 A 
ATOM     82  F   UNL A   1      39.225  28.485  32.044  1.00  0.00    -0.206 F 
ATOM     83  C   UNL A   1      36.223  30.091  30.821  1.00  0.00     0.022 A 
BRANCH  80  84
ATOM     84  S   UNL A   1      35.601  31.591  28.553  1.00  0.00     0.124 S 
ATOM     85  O   UNL A   1      35.115  30.646  27.554  1.00  0.00    -0.237 OA
ATOM     86  O   UNL A   1      34.621  32.059  29.526  1.00  0.00    -0.237 OA
ATOM     87  O   UNL A   1      36.517  32.613  28.052  1.00  0.00    -0.744 OA
ENDBRANCH  80  84
ENDBRANCH  53  77
BRANCH  65  88
ATOM     88  C   UNL A   1      44.595  33.536  30.041  1.00  0.00     0.023 A 
ATOM     89  C   UNL A   1      44.418  34.598  29.137  1.00  0.00     0.031 A 
ATOM     90  C   UNL A   1      44.997  33.846  31.353  1.00  0.00     0.131 A 
ATOM     91  C   UNL A   1      44.692  35.913  29.542  1.00  0.00     0.055 A 
ATOM     92  C   UNL A   1      45.204  35.163  31.768  1.00  0.00     0.041 A 
ATOM     93  F   UNL A   1      45.186  32.872  32.258  1.00  0.00    -0.206 F 
ATOM     94  C   UNL A   1      45.064  36.204  30.856  1.00  0.00     0.022 A 
BRANCH  91  95
ATOM     95  S   UNL A   1      44.641  37.235  28.300  1.00  0.00     0.124 S 
ATOM     96  O   UNL A   1      43.809  36.641  27.259  1.00  0.00    -0.237 OA
ATOM     97  O   UNL A   1      44.042  38.339  29.041  1.00  0.00    -0.237 OA
ATOM     98  O   UNL A   1      46.046  37.422  27.940  1.00  0.00    -0.744 OA
ENDBRANCH  91  95
ENDBRANCH  65  88
ENDBRANCH  39  40
ENDBRANCH  31  34
ENDBRANCH  29  30
ENDBRANCH  28  29
ENDBRANCH  27  28
ENDBRANCH   1  27
TORSDOF 19
ENDMDL
