MODEL 1
REMARK VINA RESULT:     -11.2      0.000      0.000
REMARK SMILES COc1ccc([C@H](C)[N@H+]2CC[C@H](C(=O)NCCCCCCNC(=O)c3ccc(-c4c5nc(c(-c6cc(S(=O)(=O)[O-])ccc6F)c6ccc([nH]6)c(-c6cc(S(=O)(=O)[O-])ccc6F)c6nc(c(-c7cc(S(=O)(=O)[O-])ccc7F)c7ccc4[nH]7)C=C6)C=C5)cc3)[C@@H]2C)cc1
REMARK SMILES IDX 18 1 17 2 16 3 15 4 13 5 14 6 12 8 9 9 10 10 88 11 11 13
REMARK SMILES IDX 89 14 7 15 8 16 6 17 3 18 4 19 91 20 5 21 90 22 2 23 1 24
REMARK SMILES IDX 19 25 20 26 21 27 22 28 23 29 24 31 25 32 26 33 87 34 27 35
REMARK SMILES IDX 86 36 28 37 29 38 30 39 80 40 31 41 85 42 79 43 81 44 32 45
REMARK SMILES IDX 84 46 78 47 77 48 33 50 65 51 45 52 64 53 46 54 49 55 63 56
REMARK SMILES IDX 82 57 47 58 48 59 62 61 83 62 50 63 34 64 35 65 43 66 36 67
REMARK SMILES IDX 42 68 44 69 41 70 37 71 38 72 39 73 40 74 66 75 67 76 75 77
REMARK SMILES IDX 68 78 74 79 76 80 73 81 69 82 70 83 71 84 72 85 51 86 52 87
REMARK SMILES IDX 60 88 53 89 59 90 61 91 58 92 54 93 55 94 56 95 57 96
REMARK H PARENT 15 7 9 12 22 30 81 49 49 60
REMARK Flexibility Score: inf
ROOT
ATOM      1  C   UNL A   1      31.051  27.091  26.094  1.00  0.00     0.002 C 
ENDROOT
BRANCH   1   2
ATOM      2  C   UNL A   1      31.364  25.611  26.304  1.00  0.00     0.021 C 
BRANCH   2   3
ATOM      3  C   UNL A   1      31.300  24.784  25.026  1.00  0.00     0.116 C 
BRANCH   3   4
ATOM      4  N   UNL A   1      31.839  25.487  23.881  1.00  0.00    -0.356 N 
ATOM      5  C   UNL A   1      33.059  25.523  23.294  1.00  0.00     0.229 C 
ATOM      6  O   UNL A   1      33.158  26.282  22.318  1.00  0.00    -0.275 OA
ATOM      7  H   UNL A   1      31.176  26.062  23.434  1.00  0.00     0.163 HD
BRANCH   5   8
ATOM      8  C   UNL A   1      34.281  24.697  23.701  1.00  0.00     0.142 C 
ATOM      9  N   UNL A   1      34.314  22.435  24.563  1.00  0.00    -0.326 N 
ATOM     10  C   UNL A   1      34.260  23.365  25.686  1.00  0.00     0.264 C 
ATOM     11  C   UNL A   1      34.265  23.203  23.306  1.00  0.00     0.194 C 
ATOM     12  H   UNL A   1      33.485  21.842  24.539  1.00  0.00     0.348 HD
ATOM     13  C   UNL A   1      34.738  24.697  25.144  1.00  0.00     0.081 C 
ATOM     14  C   UNL A   1      33.075  22.757  22.458  1.00  0.00     0.076 C 
BRANCH   9  15
ATOM     15  C   UNL A   1      35.349  21.390  24.712  1.00  0.00     0.212 C 
ATOM     16  C   UNL A   1      36.291  21.646  25.904  1.00  0.00     0.081 C 
BRANCH  15  17
ATOM     17  C   UNL A   1      34.652  20.015  24.749  1.00  0.00     0.009 A 
ATOM     18  C   UNL A   1      33.478  17.477  24.334  1.00  0.00     0.118 A 
ATOM     19  C   UNL A   1      34.859  17.599  24.470  1.00  0.00     0.047 A 
ATOM     20  C   UNL A   1      32.674  18.603  24.480  1.00  0.00     0.047 A 
ATOM     21  C   UNL A   1      35.442  18.853  24.671  1.00  0.00     0.013 A 
ATOM     22  C   UNL A   1      33.255  19.861  24.690  1.00  0.00     0.013 A 
BRANCH  18  23
ATOM     23  O   UNL A   1      33.005  16.214  24.107  1.00  0.00    -0.497 OA
ATOM     24  C   UNL A   1      32.943  15.378  25.263  1.00  0.00     0.278 C 
ENDBRANCH  18  23
ENDBRANCH  15  17
ENDBRANCH   9  15
ENDBRANCH   5   8
ENDBRANCH   3   4
ENDBRANCH   2   3
ENDBRANCH   1   2
BRANCH   1  25
ATOM     25  C   UNL A   1      31.851  28.053  26.983  1.00  0.00     0.002 C 
BRANCH  25  26
ATOM     26  C   UNL A   1      33.373  27.888  26.929  1.00  0.00     0.021 C 
BRANCH  26  27
ATOM     27  C   UNL A   1      34.097  28.947  26.104  1.00  0.00     0.116 C 
BRANCH  27  28
ATOM     28  N   UNL A   1      33.830  30.286  26.600  1.00  0.00    -0.352 N 
ATOM     29  C   UNL A   1      34.431  30.971  27.625  1.00  0.00     0.251 C 
ATOM     30  H   UNL A   1      33.112  30.772  26.133  1.00  0.00     0.163 HD
ATOM     31  O   UNL A   1      33.901  31.981  28.074  1.00  0.00    -0.269 OA
BRANCH  29  32
ATOM     32  C   UNL A   1      35.708  30.480  28.183  1.00  0.00     0.039 A 
ATOM     33  C   UNL A   1      35.686  29.698  29.339  1.00  0.00     0.014 A 
ATOM     34  C   UNL A   1      36.925  30.809  27.578  1.00  0.00     0.014 A 
ATOM     35  C   UNL A   1      36.883  29.205  29.861  1.00  0.00     0.010 A 
ATOM     36  C   UNL A   1      38.109  30.256  28.055  1.00  0.00     0.010 A 
ATOM     37  C   UNL A   1      38.100  29.454  29.206  1.00  0.00    -0.014 A 
BRANCH  37  38
ATOM     38  C   UNL A   1      39.378  28.895  29.719  1.00  0.00     0.031 A 
ATOM     39  C   UNL A   1      40.083  29.559  30.870  1.00  0.00     0.074 A 
ATOM     40  C   UNL A   1      39.924  27.822  29.113  1.00  0.00     0.049 A 
ATOM     41  N   UNL A   1      41.237  29.269  31.413  1.00  0.00    -0.248 NA
ATOM     42  C   UNL A   1      39.414  30.725  31.469  1.00  0.00     0.031 C 
ATOM     43  C   UNL A   1      39.347  27.116  27.966  1.00  0.00     0.029 A 
ATOM     44  N   UNL A   1      41.090  27.143  29.367  1.00  0.00    -0.354 N 
ATOM     45  C   UNL A   1      41.437  30.219  32.409  1.00  0.00     0.074 A 
ATOM     46  C   UNL A   1      40.317  31.132  32.347  1.00  0.00     0.031 C 
ATOM     47  C   UNL A   1      40.146  26.088  27.637  1.00  0.00     0.029 A 
ATOM     48  C   UNL A   1      41.315  26.092  28.509  1.00  0.00     0.049 A 
ATOM     49  H   UNL A   1      41.706  27.386  30.096  1.00  0.00     0.167 HD
ATOM     50  C   UNL A   1      42.451  30.306  33.306  1.00  0.00     0.034 A 
ATOM     51  C   UNL A   1      42.354  25.237  28.426  1.00  0.00     0.034 A 
ATOM     52  C   UNL A   1      43.556  29.378  33.355  1.00  0.00     0.049 A 
ATOM     53  C   UNL A   1      43.487  25.375  29.411  1.00  0.00     0.074 A 
ATOM     54  C   UNL A   1      44.610  29.341  34.251  1.00  0.00     0.029 A 
ATOM     55  N   UNL A   1      43.756  28.330  32.465  1.00  0.00    -0.354 N 
ATOM     56  N   UNL A   1      43.640  26.251  30.378  1.00  0.00    -0.248 NA
ATOM     57  C   UNL A   1      44.583  24.405  29.300  1.00  0.00     0.031 C 
ATOM     58  C   UNL A   1      45.485  28.324  33.857  1.00  0.00     0.029 A 
ATOM     59  C   UNL A   1      44.935  27.665  32.768  1.00  0.00     0.049 A 
ATOM     60  H   UNL A   1      43.150  28.093  31.726  1.00  0.00     0.167 HD
ATOM     61  C   UNL A   1      44.832  25.913  31.011  1.00  0.00     0.074 A 
ATOM     62  C   UNL A   1      45.349  24.746  30.325  1.00  0.00     0.031 C 
ATOM     63  C   UNL A   1      45.443  26.509  32.068  1.00  0.00     0.034 A 
BRANCH  50  64
ATOM     64  C   UNL A   1      42.421  31.457  34.284  1.00  0.00     0.023 A 
ATOM     65  C   UNL A   1      41.545  31.472  35.384  1.00  0.00     0.031 A 
ATOM     66  C   UNL A   1      43.262  32.569  34.101  1.00  0.00     0.131 A 
ATOM     67  C   UNL A   1      41.475  32.603  36.211  1.00  0.00     0.055 A 
ATOM     68  C   UNL A   1      43.249  33.655  34.979  1.00  0.00     0.041 A 
ATOM     69  F   UNL A   1      44.104  32.627  33.057  1.00  0.00    -0.206 F 
ATOM     70  C   UNL A   1      42.340  33.684  36.033  1.00  0.00     0.022 A 
BRANCH  67  71
ATOM     71  S   UNL A   1      40.130  32.705  37.425  1.00  0.00     0.124 S 
ATOM     72  O   UNL A   1      39.660  34.074  37.228  1.00  0.00    -0.237 OA
ATOM     73  O   UNL A   1      39.227  31.647  36.985  1.00  0.00    -0.237 OA
ATOM     74  O   UNL A   1      40.802  32.463  38.700  1.00  0.00    -0.744 OA
ENDBRANCH  67  71
ENDBRANCH  50  64
BRANCH  51  75
ATOM     75  C   UNL A   1      42.383  24.183  27.371  1.00  0.00     0.023 A 
ATOM     76  C   UNL A   1      41.779  22.933  27.580  1.00  0.00     0.031 A 
ATOM     77  C   UNL A   1      43.054  24.394  26.152  1.00  0.00     0.131 A 
ATOM     78  C   UNL A   1      41.902  21.925  26.611  1.00  0.00     0.055 A 
ATOM     79  C   UNL A   1      43.121  23.409  25.166  1.00  0.00     0.041 A 
ATOM     80  F   UNL A   1      43.647  25.572  25.898  1.00  0.00    -0.206 F 
ATOM     81  C   UNL A   1      42.556  22.160  25.399  1.00  0.00     0.022 A 
BRANCH  78  82
ATOM     82  S   UNL A   1      41.279  20.267  27.000  1.00  0.00     0.124 S 
ATOM     83  O   UNL A   1      40.850  20.430  28.385  1.00  0.00    -0.237 OA
ATOM     84  O   UNL A   1      40.215  20.105  26.014  1.00  0.00    -0.237 OA
ATOM     85  O   UNL A   1      42.445  19.410  26.802  1.00  0.00    -0.744 OA
ENDBRANCH  78  82
ENDBRANCH  51  75
BRANCH  63  86
ATOM     86  C   UNL A   1      46.719  25.874  32.571  1.00  0.00     0.023 A 
ATOM     87  C   UNL A   1      47.971  26.179  32.012  1.00  0.00     0.031 A 
ATOM     88  C   UNL A   1      46.674  24.943  33.625  1.00  0.00     0.131 A 
ATOM     89  C   UNL A   1      49.121  25.516  32.470  1.00  0.00     0.055 A 
ATOM     90  C   UNL A   1      47.828  24.337  34.120  1.00  0.00     0.041 A 
ATOM     91  F   UNL A   1      45.504  24.611  34.195  1.00  0.00    -0.206 F 
ATOM     92  C   UNL A   1      49.060  24.612  33.533  1.00  0.00     0.022 A 
BRANCH  89  93
ATOM     93  S   UNL A   1      50.685  25.778  31.590  1.00  0.00     0.124 S 
ATOM     94  O   UNL A   1      51.642  25.118  32.472  1.00  0.00    -0.237 OA
ATOM     95  O   UNL A   1      50.438  25.118  30.311  1.00  0.00    -0.237 OA
ATOM     96  O   UNL A   1      50.803  27.233  31.525  1.00  0.00    -0.744 OA
ENDBRANCH  89  93
ENDBRANCH  63  86
ENDBRANCH  37  38
ENDBRANCH  29  32
ENDBRANCH  27  28
ENDBRANCH  26  27
ENDBRANCH  25  26
ENDBRANCH   1  25
TORSDOF 19
ENDMDL
MODEL 2
REMARK VINA RESULT:     -11.2      2.632      8.107
REMARK SMILES COc1ccc([C@H](C)[N@H+]2CC[C@H](C(=O)NCCCCCCNC(=O)c3ccc(-c4c5nc(c(-c6cc(S(=O)(=O)[O-])ccc6F)c6ccc([nH]6)c(-c6cc(S(=O)(=O)[O-])ccc6F)c6nc(c(-c7cc(S(=O)(=O)[O-])ccc7F)c7ccc4[nH]7)C=C6)C=C5)cc3)[C@@H]2C)cc1
REMARK SMILES IDX 18 1 17 2 16 3 15 4 13 5 14 6 12 8 9 9 10 10 88 11 11 13
REMARK SMILES IDX 89 14 7 15 8 16 6 17 3 18 4 19 91 20 5 21 90 22 2 23 1 24
REMARK SMILES IDX 19 25 20 26 21 27 22 28 23 29 24 31 25 32 26 33 87 34 27 35
REMARK SMILES IDX 86 36 28 37 29 38 30 39 80 40 31 41 85 42 79 43 81 44 32 45
REMARK SMILES IDX 84 46 78 47 77 48 33 50 65 51 45 52 64 53 46 54 49 55 63 56
REMARK SMILES IDX 82 57 47 58 48 59 62 61 83 62 50 63 34 64 35 65 43 66 36 67
REMARK SMILES IDX 42 68 44 69 41 70 37 71 38 72 39 73 40 74 66 75 67 76 75 77
REMARK SMILES IDX 68 78 74 79 76 80 73 81 69 82 70 83 71 84 72 85 51 86 52 87
REMARK SMILES IDX 60 88 53 89 59 90 61 91 58 92 54 93 55 94 56 95 57 96
REMARK H PARENT 15 7 9 12 22 30 81 49 49 60
REMARK Flexibility Score: inf
ROOT
ATOM      1  C   UNL A   1      31.262  27.014  23.095  1.00  0.00     0.002 C 
ENDROOT
BRANCH   1   2
ATOM      2  C   UNL A   1      30.694  26.020  24.105  1.00  0.00     0.021 C 
BRANCH   2   3
ATOM      3  C   UNL A   1      31.195  26.237  25.528  1.00  0.00     0.116 C 
BRANCH   3   4
ATOM      4  N   UNL A   1      30.818  25.161  26.420  1.00  0.00    -0.356 N 
ATOM      5  C   UNL A   1      31.396  23.987  26.765  1.00  0.00     0.229 C 
ATOM      6  O   UNL A   1      30.751  23.290  27.563  1.00  0.00    -0.275 OA
ATOM      7  H   UNL A   1      29.957  25.318  26.872  1.00  0.00     0.163 HD
BRANCH   5   8
ATOM      8  C   UNL A   1      32.762  23.480  26.296  1.00  0.00     0.142 C 
ATOM      9  N   UNL A   1      33.347  21.234  25.608  1.00  0.00    -0.326 N 
ATOM     10  C   UNL A   1      33.613  21.372  27.036  1.00  0.00     0.264 C 
ATOM     11  C   UNL A   1      32.759  22.490  25.109  1.00  0.00     0.194 C 
ATOM     12  H   UNL A   1      32.635  20.525  25.435  1.00  0.00     0.348 HD
ATOM     13  C   UNL A   1      33.715  22.862  27.296  1.00  0.00     0.081 C 
ATOM     14  C   UNL A   1      31.395  22.222  24.476  1.00  0.00     0.076 C 
BRANCH   9  15
ATOM     15  C   UNL A   1      34.468  20.632  24.856  1.00  0.00     0.212 C 
ATOM     16  C   UNL A   1      35.846  20.973  25.457  1.00  0.00     0.081 C 
BRANCH  15  17
ATOM     17  C   UNL A   1      34.204  19.120  24.714  1.00  0.00     0.009 A 
ATOM     18  C   UNL A   1      33.729  16.342  24.948  1.00  0.00     0.118 A 
ATOM     19  C   UNL A   1      32.689  17.251  25.131  1.00  0.00     0.047 A 
ATOM     20  C   UNL A   1      34.986  16.808  24.575  1.00  0.00     0.047 A 
ATOM     21  C   UNL A   1      32.922  18.625  25.020  1.00  0.00     0.013 A 
ATOM     22  C   UNL A   1      35.221  18.183  24.454  1.00  0.00     0.013 A 
BRANCH  18  23
ATOM     23  O   UNL A   1      33.410  15.022  25.111  1.00  0.00    -0.497 OA
ATOM     24  C   UNL A   1      32.134  14.782  25.705  1.00  0.00     0.278 C 
ENDBRANCH  18  23
ENDBRANCH  15  17
ENDBRANCH   9  15
ENDBRANCH   5   8
ENDBRANCH   3   4
ENDBRANCH   2   3
ENDBRANCH   1   2
BRANCH   1  25
ATOM     25  C   UNL A   1      31.506  28.425  23.645  1.00  0.00     0.002 C 
BRANCH  25  26
ATOM     26  C   UNL A   1      32.965  28.893  23.638  1.00  0.00     0.021 C 
BRANCH  26  27
ATOM     27  C   UNL A   1      33.535  29.214  25.015  1.00  0.00     0.116 C 
BRANCH  27  28
ATOM     28  N   UNL A   1      32.882  30.368  25.608  1.00  0.00    -0.352 N 
ATOM     29  C   UNL A   1      33.146  31.003  26.795  1.00  0.00     0.251 C 
ATOM     30  H   UNL A   1      32.142  30.749  25.083  1.00  0.00     0.163 HD
ATOM     31  O   UNL A   1      32.326  31.789  27.259  1.00  0.00    -0.269 OA
BRANCH  29  32
ATOM     32  C   UNL A   1      34.410  30.727  27.509  1.00  0.00     0.039 A 
ATOM     33  C   UNL A   1      35.354  31.747  27.633  1.00  0.00     0.014 A 
ATOM     34  C   UNL A   1      34.669  29.458  28.035  1.00  0.00     0.014 A 
ATOM     35  C   UNL A   1      36.541  31.507  28.329  1.00  0.00     0.010 A 
ATOM     36  C   UNL A   1      35.817  29.243  28.792  1.00  0.00     0.010 A 
ATOM     37  C   UNL A   1      36.768  30.263  28.940  1.00  0.00    -0.014 A 
BRANCH  37  38
ATOM     38  C   UNL A   1      38.001  30.007  29.727  1.00  0.00     0.031 A 
ATOM     39  C   UNL A   1      39.039  29.047  29.211  1.00  0.00     0.074 A 
ATOM     40  C   UNL A   1      38.158  30.598  30.928  1.00  0.00     0.049 A 
ATOM     41  N   UNL A   1      40.143  28.636  29.780  1.00  0.00    -0.248 NA
ATOM     42  C   UNL A   1      38.783  28.447  27.892  1.00  0.00     0.031 C 
ATOM     43  C   UNL A   1      37.202  31.521  31.545  1.00  0.00     0.029 A 
ATOM     44  N   UNL A   1      39.171  30.507  31.849  1.00  0.00    -0.354 N 
ATOM     45  C   UNL A   1      40.709  27.725  28.895  1.00  0.00     0.074 A 
ATOM     46  C   UNL A   1      39.790  27.594  27.785  1.00  0.00     0.031 C 
ATOM     47  C   UNL A   1      37.688  31.931  32.728  1.00  0.00     0.029 A 
ATOM     48  C   UNL A   1      38.961  31.264  32.979  1.00  0.00     0.049 A 
ATOM     49  H   UNL A   1      39.973  29.953  31.714  1.00  0.00     0.167 HD
ATOM     50  C   UNL A   1      41.896  27.075  28.991  1.00  0.00     0.034 A 
ATOM     51  C   UNL A   1      39.703  31.394  34.096  1.00  0.00     0.034 A 
ATOM     52  C   UNL A   1      42.800  27.226  30.105  1.00  0.00     0.049 A 
ATOM     53  C   UNL A   1      41.002  30.633  34.196  1.00  0.00     0.074 A 
ATOM     54  C   UNL A   1      44.050  26.657  30.283  1.00  0.00     0.029 A 
ATOM     55  N   UNL A   1      42.552  27.994  31.236  1.00  0.00    -0.354 N 
ATOM     56  N   UNL A   1      41.547  29.809  33.329  1.00  0.00    -0.248 NA
ATOM     57  C   UNL A   1      41.789  30.826  35.420  1.00  0.00     0.031 C 
ATOM     58  C   UNL A   1      44.519  27.016  31.551  1.00  0.00     0.029 A 
ATOM     59  C   UNL A   1      43.605  27.884  32.130  1.00  0.00     0.049 A 
ATOM     60  H   UNL A   1      41.744  28.539  31.381  1.00  0.00     0.167 HD
ATOM     61  C   UNL A   1      42.758  29.416  33.891  1.00  0.00     0.074 A 
ATOM     62  C   UNL A   1      42.869  30.103  35.162  1.00  0.00     0.031 C 
ATOM     63  C   UNL A   1      43.697  28.567  33.399  1.00  0.00     0.034 A 
BRANCH  50  64
ATOM     64  C   UNL A   1      42.263  26.125  27.875  1.00  0.00     0.023 A 
ATOM     65  C   UNL A   1      41.768  24.809  27.830  1.00  0.00     0.031 A 
ATOM     66  C   UNL A   1      43.140  26.530  26.854  1.00  0.00     0.131 A 
ATOM     67  C   UNL A   1      42.211  23.925  26.835  1.00  0.00     0.055 A 
ATOM     68  C   UNL A   1      43.510  25.672  25.816  1.00  0.00     0.041 A 
ATOM     69  F   UNL A   1      43.666  27.765  26.852  1.00  0.00    -0.206 F 
ATOM     70  C   UNL A   1      43.058  24.356  25.811  1.00  0.00     0.022 A 
BRANCH  67  71
ATOM     71  S   UNL A   1      41.790  22.167  26.987  1.00  0.00     0.124 S 
ATOM     72  O   UNL A   1      42.054  21.683  25.635  1.00  0.00    -0.237 OA
ATOM     73  O   UNL A   1      42.711  21.711  28.023  1.00  0.00    -0.237 OA
ATOM     74  O   UNL A   1      40.379  22.186  27.370  1.00  0.00    -0.744 OA
ENDBRANCH  67  71
ENDBRANCH  50  64
BRANCH  51  75
ATOM     75  C   UNL A   1      39.239  32.264  35.215  1.00  0.00     0.023 A 
ATOM     76  C   UNL A   1      39.701  33.583  35.344  1.00  0.00     0.031 A 
ATOM     77  C   UNL A   1      38.360  31.776  36.198  1.00  0.00     0.131 A 
ATOM     78  C   UNL A   1      39.325  34.351  36.457  1.00  0.00     0.055 A 
ATOM     79  C   UNL A   1      37.940  32.563  37.271  1.00  0.00     0.041 A 
ATOM     80  F   UNL A   1      37.885  30.521  36.123  1.00  0.00    -0.206 F 
ATOM     81  C   UNL A   1      38.436  33.855  37.414  1.00  0.00     0.022 A 
BRANCH  78  82
ATOM     82  S   UNL A   1      40.096  35.976  36.690  1.00  0.00     0.124 S 
ATOM     83  O   UNL A   1      41.501  35.618  36.844  1.00  0.00    -0.237 OA
ATOM     84  O   UNL A   1      39.740  36.660  35.451  1.00  0.00    -0.237 OA
ATOM     85  O   UNL A   1      39.446  36.492  37.893  1.00  0.00    -0.744 OA
ENDBRANCH  78  82
ENDBRANCH  51  75
BRANCH  63  86
ATOM     86  C   UNL A   1      44.948  28.374  34.223  1.00  0.00     0.023 A 
ATOM     87  C   UNL A   1      45.062  27.342  35.171  1.00  0.00     0.031 A 
ATOM     88  C   UNL A   1      46.041  29.245  34.060  1.00  0.00     0.131 A 
ATOM     89  C   UNL A   1      46.219  27.242  35.959  1.00  0.00     0.055 A 
ATOM     90  C   UNL A   1      47.214  29.100  34.800  1.00  0.00     0.041 A 
ATOM     91  F   UNL A   1      45.986  30.252  33.173  1.00  0.00    -0.206 F 
ATOM     92  C   UNL A   1      47.303  28.102  35.766  1.00  0.00     0.022 A 
BRANCH  89  93
ATOM     93  S   UNL A   1      46.250  26.033  37.310  1.00  0.00     0.124 S 
ATOM     94  O   UNL A   1      46.180  26.893  38.487  1.00  0.00    -0.237 OA
ATOM     95  O   UNL A   1      45.063  25.229  37.037  1.00  0.00    -0.237 OA
ATOM     96  O   UNL A   1      47.524  25.341  37.123  1.00  0.00    -0.744 OA
ENDBRANCH  89  93
ENDBRANCH  63  86
ENDBRANCH  37  38
ENDBRANCH  29  32
ENDBRANCH  27  28
ENDBRANCH  26  27
ENDBRANCH  25  26
ENDBRANCH   1  25
TORSDOF 19
ENDMDL
MODEL 3
REMARK VINA RESULT:     -10.9      3.666      8.885
REMARK SMILES COc1ccc([C@H](C)[N@H+]2CC[C@H](C(=O)NCCCCCCNC(=O)c3ccc(-c4c5nc(c(-c6cc(S(=O)(=O)[O-])ccc6F)c6ccc([nH]6)c(-c6cc(S(=O)(=O)[O-])ccc6F)c6nc(c(-c7cc(S(=O)(=O)[O-])ccc7F)c7ccc4[nH]7)C=C6)C=C5)cc3)[C@@H]2C)cc1
REMARK SMILES IDX 18 1 17 2 16 3 15 4 13 5 14 6 12 8 9 9 10 10 88 11 11 13
REMARK SMILES IDX 89 14 7 15 8 16 6 17 3 18 4 19 91 20 5 21 90 22 2 23 1 24
REMARK SMILES IDX 19 25 20 26 21 27 22 28 23 29 24 31 25 32 26 33 87 34 27 35
REMARK SMILES IDX 86 36 28 37 29 38 30 39 80 40 31 41 85 42 79 43 81 44 32 45
REMARK SMILES IDX 84 46 78 47 77 48 33 50 65 51 45 52 64 53 46 54 49 55 63 56
REMARK SMILES IDX 82 57 47 58 48 59 62 61 83 62 50 63 34 64 35 65 43 66 36 67
REMARK SMILES IDX 42 68 44 69 41 70 37 71 38 72 39 73 40 74 66 75 67 76 75 77
REMARK SMILES IDX 68 78 74 79 76 80 73 81 69 82 70 83 71 84 72 85 51 86 52 87
REMARK SMILES IDX 60 88 53 89 59 90 61 91 58 92 54 93 55 94 56 95 57 96
REMARK H PARENT 15 7 9 12 22 30 81 49 49 60
REMARK Flexibility Score: inf
ROOT
ATOM      1  C   UNL A   1      32.098  29.529  26.984  1.00  0.00     0.002 C 
ENDROOT
BRANCH   1   2
ATOM      2  C   UNL A   1      32.731  28.321  26.296  1.00  0.00     0.021 C 
BRANCH   2   3
ATOM      3  C   UNL A   1      32.180  28.052  24.901  1.00  0.00     0.116 C 
BRANCH   3   4
ATOM      4  N   UNL A   1      30.911  27.356  24.930  1.00  0.00    -0.356 N 
ATOM      5  C   UNL A   1      30.552  26.076  25.183  1.00  0.00     0.229 C 
ATOM      6  O   UNL A   1      29.339  25.834  25.088  1.00  0.00    -0.275 OA
ATOM      7  H   UNL A   1      30.146  27.940  24.720  1.00  0.00     0.163 HD
BRANCH   5   8
ATOM      8  C   UNL A   1      31.489  24.942  25.606  1.00  0.00     0.142 C 
ATOM      9  N   UNL A   1      31.542  22.676  24.755  1.00  0.00    -0.326 N 
ATOM     10  C   UNL A   1      30.667  22.720  25.922  1.00  0.00     0.264 C 
ATOM     11  C   UNL A   1      32.031  24.038  24.475  1.00  0.00     0.194 C 
ATOM     12  H   UNL A   1      31.025  22.406  23.919  1.00  0.00     0.348 HD
ATOM     13  C   UNL A   1      31.052  23.972  26.683  1.00  0.00     0.081 C 
ATOM     14  C   UNL A   1      31.650  24.456  23.056  1.00  0.00     0.076 C 
BRANCH   9  15
ATOM     15  C   UNL A   1      32.522  21.570  24.795  1.00  0.00     0.212 C 
ATOM     16  C   UNL A   1      32.408  20.624  23.583  1.00  0.00     0.081 C 
BRANCH  15  17
ATOM     17  C   UNL A   1      33.928  22.171  24.990  1.00  0.00     0.009 A 
ATOM     18  C   UNL A   1      36.663  22.805  25.328  1.00  0.00     0.118 A 
ATOM     19  C   UNL A   1      36.157  22.526  24.060  1.00  0.00     0.047 A 
ATOM     20  C   UNL A   1      35.796  22.843  26.416  1.00  0.00     0.047 A 
ATOM     21  C   UNL A   1      34.807  22.209  23.891  1.00  0.00     0.013 A 
ATOM     22  C   UNL A   1      34.441  22.533  26.249  1.00  0.00     0.013 A 
BRANCH  18  23
ATOM     23  O   UNL A   1      38.002  23.071  25.396  1.00  0.00    -0.497 OA
ATOM     24  C   UNL A   1      38.774  22.093  26.094  1.00  0.00     0.278 C 
ENDBRANCH  18  23
ENDBRANCH  15  17
ENDBRANCH   9  15
ENDBRANCH   5   8
ENDBRANCH   3   4
ENDBRANCH   2   3
ENDBRANCH   1   2
BRANCH   1  25
ATOM     25  C   UNL A   1      31.425  30.532  26.039  1.00  0.00     0.002 C 
BRANCH  25  26
ATOM     26  C   UNL A   1      31.407  31.985  26.525  1.00  0.00     0.021 C 
BRANCH  26  27
ATOM     27  C   UNL A   1      32.684  32.435  27.227  1.00  0.00     0.116 C 
BRANCH  27  28
ATOM     28  N   UNL A   1      32.610  33.829  27.629  1.00  0.00    -0.352 N 
ATOM     29  C   UNL A   1      33.260  34.477  28.650  1.00  0.00     0.251 C 
ATOM     30  H   UNL A   1      32.006  34.390  27.092  1.00  0.00     0.163 HD
ATOM     31  O   UNL A   1      32.876  35.585  29.007  1.00  0.00    -0.269 OA
BRANCH  29  32
ATOM     32  C   UNL A   1      34.409  33.828  29.314  1.00  0.00     0.039 A 
ATOM     33  C   UNL A   1      35.701  34.250  28.996  1.00  0.00     0.014 A 
ATOM     34  C   UNL A   1      34.211  32.793  30.232  1.00  0.00     0.014 A 
ATOM     35  C   UNL A   1      36.795  33.665  29.638  1.00  0.00     0.010 A 
ATOM     36  C   UNL A   1      35.296  32.264  30.925  1.00  0.00     0.010 A 
ATOM     37  C   UNL A   1      36.599  32.689  30.629  1.00  0.00    -0.014 A 
BRANCH  37  38
ATOM     38  C   UNL A   1      37.748  32.092  31.357  1.00  0.00     0.031 A 
ATOM     39  C   UNL A   1      38.572  31.013  30.710  1.00  0.00     0.074 A 
ATOM     40  C   UNL A   1      38.012  32.487  32.619  1.00  0.00     0.049 A 
ATOM     41  N   UNL A   1      39.565  30.319  31.205  1.00  0.00    -0.248 NA
ATOM     42  C   UNL A   1      38.211  30.644  29.333  1.00  0.00     0.031 C 
ATOM     43  C   UNL A   1      37.260  33.501  33.361  1.00  0.00     0.029 A 
ATOM     44  N   UNL A   1      38.979  32.079  33.504  1.00  0.00    -0.354 N 
ATOM     45  C   UNL A   1      39.940  29.427  30.206  1.00  0.00     0.074 A 
ATOM     46  C   UNL A   1      39.023  29.624  29.104  1.00  0.00     0.031 C 
ATOM     47  C   UNL A   1      37.810  33.655  34.576  1.00  0.00     0.029 A 
ATOM     48  C   UNL A   1      38.918  32.717  34.721  1.00  0.00     0.049 A 
ATOM     49  H   UNL A   1      39.652  31.394  33.288  1.00  0.00     0.167 HD
ATOM     50  C   UNL A   1      40.969  28.543  30.201  1.00  0.00     0.034 A 
ATOM     51  C   UNL A   1      39.662  32.555  35.833  1.00  0.00     0.034 A 
ATOM     52  C   UNL A   1      41.876  28.369  31.310  1.00  0.00     0.049 A 
ATOM     53  C   UNL A   1      40.777  31.539  35.817  1.00  0.00     0.074 A 
ATOM     54  C   UNL A   1      42.982  27.540  31.395  1.00  0.00     0.029 A 
ATOM     55  N   UNL A   1      41.780  29.026  32.530  1.00  0.00    -0.354 N 
ATOM     56  N   UNL A   1      41.149  30.736  34.847  1.00  0.00    -0.248 NA
ATOM     57  C   UNL A   1      41.577  31.416  37.041  1.00  0.00     0.031 C 
ATOM     58  C   UNL A   1      43.504  27.637  32.689  1.00  0.00     0.029 A 
ATOM     59  C   UNL A   1      42.782  28.594  33.386  1.00  0.00     0.049 A 
ATOM     60  H   UNL A   1      41.100  29.701  32.755  1.00  0.00     0.167 HD
ATOM     61  C   UNL A   1      42.250  30.037  35.335  1.00  0.00     0.074 A 
ATOM     62  C   UNL A   1      42.489  30.526  36.678  1.00  0.00     0.031 C 
ATOM     63  C   UNL A   1      43.001  29.083  34.727  1.00  0.00     0.034 A 
BRANCH  50  64
ATOM     64  C   UNL A   1      41.144  27.683  28.971  1.00  0.00     0.023 A 
ATOM     65  C   UNL A   1      42.168  27.925  28.038  1.00  0.00     0.031 A 
ATOM     66  C   UNL A   1      40.260  26.620  28.713  1.00  0.00     0.131 A 
ATOM     67  C   UNL A   1      42.236  27.169  26.859  1.00  0.00     0.055 A 
ATOM     68  C   UNL A   1      40.387  25.815  27.580  1.00  0.00     0.041 A 
ATOM     69  F   UNL A   1      39.248  26.353  29.553  1.00  0.00    -0.206 F 
ATOM     70  C   UNL A   1      41.369  26.097  26.636  1.00  0.00     0.022 A 
BRANCH  67  71
ATOM     71  S   UNL A   1      43.374  27.705  25.551  1.00  0.00     0.124 S 
ATOM     72  O   UNL A   1      43.929  28.927  26.127  1.00  0.00    -0.237 OA
ATOM     73  O   UNL A   1      44.289  26.574  25.446  1.00  0.00    -0.237 OA
ATOM     74  O   UNL A   1      42.498  27.910  24.399  1.00  0.00    -0.744 OA
ENDBRANCH  67  71
ENDBRANCH  50  64
BRANCH  51  75
ATOM     75  C   UNL A   1      39.376  33.357  37.058  1.00  0.00     0.023 A 
ATOM     76  C   UNL A   1      40.008  34.590  37.279  1.00  0.00     0.031 A 
ATOM     77  C   UNL A   1      38.498  32.881  38.049  1.00  0.00     0.131 A 
ATOM     78  C   UNL A   1      39.796  35.281  38.482  1.00  0.00     0.055 A 
ATOM     79  C   UNL A   1      38.244  33.600  39.217  1.00  0.00     0.041 A 
ATOM     80  F   UNL A   1      37.864  31.707  37.889  1.00  0.00    -0.206 F 
ATOM     81  C   UNL A   1      38.906  34.802  39.446  1.00  0.00     0.022 A 
BRANCH  78  82
ATOM     82  S   UNL A   1      40.779  36.769  38.813  1.00  0.00     0.124 S 
ATOM     83  O   UNL A   1      41.636  36.826  37.634  1.00  0.00    -0.237 OA
ATOM     84  O   UNL A   1      39.748  37.797  38.907  1.00  0.00    -0.237 OA
ATOM     85  O   UNL A   1      41.460  36.455  40.067  1.00  0.00    -0.744 OA
ENDBRANCH  78  82
ENDBRANCH  51  75
BRANCH  63  86
ATOM     86  C   UNL A   1      44.180  28.540  35.500  1.00  0.00     0.023 A 
ATOM     87  C   UNL A   1      44.040  27.500  36.435  1.00  0.00     0.031 A 
ATOM     88  C   UNL A   1      45.463  29.080  35.300  1.00  0.00     0.131 A 
ATOM     89  C   UNL A   1      45.152  27.072  37.176  1.00  0.00     0.055 A 
ATOM     90  C   UNL A   1      46.577  28.605  35.991  1.00  0.00     0.041 A 
ATOM     91  F   UNL A   1      45.655  30.078  34.422  1.00  0.00    -0.206 F 
ATOM     92  C   UNL A   1      46.423  27.605  36.947  1.00  0.00     0.022 A 
BRANCH  89  93
ATOM     93  S   UNL A   1      44.898  25.877  38.517  1.00  0.00     0.124 S 
ATOM     94  O   UNL A   1      46.204  25.871  39.168  1.00  0.00    -0.237 OA
ATOM     95  O   UNL A   1      43.811  26.487  39.276  1.00  0.00    -0.237 OA
ATOM     96  O   UNL A   1      44.549  24.644  37.816  1.00  0.00    -0.744 OA
ENDBRANCH  89  93
ENDBRANCH  63  86
ENDBRANCH  37  38
ENDBRANCH  29  32
ENDBRANCH  27  28
ENDBRANCH  26  27
ENDBRANCH  25  26
ENDBRANCH   1  25
TORSDOF 19
ENDMDL
