MODEL 1
REMARK VINA RESULT:     -11.3      0.000      0.000
REMARK SMILES CC[C@H]1CC[C@](Cc2cccc(OC)n2)(C(=O)NCCCCCCNC(=O)c2ccc(-c3c4nc(c(-c5cc(S(=O)(=O)[O-])ccc5F)c5ccc([nH]5)c(-c5cc(S(=O)(=O)[O-])ccc5F)c5nc(c(-c6cc(S(=O)(=O)[O-])ccc6F)c6ccc3[nH]6)C=C5)C=C4)cc2)C1
REMARK SMILES IDX 21 1 20 2 19 3 18 4 16 5 17 6 6 8 3 9 4 10 91 11 5 12 2 13
REMARK SMILES IDX 1 14 7 15 8 16 9 17 15 18 10 19 12 20 11 21 13 22 14 23
REMARK SMILES IDX 22 24 23 25 24 26 25 27 26 28 27 30 28 31 29 32 90 33 30 34
REMARK SMILES IDX 89 35 31 36 32 37 33 38 83 39 34 40 88 41 82 42 84 43 35 44
REMARK SMILES IDX 87 45 81 46 80 47 36 49 68 50 48 51 67 52 49 53 52 54 66 55
REMARK SMILES IDX 85 56 50 57 51 58 65 60 86 61 53 62 37 63 38 64 46 65 39 66
REMARK SMILES IDX 45 67 47 68 44 69 40 70 41 71 42 72 43 73 69 74 70 75 78 76
REMARK SMILES IDX 71 77 77 78 79 79 76 80 72 81 73 82 74 83 75 84 54 85 55 86
REMARK SMILES IDX 63 87 56 88 62 89 64 90 61 91 57 92 58 93 59 94 60 95
REMARK H PARENT 18 7 25 29 84 48 52 59
REMARK Flexibility Score: inf
ROOT
ATOM      1  C   UNL A   1      32.352  29.347  24.709  1.00  0.00     0.002 C 
ENDROOT
BRANCH   1   2
ATOM      2  C   UNL A   1      31.227  29.218  23.679  1.00  0.00     0.021 C 
BRANCH   2   3
ATOM      3  C   UNL A   1      30.955  27.778  23.221  1.00  0.00     0.116 C 
BRANCH   3   4
ATOM      4  N   UNL A   1      31.956  27.361  22.255  1.00  0.00    -0.356 N 
ATOM      5  C   UNL A   1      32.756  26.259  22.192  1.00  0.00     0.226 C 
ATOM      6  O   UNL A   1      33.626  26.297  21.316  1.00  0.00    -0.274 OA
ATOM      7  H   UNL A   1      32.081  27.990  21.509  1.00  0.00     0.163 HD
BRANCH   5   8
ATOM      8  C   UNL A   1      32.570  25.021  23.120  1.00  0.00     0.055 C 
ATOM      9  C   UNL A   1      30.775  24.643  24.832  1.00  0.00    -0.010 C 
ATOM     10  C   UNL A   1      31.830  25.576  25.413  1.00  0.00     0.005 C 
ATOM     11  C   UNL A   1      31.041  24.752  23.323  1.00  0.00     0.021 C 
ATOM     12  C   UNL A   1      33.073  25.393  24.538  1.00  0.00     0.017 C 
BRANCH   9  13
ATOM     13  C   UNL A   1      30.873  23.203  25.346  1.00  0.00     0.000 C 
ATOM     14  C   UNL A   1      30.534  23.030  26.815  1.00  0.00     0.004 C 
ENDBRANCH   9  13
BRANCH   8  15
ATOM     15  C   UNL A   1      33.257  23.784  22.467  1.00  0.00     0.073 C 
BRANCH  15  16
ATOM     16  C   UNL A   1      34.205  22.948  23.291  1.00  0.00     0.045 A 
ATOM     17  C   UNL A   1      35.558  23.250  23.363  1.00  0.00     0.024 A 
ATOM     18  N   UNL A   1      33.663  21.898  23.955  1.00  0.00    -0.219 NA
ATOM     19  C   UNL A   1      36.387  22.397  24.083  1.00  0.00     0.007 A 
ATOM     20  C   UNL A   1      34.476  21.080  24.660  1.00  0.00     0.213 A 
ATOM     21  C   UNL A   1      35.844  21.288  24.731  1.00  0.00     0.068 A 
BRANCH  20  22
ATOM     22  O   UNL A   1      33.796  20.054  25.249  1.00  0.00    -0.481 OA
ATOM     23  C   UNL A   1      33.138  19.130  24.395  1.00  0.00     0.280 C 
ENDBRANCH  20  22
ENDBRANCH  15  16
ENDBRANCH   8  15
ENDBRANCH   5   8
ENDBRANCH   3   4
ENDBRANCH   2   3
ENDBRANCH   1   2
BRANCH   1  24
ATOM     24  C   UNL A   1      31.879  29.578  26.148  1.00  0.00     0.002 C 
BRANCH  24  25
ATOM     25  C   UNL A   1      31.683  31.047  26.535  1.00  0.00     0.021 C 
BRANCH  25  26
ATOM     26  C   UNL A   1      32.898  31.696  27.193  1.00  0.00     0.116 C 
BRANCH  26  27
ATOM     27  N   UNL A   1      32.705  33.128  27.371  1.00  0.00    -0.352 N 
ATOM     28  C   UNL A   1      33.265  33.967  28.299  1.00  0.00     0.251 C 
ATOM     29  H   UNL A   1      32.087  33.555  26.735  1.00  0.00     0.163 HD
ATOM     30  O   UNL A   1      32.785  35.088  28.480  1.00  0.00    -0.269 OA
BRANCH  28  31
ATOM     31  C   UNL A   1      34.432  33.522  29.088  1.00  0.00     0.039 A 
ATOM     32  C   UNL A   1      34.231  32.739  30.227  1.00  0.00     0.014 A 
ATOM     33  C   UNL A   1      35.727  33.883  28.703  1.00  0.00     0.014 A 
ATOM     34  C   UNL A   1      35.332  32.262  30.942  1.00  0.00     0.010 A 
ATOM     35  C   UNL A   1      36.824  33.351  29.376  1.00  0.00     0.010 A 
ATOM     36  C   UNL A   1      36.639  32.532  30.501  1.00  0.00    -0.014 A 
BRANCH  36  37
ATOM     37  C   UNL A   1      37.822  31.955  31.191  1.00  0.00     0.031 A 
ATOM     38  C   UNL A   1      38.592  30.829  30.559  1.00  0.00     0.074 A 
ATOM     39  C   UNL A   1      38.159  32.405  32.416  1.00  0.00     0.049 A 
ATOM     40  N   UNL A   1      39.598  30.142  31.038  1.00  0.00    -0.248 NA
ATOM     41  C   UNL A   1      38.155  30.401  29.222  1.00  0.00     0.031 C 
ATOM     42  C   UNL A   1      37.466  33.469  33.144  1.00  0.00     0.029 A 
ATOM     43  N   UNL A   1      39.161  32.020  33.271  1.00  0.00    -0.354 N 
ATOM     44  C   UNL A   1      39.910  29.197  30.067  1.00  0.00     0.074 A 
ATOM     45  C   UNL A   1      38.945  29.361  29.000  1.00  0.00     0.031 C 
ATOM     46  C   UNL A   1      38.078  33.669  34.321  1.00  0.00     0.029 A 
ATOM     47  C   UNL A   1      39.173  32.714  34.459  1.00  0.00     0.049 A 
ATOM     48  H   UNL A   1      39.812  31.314  33.053  1.00  0.00     0.167 HD
ATOM     49  C   UNL A   1      40.922  28.293  30.057  1.00  0.00     0.034 A 
ATOM     50  C   UNL A   1      39.963  32.584  35.543  1.00  0.00     0.034 A 
ATOM     51  C   UNL A   1      41.876  28.147  31.131  1.00  0.00     0.049 A 
ATOM     52  C   UNL A   1      41.049  31.539  35.529  1.00  0.00     0.074 A 
ATOM     53  C   UNL A   1      42.968  27.300  31.203  1.00  0.00     0.029 A 
ATOM     54  N   UNL A   1      41.845  28.856  32.325  1.00  0.00    -0.354 N 
ATOM     55  N   UNL A   1      41.363  30.685  34.581  1.00  0.00    -0.248 NA
ATOM     56  C   UNL A   1      41.892  31.444  36.727  1.00  0.00     0.031 C 
ATOM     57  C   UNL A   1      43.550  27.442  32.467  1.00  0.00     0.029 A 
ATOM     58  C   UNL A   1      42.875  28.436  33.155  1.00  0.00     0.049 A 
ATOM     59  H   UNL A   1      41.189  29.553  32.551  1.00  0.00     0.167 HD
ATOM     60  C   UNL A   1      42.459  29.973  35.060  1.00  0.00     0.074 A 
ATOM     61  C   UNL A   1      42.761  30.509  36.372  1.00  0.00     0.031 C 
ATOM     62  C   UNL A   1      43.155  28.969  34.469  1.00  0.00     0.034 A 
BRANCH  49  63
ATOM     63  C   UNL A   1      41.027  27.379  28.859  1.00  0.00     0.023 A 
ATOM     64  C   UNL A   1      42.024  27.551  27.882  1.00  0.00     0.031 A 
ATOM     65  C   UNL A   1      40.105  26.332  28.677  1.00  0.00     0.131 A 
ATOM     66  C   UNL A   1      42.030  26.742  26.735  1.00  0.00     0.055 A 
ATOM     67  C   UNL A   1      40.169  25.476  27.575  1.00  0.00     0.041 A 
ATOM     68  F   UNL A   1      39.117  26.129  29.563  1.00  0.00    -0.206 F 
ATOM     69  C   UNL A   1      41.127  25.689  26.588  1.00  0.00     0.022 A 
BRANCH  66  70
ATOM     70  S   UNL A   1      43.144  27.183  25.373  1.00  0.00     0.124 S 
ATOM     71  O   UNL A   1      44.299  27.711  26.095  1.00  0.00    -0.237 OA
ATOM     72  O   UNL A   1      43.340  25.904  24.699  1.00  0.00    -0.237 OA
ATOM     73  O   UNL A   1      42.385  28.177  24.617  1.00  0.00    -0.744 OA
ENDBRANCH  66  70
ENDBRANCH  49  63
BRANCH  50  74
ATOM     74  C   UNL A   1      39.754  33.450  36.740  1.00  0.00     0.023 A 
ATOM     75  C   UNL A   1      39.085  32.966  37.874  1.00  0.00     0.031 A 
ATOM     76  C   UNL A   1      40.180  34.791  36.750  1.00  0.00     0.131 A 
ATOM     77  C   UNL A   1      38.817  33.826  38.951  1.00  0.00     0.055 A 
ATOM     78  C   UNL A   1      39.965  35.626  37.847  1.00  0.00     0.041 A 
ATOM     79  F   UNL A   1      40.827  35.306  35.692  1.00  0.00    -0.206 F 
ATOM     80  C   UNL A   1      39.267  35.148  38.951  1.00  0.00     0.022 A 
BRANCH  77  81
ATOM     81  S   UNL A   1      37.791  33.215  40.316  1.00  0.00     0.124 S 
ATOM     82  O   UNL A   1      38.547  32.047  40.755  1.00  0.00    -0.237 OA
ATOM     83  O   UNL A   1      37.786  34.356  41.225  1.00  0.00    -0.237 OA
ATOM     84  O   UNL A   1      36.510  32.925  39.675  1.00  0.00    -0.744 OA
ENDBRANCH  77  81
ENDBRANCH  50  74
BRANCH  62  85
ATOM     85  C   UNL A   1      44.337  28.415  35.227  1.00  0.00     0.023 A 
ATOM     86  C   UNL A   1      44.231  27.263  36.025  1.00  0.00     0.031 A 
ATOM     87  C   UNL A   1      45.587  29.057  35.156  1.00  0.00     0.131 A 
ATOM     88  C   UNL A   1      45.339  26.819  36.763  1.00  0.00     0.055 A 
ATOM     89  C   UNL A   1      46.702  28.574  35.842  1.00  0.00     0.041 A 
ATOM     90  F   UNL A   1      45.746  30.164  34.413  1.00  0.00    -0.206 F 
ATOM     91  C   UNL A   1      46.578  27.456  36.662  1.00  0.00     0.022 A 
BRANCH  88  92
ATOM     92  S   UNL A   1      45.115  25.449  37.931  1.00  0.00     0.124 S 
ATOM     93  O   UNL A   1      45.420  26.087  39.208  1.00  0.00    -0.237 OA
ATOM     94  O   UNL A   1      43.719  25.081  37.721  1.00  0.00    -0.237 OA
ATOM     95  O   UNL A   1      46.091  24.455  37.486  1.00  0.00    -0.744 OA
ENDBRANCH  88  92
ENDBRANCH  62  85
ENDBRANCH  36  37
ENDBRANCH  28  31
ENDBRANCH  26  27
ENDBRANCH  25  26
ENDBRANCH  24  25
ENDBRANCH   1  24
TORSDOF 20
ENDMDL
MODEL 2
REMARK VINA RESULT:     -11.3      3.208      8.040
REMARK SMILES CC[C@H]1CC[C@](Cc2cccc(OC)n2)(C(=O)NCCCCCCNC(=O)c2ccc(-c3c4nc(c(-c5cc(S(=O)(=O)[O-])ccc5F)c5ccc([nH]5)c(-c5cc(S(=O)(=O)[O-])ccc5F)c5nc(c(-c6cc(S(=O)(=O)[O-])ccc6F)c6ccc3[nH]6)C=C5)C=C4)cc2)C1
REMARK SMILES IDX 21 1 20 2 19 3 18 4 16 5 17 6 6 8 3 9 4 10 91 11 5 12 2 13
REMARK SMILES IDX 1 14 7 15 8 16 9 17 15 18 10 19 12 20 11 21 13 22 14 23
REMARK SMILES IDX 22 24 23 25 24 26 25 27 26 28 27 30 28 31 29 32 90 33 30 34
REMARK SMILES IDX 89 35 31 36 32 37 33 38 83 39 34 40 88 41 82 42 84 43 35 44
REMARK SMILES IDX 87 45 81 46 80 47 36 49 68 50 48 51 67 52 49 53 52 54 66 55
REMARK SMILES IDX 85 56 50 57 51 58 65 60 86 61 53 62 37 63 38 64 46 65 39 66
REMARK SMILES IDX 45 67 47 68 44 69 40 70 41 71 42 72 43 73 69 74 70 75 78 76
REMARK SMILES IDX 71 77 77 78 79 79 76 80 72 81 73 82 74 83 75 84 54 85 55 86
REMARK SMILES IDX 63 87 56 88 62 89 64 90 61 91 57 92 58 93 59 94 60 95
REMARK H PARENT 18 7 25 29 84 48 52 59
REMARK Flexibility Score: inf
ROOT
ATOM      1  C   UNL A   1      32.184  29.158  24.795  1.00  0.00     0.002 C 
ENDROOT
BRANCH   1   2
ATOM      2  C   UNL A   1      31.028  28.927  23.817  1.00  0.00     0.021 C 
BRANCH   2   3
ATOM      3  C   UNL A   1      30.874  27.468  23.361  1.00  0.00     0.116 C 
BRANCH   3   4
ATOM      4  N   UNL A   1      31.932  27.120  22.430  1.00  0.00    -0.356 N 
ATOM      5  C   UNL A   1      32.937  26.201  22.498  1.00  0.00     0.226 C 
ATOM      6  O   UNL A   1      33.776  26.281  21.594  1.00  0.00    -0.274 OA
ATOM      7  H   UNL A   1      31.923  27.643  21.597  1.00  0.00     0.163 HD
BRANCH   5   8
ATOM      8  C   UNL A   1      33.010  25.102  23.600  1.00  0.00     0.055 C 
ATOM      9  C   UNL A   1      32.216  25.258  25.975  1.00  0.00    -0.010 C 
ATOM     10  C   UNL A   1      33.562  25.963  25.852  1.00  0.00     0.005 C 
ATOM     11  C   UNL A   1      31.744  25.202  24.515  1.00  0.00     0.021 C 
ATOM     12  C   UNL A   1      34.185  25.444  24.553  1.00  0.00     0.017 C 
BRANCH   9  13
ATOM     13  C   UNL A   1      32.303  23.871  26.620  1.00  0.00     0.000 C 
ATOM     14  C   UNL A   1      30.984  23.123  26.697  1.00  0.00     0.004 C 
ENDBRANCH   9  13
BRANCH   8  15
ATOM     15  C   UNL A   1      33.081  23.700  22.922  1.00  0.00     0.073 C 
BRANCH  15  16
ATOM     16  C   UNL A   1      33.641  22.535  23.699  1.00  0.00     0.045 A 
ATOM     17  C   UNL A   1      34.987  22.467  24.031  1.00  0.00     0.024 A 
ATOM     18  N   UNL A   1      32.760  21.569  24.057  1.00  0.00    -0.219 NA
ATOM     19  C   UNL A   1      35.448  21.331  24.686  1.00  0.00     0.007 A 
ATOM     20  C   UNL A   1      33.216  20.472  24.702  1.00  0.00     0.213 A 
ATOM     21  C   UNL A   1      34.556  20.311  25.016  1.00  0.00     0.068 A 
BRANCH  20  22
ATOM     22  O   UNL A   1      32.224  19.576  24.969  1.00  0.00    -0.481 OA
ATOM     23  C   UNL A   1      32.608  18.304  25.469  1.00  0.00     0.280 C 
ENDBRANCH  20  22
ENDBRANCH  15  16
ENDBRANCH   8  15
ENDBRANCH   5   8
ENDBRANCH   3   4
ENDBRANCH   2   3
ENDBRANCH   1   2
BRANCH   1  24
ATOM     24  C   UNL A   1      31.764  29.294  26.262  1.00  0.00     0.002 C 
BRANCH  24  25
ATOM     25  C   UNL A   1      32.920  29.338  27.264  1.00  0.00     0.021 C 
BRANCH  25  26
ATOM     26  C   UNL A   1      34.027  30.327  26.910  1.00  0.00     0.116 C 
BRANCH  26  27
ATOM     27  N   UNL A   1      33.949  31.529  27.729  1.00  0.00    -0.352 N 
ATOM     28  C   UNL A   1      34.693  31.877  28.827  1.00  0.00     0.251 C 
ATOM     29  H   UNL A   1      33.267  32.184  27.457  1.00  0.00     0.163 HD
ATOM     30  O   UNL A   1      34.313  32.794  29.559  1.00  0.00    -0.269 OA
BRANCH  28  31
ATOM     31  C   UNL A   1      35.939  31.146  29.137  1.00  0.00     0.039 A 
ATOM     32  C   UNL A   1      37.155  31.628  28.648  1.00  0.00     0.014 A 
ATOM     33  C   UNL A   1      35.903  29.980  29.909  1.00  0.00     0.014 A 
ATOM     34  C   UNL A   1      38.343  30.978  28.990  1.00  0.00     0.010 A 
ATOM     35  C   UNL A   1      37.093  29.375  30.304  1.00  0.00     0.010 A 
ATOM     36  C   UNL A   1      38.326  29.868  29.852  1.00  0.00    -0.014 A 
BRANCH  36  37
ATOM     37  C   UNL A   1      39.586  29.222  30.304  1.00  0.00     0.031 A 
ATOM     38  C   UNL A   1      40.318  29.749  31.507  1.00  0.00     0.074 A 
ATOM     39  C   UNL A   1      40.101  28.201  29.589  1.00  0.00     0.049 A 
ATOM     40  N   UNL A   1      41.467  29.374  32.007  1.00  0.00    -0.248 NA
ATOM     41  C   UNL A   1      39.684  30.863  32.227  1.00  0.00     0.031 C 
ATOM     42  C   UNL A   1      39.498  27.627  28.384  1.00  0.00     0.029 A 
ATOM     43  N   UNL A   1      41.250  27.473  29.763  1.00  0.00    -0.354 N 
ATOM     44  C   UNL A   1      41.700  30.209  33.095  1.00  0.00     0.074 A 
ATOM     45  C   UNL A   1      40.600  31.150  33.141  1.00  0.00     0.031 C 
ATOM     46  C   UNL A   1      40.269  26.620  27.944  1.00  0.00     0.029 A 
ATOM     47  C   UNL A   1      41.446  26.509  28.799  1.00  0.00     0.049 A 
ATOM     48  H   UNL A   1      41.876  27.623  30.508  1.00  0.00     0.167 HD
ATOM     49  C   UNL A   1      42.723  30.178  33.984  1.00  0.00     0.034 A 
ATOM     50  C   UNL A   1      42.466  25.648  28.614  1.00  0.00     0.034 A 
ATOM     51  C   UNL A   1      43.810  29.230  33.923  1.00  0.00     0.049 A 
ATOM     52  C   UNL A   1      43.617  25.666  29.587  1.00  0.00     0.074 A 
ATOM     53  C   UNL A   1      44.870  29.076  34.799  1.00  0.00     0.029 A 
ATOM     54  N   UNL A   1      43.983  28.281  32.923  1.00  0.00    -0.354 N 
ATOM     55  N   UNL A   1      43.798  26.430  30.640  1.00  0.00    -0.248 NA
ATOM     56  C   UNL A   1      44.698  24.701  29.352  1.00  0.00     0.031 C 
ATOM     57  C   UNL A   1      45.722  28.090  34.289  1.00  0.00     0.029 A 
ATOM     58  C   UNL A   1      45.153  27.568  33.140  1.00  0.00     0.049 A 
ATOM     59  H   UNL A   1      43.367  28.136  32.169  1.00  0.00     0.167 HD
ATOM     60  C   UNL A   1      44.999  26.016  31.208  1.00  0.00     0.074 A 
ATOM     61  C   UNL A   1      45.489  24.924  30.390  1.00  0.00     0.031 C 
ATOM     62  C   UNL A   1      45.639  26.491  32.306  1.00  0.00     0.034 A 
BRANCH  49  63
ATOM     63  C   UNL A   1      42.724  31.217  35.081  1.00  0.00     0.023 A 
ATOM     64  C   UNL A   1      43.253  32.505  34.880  1.00  0.00     0.031 A 
ATOM     65  C   UNL A   1      42.209  30.912  36.353  1.00  0.00     0.131 A 
ATOM     66  C   UNL A   1      43.323  33.410  35.950  1.00  0.00     0.055 A 
ATOM     67  C   UNL A   1      42.204  31.847  37.392  1.00  0.00     0.041 A 
ATOM     68  F   UNL A   1      41.710  29.693  36.615  1.00  0.00    -0.206 F 
ATOM     69  C   UNL A   1      42.778  33.100  37.197  1.00  0.00     0.022 A 
BRANCH  66  70
ATOM     70  S   UNL A   1      44.269  34.942  35.726  1.00  0.00     0.124 S 
ATOM     71  O   UNL A   1      43.205  35.942  35.689  1.00  0.00    -0.237 OA
ATOM     72  O   UNL A   1      45.123  34.961  36.907  1.00  0.00    -0.237 OA
ATOM     73  O   UNL A   1      44.962  34.734  34.457  1.00  0.00    -0.744 OA
ENDBRANCH  66  70
ENDBRANCH  49  63
BRANCH  50  74
ATOM     74  C   UNL A   1      42.461  24.707  27.457  1.00  0.00     0.023 A 
ATOM     75  C   UNL A   1      41.669  23.548  27.471  1.00  0.00     0.031 A 
ATOM     76  C   UNL A   1      43.283  24.928  26.337  1.00  0.00     0.131 A 
ATOM     77  C   UNL A   1      41.751  22.630  26.412  1.00  0.00     0.055 A 
ATOM     78  C   UNL A   1      43.317  24.042  25.259  1.00  0.00     0.041 A 
ATOM     79  F   UNL A   1      44.060  26.021  26.270  1.00  0.00    -0.206 F 
ATOM     80  C   UNL A   1      42.557  22.877  25.299  1.00  0.00     0.022 A 
BRANCH  77  81
ATOM     81  S   UNL A   1      40.854  21.060  26.554  1.00  0.00     0.124 S 
ATOM     82  O   UNL A   1      41.714  20.158  25.795  1.00  0.00    -0.237 OA
ATOM     83  O   UNL A   1      40.826  20.856  27.998  1.00  0.00    -0.237 OA
ATOM     84  O   UNL A   1      39.560  21.351  25.942  1.00  0.00    -0.744 OA
ENDBRANCH  77  81
ENDBRANCH  50  74
BRANCH  62  85
ATOM     85  C   UNL A   1      46.921  25.801  32.706  1.00  0.00     0.023 A 
ATOM     86  C   UNL A   1      46.938  24.757  33.646  1.00  0.00     0.031 A 
ATOM     87  C   UNL A   1      48.146  26.205  32.144  1.00  0.00     0.131 A 
ATOM     88  C   UNL A   1      48.159  24.187  34.036  1.00  0.00     0.055 A 
ATOM     89  C   UNL A   1      49.351  25.591  32.488  1.00  0.00     0.041 A 
ATOM     90  F   UNL A   1      48.191  27.201  31.244  1.00  0.00    -0.206 F 
ATOM     91  C   UNL A   1      49.363  24.584  33.449  1.00  0.00     0.022 A 
BRANCH  88  92
ATOM     92  S   UNL A   1      48.165  22.979  35.390  1.00  0.00     0.124 S 
ATOM     93  O   UNL A   1      47.089  22.075  34.993  1.00  0.00    -0.237 OA
ATOM     94  O   UNL A   1      49.515  22.432  35.317  1.00  0.00    -0.237 OA
ATOM     95  O   UNL A   1      47.888  23.790  36.575  1.00  0.00    -0.744 OA
ENDBRANCH  88  92
ENDBRANCH  62  85
ENDBRANCH  36  37
ENDBRANCH  28  31
ENDBRANCH  26  27
ENDBRANCH  25  26
ENDBRANCH  24  25
ENDBRANCH   1  24
TORSDOF 20
ENDMDL
MODEL 3
REMARK VINA RESULT:     -11.2      1.839      2.665
REMARK SMILES CC[C@H]1CC[C@](Cc2cccc(OC)n2)(C(=O)NCCCCCCNC(=O)c2ccc(-c3c4nc(c(-c5cc(S(=O)(=O)[O-])ccc5F)c5ccc([nH]5)c(-c5cc(S(=O)(=O)[O-])ccc5F)c5nc(c(-c6cc(S(=O)(=O)[O-])ccc6F)c6ccc3[nH]6)C=C5)C=C4)cc2)C1
REMARK SMILES IDX 21 1 20 2 19 3 18 4 16 5 17 6 6 8 3 9 4 10 91 11 5 12 2 13
REMARK SMILES IDX 1 14 7 15 8 16 9 17 15 18 10 19 12 20 11 21 13 22 14 23
REMARK SMILES IDX 22 24 23 25 24 26 25 27 26 28 27 30 28 31 29 32 90 33 30 34
REMARK SMILES IDX 89 35 31 36 32 37 33 38 83 39 34 40 88 41 82 42 84 43 35 44
REMARK SMILES IDX 87 45 81 46 80 47 36 49 68 50 48 51 67 52 49 53 52 54 66 55
REMARK SMILES IDX 85 56 50 57 51 58 65 60 86 61 53 62 37 63 38 64 46 65 39 66
REMARK SMILES IDX 45 67 47 68 44 69 40 70 41 71 42 72 43 73 69 74 70 75 78 76
REMARK SMILES IDX 71 77 77 78 79 79 76 80 72 81 73 82 74 83 75 84 54 85 55 86
REMARK SMILES IDX 63 87 56 88 62 89 64 90 61 91 57 92 58 93 59 94 60 95
REMARK H PARENT 18 7 25 29 84 48 52 59
REMARK Flexibility Score: inf
ROOT
ATOM      1  C   UNL A   1      31.945  27.622  25.178  1.00  0.00     0.002 C 
ENDROOT
BRANCH   1   2
ATOM      2  C   UNL A   1      30.657  27.044  24.583  1.00  0.00     0.021 C 
BRANCH   2   3
ATOM      3  C   UNL A   1      30.771  25.576  24.146  1.00  0.00     0.116 C 
BRANCH   3   4
ATOM      4  N   UNL A   1      31.600  25.468  22.960  1.00  0.00    -0.356 N 
ATOM      5  C   UNL A   1      32.740  24.763  22.708  1.00  0.00     0.226 C 
ATOM      6  O   UNL A   1      33.290  25.031  21.634  1.00  0.00    -0.274 OA
ATOM      7  H   UNL A   1      31.282  26.002  22.197  1.00  0.00     0.163 HD
BRANCH   5   8
ATOM      8  C   UNL A   1      33.293  23.671  23.671  1.00  0.00     0.055 C 
ATOM      9  C   UNL A   1      35.328  23.805  25.133  1.00  0.00    -0.010 C 
ATOM     10  C   UNL A   1      35.760  23.505  23.703  1.00  0.00     0.005 C 
ATOM     11  C   UNL A   1      33.910  24.360  24.934  1.00  0.00     0.021 C 
ATOM     12  C   UNL A   1      34.507  22.989  22.990  1.00  0.00     0.017 C 
BRANCH   9  13
ATOM     13  C   UNL A   1      35.359  22.582  26.056  1.00  0.00     0.000 C 
ATOM     14  C   UNL A   1      36.459  21.583  25.749  1.00  0.00     0.004 C 
ENDBRANCH   9  13
BRANCH   8  15
ATOM     15  C   UNL A   1      32.133  22.717  24.086  1.00  0.00     0.073 C 
BRANCH  15  16
ATOM     16  C   UNL A   1      32.239  21.247  23.767  1.00  0.00     0.045 A 
ATOM     17  C   UNL A   1      32.157  20.783  22.462  1.00  0.00     0.024 A 
ATOM     18  N   UNL A   1      32.422  20.412  24.819  1.00  0.00    -0.219 NA
ATOM     19  C   UNL A   1      32.192  19.410  22.246  1.00  0.00     0.007 A 
ATOM     20  C   UNL A   1      32.464  19.080  24.599  1.00  0.00     0.213 A 
ATOM     21  C   UNL A   1      32.333  18.542  23.328  1.00  0.00     0.068 A 
BRANCH  20  22
ATOM     22  O   UNL A   1      32.623  18.367  25.751  1.00  0.00    -0.481 OA
ATOM     23  C   UNL A   1      32.661  16.952  25.645  1.00  0.00     0.280 C 
ENDBRANCH  20  22
ENDBRANCH  15  16
ENDBRANCH   8  15
ENDBRANCH   5   8
ENDBRANCH   3   4
ENDBRANCH   2   3
ENDBRANCH   1   2
BRANCH   1  24
ATOM     24  C   UNL A   1      31.862  27.970  26.667  1.00  0.00     0.002 C 
BRANCH  24  25
ATOM     25  C   UNL A   1      31.722  29.463  26.976  1.00  0.00     0.021 C 
BRANCH  25  26
ATOM     26  C   UNL A   1      32.705  30.359  26.226  1.00  0.00     0.116 C 
BRANCH  26  27
ATOM     27  N   UNL A   1      32.513  31.761  26.567  1.00  0.00    -0.352 N 
ATOM     28  C   UNL A   1      33.190  32.530  27.478  1.00  0.00     0.251 C 
ATOM     29  H   UNL A   1      31.798  32.224  26.074  1.00  0.00     0.163 HD
ATOM     30  O   UNL A   1      32.721  33.613  27.835  1.00  0.00    -0.269 OA
BRANCH  28  31
ATOM     31  C   UNL A   1      34.472  32.054  28.039  1.00  0.00     0.039 A 
ATOM     32  C   UNL A   1      35.571  32.915  28.061  1.00  0.00     0.014 A 
ATOM     33  C   UNL A   1      34.587  30.753  28.539  1.00  0.00     0.014 A 
ATOM     34  C   UNL A   1      36.767  32.494  28.647  1.00  0.00     0.010 A 
ATOM     35  C   UNL A   1      35.757  30.360  29.183  1.00  0.00     0.010 A 
ATOM     36  C   UNL A   1      36.859  31.226  29.247  1.00  0.00    -0.014 A 
BRANCH  36  37
ATOM     37  C   UNL A   1      38.091  30.797  29.959  1.00  0.00     0.031 A 
ATOM     38  C   UNL A   1      39.021  29.799  29.327  1.00  0.00     0.074 A 
ATOM     39  C   UNL A   1      38.332  31.258  31.203  1.00  0.00     0.049 A 
ATOM     40  N   UNL A   1      40.098  29.243  29.821  1.00  0.00    -0.248 NA
ATOM     41  C   UNL A   1      38.682  29.349  27.969  1.00  0.00     0.031 C 
ATOM     42  C   UNL A   1      37.483  32.202  31.931  1.00  0.00     0.029 A 
ATOM     43  N   UNL A   1      39.355  30.990  32.078  1.00  0.00    -0.354 N 
ATOM     44  C   UNL A   1      40.560  28.372  28.840  1.00  0.00     0.074 A 
ATOM     45  C   UNL A   1      39.610  28.430  27.750  1.00  0.00     0.031 C 
ATOM     46  C   UNL A   1      38.032  32.454  33.130  1.00  0.00     0.029 A 
ATOM     47  C   UNL A   1      39.241  31.652  33.280  1.00  0.00     0.049 A 
ATOM     48  H   UNL A   1      40.100  30.384  31.865  1.00  0.00     0.167 HD
ATOM     49  C   UNL A   1      41.684  27.612  28.842  1.00  0.00     0.034 A 
ATOM     50  C   UNL A   1      40.014  31.603  34.384  1.00  0.00     0.034 A 
ATOM     51  C   UNL A   1      42.621  27.570  29.939  1.00  0.00     0.049 A 
ATOM     52  C   UNL A   1      41.230  30.713  34.380  1.00  0.00     0.074 A 
ATOM     53  C   UNL A   1      43.815  26.875  30.026  1.00  0.00     0.029 A 
ATOM     54  N   UNL A   1      42.464  28.239  31.147  1.00  0.00    -0.354 N 
ATOM     55  N   UNL A   1      41.681  29.933  33.424  1.00  0.00    -0.248 NA
ATOM     56  C   UNL A   1      42.047  30.703  35.600  1.00  0.00     0.031 C 
ATOM     57  C   UNL A   1      44.340  27.063  31.310  1.00  0.00     0.029 A 
ATOM     58  C   UNL A   1      43.519  27.942  31.997  1.00  0.00     0.049 A 
ATOM     59  H   UNL A   1      41.714  28.836  31.367  1.00  0.00     0.167 HD
ATOM     60  C   UNL A   1      42.850  29.362  33.920  1.00  0.00     0.074 A 
ATOM     61  C   UNL A   1      43.043  29.902  35.251  1.00  0.00     0.031 C 
ATOM     62  C   UNL A   1      43.691  28.475  33.330  1.00  0.00     0.034 A 
BRANCH  49  63
ATOM     63  C   UNL A   1      41.943  26.750  27.629  1.00  0.00     0.023 A 
ATOM     64  C   UNL A   1      41.589  25.388  27.600  1.00  0.00     0.031 A 
ATOM     65  C   UNL A   1      42.572  27.288  26.492  1.00  0.00     0.131 A 
ATOM     66  C   UNL A   1      41.932  24.598  26.492  1.00  0.00     0.055 A 
ATOM     67  C   UNL A   1      42.834  26.514  25.358  1.00  0.00     0.041 A 
ATOM     68  F   UNL A   1      42.954  28.574  26.465  1.00  0.00    -0.206 F 
ATOM     69  C   UNL A   1      42.528  25.157  25.361  1.00  0.00     0.022 A 
BRANCH  66  70
ATOM     70  S   UNL A   1      41.720  22.800  26.615  1.00  0.00     0.124 S 
ATOM     71  O   UNL A   1      42.081  22.368  25.267  1.00  0.00    -0.237 OA
ATOM     72  O   UNL A   1      42.658  22.443  27.673  1.00  0.00    -0.237 OA
ATOM     73  O   UNL A   1      40.308  22.644  26.954  1.00  0.00    -0.744 OA
ENDBRANCH  66  70
ENDBRANCH  49  63
BRANCH  50  74
ATOM     74  C   UNL A   1      39.658  32.403  35.591  1.00  0.00     0.023 A 
ATOM     75  C   UNL A   1      38.796  31.889  36.572  1.00  0.00     0.031 A 
ATOM     76  C   UNL A   1      40.140  33.715  35.761  1.00  0.00     0.131 A 
ATOM     77  C   UNL A   1      38.403  32.696  37.651  1.00  0.00     0.055 A 
ATOM     78  C   UNL A   1      39.794  34.492  36.867  1.00  0.00     0.041 A 
ATOM     79  F   UNL A   1      40.970  34.256  34.854  1.00  0.00    -0.206 F 
ATOM     80  C   UNL A   1      38.908  33.987  37.814  1.00  0.00     0.022 A 
BRANCH  77  81
ATOM     81  S   UNL A   1      37.146  32.061  38.795  1.00  0.00     0.124 S 
ATOM     82  O   UNL A   1      35.966  32.818  38.387  1.00  0.00    -0.237 OA
ATOM     83  O   UNL A   1      37.137  30.638  38.476  1.00  0.00    -0.237 OA
ATOM     84  O   UNL A   1      37.681  32.401  40.111  1.00  0.00    -0.744 OA
ENDBRANCH  77  81
ENDBRANCH  50  74
BRANCH  62  85
ATOM     85  C   UNL A   1      44.916  28.067  34.110  1.00  0.00     0.023 A 
ATOM     86  C   UNL A   1      44.929  26.920  34.922  1.00  0.00     0.031 A 
ATOM     87  C   UNL A   1      46.088  28.845  34.047  1.00  0.00     0.131 A 
ATOM     88  C   UNL A   1      46.069  26.613  35.681  1.00  0.00     0.055 A 
ATOM     89  C   UNL A   1      47.239  28.498  34.753  1.00  0.00     0.041 A 
ATOM     90  F   UNL A   1      46.131  29.953  33.290  1.00  0.00    -0.206 F 
ATOM     91  C   UNL A   1      47.230  27.383  35.586  1.00  0.00     0.022 A 
BRANCH  88  92
ATOM     92  S   UNL A   1      45.984  25.240  36.864  1.00  0.00     0.124 S 
ATOM     93  O   UNL A   1      44.859  25.635  37.706  1.00  0.00    -0.237 OA
ATOM     94  O   UNL A   1      45.756  24.090  35.995  1.00  0.00    -0.237 OA
ATOM     95  O   UNL A   1      47.290  25.271  37.520  1.00  0.00    -0.744 OA
ENDBRANCH  88  92
ENDBRANCH  62  85
ENDBRANCH  36  37
ENDBRANCH  28  31
ENDBRANCH  26  27
ENDBRANCH  25  26
ENDBRANCH  24  25
ENDBRANCH   1  24
TORSDOF 20
ENDMDL
