MODEL 1
REMARK VINA RESULT:     -11.7      0.000      0.000
REMARK SMILES COc1ccc(/C(=C/C(=O)NCCCCCCNC(=O)c2ccc(-c3c4nc(c(-c5cc(S(=O)(=O)[O-])ccc5F)c5ccc([nH]5)c(-c5cc(S(=O)(=O)[O-])ccc5F)c5nc(c(-c6cc(S(=O)(=O)[O-])ccc6F)c6ccc3[nH]6)C=C5)C=C4)cc2)C(C)C)cc1C
REMARK SMILES IDX 15 1 14 2 13 3 12 4 11 5 9 6 10 7 8 9 7 10 6 11 3 12 4 13
REMARK SMILES IDX 88 14 5 15 87 16 89 17 2 18 1 19 84 20 85 21 86 22 16 23
REMARK SMILES IDX 17 24 18 25 19 26 20 28 21 29 22 30 83 31 23 32 82 33 24 34
REMARK SMILES IDX 25 35 26 36 76 37 27 38 81 39 75 40 77 41 28 42 80 43 74 44
REMARK SMILES IDX 73 45 29 47 61 48 41 49 60 50 42 51 45 52 59 53 78 54 43 55
REMARK SMILES IDX 44 56 58 58 79 59 46 60 30 61 31 62 39 63 32 64 38 65 40 66
REMARK SMILES IDX 37 67 33 68 34 69 35 70 36 71 62 72 63 73 71 74 64 75 70 76
REMARK SMILES IDX 72 77 69 78 65 79 66 80 67 81 68 82 47 83 48 84 56 85 49 86
REMARK SMILES IDX 55 87 57 88 54 89 50 90 51 91 52 92 53 93
REMARK H PARENT 11 8 18 27 77 46 45 57
REMARK Flexibility Score: inf
ROOT
ATOM      1  C   UNL A   1      32.074  29.853  27.254  1.00  0.00     0.002 C 
ENDROOT
BRANCH   1   2
ATOM      2  C   UNL A   1      32.530  28.423  26.931  1.00  0.00     0.002 C 
BRANCH   2   3
ATOM      3  C   UNL A   1      32.119  27.865  25.562  1.00  0.00     0.021 C 
BRANCH   3   4
ATOM      4  C   UNL A   1      32.110  28.889  24.415  1.00  0.00     0.116 C 
BRANCH   4   5
ATOM      5  N   UNL A   1      31.799  28.275  23.130  1.00  0.00    -0.353 N 
ATOM      6  C   UNL A   1      32.012  27.111  22.491  1.00  0.00     0.244 C 
ATOM      7  O   UNL A   1      31.340  26.945  21.461  1.00  0.00    -0.270 OA
ATOM      8  H   UNL A   1      31.282  28.894  22.565  1.00  0.00     0.163 HD
BRANCH   6   9
ATOM      9  C   UNL A   1      32.912  25.967  22.847  1.00  0.00     0.075 C 
ATOM     10  C   UNL A   1      32.919  24.867  23.640  1.00  0.00    -0.033 C 
BRANCH  10  11
ATOM     11  C   UNL A   1      34.223  24.121  23.876  1.00  0.00    -0.021 A 
ATOM     12  C   UNL A   1      36.637  22.633  24.372  1.00  0.00     0.121 A 
ATOM     13  C   UNL A   1      35.795  22.305  23.317  1.00  0.00     0.047 A 
ATOM     14  C   UNL A   1      36.275  23.689  25.213  1.00  0.00    -0.008 A 
ATOM     15  C   UNL A   1      34.627  23.045  23.073  1.00  0.00     0.012 A 
ATOM     16  C   UNL A   1      35.078  24.403  24.963  1.00  0.00     0.015 A 
ATOM     17  C   UNL A   1      37.127  24.112  26.380  1.00  0.00     0.048 C 
BRANCH  12  18
ATOM     18  O   UNL A   1      37.797  21.967  24.666  1.00  0.00    -0.496 OA
ATOM     19  C   UNL A   1      37.689  20.567  24.897  1.00  0.00     0.278 C 
ENDBRANCH  12  18
ENDBRANCH  10  11
BRANCH  10  20
ATOM     20  C   UNL A   1      31.656  24.378  24.327  1.00  0.00     0.014 C 
ATOM     21  C   UNL A   1      30.643  23.777  23.339  1.00  0.00     0.012 C 
ATOM     22  C   UNL A   1      31.817  23.546  25.602  1.00  0.00     0.012 C 
ENDBRANCH  10  20
ENDBRANCH   6   9
ENDBRANCH   4   5
ENDBRANCH   3   4
ENDBRANCH   2   3
ENDBRANCH   1   2
BRANCH   1  23
ATOM     23  C   UNL A   1      33.178  30.907  27.278  1.00  0.00     0.021 C 
BRANCH  23  24
ATOM     24  C   UNL A   1      34.524  30.382  27.769  1.00  0.00     0.116 C 
BRANCH  24  25
ATOM     25  N   UNL A   1      35.200  31.278  28.706  1.00  0.00    -0.352 N 
ATOM     26  C   UNL A   1      36.370  31.059  29.408  1.00  0.00     0.251 C 
ATOM     27  H   UNL A   1      34.767  32.148  28.856  1.00  0.00     0.163 HD
ATOM     28  O   UNL A   1      36.824  31.892  30.189  1.00  0.00    -0.269 OA
BRANCH  26  29
ATOM     29  C   UNL A   1      37.142  29.835  29.111  1.00  0.00     0.039 A 
ATOM     30  C   UNL A   1      37.378  28.952  30.170  1.00  0.00     0.014 A 
ATOM     31  C   UNL A   1      37.836  29.716  27.908  1.00  0.00     0.014 A 
ATOM     32  C   UNL A   1      38.481  28.109  30.111  1.00  0.00     0.010 A 
ATOM     33  C   UNL A   1      38.979  28.944  27.883  1.00  0.00     0.010 A 
ATOM     34  C   UNL A   1      39.339  28.203  29.015  1.00  0.00    -0.014 A 
BRANCH  34  35
ATOM     35  C   UNL A   1      40.693  27.666  29.036  1.00  0.00     0.031 A 
ATOM     36  C   UNL A   1      40.940  26.258  28.680  1.00  0.00     0.074 A 
ATOM     37  C   UNL A   1      41.720  28.471  29.392  1.00  0.00     0.049 A 
ATOM     38  N   UNL A   1      41.991  25.595  29.029  1.00  0.00    -0.248 NA
ATOM     39  C   UNL A   1      39.953  25.440  27.980  1.00  0.00     0.031 C 
ATOM     40  C   UNL A   1      43.150  28.202  29.268  1.00  0.00     0.029 A 
ATOM     41  N   UNL A   1      41.646  29.606  30.203  1.00  0.00    -0.354 N 
ATOM     42  C   UNL A   1      41.966  24.398  28.355  1.00  0.00     0.074 A 
ATOM     43  C   UNL A   1      40.619  24.289  27.859  1.00  0.00     0.031 C 
ATOM     44  C   UNL A   1      43.809  28.957  30.160  1.00  0.00     0.029 A 
ATOM     45  C   UNL A   1      42.817  29.626  30.983  1.00  0.00     0.049 A 
ATOM     46  H   UNL A   1      40.916  30.265  30.225  1.00  0.00     0.167 HD
ATOM     47  C   UNL A   1      43.137  23.729  28.168  1.00  0.00     0.034 A 
ATOM     48  C   UNL A   1      42.752  29.548  32.344  1.00  0.00     0.034 A 
ATOM     49  C   UNL A   1      44.174  24.224  29.082  1.00  0.00     0.049 A 
ATOM     50  C   UNL A   1      43.437  28.325  32.919  1.00  0.00     0.074 A 
ATOM     51  C   UNL A   1      45.316  24.987  28.913  1.00  0.00     0.029 A 
ATOM     52  N   UNL A   1      43.950  24.161  30.459  1.00  0.00    -0.354 N 
ATOM     53  N   UNL A   1      43.809  27.289  32.219  1.00  0.00    -0.248 NA
ATOM     54  C   UNL A   1      43.735  28.173  34.341  1.00  0.00     0.031 C 
ATOM     55  C   UNL A   1      45.701  25.486  30.190  1.00  0.00     0.029 A 
ATOM     56  C   UNL A   1      44.831  24.977  31.142  1.00  0.00     0.049 A 
ATOM     57  H   UNL A   1      43.257  23.608  30.886  1.00  0.00     0.167 HD
ATOM     58  C   UNL A   1      44.342  26.336  33.052  1.00  0.00     0.074 A 
ATOM     59  C   UNL A   1      44.307  26.957  34.366  1.00  0.00     0.031 C 
ATOM     60  C   UNL A   1      44.747  25.111  32.595  1.00  0.00     0.034 A 
BRANCH  47  61
ATOM     61  C   UNL A   1      43.425  22.798  26.994  1.00  0.00     0.023 A 
ATOM     62  C   UNL A   1      42.821  21.518  26.973  1.00  0.00     0.031 A 
ATOM     63  C   UNL A   1      44.370  23.017  25.963  1.00  0.00     0.131 A 
ATOM     64  C   UNL A   1      43.177  20.547  26.010  1.00  0.00     0.055 A 
ATOM     65  C   UNL A   1      44.684  22.070  24.980  1.00  0.00     0.041 A 
ATOM     66  F   UNL A   1      45.102  24.130  25.867  1.00  0.00    -0.206 F 
ATOM     67  C   UNL A   1      44.096  20.823  25.004  1.00  0.00     0.022 A 
BRANCH  64  68
ATOM     68  S   UNL A   1      42.489  18.872  26.126  1.00  0.00     0.124 S 
ATOM     69  O   UNL A   1      42.592  18.599  27.556  1.00  0.00    -0.237 OA
ATOM     70  O   UNL A   1      41.143  19.051  25.593  1.00  0.00    -0.237 OA
ATOM     71  O   UNL A   1      43.384  18.078  25.285  1.00  0.00    -0.744 OA
ENDBRANCH  64  68
ENDBRANCH  47  61
BRANCH  48  72
ATOM     72  C   UNL A   1      41.554  30.218  32.921  1.00  0.00     0.023 A 
ATOM     73  C   UNL A   1      41.531  31.630  32.930  1.00  0.00     0.031 A 
ATOM     74  C   UNL A   1      40.339  29.542  33.098  1.00  0.00     0.131 A 
ATOM     75  C   UNL A   1      40.311  32.319  32.982  1.00  0.00     0.055 A 
ATOM     76  C   UNL A   1      39.125  30.235  33.184  1.00  0.00     0.041 A 
ATOM     77  F   UNL A   1      40.292  28.202  33.063  1.00  0.00    -0.206 F 
ATOM     78  C   UNL A   1      39.103  31.627  33.084  1.00  0.00     0.022 A 
BRANCH  75  79
ATOM     79  S   UNL A   1      40.284  34.112  32.683  1.00  0.00     0.124 S 
ATOM     80  O   UNL A   1      40.996  34.627  33.847  1.00  0.00    -0.237 OA
ATOM     81  O   UNL A   1      40.981  34.244  31.406  1.00  0.00    -0.237 OA
ATOM     82  O   UNL A   1      38.857  34.418  32.628  1.00  0.00    -0.744 OA
ENDBRANCH  75  79
ENDBRANCH  48  72
BRANCH  60  83
ATOM     83  C   UNL A   1      45.169  23.948  33.474  1.00  0.00     0.023 A 
ATOM     84  C   UNL A   1      46.473  23.775  33.966  1.00  0.00     0.031 A 
ATOM     85  C   UNL A   1      44.221  22.990  33.910  1.00  0.00     0.131 A 
ATOM     86  C   UNL A   1      46.814  22.662  34.756  1.00  0.00     0.055 A 
ATOM     87  C   UNL A   1      44.543  21.931  34.766  1.00  0.00     0.041 A 
ATOM     88  F   UNL A   1      42.937  23.045  33.528  1.00  0.00    -0.206 F 
ATOM     89  C   UNL A   1      45.854  21.749  35.180  1.00  0.00     0.022 A 
BRANCH  86  90
ATOM     90  S   UNL A   1      48.562  22.392  35.158  1.00  0.00     0.124 S 
ATOM     91  O   UNL A   1      48.849  21.158  34.431  1.00  0.00    -0.237 OA
ATOM     92  O   UNL A   1      49.195  23.598  34.634  1.00  0.00    -0.237 OA
ATOM     93  O   UNL A   1      48.569  22.269  36.614  1.00  0.00    -0.744 OA
ENDBRANCH  86  90
ENDBRANCH  60  83
ENDBRANCH  34  35
ENDBRANCH  26  29
ENDBRANCH  24  25
ENDBRANCH  23  24
ENDBRANCH   1  23
TORSDOF 19
ENDMDL
MODEL 2
REMARK VINA RESULT:     -11.7      4.220     10.913
REMARK SMILES COc1ccc(/C(=C/C(=O)NCCCCCCNC(=O)c2ccc(-c3c4nc(c(-c5cc(S(=O)(=O)[O-])ccc5F)c5ccc([nH]5)c(-c5cc(S(=O)(=O)[O-])ccc5F)c5nc(c(-c6cc(S(=O)(=O)[O-])ccc6F)c6ccc3[nH]6)C=C5)C=C4)cc2)C(C)C)cc1C
REMARK SMILES IDX 15 1 14 2 13 3 12 4 11 5 9 6 10 7 8 9 7 10 6 11 3 12 4 13
REMARK SMILES IDX 88 14 5 15 87 16 89 17 2 18 1 19 84 20 85 21 86 22 16 23
REMARK SMILES IDX 17 24 18 25 19 26 20 28 21 29 22 30 83 31 23 32 82 33 24 34
REMARK SMILES IDX 25 35 26 36 76 37 27 38 81 39 75 40 77 41 28 42 80 43 74 44
REMARK SMILES IDX 73 45 29 47 61 48 41 49 60 50 42 51 45 52 59 53 78 54 43 55
REMARK SMILES IDX 44 56 58 58 79 59 46 60 30 61 31 62 39 63 32 64 38 65 40 66
REMARK SMILES IDX 37 67 33 68 34 69 35 70 36 71 62 72 63 73 71 74 64 75 70 76
REMARK SMILES IDX 72 77 69 78 65 79 66 80 67 81 68 82 47 83 48 84 56 85 49 86
REMARK SMILES IDX 55 87 57 88 54 89 50 90 51 91 52 92 53 93
REMARK H PARENT 11 8 18 27 77 46 45 57
REMARK Flexibility Score: inf
ROOT
ATOM      1  C   UNL A   1      36.617  21.574  25.794  1.00  0.00     0.002 C 
ENDROOT
BRANCH   1   2
ATOM      2  C   UNL A   1      35.666  21.521  24.590  1.00  0.00     0.002 C 
BRANCH   2   3
ATOM      3  C   UNL A   1      35.308  22.862  23.938  1.00  0.00     0.021 C 
BRANCH   3   4
ATOM      4  C   UNL A   1      33.802  23.141  23.802  1.00  0.00     0.116 C 
BRANCH   4   5
ATOM      5  N   UNL A   1      33.222  23.658  25.034  1.00  0.00    -0.353 N 
ATOM      6  C   UNL A   1      32.413  24.658  25.426  1.00  0.00     0.244 C 
ATOM      7  O   UNL A   1      31.993  24.571  26.590  1.00  0.00    -0.270 OA
ATOM      8  H   UNL A   1      33.506  23.116  25.806  1.00  0.00     0.163 HD
BRANCH   6   9
ATOM      9  C   UNL A   1      31.913  25.847  24.664  1.00  0.00     0.075 C 
ATOM     10  C   UNL A   1      31.761  27.186  24.823  1.00  0.00    -0.033 C 
BRANCH  10  11
ATOM     11  C   UNL A   1      30.920  27.969  23.827  1.00  0.00    -0.021 A 
ATOM     12  C   UNL A   1      29.345  29.539  22.000  1.00  0.00     0.121 A 
ATOM     13  C   UNL A   1      30.733  29.557  21.950  1.00  0.00     0.047 A 
ATOM     14  C   UNL A   1      28.721  28.761  22.979  1.00  0.00    -0.008 A 
ATOM     15  C   UNL A   1      31.494  28.777  22.836  1.00  0.00     0.012 A 
ATOM     16  C   UNL A   1      29.510  28.004  23.879  1.00  0.00     0.015 A 
ATOM     17  C   UNL A   1      27.223  28.683  23.106  1.00  0.00     0.048 C 
BRANCH  12  18
ATOM     18  O   UNL A   1      28.536  30.262  21.165  1.00  0.00    -0.496 OA
ATOM     19  C   UNL A   1      28.247  31.599  21.554  1.00  0.00     0.278 C 
ENDBRANCH  12  18
ENDBRANCH  10  11
BRANCH  10  20
ATOM     20  C   UNL A   1      32.386  27.920  25.997  1.00  0.00     0.014 C 
ATOM     21  C   UNL A   1      31.524  27.840  27.267  1.00  0.00     0.012 C 
ATOM     22  C   UNL A   1      33.876  27.692  26.267  1.00  0.00     0.012 C 
ENDBRANCH  10  20
ENDBRANCH   6   9
ENDBRANCH   4   5
ENDBRANCH   3   4
ENDBRANCH   2   3
ENDBRANCH   1   2
BRANCH   1  23
ATOM     23  C   UNL A   1      38.084  21.837  25.464  1.00  0.00     0.021 C 
BRANCH  23  24
ATOM     24  C   UNL A   1      38.605  23.172  25.988  1.00  0.00     0.116 C 
BRANCH  24  25
ATOM     25  N   UNL A   1      39.996  23.126  26.438  1.00  0.00    -0.352 N 
ATOM     26  C   UNL A   1      40.757  24.147  26.976  1.00  0.00     0.251 C 
ATOM     27  H   UNL A   1      40.449  22.258  26.345  1.00  0.00     0.163 HD
ATOM     28  O   UNL A   1      41.932  23.983  27.294  1.00  0.00    -0.269 OA
BRANCH  26  29
ATOM     29  C   UNL A   1      40.088  25.430  27.276  1.00  0.00     0.039 A 
ATOM     30  C   UNL A   1      40.507  26.556  26.560  1.00  0.00     0.014 A 
ATOM     31  C   UNL A   1      39.289  25.556  28.411  1.00  0.00     0.014 A 
ATOM     32  C   UNL A   1      40.332  27.815  27.122  1.00  0.00     0.010 A 
ATOM     33  C   UNL A   1      39.191  26.796  29.010  1.00  0.00     0.010 A 
ATOM     34  C   UNL A   1      39.782  27.909  28.399  1.00  0.00    -0.014 A 
BRANCH  34  35
ATOM     35  C   UNL A   1      39.912  29.106  29.219  1.00  0.00     0.031 A 
ATOM     36  C   UNL A   1      38.916  30.188  29.117  1.00  0.00     0.074 A 
ATOM     37  C   UNL A   1      40.957  29.218  30.069  1.00  0.00     0.049 A 
ATOM     38  N   UNL A   1      39.130  31.407  29.481  1.00  0.00    -0.248 NA
ATOM     39  C   UNL A   1      37.612  29.999  28.486  1.00  0.00     0.031 C 
ATOM     40  C   UNL A   1      41.151  30.213  31.120  1.00  0.00     0.029 A 
ATOM     41  N   UNL A   1      42.198  28.587  29.951  1.00  0.00    -0.354 N 
ATOM     42  C   UNL A   1      37.928  32.071  29.426  1.00  0.00     0.074 A 
ATOM     43  C   UNL A   1      37.072  31.208  28.655  1.00  0.00     0.031 C 
ATOM     44  C   UNL A   1      42.464  30.320  31.376  1.00  0.00     0.029 A 
ATOM     45  C   UNL A   1      43.166  29.505  30.399  1.00  0.00     0.049 A 
ATOM     46  H   UNL A   1      42.363  27.675  29.619  1.00  0.00     0.167 HD
ATOM     47  C   UNL A   1      37.768  33.194  30.179  1.00  0.00     0.034 A 
ATOM     48  C   UNL A   1      44.139  29.960  29.559  1.00  0.00     0.034 A 
ATOM     49  C   UNL A   1      39.066  33.721  30.616  1.00  0.00     0.049 A 
ATOM     50  C   UNL A   1      44.096  31.456  29.327  1.00  0.00     0.074 A 
ATOM     51  C   UNL A   1      39.723  33.764  31.833  1.00  0.00     0.029 A 
ATOM     52  N   UNL A   1      40.012  34.078  29.652  1.00  0.00    -0.354 N 
ATOM     53  N   UNL A   1      43.088  32.224  29.640  1.00  0.00    -0.248 NA
ATOM     54  C   UNL A   1      45.186  32.198  28.699  1.00  0.00     0.031 C 
ATOM     55  C   UNL A   1      41.100  34.024  31.577  1.00  0.00     0.029 A 
ATOM     56  C   UNL A   1      41.269  34.201  30.212  1.00  0.00     0.049 A 
ATOM     57  H   UNL A   1      39.810  34.223  28.700  1.00  0.00     0.167 HD
ATOM     58  C   UNL A   1      43.346  33.512  29.242  1.00  0.00     0.074 A 
ATOM     59  C   UNL A   1      44.691  33.448  28.693  1.00  0.00     0.031 C 
ATOM     60  C   UNL A   1      42.427  34.517  29.380  1.00  0.00     0.034 A 
BRANCH  47  61
ATOM     61  C   UNL A   1      36.431  33.682  30.732  1.00  0.00     0.023 A 
ATOM     62  C   UNL A   1      35.468  34.198  29.834  1.00  0.00     0.031 A 
ATOM     63  C   UNL A   1      36.090  33.817  32.100  1.00  0.00     0.131 A 
ATOM     64  C   UNL A   1      34.286  34.821  30.294  1.00  0.00     0.055 A 
ATOM     65  C   UNL A   1      34.895  34.390  32.552  1.00  0.00     0.041 A 
ATOM     66  F   UNL A   1      36.908  33.465  33.095  1.00  0.00    -0.206 F 
ATOM     67  C   UNL A   1      33.988  34.907  31.650  1.00  0.00     0.022 A 
BRANCH  64  68
ATOM     68  S   UNL A   1      33.162  35.605  29.104  1.00  0.00     0.124 S 
ATOM     69  O   UNL A   1      32.589  34.452  28.420  1.00  0.00    -0.237 OA
ATOM     70  O   UNL A   1      32.265  36.358  29.973  1.00  0.00    -0.237 OA
ATOM     71  O   UNL A   1      34.054  36.424  28.283  1.00  0.00    -0.744 OA
ENDBRANCH  64  68
ENDBRANCH  47  61
BRANCH  48  72
ATOM     72  C   UNL A   1      44.591  28.945  28.567  1.00  0.00     0.023 A 
ATOM     73  C   UNL A   1      45.415  27.896  29.028  1.00  0.00     0.031 A 
ATOM     74  C   UNL A   1      43.948  28.779  27.332  1.00  0.00     0.131 A 
ATOM     75  C   UNL A   1      45.477  26.682  28.329  1.00  0.00     0.055 A 
ATOM     76  C   UNL A   1      44.041  27.577  26.619  1.00  0.00     0.041 A 
ATOM     77  F   UNL A   1      43.124  29.724  26.858  1.00  0.00    -0.206 F 
ATOM     78  C   UNL A   1      44.773  26.508  27.136  1.00  0.00     0.022 A 
BRANCH  75  79
ATOM     79  S   UNL A   1      46.294  25.251  29.095  1.00  0.00     0.124 S 
ATOM     80  O   UNL A   1      45.822  24.149  28.265  1.00  0.00    -0.237 OA
ATOM     81  O   UNL A   1      47.713  25.574  28.969  1.00  0.00    -0.237 OA
ATOM     82  O   UNL A   1      45.787  25.273  30.465  1.00  0.00    -0.744 OA
ENDBRANCH  75  79
ENDBRANCH  48  72
BRANCH  60  83
ATOM     83  C   UNL A   1      42.567  35.912  28.799  1.00  0.00     0.023 A 
ATOM     84  C   UNL A   1      43.232  36.964  29.450  1.00  0.00     0.031 A 
ATOM     85  C   UNL A   1      42.080  36.209  27.503  1.00  0.00     0.131 A 
ATOM     86  C   UNL A   1      43.309  38.247  28.877  1.00  0.00     0.055 A 
ATOM     87  C   UNL A   1      42.232  37.461  26.898  1.00  0.00     0.041 A 
ATOM     88  F   UNL A   1      41.439  35.291  26.764  1.00  0.00    -0.206 F 
ATOM     89  C   UNL A   1      42.833  38.499  27.593  1.00  0.00     0.022 A 
BRANCH  86  90
ATOM     90  S   UNL A   1      43.980  39.601  29.878  1.00  0.00     0.124 S 
ATOM     91  O   UNL A   1      43.078  40.699  29.539  1.00  0.00    -0.237 OA
ATOM     92  O   UNL A   1      43.860  39.079  31.235  1.00  0.00    -0.237 OA
ATOM     93  O   UNL A   1      45.349  39.751  29.387  1.00  0.00    -0.744 OA
ENDBRANCH  86  90
ENDBRANCH  60  83
ENDBRANCH  34  35
ENDBRANCH  26  29
ENDBRANCH  24  25
ENDBRANCH  23  24
ENDBRANCH   1  23
TORSDOF 19
ENDMDL
MODEL 3
REMARK VINA RESULT:     -11.3      2.703      3.888
REMARK SMILES COc1ccc(/C(=C/C(=O)NCCCCCCNC(=O)c2ccc(-c3c4nc(c(-c5cc(S(=O)(=O)[O-])ccc5F)c5ccc([nH]5)c(-c5cc(S(=O)(=O)[O-])ccc5F)c5nc(c(-c6cc(S(=O)(=O)[O-])ccc6F)c6ccc3[nH]6)C=C5)C=C4)cc2)C(C)C)cc1C
REMARK SMILES IDX 15 1 14 2 13 3 12 4 11 5 9 6 10 7 8 9 7 10 6 11 3 12 4 13
REMARK SMILES IDX 88 14 5 15 87 16 89 17 2 18 1 19 84 20 85 21 86 22 16 23
REMARK SMILES IDX 17 24 18 25 19 26 20 28 21 29 22 30 83 31 23 32 82 33 24 34
REMARK SMILES IDX 25 35 26 36 76 37 27 38 81 39 75 40 77 41 28 42 80 43 74 44
REMARK SMILES IDX 73 45 29 47 61 48 41 49 60 50 42 51 45 52 59 53 78 54 43 55
REMARK SMILES IDX 44 56 58 58 79 59 46 60 30 61 31 62 39 63 32 64 38 65 40 66
REMARK SMILES IDX 37 67 33 68 34 69 35 70 36 71 62 72 63 73 71 74 64 75 70 76
REMARK SMILES IDX 72 77 69 78 65 79 66 80 67 81 68 82 47 83 48 84 56 85 49 86
REMARK SMILES IDX 55 87 57 88 54 89 50 90 51 91 52 92 53 93
REMARK H PARENT 11 8 18 27 77 46 45 57
REMARK Flexibility Score: inf
ROOT
ATOM      1  C   UNL A   1      32.735  29.871  26.935  1.00  0.00     0.002 C 
ENDROOT
BRANCH   1   2
ATOM      2  C   UNL A   1      32.018  28.808  26.093  1.00  0.00     0.002 C 
BRANCH   2   3
ATOM      3  C   UNL A   1      31.741  27.463  26.775  1.00  0.00     0.021 C 
BRANCH   3   4
ATOM      4  C   UNL A   1      31.245  26.346  25.841  1.00  0.00     0.116 C 
BRANCH   4   5
ATOM      5  N   UNL A   1      31.178  25.054  26.513  1.00  0.00    -0.353 N 
ATOM      6  C   UNL A   1      31.995  24.026  26.804  1.00  0.00     0.244 C 
ATOM      7  O   UNL A   1      31.542  23.209  27.621  1.00  0.00    -0.270 OA
ATOM      8  H   UNL A   1      30.270  24.885  26.852  1.00  0.00     0.163 HD
BRANCH   6   9
ATOM      9  C   UNL A   1      33.382  23.729  26.320  1.00  0.00     0.075 C 
ATOM     10  C   UNL A   1      34.004  23.128  25.275  1.00  0.00    -0.033 C 
BRANCH  10  11
ATOM     11  C   UNL A   1      35.492  22.825  25.362  1.00  0.00    -0.021 A 
ATOM     12  C   UNL A   1      38.288  22.191  25.610  1.00  0.00     0.121 A 
ATOM     13  C   UNL A   1      37.399  21.301  25.021  1.00  0.00     0.047 A 
ATOM     14  C   UNL A   1      37.793  23.398  26.110  1.00  0.00    -0.008 A 
ATOM     15  C   UNL A   1      36.039  21.624  24.890  1.00  0.00     0.012 A 
ATOM     16  C   UNL A   1      36.412  23.690  25.991  1.00  0.00     0.015 A 
ATOM     17  C   UNL A   1      38.683  24.421  26.763  1.00  0.00     0.048 C 
BRANCH  12  18
ATOM     18  O   UNL A   1      39.628  21.952  25.763  1.00  0.00    -0.496 OA
ATOM     19  C   UNL A   1      39.991  20.764  26.456  1.00  0.00     0.278 C 
ENDBRANCH  12  18
ENDBRANCH  10  11
BRANCH  10  20
ATOM     20  C   UNL A   1      33.240  22.719  24.028  1.00  0.00     0.014 C 
ATOM     21  C   UNL A   1      33.855  23.301  22.744  1.00  0.00     0.012 C 
ATOM     22  C   UNL A   1      32.840  21.248  23.889  1.00  0.00     0.012 C 
ENDBRANCH  10  20
ENDBRANCH   6   9
ENDBRANCH   4   5
ENDBRANCH   3   4
ENDBRANCH   2   3
ENDBRANCH   1   2
BRANCH   1  23
ATOM     23  C   UNL A   1      34.257  29.770  26.969  1.00  0.00     0.021 C 
BRANCH  23  24
ATOM     24  C   UNL A   1      34.915  30.687  27.996  1.00  0.00     0.116 C 
BRANCH  24  25
ATOM     25  N   UNL A   1      34.092  31.834  28.376  1.00  0.00    -0.352 N 
ATOM     26  C   UNL A   1      34.417  32.881  29.217  1.00  0.00     0.251 C 
ATOM     27  H   UNL A   1      33.191  31.865  27.981  1.00  0.00     0.163 HD
ATOM     28  O   UNL A   1      33.619  33.779  29.475  1.00  0.00    -0.269 OA
BRANCH  26  29
ATOM     29  C   UNL A   1      35.804  32.966  29.719  1.00  0.00     0.039 A 
ATOM     30  C   UNL A   1      36.769  33.493  28.855  1.00  0.00     0.014 A 
ATOM     31  C   UNL A   1      36.172  32.291  30.882  1.00  0.00     0.014 A 
ATOM     32  C   UNL A   1      38.099  33.129  29.028  1.00  0.00     0.010 A 
ATOM     33  C   UNL A   1      37.477  31.859  31.004  1.00  0.00     0.010 A 
ATOM     34  C   UNL A   1      38.419  32.217  30.033  1.00  0.00    -0.014 A 
BRANCH  34  35
ATOM     35  C   UNL A   1      39.680  31.486  30.050  1.00  0.00     0.031 A 
ATOM     36  C   UNL A   1      39.726  30.075  29.627  1.00  0.00     0.074 A 
ATOM     37  C   UNL A   1      40.804  32.113  30.464  1.00  0.00     0.049 A 
ATOM     38  N   UNL A   1      40.659  29.248  29.960  1.00  0.00    -0.248 NA
ATOM     39  C   UNL A   1      38.647  29.446  28.869  1.00  0.00     0.031 C 
ATOM     40  C   UNL A   1      42.182  31.642  30.350  1.00  0.00     0.029 A 
ATOM     41  N   UNL A   1      40.878  33.206  31.330  1.00  0.00    -0.354 N 
ATOM     42  C   UNL A   1      40.475  28.101  29.226  1.00  0.00     0.074 A 
ATOM     43  C   UNL A   1      39.140  28.216  28.702  1.00  0.00     0.031 C 
ATOM     44  C   UNL A   1      42.923  32.247  31.290  1.00  0.00     0.029 A 
ATOM     45  C   UNL A   1      42.020  33.015  32.130  1.00  0.00     0.049 A 
ATOM     46  H   UNL A   1      40.252  33.964  31.372  1.00  0.00     0.167 HD
ATOM     47  C   UNL A   1      41.540  27.277  29.026  1.00  0.00     0.034 A 
ATOM     48  C   UNL A   1      41.911  32.883  33.483  1.00  0.00     0.034 A 
ATOM     49  C   UNL A   1      42.615  27.570  29.981  1.00  0.00     0.049 A 
ATOM     50  C   UNL A   1      42.395  31.547  34.008  1.00  0.00     0.074 A 
ATOM     51  C   UNL A   1      43.861  28.163  29.870  1.00  0.00     0.029 A 
ATOM     52  N   UNL A   1      42.351  27.475  31.349  1.00  0.00    -0.354 N 
ATOM     53  N   UNL A   1      42.628  30.501  33.263  1.00  0.00    -0.248 NA
ATOM     54  C   UNL A   1      42.632  31.285  35.425  1.00  0.00     0.031 C 
ATOM     55  C   UNL A   1      44.284  28.538  31.177  1.00  0.00     0.029 A 
ATOM     56  C   UNL A   1      43.325  28.118  32.088  1.00  0.00     0.049 A 
ATOM     57  H   UNL A   1      41.574  27.010  31.736  1.00  0.00     0.167 HD
ATOM     58  C   UNL A   1      42.994  29.442  34.055  1.00  0.00     0.074 A 
ATOM     59  C   UNL A   1      43.019  29.998  35.398  1.00  0.00     0.031 C 
ATOM     60  C   UNL A   1      43.227  28.194  33.544  1.00  0.00     0.034 A 
BRANCH  47  61
ATOM     61  C   UNL A   1      41.716  26.370  27.811  1.00  0.00     0.023 A 
ATOM     62  C   UNL A   1      42.229  25.065  28.001  1.00  0.00     0.031 A 
ATOM     63  C   UNL A   1      41.558  26.747  26.455  1.00  0.00     0.131 A 
ATOM     64  C   UNL A   1      42.578  24.240  26.908  1.00  0.00     0.055 A 
ATOM     65  C   UNL A   1      41.856  25.908  25.374  1.00  0.00     0.041 A 
ATOM     66  F   UNL A   1      41.165  27.966  26.076  1.00  0.00    -0.206 F 
ATOM     67  C   UNL A   1      42.379  24.651  25.594  1.00  0.00     0.022 A 
BRANCH  64  68
ATOM     68  S   UNL A   1      43.379  22.640  27.209  1.00  0.00     0.124 S 
ATOM     69  O   UNL A   1      44.767  23.030  27.426  1.00  0.00    -0.237 OA
ATOM     70  O   UNL A   1      42.653  22.143  28.371  1.00  0.00    -0.237 OA
ATOM     71  O   UNL A   1      43.137  21.901  25.970  1.00  0.00    -0.744 OA
ENDBRANCH  64  68
ENDBRANCH  47  61
BRANCH  48  72
ATOM     72  C   UNL A   1      40.810  33.695  34.073  1.00  0.00     0.023 A 
ATOM     73  C   UNL A   1      39.564  33.064  34.276  1.00  0.00     0.031 A 
ATOM     74  C   UNL A   1      41.058  34.893  34.758  1.00  0.00     0.131 A 
ATOM     75  C   UNL A   1      38.666  33.558  35.234  1.00  0.00     0.055 A 
ATOM     76  C   UNL A   1      40.143  35.402  35.689  1.00  0.00     0.041 A 
ATOM     77  F   UNL A   1      42.237  35.519  34.634  1.00  0.00    -0.206 F 
ATOM     78  C   UNL A   1      38.961  34.713  35.961  1.00  0.00     0.022 A 
BRANCH  75  79
ATOM     79  S   UNL A   1      37.216  32.565  35.695  1.00  0.00     0.124 S 
ATOM     80  O   UNL A   1      36.602  32.298  34.399  1.00  0.00    -0.237 OA
ATOM     81  O   UNL A   1      37.807  31.409  36.364  1.00  0.00    -0.237 OA
ATOM     82  O   UNL A   1      36.468  33.457  36.577  1.00  0.00    -0.744 OA
ENDBRANCH  75  79
ENDBRANCH  48  72
BRANCH  60  83
ATOM     83  C   UNL A   1      43.451  26.941  34.369  1.00  0.00     0.023 A 
ATOM     84  C   UNL A   1      44.722  26.431  34.682  1.00  0.00     0.031 A 
ATOM     85  C   UNL A   1      42.358  26.245  34.941  1.00  0.00     0.131 A 
ATOM     86  C   UNL A   1      44.871  25.248  35.431  1.00  0.00     0.055 A 
ATOM     87  C   UNL A   1      42.512  25.118  35.756  1.00  0.00     0.041 A 
ATOM     88  F   UNL A   1      41.091  26.633  34.736  1.00  0.00    -0.206 F 
ATOM     89  C   UNL A   1      43.775  24.599  35.990  1.00  0.00     0.022 A 
BRANCH  86  90
ATOM     90  S   UNL A   1      46.530  24.534  35.595  1.00  0.00     0.124 S 
ATOM     91  O   UNL A   1      47.366  25.582  35.015  1.00  0.00    -0.237 OA
ATOM     92  O   UNL A   1      46.653  24.352  37.037  1.00  0.00    -0.237 OA
ATOM     93  O   UNL A   1      46.456  23.300  34.816  1.00  0.00    -0.744 OA
ENDBRANCH  86  90
ENDBRANCH  60  83
ENDBRANCH  34  35
ENDBRANCH  26  29
ENDBRANCH  24  25
ENDBRANCH  23  24
ENDBRANCH   1  23
TORSDOF 19
ENDMDL
