MODEL 1
REMARK VINA RESULT:     -11.8      0.000      0.000
REMARK SMILES Cc1cc(C)c(NC(=O)C2(C)CCCC2)c(C(=O)NCCCCCCNC(=O)c2ccc(-c3c4nc(c(-c5cc(S(=O)(=O)[O-])ccc5F)c5ccc([nH]5)c(-c5cc(S(=O)(=O)[O-])ccc5F)c5nc(c(-c6cc(S(=O)(=O)[O-])ccc6F)c6ccc3[nH]6)C=C5)C=C4)cc2)c1
REMARK SMILES IDX 23 1 22 2 21 3 20 4 19 5 17 6 18 7 16 9 1 10 2 11 3 12 92 13
REMARK SMILES IDX 4 14 5 15 6 16 7 17 8 18 9 20 10 21 11 22 12 23 15 24 13 25
REMARK SMILES IDX 14 26 24 27 25 28 26 29 27 30 28 32 29 33 30 34 91 35 31 36
REMARK SMILES IDX 90 37 32 38 33 39 34 40 84 41 35 42 89 43 83 44 85 45 36 46
REMARK SMILES IDX 88 47 82 48 81 49 37 51 69 52 49 53 68 54 50 55 53 56 67 57
REMARK SMILES IDX 86 58 51 59 52 60 66 62 87 63 54 64 38 65 39 66 47 67 40 68
REMARK SMILES IDX 46 69 48 70 45 71 41 72 42 73 43 74 44 75 70 76 71 77 79 78
REMARK SMILES IDX 72 79 78 80 80 81 77 82 73 83 74 84 75 85 76 86 55 87 56 88
REMARK SMILES IDX 64 89 57 90 63 91 65 92 62 93 58 94 59 95 60 96 61 97
REMARK H PARENT 19 8 7 19 26 31 85 50 53 61
REMARK Flexibility Score: inf
ROOT
ATOM      1  C   UNL A   1      34.177  22.817  26.772  1.00  0.00     0.002 C 
ENDROOT
BRANCH   1   2
ATOM      2  C   UNL A   1      32.702  22.668  26.371  1.00  0.00     0.002 C 
BRANCH   2   3
ATOM      3  C   UNL A   1      31.739  23.655  27.050  1.00  0.00     0.021 C 
BRANCH   3   4
ATOM      4  C   UNL A   1      30.664  24.203  26.104  1.00  0.00     0.116 C 
BRANCH   4   5
ATOM      5  N   UNL A   1      31.138  24.263  24.733  1.00  0.00    -0.352 N 
ATOM      6  C   UNL A   1      30.983  25.113  23.668  1.00  0.00     0.253 C 
ATOM      7  O   UNL A   1      31.573  24.753  22.642  1.00  0.00    -0.269 OA
ATOM      8  H   UNL A   1      31.717  23.497  24.512  1.00  0.00     0.163 HD
BRANCH   6   9
ATOM      9  C   UNL A   1      30.152  26.375  23.628  1.00  0.00     0.063 A 
ATOM     10  C   UNL A   1      26.492  27.466  23.875  1.00  0.00     0.044 C 
ATOM     11  C   UNL A   1      27.976  27.509  23.650  1.00  0.00    -0.050 A 
ATOM     12  C   UNL A   1      28.592  28.688  23.251  1.00  0.00     0.009 A 
ATOM     13  C   UNL A   1      28.754  26.352  23.757  1.00  0.00     0.019 A 
ATOM     14  C   UNL A   1      29.976  28.725  23.005  1.00  0.00    -0.026 A 
ATOM     15  C   UNL A   1      30.434  29.761  22.005  1.00  0.00     0.046 C 
ATOM     16  C   UNL A   1      30.786  27.633  23.364  1.00  0.00     0.056 A 
BRANCH  16  17
ATOM     17  N   UNL A   1      32.194  27.703  23.283  1.00  0.00    -0.325 N 
ATOM     18  C   UNL A   1      33.217  28.046  24.120  1.00  0.00     0.230 C 
ATOM     19  H   UNL A   1      32.524  27.436  22.394  1.00  0.00     0.169 HD
ATOM     20  O   UNL A   1      34.201  28.564  23.572  1.00  0.00    -0.274 OA
BRANCH  18  21
ATOM     21  C   UNL A   1      33.322  27.582  25.615  1.00  0.00     0.047 C 
ATOM     22  C   UNL A   1      34.038  26.224  25.641  1.00  0.00     0.022 C 
ATOM     23  C   UNL A   1      34.171  28.622  26.401  1.00  0.00     0.016 C 
ATOM     24  C   UNL A   1      32.076  27.552  26.510  1.00  0.00     0.016 C 
ATOM     25  C   UNL A   1      33.174  29.721  26.748  1.00  0.00     0.001 C 
ATOM     26  C   UNL A   1      31.879  28.977  27.047  1.00  0.00     0.001 C 
ENDBRANCH  18  21
ENDBRANCH  16  17
ENDBRANCH   6   9
ENDBRANCH   4   5
ENDBRANCH   3   4
ENDBRANCH   2   3
ENDBRANCH   1   2
BRANCH   1  27
ATOM     27  C   UNL A   1      35.190  22.465  25.678  1.00  0.00     0.021 C 
BRANCH  27  28
ATOM     28  C   UNL A   1      36.530  23.183  25.809  1.00  0.00     0.116 C 
BRANCH  28  29
ATOM     29  N   UNL A   1      37.603  22.252  26.130  1.00  0.00    -0.352 N 
ATOM     30  C   UNL A   1      38.906  22.513  26.462  1.00  0.00     0.251 C 
ATOM     31  H   UNL A   1      37.356  21.299  26.103  1.00  0.00     0.163 HD
ATOM     32  O   UNL A   1      39.738  21.605  26.425  1.00  0.00    -0.269 OA
BRANCH  30  33
ATOM     33  C   UNL A   1      39.311  23.879  26.855  1.00  0.00     0.039 A 
ATOM     34  C   UNL A   1      39.122  24.296  28.175  1.00  0.00     0.014 A 
ATOM     35  C   UNL A   1      39.852  24.758  25.911  1.00  0.00     0.014 A 
ATOM     36  C   UNL A   1      39.521  25.577  28.561  1.00  0.00     0.010 A 
ATOM     37  C   UNL A   1      40.310  26.010  26.312  1.00  0.00     0.010 A 
ATOM     38  C   UNL A   1      40.142  26.436  27.638  1.00  0.00    -0.014 A 
BRANCH  38  39
ATOM     39  C   UNL A   1      40.603  27.790  28.035  1.00  0.00     0.031 A 
ATOM     40  C   UNL A   1      42.061  28.147  27.938  1.00  0.00     0.074 A 
ATOM     41  C   UNL A   1      39.720  28.672  28.544  1.00  0.00     0.049 A 
ATOM     42  N   UNL A   1      42.674  29.242  28.306  1.00  0.00    -0.248 NA
ATOM     43  C   UNL A   1      42.951  27.118  27.379  1.00  0.00     0.031 C 
ATOM     44  C   UNL A   1      38.288  28.425  28.723  1.00  0.00     0.029 A 
ATOM     45  N   UNL A   1      39.897  29.949  29.012  1.00  0.00    -0.354 N 
ATOM     46  C   UNL A   1      44.023  29.030  28.039  1.00  0.00     0.074 A 
ATOM     47  C   UNL A   1      44.141  27.676  27.540  1.00  0.00     0.031 C 
ATOM     48  C   UNL A   1      37.714  29.522  29.241  1.00  0.00     0.029 A 
ATOM     49  C   UNL A   1      38.740  30.534  29.471  1.00  0.00     0.049 A 
ATOM     50  H   UNL A   1      40.770  30.404  29.019  1.00  0.00     0.167 HD
ATOM     51  C   UNL A   1      45.062  29.892  28.176  1.00  0.00     0.034 A 
ATOM     52  C   UNL A   1      38.533  31.745  30.025  1.00  0.00     0.034 A 
ATOM     53  C   UNL A   1      44.920  31.242  28.668  1.00  0.00     0.049 A 
ATOM     54  C   UNL A   1      39.703  32.680  30.188  1.00  0.00     0.074 A 
ATOM     55  C   UNL A   1      45.890  32.221  28.794  1.00  0.00     0.029 A 
ATOM     56  N   UNL A   1      43.732  31.801  29.124  1.00  0.00    -0.354 N 
ATOM     57  N   UNL A   1      40.966  32.484  29.884  1.00  0.00    -0.248 NA
ATOM     58  C   UNL A   1      39.418  34.002  30.759  1.00  0.00     0.031 C 
ATOM     59  C   UNL A   1      45.305  33.345  29.388  1.00  0.00     0.029 A 
ATOM     60  C   UNL A   1      43.952  33.099  29.562  1.00  0.00     0.049 A 
ATOM     61  H   UNL A   1      42.861  31.343  29.133  1.00  0.00     0.167 HD
ATOM     62  C   UNL A   1      41.620  33.671  30.202  1.00  0.00     0.074 A 
ATOM     63  C   UNL A   1      40.610  34.579  30.707  1.00  0.00     0.031 C 
ATOM     64  C   UNL A   1      42.935  33.985  30.081  1.00  0.00     0.034 A 
BRANCH  51  65
ATOM     65  C   UNL A   1      46.438  29.381  27.816  1.00  0.00     0.023 A 
ATOM     66  C   UNL A   1      46.771  29.023  26.497  1.00  0.00     0.031 A 
ATOM     67  C   UNL A   1      47.418  29.203  28.809  1.00  0.00     0.131 A 
ATOM     68  C   UNL A   1      48.010  28.423  26.223  1.00  0.00     0.055 A 
ATOM     69  C   UNL A   1      48.682  28.690  28.514  1.00  0.00     0.041 A 
ATOM     70  F   UNL A   1      47.155  29.508  30.090  1.00  0.00    -0.206 F 
ATOM     71  C   UNL A   1      48.978  28.277  27.218  1.00  0.00     0.022 A 
BRANCH  68  72
ATOM     72  S   UNL A   1      48.269  27.684  24.586  1.00  0.00     0.124 S 
ATOM     73  O   UNL A   1      49.589  28.202  24.235  1.00  0.00    -0.237 OA
ATOM     74  O   UNL A   1      48.197  26.256  24.872  1.00  0.00    -0.237 OA
ATOM     75  O   UNL A   1      47.166  28.219  23.790  1.00  0.00    -0.744 OA
ENDBRANCH  68  72
ENDBRANCH  51  65
BRANCH  52  76
ATOM     76  C   UNL A   1      37.167  32.144  30.468  1.00  0.00     0.023 A 
ATOM     77  C   UNL A   1      36.271  32.760  29.579  1.00  0.00     0.031 A 
ATOM     78  C   UNL A   1      36.744  31.936  31.793  1.00  0.00     0.131 A 
ATOM     79  C   UNL A   1      35.014  33.183  30.035  1.00  0.00     0.055 A 
ATOM     80  C   UNL A   1      35.474  32.315  32.229  1.00  0.00     0.041 A 
ATOM     81  F   UNL A   1      37.559  31.343  32.680  1.00  0.00    -0.206 F 
ATOM     82  C   UNL A   1      34.604  32.953  31.351  1.00  0.00     0.022 A 
BRANCH  79  83
ATOM     83  S   UNL A   1      33.941  34.101  28.898  1.00  0.00     0.124 S 
ATOM     84  O   UNL A   1      32.900  34.587  29.797  1.00  0.00    -0.237 OA
ATOM     85  O   UNL A   1      34.853  35.108  28.368  1.00  0.00    -0.237 OA
ATOM     86  O   UNL A   1      33.513  33.085  27.938  1.00  0.00    -0.744 OA
ENDBRANCH  79  83
ENDBRANCH  52  76
BRANCH  64  87
ATOM     87  C   UNL A   1      43.341  35.386  30.470  1.00  0.00     0.023 A 
ATOM     88  C   UNL A   1      43.361  36.437  29.537  1.00  0.00     0.031 A 
ATOM     89  C   UNL A   1      43.726  35.668  31.793  1.00  0.00     0.131 A 
ATOM     90  C   UNL A   1      43.813  37.707  29.926  1.00  0.00     0.055 A 
ATOM     91  C   UNL A   1      44.116  36.948  32.188  1.00  0.00     0.041 A 
ATOM     92  F   UNL A   1      43.728  34.701  32.725  1.00  0.00    -0.206 F 
ATOM     93  C   UNL A   1      44.174  37.973  31.249  1.00  0.00     0.022 A 
BRANCH  90  94
ATOM     94  S   UNL A   1      44.009  38.987  28.656  1.00  0.00     0.124 S 
ATOM     95  O   UNL A   1      45.450  39.220  28.679  1.00  0.00    -0.237 OA
ATOM     96  O   UNL A   1      43.489  38.328  27.463  1.00  0.00    -0.237 OA
ATOM     97  O   UNL A   1      43.195  40.094  29.156  1.00  0.00    -0.744 OA
ENDBRANCH  90  94
ENDBRANCH  64  87
ENDBRANCH  38  39
ENDBRANCH  30  33
ENDBRANCH  28  29
ENDBRANCH  27  28
ENDBRANCH   1  27
TORSDOF 18
ENDMDL
MODEL 2
REMARK VINA RESULT:     -11.6      5.552      8.176
REMARK SMILES Cc1cc(C)c(NC(=O)C2(C)CCCC2)c(C(=O)NCCCCCCNC(=O)c2ccc(-c3c4nc(c(-c5cc(S(=O)(=O)[O-])ccc5F)c5ccc([nH]5)c(-c5cc(S(=O)(=O)[O-])ccc5F)c5nc(c(-c6cc(S(=O)(=O)[O-])ccc6F)c6ccc3[nH]6)C=C5)C=C4)cc2)c1
REMARK SMILES IDX 23 1 22 2 21 3 20 4 19 5 17 6 18 7 16 9 1 10 2 11 3 12 92 13
REMARK SMILES IDX 4 14 5 15 6 16 7 17 8 18 9 20 10 21 11 22 12 23 15 24 13 25
REMARK SMILES IDX 14 26 24 27 25 28 26 29 27 30 28 32 29 33 30 34 91 35 31 36
REMARK SMILES IDX 90 37 32 38 33 39 34 40 84 41 35 42 89 43 83 44 85 45 36 46
REMARK SMILES IDX 88 47 82 48 81 49 37 51 69 52 49 53 68 54 50 55 53 56 67 57
REMARK SMILES IDX 86 58 51 59 52 60 66 62 87 63 54 64 38 65 39 66 47 67 40 68
REMARK SMILES IDX 46 69 48 70 45 71 41 72 42 73 43 74 44 75 70 76 71 77 79 78
REMARK SMILES IDX 72 79 78 80 80 81 77 82 73 83 74 84 75 85 76 86 55 87 56 88
REMARK SMILES IDX 64 89 57 90 63 91 65 92 62 93 58 94 59 95 60 96 61 97
REMARK H PARENT 19 8 7 19 26 31 85 50 53 61
REMARK Flexibility Score: inf
ROOT
ATOM      1  C   UNL A   1      31.510  30.584  25.979  1.00  0.00     0.002 C 
ENDROOT
BRANCH   1   2
ATOM      2  C   UNL A   1      32.940  30.035  25.863  1.00  0.00     0.002 C 
BRANCH   2   3
ATOM      3  C   UNL A   1      33.258  28.844  26.780  1.00  0.00     0.021 C 
BRANCH   3   4
ATOM      4  C   UNL A   1      32.092  28.454  27.695  1.00  0.00     0.116 C 
BRANCH   4   5
ATOM      5  N   UNL A   1      31.628  27.105  27.426  1.00  0.00    -0.352 N 
ATOM      6  C   UNL A   1      31.269  26.384  26.315  1.00  0.00     0.253 C 
ATOM      7  O   UNL A   1      30.903  25.228  26.558  1.00  0.00    -0.269 OA
ATOM      8  H   UNL A   1      31.551  26.573  28.251  1.00  0.00     0.163 HD
BRANCH   6   9
ATOM      9  C   UNL A   1      31.241  26.874  24.886  1.00  0.00     0.063 A 
ATOM     10  C   UNL A   1      28.900  28.709  22.477  1.00  0.00     0.044 C 
ATOM     11  C   UNL A   1      30.069  27.929  23.005  1.00  0.00    -0.050 A 
ATOM     12  C   UNL A   1      31.080  27.512  22.149  1.00  0.00     0.009 A 
ATOM     13  C   UNL A   1      30.127  27.537  24.346  1.00  0.00     0.019 A 
ATOM     14  C   UNL A   1      32.159  26.751  22.631  1.00  0.00    -0.026 A 
ATOM     15  C   UNL A   1      32.809  25.830  21.626  1.00  0.00     0.046 C 
ATOM     16  C   UNL A   1      32.342  26.586  24.016  1.00  0.00     0.056 A 
BRANCH  16  17
ATOM     17  N   UNL A   1      33.502  25.970  24.537  1.00  0.00    -0.325 N 
ATOM     18  C   UNL A   1      33.848  24.724  24.973  1.00  0.00     0.230 C 
ATOM     19  H   UNL A   1      34.255  26.602  24.602  1.00  0.00     0.169 HD
ATOM     20  O   UNL A   1      34.688  24.694  25.886  1.00  0.00    -0.274 OA
BRANCH  18  21
ATOM     21  C   UNL A   1      33.473  23.396  24.228  1.00  0.00     0.047 C 
ATOM     22  C   UNL A   1      34.446  23.220  23.054  1.00  0.00     0.022 C 
ATOM     23  C   UNL A   1      33.643  22.205  25.214  1.00  0.00     0.016 C 
ATOM     24  C   UNL A   1      32.030  23.138  23.775  1.00  0.00     0.016 C 
ATOM     25  C   UNL A   1      32.342  22.199  26.007  1.00  0.00     0.001 C 
ATOM     26  C   UNL A   1      31.275  22.579  24.989  1.00  0.00     0.001 C 
ENDBRANCH  18  21
ENDBRANCH  16  17
ENDBRANCH   6   9
ENDBRANCH   4   5
ENDBRANCH   3   4
ENDBRANCH   2   3
ENDBRANCH   1   2
BRANCH   1  27
ATOM     27  C   UNL A   1      31.396  31.992  26.571  1.00  0.00     0.021 C 
BRANCH  27  28
ATOM     28  C   UNL A   1      32.660  32.483  27.270  1.00  0.00     0.116 C 
BRANCH  28  29
ATOM     29  N   UNL A   1      32.540  33.879  27.665  1.00  0.00    -0.352 N 
ATOM     30  C   UNL A   1      33.165  34.547  28.684  1.00  0.00     0.251 C 
ATOM     31  H   UNL A   1      31.920  34.419  27.123  1.00  0.00     0.163 HD
ATOM     32  O   UNL A   1      32.736  35.644  29.048  1.00  0.00    -0.269 OA
BRANCH  30  33
ATOM     33  C   UNL A   1      34.343  33.952  29.348  1.00  0.00     0.039 A 
ATOM     34  C   UNL A   1      35.624  34.350  28.955  1.00  0.00     0.014 A 
ATOM     35  C   UNL A   1      34.184  32.978  30.339  1.00  0.00     0.014 A 
ATOM     36  C   UNL A   1      36.744  33.808  29.591  1.00  0.00     0.010 A 
ATOM     37  C   UNL A   1      35.297  32.489  31.018  1.00  0.00     0.010 A 
ATOM     38  C   UNL A   1      36.588  32.892  30.645  1.00  0.00    -0.014 A 
BRANCH  38  39
ATOM     39  C   UNL A   1      37.763  32.328  31.356  1.00  0.00     0.031 A 
ATOM     40  C   UNL A   1      38.538  31.192  30.745  1.00  0.00     0.074 A 
ATOM     41  C   UNL A   1      38.089  32.795  32.577  1.00  0.00     0.049 A 
ATOM     42  N   UNL A   1      39.541  30.512  31.240  1.00  0.00    -0.248 NA
ATOM     43  C   UNL A   1      38.104  30.744  29.415  1.00  0.00     0.031 C 
ATOM     44  C   UNL A   1      37.386  33.865  33.287  1.00  0.00     0.029 A 
ATOM     45  N   UNL A   1      39.086  32.423  33.443  1.00  0.00    -0.354 N 
ATOM     46  C   UNL A   1      39.848  29.545  30.288  1.00  0.00     0.074 A 
ATOM     47  C   UNL A   1      38.881  29.690  29.220  1.00  0.00     0.031 C 
ATOM     48  C   UNL A   1      37.988  34.078  34.468  1.00  0.00     0.029 A 
ATOM     49  C   UNL A   1      39.090  33.134  34.620  1.00  0.00     0.049 A 
ATOM     50  H   UNL A   1      39.738  31.713  33.240  1.00  0.00     0.167 HD
ATOM     51  C   UNL A   1      40.857  28.638  30.294  1.00  0.00     0.034 A 
ATOM     52  C   UNL A   1      39.885  33.029  35.703  1.00  0.00     0.034 A 
ATOM     53  C   UNL A   1      41.817  28.518  31.364  1.00  0.00     0.049 A 
ATOM     54  C   UNL A   1      40.986  32.000  35.699  1.00  0.00     0.074 A 
ATOM     55  C   UNL A   1      42.913  27.677  31.452  1.00  0.00     0.029 A 
ATOM     56  N   UNL A   1      41.790  29.256  32.543  1.00  0.00    -0.354 N 
ATOM     57  N   UNL A   1      41.297  31.126  34.769  1.00  0.00    -0.248 NA
ATOM     58  C   UNL A   1      41.850  31.953  36.885  1.00  0.00     0.031 C 
ATOM     59  C   UNL A   1      43.506  27.858  32.707  1.00  0.00     0.029 A 
ATOM     60  C   UNL A   1      42.830  28.866  33.374  1.00  0.00     0.049 A 
ATOM     61  H   UNL A   1      41.130  29.954  32.755  1.00  0.00     0.167 HD
ATOM     62  C   UNL A   1      42.411  30.443  35.249  1.00  0.00     0.074 A 
ATOM     63  C   UNL A   1      42.724  31.018  36.542  1.00  0.00     0.031 C 
ATOM     64  C   UNL A   1      43.117  29.437  34.670  1.00  0.00     0.034 A 
BRANCH  51  65
ATOM     65  C   UNL A   1      40.945  27.692  29.117  1.00  0.00     0.023 A 
ATOM     66  C   UNL A   1      41.927  27.842  28.121  1.00  0.00     0.031 A 
ATOM     67  C   UNL A   1      40.008  26.655  28.962  1.00  0.00     0.131 A 
ATOM     68  C   UNL A   1      41.894  27.033  26.975  1.00  0.00     0.055 A 
ATOM     69  C   UNL A   1      40.035  25.796  27.862  1.00  0.00     0.041 A 
ATOM     70  F   UNL A   1      39.034  26.473  29.868  1.00  0.00    -0.206 F 
ATOM     71  C   UNL A   1      40.970  25.994  26.850  1.00  0.00     0.022 A 
BRANCH  68  72
ATOM     72  S   UNL A   1      42.965  27.470  25.578  1.00  0.00     0.124 S 
ATOM     73  O   UNL A   1      44.068  28.148  26.254  1.00  0.00    -0.237 OA
ATOM     74  O   UNL A   1      43.273  26.168  24.998  1.00  0.00    -0.237 OA
ATOM     75  O   UNL A   1      42.122  28.336  24.756  1.00  0.00    -0.744 OA
ENDBRANCH  68  72
ENDBRANCH  51  65
BRANCH  52  76
ATOM     76  C   UNL A   1      39.671  33.916  36.881  1.00  0.00     0.023 A 
ATOM     77  C   UNL A   1      39.082  33.425  38.057  1.00  0.00     0.031 A 
ATOM     78  C   UNL A   1      40.032  35.274  36.840  1.00  0.00     0.131 A 
ATOM     79  C   UNL A   1      38.835  34.294  39.130  1.00  0.00     0.055 A 
ATOM     80  C   UNL A   1      39.828  36.124  37.928  1.00  0.00     0.041 A 
ATOM     81  F   UNL A   1      40.607  35.792  35.742  1.00  0.00    -0.206 F 
ATOM     82  C   UNL A   1      39.215  35.637  39.079  1.00  0.00     0.022 A 
BRANCH  79  83
ATOM     83  S   UNL A   1      37.945  33.657  40.576  1.00  0.00     0.124 S 
ATOM     84  O   UNL A   1      37.745  34.870  41.361  1.00  0.00    -0.237 OA
ATOM     85  O   UNL A   1      36.751  33.082  39.967  1.00  0.00    -0.237 OA
ATOM     86  O   UNL A   1      38.877  32.688  41.150  1.00  0.00    -0.744 OA
ENDBRANCH  79  83
ENDBRANCH  52  76
BRANCH  64  87
ATOM     87  C   UNL A   1      44.320  28.925  35.426  1.00  0.00     0.023 A 
ATOM     88  C   UNL A   1      44.223  27.854  36.331  1.00  0.00     0.031 A 
ATOM     89  C   UNL A   1      45.576  29.530  35.246  1.00  0.00     0.131 A 
ATOM     90  C   UNL A   1      45.352  27.457  37.064  1.00  0.00     0.055 A 
ATOM     91  C   UNL A   1      46.708  29.091  35.933  1.00  0.00     0.041 A 
ATOM     92  F   UNL A   1      45.724  30.559  34.395  1.00  0.00    -0.206 F 
ATOM     93  C   UNL A   1      46.597  28.057  36.859  1.00  0.00     0.022 A 
BRANCH  90  94
ATOM     94  S   UNL A   1      45.151  26.204  38.360  1.00  0.00     0.124 S 
ATOM     95  O   UNL A   1      45.415  24.968  37.630  1.00  0.00    -0.237 OA
ATOM     96  O   UNL A   1      46.162  26.596  39.335  1.00  0.00    -0.237 OA
ATOM     97  O   UNL A   1      43.767  26.381  38.797  1.00  0.00    -0.744 OA
ENDBRANCH  90  94
ENDBRANCH  64  87
ENDBRANCH  38  39
ENDBRANCH  30  33
ENDBRANCH  28  29
ENDBRANCH  27  28
ENDBRANCH   1  27
TORSDOF 18
ENDMDL
MODEL 3
REMARK VINA RESULT:     -11.6      1.984      2.305
REMARK SMILES Cc1cc(C)c(NC(=O)C2(C)CCCC2)c(C(=O)NCCCCCCNC(=O)c2ccc(-c3c4nc(c(-c5cc(S(=O)(=O)[O-])ccc5F)c5ccc([nH]5)c(-c5cc(S(=O)(=O)[O-])ccc5F)c5nc(c(-c6cc(S(=O)(=O)[O-])ccc6F)c6ccc3[nH]6)C=C5)C=C4)cc2)c1
REMARK SMILES IDX 23 1 22 2 21 3 20 4 19 5 17 6 18 7 16 9 1 10 2 11 3 12 92 13
REMARK SMILES IDX 4 14 5 15 6 16 7 17 8 18 9 20 10 21 11 22 12 23 15 24 13 25
REMARK SMILES IDX 14 26 24 27 25 28 26 29 27 30 28 32 29 33 30 34 91 35 31 36
REMARK SMILES IDX 90 37 32 38 33 39 34 40 84 41 35 42 89 43 83 44 85 45 36 46
REMARK SMILES IDX 88 47 82 48 81 49 37 51 69 52 49 53 68 54 50 55 53 56 67 57
REMARK SMILES IDX 86 58 51 59 52 60 66 62 87 63 54 64 38 65 39 66 47 67 40 68
REMARK SMILES IDX 46 69 48 70 45 71 41 72 42 73 43 74 44 75 70 76 71 77 79 78
REMARK SMILES IDX 72 79 78 80 80 81 77 82 73 83 74 84 75 85 76 86 55 87 56 88
REMARK SMILES IDX 64 89 57 90 63 91 65 92 62 93 58 94 59 95 60 96 61 97
REMARK H PARENT 19 8 7 19 26 31 85 50 53 61
REMARK Flexibility Score: inf
ROOT
ATOM      1  C   UNL A   1      34.151  22.949  26.968  1.00  0.00     0.002 C 
ENDROOT
BRANCH   1   2
ATOM      2  C   UNL A   1      32.669  22.800  26.594  1.00  0.00     0.002 C 
BRANCH   2   3
ATOM      3  C   UNL A   1      31.785  24.010  26.935  1.00  0.00     0.021 C 
BRANCH   3   4
ATOM      4  C   UNL A   1      30.630  24.216  25.949  1.00  0.00     0.116 C 
BRANCH   4   5
ATOM      5  N   UNL A   1      31.107  24.326  24.582  1.00  0.00    -0.352 N 
ATOM      6  C   UNL A   1      30.946  25.211  23.546  1.00  0.00     0.253 C 
ATOM      7  O   UNL A   1      31.543  24.891  22.511  1.00  0.00    -0.269 OA
ATOM      8  H   UNL A   1      31.694  23.574  24.337  1.00  0.00     0.163 HD
BRANCH   6   9
ATOM      9  C   UNL A   1      30.104  26.465  23.546  1.00  0.00     0.063 A 
ATOM     10  C   UNL A   1      26.442  27.519  23.910  1.00  0.00     0.044 C 
ATOM     11  C   UNL A   1      27.918  27.579  23.644  1.00  0.00    -0.050 A 
ATOM     12  C   UNL A   1      28.513  28.768  23.244  1.00  0.00     0.009 A 
ATOM     13  C   UNL A   1      28.710  26.428  23.713  1.00  0.00     0.019 A 
ATOM     14  C   UNL A   1      29.889  28.822  22.959  1.00  0.00    -0.026 A 
ATOM     15  C   UNL A   1      30.309  29.875  21.961  1.00  0.00     0.046 C 
ATOM     16  C   UNL A   1      30.718  27.733  23.282  1.00  0.00     0.056 A 
BRANCH  16  17
ATOM     17  N   UNL A   1      32.123  27.816  23.162  1.00  0.00    -0.325 N 
ATOM     18  C   UNL A   1      33.165  28.162  23.973  1.00  0.00     0.230 C 
ATOM     19  H   UNL A   1      32.430  27.560  22.262  1.00  0.00     0.169 HD
ATOM     20  O   UNL A   1      34.129  28.695  23.402  1.00  0.00    -0.274 OA
BRANCH  18  21
ATOM     21  C   UNL A   1      33.316  27.687  25.460  1.00  0.00     0.047 C 
ATOM     22  C   UNL A   1      34.032  26.328  25.453  1.00  0.00     0.022 C 
ATOM     23  C   UNL A   1      34.191  28.720  26.227  1.00  0.00     0.016 C 
ATOM     24  C   UNL A   1      32.099  27.651  26.393  1.00  0.00     0.016 C 
ATOM     25  C   UNL A   1      33.206  29.816  26.614  1.00  0.00     0.001 C 
ATOM     26  C   UNL A   1      31.920  29.071  26.947  1.00  0.00     0.001 C 
ENDBRANCH  18  21
ENDBRANCH  16  17
ENDBRANCH   6   9
ENDBRANCH   4   5
ENDBRANCH   3   4
ENDBRANCH   2   3
ENDBRANCH   1   2
BRANCH   1  27
ATOM     27  C   UNL A   1      35.134  22.861  25.795  1.00  0.00     0.021 C 
BRANCH  27  28
ATOM     28  C   UNL A   1      36.480  23.531  26.053  1.00  0.00     0.116 C 
BRANCH  28  29
ATOM     29  N   UNL A   1      37.547  22.548  26.178  1.00  0.00    -0.352 N 
ATOM     30  C   UNL A   1      38.885  22.745  26.391  1.00  0.00     0.251 C 
ATOM     31  H   UNL A   1      37.266  21.608  26.096  1.00  0.00     0.163 HD
ATOM     32  O   UNL A   1      39.678  21.823  26.190  1.00  0.00    -0.269 OA
BRANCH  30  33
ATOM     33  C   UNL A   1      39.376  24.060  26.855  1.00  0.00     0.039 A 
ATOM     34  C   UNL A   1      39.963  24.934  25.937  1.00  0.00     0.014 A 
ATOM     35  C   UNL A   1      39.283  24.417  28.204  1.00  0.00     0.014 A 
ATOM     36  C   UNL A   1      40.411  26.187  26.361  1.00  0.00     0.010 A 
ATOM     37  C   UNL A   1      39.669  25.691  28.613  1.00  0.00     0.010 A 
ATOM     38  C   UNL A   1      40.244  26.585  27.698  1.00  0.00    -0.014 A 
BRANCH  38  39
ATOM     39  C   UNL A   1      40.684  27.925  28.164  1.00  0.00     0.031 A 
ATOM     40  C   UNL A   1      42.147  28.276  28.172  1.00  0.00     0.074 A 
ATOM     41  C   UNL A   1      39.773  28.796  28.640  1.00  0.00     0.049 A 
ATOM     42  N   UNL A   1      42.738  29.357  28.612  1.00  0.00    -0.248 NA
ATOM     43  C   UNL A   1      43.067  27.259  27.643  1.00  0.00     0.031 C 
ATOM     44  C   UNL A   1      38.331  28.552  28.719  1.00  0.00     0.029 A 
ATOM     45  N   UNL A   1      39.923  30.058  29.157  1.00  0.00    -0.354 N 
ATOM     46  C   UNL A   1      44.101  29.145  28.428  1.00  0.00     0.074 A 
ATOM     47  C   UNL A   1      44.246  27.806  27.897  1.00  0.00     0.031 C 
ATOM     48  C   UNL A   1      37.729  29.636  29.231  1.00  0.00     0.029 A 
ATOM     49  C   UNL A   1      38.741  30.636  29.557  1.00  0.00     0.049 A 
ATOM     50  H   UNL A   1      40.796  30.508  29.234  1.00  0.00     0.167 HD
ATOM     51  C   UNL A   1      45.131  29.997  28.657  1.00  0.00     0.034 A 
ATOM     52  C   UNL A   1      38.502  31.831  30.131  1.00  0.00     0.034 A 
ATOM     53  C   UNL A   1      44.963  31.332  29.177  1.00  0.00     0.049 A 
ATOM     54  C   UNL A   1      39.663  32.754  30.398  1.00  0.00     0.074 A 
ATOM     55  C   UNL A   1      45.926  32.302  29.395  1.00  0.00     0.029 A 
ATOM     56  N   UNL A   1      43.750  31.885  29.572  1.00  0.00    -0.354 N 
ATOM     57  N   UNL A   1      40.942  32.561  30.171  1.00  0.00    -0.248 NA
ATOM     58  C   UNL A   1      39.346  34.060  30.987  1.00  0.00     0.031 C 
ATOM     59  C   UNL A   1      45.307  33.412  29.983  1.00  0.00     0.029 A 
ATOM     60  C   UNL A   1      43.946  33.168  30.061  1.00  0.00     0.049 A 
ATOM     61  H   UNL A   1      42.878  31.431  29.511  1.00  0.00     0.167 HD
ATOM     62  C   UNL A   1      41.579  33.734  30.565  1.00  0.00     0.074 A 
ATOM     63  C   UNL A   1      40.541  34.632  31.030  1.00  0.00     0.031 C 
ATOM     64  C   UNL A   1      42.900  34.045  30.539  1.00  0.00     0.034 A 
BRANCH  51  65
ATOM     65  C   UNL A   1      46.527  29.489  28.372  1.00  0.00     0.023 A 
ATOM     66  C   UNL A   1      47.296  28.849  29.360  1.00  0.00     0.031 A 
ATOM     67  C   UNL A   1      47.115  29.687  27.110  1.00  0.00     0.131 A 
ATOM     68  C   UNL A   1      48.635  28.515  29.101  1.00  0.00     0.055 A 
ATOM     69  C   UNL A   1      48.418  29.271  26.831  1.00  0.00     0.041 A 
ATOM     70  F   UNL A   1      46.440  30.309  26.131  1.00  0.00    -0.206 F 
ATOM     71  C   UNL A   1      49.194  28.698  27.835  1.00  0.00     0.022 A 
BRANCH  68  72
ATOM     72  S   UNL A   1      49.680  27.997  30.491  1.00  0.00     0.124 S 
ATOM     73  O   UNL A   1      50.686  27.183  29.814  1.00  0.00    -0.237 OA
ATOM     74  O   UNL A   1      50.142  29.271  31.028  1.00  0.00    -0.237 OA
ATOM     75  O   UNL A   1      48.762  27.252  31.350  1.00  0.00    -0.744 OA
ENDBRANCH  68  72
ENDBRANCH  51  65
BRANCH  52  76
ATOM     76  C   UNL A   1      37.112  32.225  30.496  1.00  0.00     0.023 A 
ATOM     77  C   UNL A   1      36.257  32.813  29.551  1.00  0.00     0.031 A 
ATOM     78  C   UNL A   1      36.625  32.039  31.802  1.00  0.00     0.131 A 
ATOM     79  C   UNL A   1      34.974  33.231  29.934  1.00  0.00     0.055 A 
ATOM     80  C   UNL A   1      35.330  32.413  32.166  1.00  0.00     0.041 A 
ATOM     81  F   UNL A   1      37.399  31.472  32.741  1.00  0.00    -0.206 F 
ATOM     82  C   UNL A   1      34.500  33.024  31.231  1.00  0.00     0.022 A 
BRANCH  79  83
ATOM     83  S   UNL A   1      33.952  34.115  28.724  1.00  0.00     0.124 S 
ATOM     84  O   UNL A   1      34.864  35.158  28.269  1.00  0.00    -0.237 OA
ATOM     85  O   UNL A   1      33.647  33.063  27.760  1.00  0.00    -0.237 OA
ATOM     86  O   UNL A   1      32.814  34.581  29.515  1.00  0.00    -0.744 OA
ENDBRANCH  79  83
ENDBRANCH  52  76
BRANCH  64  87
ATOM     87  C   UNL A   1      43.285  35.431  30.995  1.00  0.00     0.023 A 
ATOM     88  C   UNL A   1      43.387  35.760  32.358  1.00  0.00     0.031 A 
ATOM     89  C   UNL A   1      43.537  36.441  30.050  1.00  0.00     0.131 A 
ATOM     90  C   UNL A   1      43.678  37.079  32.738  1.00  0.00     0.055 A 
ATOM     91  C   UNL A   1      43.886  37.736  30.433  1.00  0.00     0.041 A 
ATOM     92  F   UNL A   1      43.452  36.183  28.734  1.00  0.00    -0.206 F 
ATOM     93  C   UNL A   1      43.944  38.065  31.785  1.00  0.00     0.022 A 
BRANCH  90  94
ATOM     94  S   UNL A   1      43.613  37.512  34.498  1.00  0.00     0.124 S 
ATOM     95  O   UNL A   1      44.889  36.997  34.985  1.00  0.00    -0.237 OA
ATOM     96  O   UNL A   1      43.485  38.964  34.459  1.00  0.00    -0.237 OA
ATOM     97  O   UNL A   1      42.432  36.799  34.983  1.00  0.00    -0.744 OA
ENDBRANCH  90  94
ENDBRANCH  64  87
ENDBRANCH  38  39
ENDBRANCH  30  33
ENDBRANCH  28  29
ENDBRANCH  27  28
ENDBRANCH   1  27
TORSDOF 18
ENDMDL
