MODEL 1
REMARK VINA RESULT:     -12.3      0.000      0.000
REMARK SMILES COc1ccc2[nH]cc([C@H](C(=O)NCCCCCCNC(=O)c3ccc(-c4c5nc(c(-c6cc(S(=O)(=O)[O-])ccc6F)c6ccc([nH]6)c(-c6cc(S(=O)(=O)[O-])ccc6F)c6nc(c(-c7cc(S(=O)(=O)[O-])ccc7F)c7ccc4[nH]7)C=C6)C=C5)cc3)[NH+]3CC[NH+](Cc4cccc5ccccc45)CC3)c2c1
REMARK SMILES IDX 16 1 15 2 14 3 13 4 11 5 12 6 10 8 9 9 3 10 4 11 104 12 5 13
REMARK SMILES IDX 103 14 6 15 7 16 8 17 2 19 1 20 86 21 87 22 102 23 88 25
REMARK SMILES IDX 101 26 89 27 90 29 91 30 92 31 100 32 93 33 95 34 99 35
REMARK SMILES IDX 94 36 96 37 98 38 97 39 17 40 18 41 19 42 20 43 21 44 22 46
REMARK SMILES IDX 23 47 24 48 85 49 25 50 84 51 26 52 27 53 28 54 78 55 29 56
REMARK SMILES IDX 83 57 77 58 79 59 30 60 82 61 76 62 75 63 31 65 63 66 43 67
REMARK SMILES IDX 62 68 44 69 47 70 61 71 80 72 45 73 46 74 60 76 81 77 48 78
REMARK SMILES IDX 32 79 33 80 41 81 34 82 40 83 42 84 39 85 35 86 36 87 37 88
REMARK SMILES IDX 38 89 64 90 65 91 73 92 66 93 72 94 74 95 71 96 67 97 68 98
REMARK SMILES IDX 69 99 70 100 49 101 50 102 58 103 51 104 57 105 59 106
REMARK SMILES IDX 56 107 52 108 53 109 54 110 55 111
REMARK H PARENT 13 7 7 18 86 24 89 28 20 45 79 64 47 75
REMARK Flexibility Score: inf
ROOT
ATOM      1  C   UNL A   1      39.571  22.626  26.721  1.00  0.00     0.002 C 
ENDROOT
BRANCH   1   2
ATOM      2  C   UNL A   1      38.556  21.832  25.882  1.00  0.00     0.021 C 
BRANCH   2   3
ATOM      3  C   UNL A   1      37.317  22.604  25.367  1.00  0.00     0.116 C 
BRANCH   3   4
ATOM      4  N   UNL A   1      36.104  22.484  26.166  1.00  0.00    -0.351 N 
ATOM      5  C   UNL A   1      34.807  22.138  25.862  1.00  0.00     0.283 C 
ATOM      6  O   UNL A   1      34.243  21.561  26.796  1.00  0.00    -0.268 OA
ATOM      7  H   UNL A   1      36.241  22.694  27.118  1.00  0.00     0.163 HD
BRANCH   5   8
ATOM      8  C   UNL A   1      34.135  22.441  24.478  1.00  0.00     0.308 C 
BRANCH   8   9
ATOM      9  C   UNL A   1      33.413  21.292  23.768  1.00  0.00     0.045 A 
ATOM     10  C   UNL A   1      34.367  17.608  24.381  1.00  0.00     0.119 A 
ATOM     11  C   UNL A   1      33.339  17.047  23.638  1.00  0.00     0.048 A 
ATOM     12  C   UNL A   1      34.463  18.991  24.552  1.00  0.00     0.057 A 
ATOM     13  C   UNL A   1      32.410  17.866  22.996  1.00  0.00     0.030 A 
ATOM     14  C   UNL A   1      33.583  19.857  23.863  1.00  0.00     0.013 A 
ATOM     15  C   UNL A   1      32.568  19.256  23.108  1.00  0.00     0.046 A 
ATOM     16  N   UNL A   1      31.805  20.266  22.580  1.00  0.00    -0.361 N 
ATOM     17  C   UNL A   1      32.303  21.482  22.953  1.00  0.00     0.094 A 
ATOM     18  H   UNL A   1      31.012  20.133  22.012  1.00  0.00     0.166 HD
BRANCH  10  19
ATOM     19  O   UNL A   1      35.295  16.821  25.012  1.00  0.00    -0.497 OA
ATOM     20  C   UNL A   1      34.731  15.542  25.314  1.00  0.00     0.278 C 
ENDBRANCH  10  19
ENDBRANCH   8   9
BRANCH   8  21
ATOM     21  N   UNL A   1      33.243  23.603  24.516  1.00  0.00    -0.312 N 
ATOM     22  C   UNL A   1      32.820  24.423  23.390  1.00  0.00     0.325 C 
ATOM     23  C   UNL A   1      32.437  23.798  25.683  1.00  0.00     0.325 C 
ATOM     24  H   UNL A   1      34.194  23.966  24.454  1.00  0.00     0.349 HD
ATOM     25  C   UNL A   1      31.288  24.781  23.301  1.00  0.00     0.324 C 
ATOM     26  C   UNL A   1      30.957  23.545  25.352  1.00  0.00     0.324 C 
ATOM     27  N   UNL A   1      30.401  24.561  24.458  1.00  0.00    -0.322 N 
ATOM     28  H   UNL A   1      29.541  24.201  24.044  1.00  0.00     0.348 HD
BRANCH  27  29
ATOM     29  C   UNL A   1      29.858  25.746  25.154  1.00  0.00     0.300 C 
BRANCH  29  30
ATOM     30  C   UNL A   1      30.310  27.107  24.634  1.00  0.00     0.014 A 
ATOM     31  C   UNL A   1      29.610  27.664  23.538  1.00  0.00     0.010 A 
ATOM     32  C   UNL A   1      31.240  27.910  25.346  1.00  0.00    -0.010 A 
ATOM     33  C   UNL A   1      29.703  29.022  23.247  1.00  0.00     0.001 A 
ATOM     34  C   UNL A   1      31.281  29.302  25.078  1.00  0.00    -0.018 A 
ATOM     35  C   UNL A   1      32.099  27.404  26.345  1.00  0.00     0.009 A 
ATOM     36  C   UNL A   1      30.503  29.841  24.040  1.00  0.00     0.009 A 
ATOM     37  C   UNL A   1      32.072  30.139  25.879  1.00  0.00     0.009 A 
ATOM     38  C   UNL A   1      32.908  28.244  27.108  1.00  0.00     0.001 A 
ATOM     39  C   UNL A   1      32.872  29.615  26.895  1.00  0.00     0.001 A 
ENDBRANCH  29  30
ENDBRANCH  27  29
ENDBRANCH   8  21
ENDBRANCH   5   8
ENDBRANCH   3   4
ENDBRANCH   2   3
ENDBRANCH   1   2
BRANCH   1  40
ATOM     40  C   UNL A   1      40.876  21.874  27.018  1.00  0.00     0.002 C 
BRANCH  40  41
ATOM     41  C   UNL A   1      40.961  20.427  26.518  1.00  0.00     0.021 C 
BRANCH  41  42
ATOM     42  C   UNL A   1      42.217  19.670  26.945  1.00  0.00     0.116 C 
BRANCH  42  43
ATOM     43  N   UNL A   1      43.004  19.241  25.799  1.00  0.00    -0.352 N 
ATOM     44  C   UNL A   1      43.787  19.997  24.954  1.00  0.00     0.251 C 
ATOM     45  H   UNL A   1      42.972  18.278  25.598  1.00  0.00     0.163 HD
ATOM     46  O   UNL A   1      44.166  19.532  23.885  1.00  0.00    -0.269 OA
BRANCH  44  47
ATOM     47  C   UNL A   1      44.158  21.378  25.338  1.00  0.00     0.039 A 
ATOM     48  C   UNL A   1      43.552  22.458  24.692  1.00  0.00     0.014 A 
ATOM     49  C   UNL A   1      45.121  21.601  26.326  1.00  0.00     0.014 A 
ATOM     50  C   UNL A   1      43.862  23.765  25.087  1.00  0.00     0.010 A 
ATOM     51  C   UNL A   1      45.386  22.900  26.755  1.00  0.00     0.010 A 
ATOM     52  C   UNL A   1      44.758  23.996  26.143  1.00  0.00    -0.014 A 
BRANCH  52  53
ATOM     53  C   UNL A   1      45.058  25.373  26.620  1.00  0.00     0.031 A 
ATOM     54  C   UNL A   1      43.954  26.241  27.159  1.00  0.00     0.074 A 
ATOM     55  C   UNL A   1      46.307  25.868  26.498  1.00  0.00     0.049 A 
ATOM     56  N   UNL A   1      43.989  27.497  27.528  1.00  0.00    -0.248 NA
ATOM     57  C   UNL A   1      42.627  25.619  27.270  1.00  0.00     0.031 C 
ATOM     58  C   UNL A   1      47.456  25.136  25.962  1.00  0.00     0.029 A 
ATOM     59  N   UNL A   1      46.814  27.106  26.802  1.00  0.00    -0.354 N 
ATOM     60  C   UNL A   1      42.690  27.821  27.902  1.00  0.00     0.074 A 
ATOM     61  C   UNL A   1      41.881  26.642  27.659  1.00  0.00     0.031 C 
ATOM     62  C   UNL A   1      48.536  25.935  25.988  1.00  0.00     0.029 A 
ATOM     63  C   UNL A   1      48.150  27.247  26.499  1.00  0.00     0.049 A 
ATOM     64  H   UNL A   1      46.274  27.828  27.200  1.00  0.00     0.167 HD
ATOM     65  C   UNL A   1      42.217  28.983  28.419  1.00  0.00     0.034 A 
ATOM     66  C   UNL A   1      48.966  28.315  26.604  1.00  0.00     0.034 A 
ATOM     67  C   UNL A   1      43.037  30.146  28.663  1.00  0.00     0.049 A 
ATOM     68  C   UNL A   1      48.414  29.608  27.149  1.00  0.00     0.074 A 
ATOM     69  C   UNL A   1      42.675  31.352  29.235  1.00  0.00     0.029 A 
ATOM     70  N   UNL A   1      44.384  30.250  28.339  1.00  0.00    -0.354 N 
ATOM     71  N   UNL A   1      47.191  29.883  27.542  1.00  0.00    -0.248 NA
ATOM     72  C   UNL A   1      49.353  30.730  27.272  1.00  0.00     0.031 C 
ATOM     73  C   UNL A   1      43.782  32.207  29.198  1.00  0.00     0.029 A 
ATOM     74  C   UNL A   1      44.858  31.511  28.670  1.00  0.00     0.049 A 
ATOM     75  H   UNL A   1      44.924  29.534  27.935  1.00  0.00     0.167 HD
ATOM     76  C   UNL A   1      47.223  31.203  27.984  1.00  0.00     0.074 A 
ATOM     77  C   UNL A   1      48.587  31.662  27.820  1.00  0.00     0.031 C 
ATOM     78  C   UNL A   1      46.217  31.963  28.486  1.00  0.00     0.034 A 
BRANCH  65  79
ATOM     79  C   UNL A   1      40.740  29.054  28.726  1.00  0.00     0.023 A 
ATOM     80  C   UNL A   1      40.257  28.996  30.045  1.00  0.00     0.031 A 
ATOM     81  C   UNL A   1      39.797  29.144  27.685  1.00  0.00     0.131 A 
ATOM     82  C   UNL A   1      38.876  28.945  30.286  1.00  0.00     0.055 A 
ATOM     83  C   UNL A   1      38.424  29.178  27.937  1.00  0.00     0.041 A 
ATOM     84  F   UNL A   1      40.196  29.184  26.404  1.00  0.00    -0.206 F 
ATOM     85  C   UNL A   1      37.955  29.060  29.242  1.00  0.00     0.022 A 
BRANCH  82  86
ATOM     86  S   UNL A   1      38.304  28.572  31.966  1.00  0.00     0.124 S 
ATOM     87  O   UNL A   1      38.447  27.118  32.009  1.00  0.00    -0.237 OA
ATOM     88  O   UNL A   1      39.235  29.331  32.792  1.00  0.00    -0.237 OA
ATOM     89  O   UNL A   1      36.925  29.056  31.974  1.00  0.00    -0.744 OA
ENDBRANCH  82  86
ENDBRANCH  65  79
BRANCH  66  90
ATOM     90  C   UNL A   1      50.390  28.220  26.174  1.00  0.00     0.023 A 
ATOM     91  C   UNL A   1      50.754  28.408  24.832  1.00  0.00     0.031 A 
ATOM     92  C   UNL A   1      51.406  27.906  27.096  1.00  0.00     0.131 A 
ATOM     93  C   UNL A   1      52.091  28.239  24.440  1.00  0.00     0.055 A 
ATOM     94  C   UNL A   1      52.741  27.786  26.709  1.00  0.00     0.041 A 
ATOM     95  F   UNL A   1      51.112  27.722  28.393  1.00  0.00    -0.206 F 
ATOM     96  C   UNL A   1      53.089  27.941  25.370  1.00  0.00     0.022 A 
BRANCH  93  97
ATOM     97  S   UNL A   1      52.498  28.343  22.675  1.00  0.00     0.124 S 
ATOM     98  O   UNL A   1      51.260  27.886  22.056  1.00  0.00    -0.237 OA
ATOM     99  O   UNL A   1      52.808  29.761  22.521  1.00  0.00    -0.237 OA
ATOM    100  O   UNL A   1      53.638  27.440  22.535  1.00  0.00    -0.744 OA
ENDBRANCH  93  97
ENDBRANCH  66  90
BRANCH  78 101
ATOM    101  C   UNL A   1      46.572  33.360  28.931  1.00  0.00     0.023 A 
ATOM    102  C   UNL A   1      46.469  34.462  28.063  1.00  0.00     0.031 A 
ATOM    103  C   UNL A   1      47.027  33.590  30.241  1.00  0.00     0.131 A 
ATOM    104  C   UNL A   1      46.862  35.736  28.501  1.00  0.00     0.055 A 
ATOM    105  C   UNL A   1      47.364  34.868  30.689  1.00  0.00     0.041 A 
ATOM    106  F   UNL A   1      47.148  32.574  31.111  1.00  0.00    -0.206 F 
ATOM    107  C   UNL A   1      47.293  35.948  29.814  1.00  0.00     0.022 A 
BRANCH 104 108
ATOM    108  S   UNL A   1      46.875  37.102  27.310  1.00  0.00     0.124 S 
ATOM    109  O   UNL A   1      46.685  36.402  26.044  1.00  0.00    -0.237 OA
ATOM    110  O   UNL A   1      45.755  37.922  27.759  1.00  0.00    -0.237 OA
ATOM    111  O   UNL A   1      48.194  37.706  27.493  1.00  0.00    -0.744 OA
ENDBRANCH 104 108
ENDBRANCH  78 101
ENDBRANCH  52  53
ENDBRANCH  44  47
ENDBRANCH  42  43
ENDBRANCH  41  42
ENDBRANCH  40  41
ENDBRANCH   1  40
TORSDOF 21
ENDMDL
MODEL 2
REMARK VINA RESULT:     -12.1      1.174      7.303
REMARK SMILES COc1ccc2[nH]cc([C@H](C(=O)NCCCCCCNC(=O)c3ccc(-c4c5nc(c(-c6cc(S(=O)(=O)[O-])ccc6F)c6ccc([nH]6)c(-c6cc(S(=O)(=O)[O-])ccc6F)c6nc(c(-c7cc(S(=O)(=O)[O-])ccc7F)c7ccc4[nH]7)C=C6)C=C5)cc3)[NH+]3CC[NH+](Cc4cccc5ccccc45)CC3)c2c1
REMARK SMILES IDX 16 1 15 2 14 3 13 4 11 5 12 6 10 8 9 9 3 10 4 11 104 12 5 13
REMARK SMILES IDX 103 14 6 15 7 16 8 17 2 19 1 20 86 21 87 22 102 23 88 25
REMARK SMILES IDX 101 26 89 27 90 29 91 30 92 31 100 32 93 33 95 34 99 35
REMARK SMILES IDX 94 36 96 37 98 38 97 39 17 40 18 41 19 42 20 43 21 44 22 46
REMARK SMILES IDX 23 47 24 48 85 49 25 50 84 51 26 52 27 53 28 54 78 55 29 56
REMARK SMILES IDX 83 57 77 58 79 59 30 60 82 61 76 62 75 63 31 65 63 66 43 67
REMARK SMILES IDX 62 68 44 69 47 70 61 71 80 72 45 73 46 74 60 76 81 77 48 78
REMARK SMILES IDX 32 79 33 80 41 81 34 82 40 83 42 84 39 85 35 86 36 87 37 88
REMARK SMILES IDX 38 89 64 90 65 91 73 92 66 93 72 94 74 95 71 96 67 97 68 98
REMARK SMILES IDX 69 99 70 100 49 101 50 102 58 103 51 104 57 105 59 106
REMARK SMILES IDX 56 107 52 108 53 109 54 110 55 111
REMARK H PARENT 13 7 7 18 86 24 89 28 20 45 79 64 47 75
REMARK Flexibility Score: inf
ROOT
ATOM      1  C   UNL A   1      39.015  21.923  26.157  1.00  0.00     0.002 C 
ENDROOT
BRANCH   1   2
ATOM      2  C   UNL A   1      38.339  20.778  25.385  1.00  0.00     0.021 C 
BRANCH   2   3
ATOM      3  C   UNL A   1      37.189  21.165  24.425  1.00  0.00     0.116 C 
BRANCH   3   4
ATOM      4  N   UNL A   1      36.848  22.581  24.364  1.00  0.00    -0.351 N 
ATOM      5  C   UNL A   1      35.679  23.278  24.569  1.00  0.00     0.283 C 
ATOM      6  O   UNL A   1      35.878  24.405  25.032  1.00  0.00    -0.268 OA
ATOM      7  H   UNL A   1      37.611  23.157  24.127  1.00  0.00     0.163 HD
BRANCH   5   8
ATOM      8  C   UNL A   1      34.258  22.692  24.255  1.00  0.00     0.308 C 
BRANCH   8   9
ATOM      9  C   UNL A   1      33.775  21.504  25.092  1.00  0.00     0.045 A 
ATOM     10  C   UNL A   1      32.538  18.239  23.458  1.00  0.00     0.119 A 
ATOM     11  C   UNL A   1      32.390  17.515  24.632  1.00  0.00     0.048 A 
ATOM     12  C   UNL A   1      33.045  19.541  23.472  1.00  0.00     0.057 A 
ATOM     13  C   UNL A   1      32.693  18.102  25.861  1.00  0.00     0.030 A 
ATOM     14  C   UNL A   1      33.300  20.193  24.700  1.00  0.00     0.013 A 
ATOM     15  C   UNL A   1      33.123  19.437  25.865  1.00  0.00     0.046 A 
ATOM     16  N   UNL A   1      33.478  20.236  26.923  1.00  0.00    -0.361 N 
ATOM     17  C   UNL A   1      33.855  21.471  26.480  1.00  0.00     0.094 A 
ATOM     18  H   UNL A   1      33.462  19.958  27.867  1.00  0.00     0.166 HD
BRANCH  10  19
ATOM     19  O   UNL A   1      32.236  17.684  22.242  1.00  0.00    -0.497 OA
ATOM     20  C   UNL A   1      32.079  18.710  21.259  1.00  0.00     0.278 C 
ENDBRANCH  10  19
ENDBRANCH   8   9
BRANCH   8  21
ATOM     21  N   UNL A   1      33.208  23.713  24.240  1.00  0.00    -0.312 N 
ATOM     22  C   UNL A   1      32.430  24.156  23.092  1.00  0.00     0.325 C 
ATOM     23  C   UNL A   1      32.637  24.114  25.490  1.00  0.00     0.325 C 
ATOM     24  H   UNL A   1      34.050  24.153  23.869  1.00  0.00     0.349 HD
ATOM     25  C   UNL A   1      30.874  24.300  23.296  1.00  0.00     0.324 C 
ATOM     26  C   UNL A   1      31.186  23.615  25.593  1.00  0.00     0.324 C 
ATOM     27  N   UNL A   1      30.293  24.291  24.651  1.00  0.00    -0.322 N 
ATOM     28  H   UNL A   1      29.441  23.740  24.550  1.00  0.00     0.348 HD
BRANCH  27  29
ATOM     29  C   UNL A   1      29.710  25.547  25.167  1.00  0.00     0.300 C 
BRANCH  29  30
ATOM     30  C   UNL A   1      30.265  26.844  24.586  1.00  0.00     0.014 A 
ATOM     31  C   UNL A   1      29.795  27.257  23.317  1.00  0.00     0.010 A 
ATOM     32  C   UNL A   1      31.044  27.739  25.364  1.00  0.00    -0.010 A 
ATOM     33  C   UNL A   1      29.953  28.572  22.890  1.00  0.00     0.001 A 
ATOM     34  C   UNL A   1      31.147  29.090  24.946  1.00  0.00    -0.018 A 
ATOM     35  C   UNL A   1      31.690  27.369  26.563  1.00  0.00     0.009 A 
ATOM     36  C   UNL A   1      30.590  29.491  23.720  1.00  0.00     0.009 A 
ATOM     37  C   UNL A   1      31.774  30.029  25.780  1.00  0.00     0.009 A 
ATOM     38  C   UNL A   1      32.342  28.306  27.363  1.00  0.00     0.001 A 
ATOM     39  C   UNL A   1      32.358  29.641  26.986  1.00  0.00     0.001 A 
ENDBRANCH  29  30
ENDBRANCH  27  29
ENDBRANCH   8  21
ENDBRANCH   5   8
ENDBRANCH   3   4
ENDBRANCH   2   3
ENDBRANCH   1   2
BRANCH   1  40
ATOM     40  C   UNL A   1      40.345  21.542  26.823  1.00  0.00     0.002 C 
BRANCH  40  41
ATOM     41  C   UNL A   1      41.429  20.964  25.905  1.00  0.00     0.021 C 
BRANCH  41  42
ATOM     42  C   UNL A   1      42.304  19.885  26.540  1.00  0.00     0.116 C 
BRANCH  42  43
ATOM     43  N   UNL A   1      43.369  19.459  25.646  1.00  0.00    -0.352 N 
ATOM     44  C   UNL A   1      44.307  20.227  24.989  1.00  0.00     0.251 C 
ATOM     45  H   UNL A   1      43.429  18.490  25.488  1.00  0.00     0.163 HD
ATOM     46  O   UNL A   1      44.960  19.745  24.069  1.00  0.00    -0.269 OA
BRANCH  44  47
ATOM     47  C   UNL A   1      44.511  21.637  25.388  1.00  0.00     0.039 A 
ATOM     48  C   UNL A   1      44.226  22.658  24.479  1.00  0.00     0.014 A 
ATOM     49  C   UNL A   1      45.002  21.946  26.660  1.00  0.00     0.014 A 
ATOM     50  C   UNL A   1      44.369  23.995  24.869  1.00  0.00     0.010 A 
ATOM     51  C   UNL A   1      45.090  23.277  27.065  1.00  0.00     0.010 A 
ATOM     52  C   UNL A   1      44.772  24.315  26.176  1.00  0.00    -0.014 A 
BRANCH  52  53
ATOM     53  C   UNL A   1      44.874  25.728  26.633  1.00  0.00     0.031 A 
ATOM     54  C   UNL A   1      46.204  26.430  26.618  1.00  0.00     0.074 A 
ATOM     55  C   UNL A   1      43.788  26.351  27.133  1.00  0.00     0.049 A 
ATOM     56  N   UNL A   1      46.522  27.618  27.068  1.00  0.00    -0.248 NA
ATOM     57  C   UNL A   1      47.334  25.683  26.046  1.00  0.00     0.031 C 
ATOM     58  C   UNL A   1      42.449  25.766  27.230  1.00  0.00     0.029 A 
ATOM     59  N   UNL A   1      43.640  27.608  27.665  1.00  0.00    -0.354 N 
ATOM     60  C   UNL A   1      47.888  27.757  26.846  1.00  0.00     0.074 A 
ATOM     61  C   UNL A   1      48.345  26.506  26.273  1.00  0.00     0.031 C 
ATOM     62  C   UNL A   1      41.616  26.667  27.776  1.00  0.00     0.029 A 
ATOM     63  C   UNL A   1      42.365  27.875  28.108  1.00  0.00     0.049 A 
ATOM     64  H   UNL A   1      44.378  28.257  27.725  1.00  0.00     0.167 HD
ATOM     65  C   UNL A   1      48.683  28.832  27.077  1.00  0.00     0.034 A 
ATOM     66  C   UNL A   1      41.860  28.962  28.725  1.00  0.00     0.034 A 
ATOM     67  C   UNL A   1      48.210  30.074  27.640  1.00  0.00     0.049 A 
ATOM     68  C   UNL A   1      42.768  30.133  29.005  1.00  0.00     0.074 A 
ATOM     69  C   UNL A   1      48.915  31.244  27.863  1.00  0.00     0.029 A 
ATOM     70  N   UNL A   1      46.912  30.305  28.079  1.00  0.00    -0.354 N 
ATOM     71  N   UNL A   1      44.048  30.265  28.746  1.00  0.00    -0.248 NA
ATOM     72  C   UNL A   1      42.159  31.303  29.652  1.00  0.00     0.031 C 
ATOM     73  C   UNL A   1      48.063  32.158  28.495  1.00  0.00     0.029 A 
ATOM     74  C   UNL A   1      46.806  31.586  28.600  1.00  0.00     0.049 A 
ATOM     75  H   UNL A   1      46.176  29.655  28.027  1.00  0.00     0.167 HD
ATOM     76  C   UNL A   1      44.391  31.545  29.174  1.00  0.00     0.074 A 
ATOM     77  C   UNL A   1      43.181  32.146  29.696  1.00  0.00     0.031 C 
ATOM     78  C   UNL A   1      45.596  32.168  29.133  1.00  0.00     0.034 A 
BRANCH  65  79
ATOM     79  C   UNL A   1      50.149  28.693  26.744  1.00  0.00     0.023 A 
ATOM     80  C   UNL A   1      50.650  29.010  25.469  1.00  0.00     0.031 A 
ATOM     81  C   UNL A   1      51.056  28.202  27.701  1.00  0.00     0.131 A 
ATOM     82  C   UNL A   1      51.994  28.756  25.159  1.00  0.00     0.055 A 
ATOM     83  C   UNL A   1      52.412  28.031  27.412  1.00  0.00     0.041 A 
ATOM     84  F   UNL A   1      50.636  27.865  28.931  1.00  0.00    -0.206 F 
ATOM     85  C   UNL A   1      52.885  28.291  26.129  1.00  0.00     0.022 A 
BRANCH  82  86
ATOM     86  S   UNL A   1      52.524  28.897  23.430  1.00  0.00     0.124 S 
ATOM     87  O   UNL A   1      51.695  30.002  22.957  1.00  0.00    -0.237 OA
ATOM     88  O   UNL A   1      53.949  29.176  23.559  1.00  0.00    -0.237 OA
ATOM     89  O   UNL A   1      52.192  27.591  22.863  1.00  0.00    -0.744 OA
ENDBRANCH  82  86
ENDBRANCH  65  79
BRANCH  66  90
ATOM     90  C   UNL A   1      40.428  28.997  29.138  1.00  0.00     0.023 A 
ATOM     91  C   UNL A   1      40.061  28.871  30.487  1.00  0.00     0.031 A 
ATOM     92  C   UNL A   1      39.402  29.122  28.184  1.00  0.00     0.131 A 
ATOM     93  C   UNL A   1      38.704  28.831  30.842  1.00  0.00     0.055 A 
ATOM     94  C   UNL A   1      38.054  29.130  28.547  1.00  0.00     0.041 A 
ATOM     95  F   UNL A   1      39.698  29.252  26.881  1.00  0.00    -0.206 F 
ATOM     96  C   UNL A   1      37.698  28.972  29.883  1.00  0.00     0.022 A 
BRANCH  93  97
ATOM     97  S   UNL A   1      38.268  28.518  32.575  1.00  0.00     0.124 S 
ATOM     98  O   UNL A   1      39.435  29.044  33.274  1.00  0.00    -0.237 OA
ATOM     99  O   UNL A   1      37.034  29.285  32.718  1.00  0.00    -0.237 OA
ATOM    100  O   UNL A   1      38.107  27.067  32.629  1.00  0.00    -0.744 OA
ENDBRANCH  93  97
ENDBRANCH  66  90
BRANCH  78 101
ATOM    101  C   UNL A   1      45.648  33.591  29.634  1.00  0.00     0.023 A 
ATOM    102  C   UNL A   1      45.355  34.681  28.797  1.00  0.00     0.031 A 
ATOM    103  C   UNL A   1      46.005  33.857  30.968  1.00  0.00     0.131 A 
ATOM    104  C   UNL A   1      45.471  35.990  29.288  1.00  0.00     0.055 A 
ATOM    105  C   UNL A   1      46.064  35.159  31.467  1.00  0.00     0.041 A 
ATOM    106  F   UNL A   1      46.298  32.853  31.810  1.00  0.00    -0.206 F 
ATOM    107  C   UNL A   1      45.807  36.235  30.622  1.00  0.00     0.022 A 
BRANCH 104 108
ATOM    108  S   UNL A   1      45.249  37.376  28.140  1.00  0.00     0.124 S 
ATOM    109  O   UNL A   1      45.822  38.487  28.891  1.00  0.00    -0.237 OA
ATOM    110  O   UNL A   1      46.004  36.939  26.970  1.00  0.00    -0.237 OA
ATOM    111  O   UNL A   1      43.799  37.437  27.952  1.00  0.00    -0.744 OA
ENDBRANCH 104 108
ENDBRANCH  78 101
ENDBRANCH  52  53
ENDBRANCH  44  47
ENDBRANCH  42  43
ENDBRANCH  41  42
ENDBRANCH  40  41
ENDBRANCH   1  40
TORSDOF 21
ENDMDL
MODEL 3
REMARK VINA RESULT:     -12.1      2.802      6.095
REMARK SMILES COc1ccc2[nH]cc([C@H](C(=O)NCCCCCCNC(=O)c3ccc(-c4c5nc(c(-c6cc(S(=O)(=O)[O-])ccc6F)c6ccc([nH]6)c(-c6cc(S(=O)(=O)[O-])ccc6F)c6nc(c(-c7cc(S(=O)(=O)[O-])ccc7F)c7ccc4[nH]7)C=C6)C=C5)cc3)[NH+]3CC[NH+](Cc4cccc5ccccc45)CC3)c2c1
REMARK SMILES IDX 16 1 15 2 14 3 13 4 11 5 12 6 10 8 9 9 3 10 4 11 104 12 5 13
REMARK SMILES IDX 103 14 6 15 7 16 8 17 2 19 1 20 86 21 87 22 102 23 88 25
REMARK SMILES IDX 101 26 89 27 90 29 91 30 92 31 100 32 93 33 95 34 99 35
REMARK SMILES IDX 94 36 96 37 98 38 97 39 17 40 18 41 19 42 20 43 21 44 22 46
REMARK SMILES IDX 23 47 24 48 85 49 25 50 84 51 26 52 27 53 28 54 78 55 29 56
REMARK SMILES IDX 83 57 77 58 79 59 30 60 82 61 76 62 75 63 31 65 63 66 43 67
REMARK SMILES IDX 62 68 44 69 47 70 61 71 80 72 45 73 46 74 60 76 81 77 48 78
REMARK SMILES IDX 32 79 33 80 41 81 34 82 40 83 42 84 39 85 35 86 36 87 37 88
REMARK SMILES IDX 38 89 64 90 65 91 73 92 66 93 72 94 74 95 71 96 67 97 68 98
REMARK SMILES IDX 69 99 70 100 49 101 50 102 58 103 51 104 57 105 59 106
REMARK SMILES IDX 56 107 52 108 53 109 54 110 55 111
REMARK H PARENT 13 7 7 18 86 24 89 28 20 45 79 64 47 75
REMARK Flexibility Score: inf
ROOT
ATOM      1  C   UNL A   1      35.970  23.791  24.686  1.00  0.00     0.002 C 
ENDROOT
BRANCH   1   2
ATOM      2  C   UNL A   1      35.305  24.833  25.600  1.00  0.00     0.021 C 
BRANCH   2   3
ATOM      3  C   UNL A   1      34.478  25.943  24.909  1.00  0.00     0.116 C 
BRANCH   3   4
ATOM      4  N   UNL A   1      34.008  27.025  25.765  1.00  0.00    -0.351 N 
ATOM      5  C   UNL A   1      32.759  27.406  26.201  1.00  0.00     0.283 C 
ATOM      6  O   UNL A   1      32.789  27.916  27.325  1.00  0.00    -0.268 OA
ATOM      7  H   UNL A   1      34.733  27.602  26.100  1.00  0.00     0.163 HD
BRANCH   5   8
ATOM      8  C   UNL A   1      31.452  27.204  25.359  1.00  0.00     0.308 C 
BRANCH   8   9
ATOM      9  C   UNL A   1      31.283  28.043  24.090  1.00  0.00     0.045 A 
ATOM     10  C   UNL A   1      27.806  29.105  22.806  1.00  0.00     0.119 A 
ATOM     11  C   UNL A   1      28.254  29.926  21.781  1.00  0.00     0.048 A 
ATOM     12  C   UNL A   1      28.704  28.479  23.675  1.00  0.00     0.057 A 
ATOM     13  C   UNL A   1      29.622  30.094  21.564  1.00  0.00     0.030 A 
ATOM     14  C   UNL A   1      30.096  28.570  23.447  1.00  0.00     0.013 A 
ATOM     15  C   UNL A   1      30.512  29.393  22.393  1.00  0.00     0.046 A 
ATOM     16  N   UNL A   1      31.884  29.383  22.389  1.00  0.00    -0.361 N 
ATOM     17  C   UNL A   1      32.356  28.575  23.383  1.00  0.00     0.094 A 
ATOM     18  H   UNL A   1      32.447  29.886  21.757  1.00  0.00     0.166 HD
BRANCH  10  19
ATOM     19  O   UNL A   1      26.467  28.919  23.030  1.00  0.00    -0.497 OA
ATOM     20  C   UNL A   1      26.261  27.769  23.852  1.00  0.00     0.278 C 
ENDBRANCH  10  19
ENDBRANCH   8   9
BRANCH   8  21
ATOM     21  N   UNL A   1      31.194  25.799  25.031  1.00  0.00    -0.312 N 
ATOM     22  C   UNL A   1      31.422  25.141  23.752  1.00  0.00     0.325 C 
ATOM     23  C   UNL A   1      31.006  24.877  26.109  1.00  0.00     0.325 C 
ATOM     24  H   UNL A   1      30.420  26.338  24.643  1.00  0.00     0.349 HD
ATOM     25  C   UNL A   1      32.133  23.735  23.788  1.00  0.00     0.324 C 
ATOM     26  C   UNL A   1      32.202  23.915  26.198  1.00  0.00     0.324 C 
ATOM     27  N   UNL A   1      32.271  23.000  25.059  1.00  0.00    -0.322 N 
ATOM     28  H   UNL A   1      33.209  22.601  25.012  1.00  0.00     0.348 HD
BRANCH  27  29
ATOM     29  C   UNL A   1      31.489  21.758  25.233  1.00  0.00     0.300 C 
BRANCH  29  30
ATOM     30  C   UNL A   1      32.211  20.450  24.924  1.00  0.00     0.014 A 
ATOM     31  C   UNL A   1      32.645  19.659  26.013  1.00  0.00     0.010 A 
ATOM     32  C   UNL A   1      32.252  19.910  23.612  1.00  0.00    -0.010 A 
ATOM     33  C   UNL A   1      32.964  18.316  25.838  1.00  0.00     0.001 A 
ATOM     34  C   UNL A   1      32.521  18.526  23.455  1.00  0.00    -0.018 A 
ATOM     35  C   UNL A   1      31.993  20.667  22.450  1.00  0.00     0.009 A 
ATOM     36  C   UNL A   1      32.863  17.745  24.572  1.00  0.00     0.009 A 
ATOM     37  C   UNL A   1      32.407  17.937  22.186  1.00  0.00     0.009 A 
ATOM     38  C   UNL A   1      31.920  20.075  21.190  1.00  0.00     0.001 A 
ATOM     39  C   UNL A   1      32.098  18.705  21.063  1.00  0.00     0.001 A 
ENDBRANCH  29  30
ENDBRANCH  27  29
ENDBRANCH   8  21
ENDBRANCH   5   8
ENDBRANCH   3   4
ENDBRANCH   2   3
ENDBRANCH   1   2
BRANCH   1  40
ATOM     40  C   UNL A   1      35.330  22.396  24.742  1.00  0.00     0.002 C 
BRANCH  40  41
ATOM     41  C   UNL A   1      36.278  21.218  25.001  1.00  0.00     0.021 C 
BRANCH  41  42
ATOM     42  C   UNL A   1      37.759  21.587  25.074  1.00  0.00     0.116 C 
BRANCH  42  43
ATOM     43  N   UNL A   1      38.545  20.536  25.703  1.00  0.00    -0.352 N 
ATOM     44  C   UNL A   1      39.754  20.633  26.359  1.00  0.00     0.251 C 
ATOM     45  H   UNL A   1      38.162  19.631  25.652  1.00  0.00     0.163 HD
ATOM     46  O   UNL A   1      40.409  19.624  26.593  1.00  0.00    -0.269 OA
BRANCH  44  47
ATOM     47  C   UNL A   1      40.263  21.962  26.766  1.00  0.00     0.039 A 
ATOM     48  C   UNL A   1      41.182  22.055  27.813  1.00  0.00     0.014 A 
ATOM     49  C   UNL A   1      39.815  23.117  26.119  1.00  0.00     0.014 A 
ATOM     50  C   UNL A   1      41.704  23.305  28.168  1.00  0.00     0.010 A 
ATOM     51  C   UNL A   1      40.378  24.352  26.436  1.00  0.00     0.010 A 
ATOM     52  C   UNL A   1      41.331  24.459  27.461  1.00  0.00    -0.014 A 
BRANCH  52  53
ATOM     53  C   UNL A   1      41.917  25.789  27.780  1.00  0.00     0.031 A 
ATOM     54  C   UNL A   1      41.106  26.810  28.530  1.00  0.00     0.074 A 
ATOM     55  C   UNL A   1      43.148  26.105  27.329  1.00  0.00     0.049 A 
ATOM     56  N   UNL A   1      41.395  28.055  28.815  1.00  0.00    -0.248 NA
ATOM     57  C   UNL A   1      39.780  26.380  28.996  1.00  0.00     0.031 C 
ATOM     58  C   UNL A   1      44.022  25.213  26.564  1.00  0.00     0.029 A 
ATOM     59  N   UNL A   1      43.872  27.266  27.436  1.00  0.00    -0.354 N 
ATOM     60  C   UNL A   1      40.284  28.561  29.481  1.00  0.00     0.074 A 
ATOM     61  C   UNL A   1      39.295  27.502  29.505  1.00  0.00     0.031 C 
ATOM     62  C   UNL A   1      45.167  25.856  26.282  1.00  0.00     0.029 A 
ATOM     63  C   UNL A   1      45.095  27.216  26.806  1.00  0.00     0.049 A 
ATOM     64  H   UNL A   1      43.547  28.062  27.917  1.00  0.00     0.167 HD
ATOM     65  C   UNL A   1      40.111  29.786  30.040  1.00  0.00     0.034 A 
ATOM     66  C   UNL A   1      46.043  28.163  26.653  1.00  0.00     0.034 A 
ATOM     67  C   UNL A   1      41.109  30.828  30.015  1.00  0.00     0.049 A 
ATOM     68  C   UNL A   1      45.817  29.528  27.251  1.00  0.00     0.074 A 
ATOM     69  C   UNL A   1      41.062  32.083  30.597  1.00  0.00     0.029 A 
ATOM     70  N   UNL A   1      42.334  30.740  29.364  1.00  0.00    -0.354 N 
ATOM     71  N   UNL A   1      44.779  29.976  27.919  1.00  0.00    -0.248 NA
ATOM     72  C   UNL A   1      46.895  30.512  27.082  1.00  0.00     0.031 C 
ATOM     73  C   UNL A   1      42.226  32.776  30.245  1.00  0.00     0.029 A 
ATOM     74  C   UNL A   1      43.035  31.929  29.504  1.00  0.00     0.049 A 
ATOM     75  H   UNL A   1      42.658  29.950  28.876  1.00  0.00     0.167 HD
ATOM     76  C   UNL A   1      45.091  31.286  28.273  1.00  0.00     0.074 A 
ATOM     77  C   UNL A   1      46.418  31.550  27.755  1.00  0.00     0.031 C 
ATOM     78  C   UNL A   1      44.351  32.186  28.968  1.00  0.00     0.034 A 
BRANCH  65  79
ATOM     79  C   UNL A   1      38.780  30.065  30.697  1.00  0.00     0.023 A 
ATOM     80  C   UNL A   1      37.797  30.849  30.069  1.00  0.00     0.031 A 
ATOM     81  C   UNL A   1      38.502  29.572  31.985  1.00  0.00     0.131 A 
ATOM     82  C   UNL A   1      36.622  31.187  30.757  1.00  0.00     0.055 A 
ATOM     83  C   UNL A   1      37.294  29.842  32.632  1.00  0.00     0.041 A 
ATOM     84  F   UNL A   1      39.408  28.833  32.644  1.00  0.00    -0.206 F 
ATOM     85  C   UNL A   1      36.353  30.668  32.026  1.00  0.00     0.022 A 
BRANCH  82  86
ATOM     86  S   UNL A   1      35.524  32.435  30.032  1.00  0.00     0.124 S 
ATOM     87  O   UNL A   1      35.259  31.864  28.714  1.00  0.00    -0.237 OA
ATOM     88  O   UNL A   1      34.401  32.446  30.962  1.00  0.00    -0.237 OA
ATOM     89  O   UNL A   1      36.341  33.647  30.025  1.00  0.00    -0.744 OA
ENDBRANCH  82  86
ENDBRANCH  65  79
BRANCH  66  90
ATOM     90  C   UNL A   1      47.289  27.865  25.891  1.00  0.00     0.023 A 
ATOM     91  C   UNL A   1      47.332  28.002  24.495  1.00  0.00     0.031 A 
ATOM     92  C   UNL A   1      48.447  27.406  26.545  1.00  0.00     0.131 A 
ATOM     93  C   UNL A   1      48.493  27.643  23.793  1.00  0.00     0.055 A 
ATOM     94  C   UNL A   1      49.614  27.097  25.847  1.00  0.00     0.041 A 
ATOM     95  F   UNL A   1      48.460  27.264  27.880  1.00  0.00    -0.206 F 
ATOM     96  C   UNL A   1      49.638  27.203  24.460  1.00  0.00     0.022 A 
BRANCH  93  97
ATOM     97  S   UNL A   1      48.462  27.692  21.979  1.00  0.00     0.124 S 
ATOM     98  O   UNL A   1      47.122  28.205  21.719  1.00  0.00    -0.237 OA
ATOM     99  O   UNL A   1      49.566  28.599  21.683  1.00  0.00    -0.237 OA
ATOM    100  O   UNL A   1      48.684  26.299  21.598  1.00  0.00    -0.744 OA
ENDBRANCH  93  97
ENDBRANCH  66  90
BRANCH  78 101
ATOM    101  C   UNL A   1      44.984  33.528  29.241  1.00  0.00     0.023 A 
ATOM    102  C   UNL A   1      45.771  33.757  30.383  1.00  0.00     0.031 A 
ATOM    103  C   UNL A   1      44.789  34.595  28.346  1.00  0.00     0.131 A 
ATOM    104  C   UNL A   1      46.294  35.037  30.626  1.00  0.00     0.055 A 
ATOM    105  C   UNL A   1      45.358  35.851  28.564  1.00  0.00     0.041 A 
ATOM    106  F   UNL A   1      44.044  34.433  27.241  1.00  0.00    -0.206 F 
ATOM    107  C   UNL A   1      46.106  36.080  29.715  1.00  0.00     0.022 A 
BRANCH 104 108
ATOM    108  S   UNL A   1      47.162  35.341  32.188  1.00  0.00     0.124 S 
ATOM    109  O   UNL A   1      48.161  34.278  32.192  1.00  0.00    -0.237 OA
ATOM    110  O   UNL A   1      47.673  36.695  32.006  1.00  0.00    -0.237 OA
ATOM    111  O   UNL A   1      46.111  35.208  33.197  1.00  0.00    -0.744 OA
ENDBRANCH 104 108
ENDBRANCH  78 101
ENDBRANCH  52  53
ENDBRANCH  44  47
ENDBRANCH  42  43
ENDBRANCH  41  42
ENDBRANCH  40  41
ENDBRANCH   1  40
TORSDOF 21
ENDMDL
