MODEL 1
REMARK VINA RESULT:     -11.8      0.000      0.000
REMARK SMILES O=C(NCCCCCCNC(=O)c1[nH]ncc1C[N@H+]1CCC[C@@H](C(=O)c2ccc(Oc3ccccc3)cc2)C1)c1ccc(-c2c3nc(c(-c4cc(S(=O)(=O)[O-])ccc4F)c4ccc([nH]4)c(-c4cc(S(=O)(=O)[O-])ccc4F)c4nc(c(-c5cc(S(=O)(=O)[O-])ccc5F)c5ccc2[nH]5)C=C4)C=C3)cc1
REMARK SMILES IDX 8 1 7 2 6 3 5 4 4 5 3 6 1 7 2 8 40 10 41 11 102 12 42 13
REMARK SMILES IDX 101 14 43 15 44 16 45 17 95 18 46 19 100 20 94 21 96 22
REMARK SMILES IDX 47 23 99 24 93 25 92 26 48 28 80 29 60 30 79 31 61 32 64 33
REMARK SMILES IDX 78 34 97 35 62 36 63 37 77 39 98 40 65 41 49 42 50 43 58 44
REMARK SMILES IDX 51 45 57 46 59 47 56 48 52 49 53 50 54 51 55 52 81 53 82 54
REMARK SMILES IDX 90 55 83 56 89 57 91 58 88 59 84 60 85 61 86 62 87 63 66 64
REMARK SMILES IDX 67 65 75 66 68 67 74 68 76 69 73 70 69 71 70 72 71 73 72 74
REMARK SMILES IDX 9 75 10 76 11 77 12 79 13 80 14 81 17 82 15 83 16 85 18 86
REMARK SMILES IDX 19 87 20 88 39 89 21 91 23 92 22 93 24 94 25 95 26 96 27 97
REMARK SMILES IDX 38 98 28 99 37 100 29 101 30 102 31 103 32 104 36 105 33 106
REMARK SMILES IDX 35 107 34 108
REMARK H PARENT 3 9 96 27 64 38 10 78 14 84 19 90
REMARK Flexibility Score: inf
ROOT
ATOM      1  C   UNL A   1      34.197  25.083  25.517  1.00  0.00     0.021 C 
ENDROOT
BRANCH   1   2
ATOM      2  C   UNL A   1      34.834  24.645  24.196  1.00  0.00     0.002 C 
BRANCH   2   3
ATOM      3  C   UNL A   1      34.994  23.134  23.997  1.00  0.00     0.002 C 
BRANCH   3   4
ATOM      4  C   UNL A   1      36.404  22.583  24.195  1.00  0.00     0.021 C 
BRANCH   4   5
ATOM      5  C   UNL A   1      36.737  22.151  25.614  1.00  0.00     0.116 C 
BRANCH   5   6
ATOM      6  N   UNL A   1      37.641  21.014  25.670  1.00  0.00    -0.352 N 
ATOM      7  O   UNL A   1      39.629  19.966  25.907  1.00  0.00    -0.269 OA
ATOM      8  C   UNL A   1      38.969  20.994  26.030  1.00  0.00     0.251 C 
ATOM      9  H   UNL A   1      37.253  20.145  25.417  1.00  0.00     0.163 HD
BRANCH   8  10
ATOM     10  C   UNL A   1      39.596  22.234  26.540  1.00  0.00     0.039 A 
ATOM     11  C   UNL A   1      39.247  23.470  25.994  1.00  0.00     0.014 A 
ATOM     12  C   UNL A   1      40.565  22.157  27.545  1.00  0.00     0.014 A 
ATOM     13  C   UNL A   1      39.980  24.599  26.329  1.00  0.00     0.010 A 
ATOM     14  C   UNL A   1      41.225  23.319  27.963  1.00  0.00     0.010 A 
ATOM     15  C   UNL A   1      40.957  24.547  27.337  1.00  0.00    -0.014 A 
BRANCH  15  16
ATOM     16  C   UNL A   1      41.607  25.818  27.756  1.00  0.00     0.031 A 
ATOM     17  C   UNL A   1      43.017  26.156  27.356  1.00  0.00     0.074 A 
ATOM     18  C   UNL A   1      40.866  26.704  28.451  1.00  0.00     0.049 A 
ATOM     19  N   UNL A   1      43.695  27.251  27.587  1.00  0.00    -0.248 NA
ATOM     20  C   UNL A   1      43.766  25.134  26.611  1.00  0.00     0.031 C 
ATOM     21  C   UNL A   1      39.491  26.469  28.906  1.00  0.00     0.029 A 
ATOM     22  N   UNL A   1      41.134  27.983  28.864  1.00  0.00    -0.354 N 
ATOM     23  C   UNL A   1      44.950  27.055  27.021  1.00  0.00     0.074 A 
ATOM     24  C   UNL A   1      44.952  25.714  26.471  1.00  0.00     0.031 C 
ATOM     25  C   UNL A   1      39.016  27.587  29.470  1.00  0.00     0.029 A 
ATOM     26  C   UNL A   1      40.074  28.588  29.499  1.00  0.00     0.049 A 
ATOM     27  H   UNL A   1      42.002  28.425  28.723  1.00  0.00     0.167 HD
ATOM     28  C   UNL A   1      45.996  27.919  26.958  1.00  0.00     0.034 A 
ATOM     29  C   UNL A   1      39.965  29.805  30.063  1.00  0.00     0.034 A 
ATOM     30  C   UNL A   1      45.976  29.250  27.523  1.00  0.00     0.049 A 
ATOM     31  C   UNL A   1      41.150  30.729  30.002  1.00  0.00     0.074 A 
ATOM     32  C   UNL A   1      46.980  30.204  27.519  1.00  0.00     0.029 A 
ATOM     33  N   UNL A   1      44.900  29.816  28.197  1.00  0.00    -0.354 N 
ATOM     34  N   UNL A   1      42.327  30.525  29.454  1.00  0.00    -0.248 NA
ATOM     35  C   UNL A   1      40.992  32.046  30.624  1.00  0.00     0.031 C 
ATOM     36  C   UNL A   1      46.535  31.317  28.242  1.00  0.00     0.029 A 
ATOM     37  C   UNL A   1      45.224  31.093  28.632  1.00  0.00     0.049 A 
ATOM     38  H   UNL A   1      44.033  29.373  28.346  1.00  0.00     0.167 HD
ATOM     39  C   UNL A   1      43.047  31.696  29.663  1.00  0.00     0.074 A 
ATOM     40  C   UNL A   1      42.155  32.613  30.344  1.00  0.00     0.031 C 
ATOM     41  C   UNL A   1      44.332  31.986  29.334  1.00  0.00     0.034 A 
BRANCH  28  42
ATOM     42  C   UNL A   1      47.261  27.438  26.285  1.00  0.00     0.023 A 
ATOM     43  C   UNL A   1      48.233  26.698  26.982  1.00  0.00     0.031 A 
ATOM     44  C   UNL A   1      47.499  27.717  24.927  1.00  0.00     0.131 A 
ATOM     45  C   UNL A   1      49.418  26.310  26.336  1.00  0.00     0.055 A 
ATOM     46  C   UNL A   1      48.647  27.266  24.271  1.00  0.00     0.041 A 
ATOM     47  F   UNL A   1      46.619  28.437  24.213  1.00  0.00    -0.206 F 
ATOM     48  C   UNL A   1      49.620  26.568  24.978  1.00  0.00     0.022 A 
BRANCH  45  49
ATOM     49  S   UNL A   1      50.745  25.566  27.325  1.00  0.00     0.124 S 
ATOM     50  O   UNL A   1      50.149  24.287  27.705  1.00  0.00    -0.237 OA
ATOM     51  O   UNL A   1      51.849  25.498  26.375  1.00  0.00    -0.237 OA
ATOM     52  O   UNL A   1      50.926  26.512  28.424  1.00  0.00    -0.744 OA
ENDBRANCH  45  49
ENDBRANCH  28  42
BRANCH  29  53
ATOM     53  C   UNL A   1      38.713  30.198  30.771  1.00  0.00     0.023 A 
ATOM     54  C   UNL A   1      37.762  31.035  30.168  1.00  0.00     0.031 A 
ATOM     55  C   UNL A   1      38.470  29.768  32.090  1.00  0.00     0.131 A 
ATOM     56  C   UNL A   1      36.641  31.457  30.898  1.00  0.00     0.055 A 
ATOM     57  C   UNL A   1      37.320  30.135  32.787  1.00  0.00     0.041 A 
ATOM     58  F   UNL A   1      39.345  28.966  32.715  1.00  0.00    -0.206 F 
ATOM     59  C   UNL A   1      36.405  31.000  32.197  1.00  0.00     0.022 A 
BRANCH  56  60
ATOM     60  S   UNL A   1      35.547  32.702  30.164  1.00  0.00     0.124 S 
ATOM     61  O   UNL A   1      36.503  33.600  29.526  1.00  0.00    -0.237 OA
ATOM     62  O   UNL A   1      34.728  31.894  29.266  1.00  0.00    -0.237 OA
ATOM     63  O   UNL A   1      34.842  33.258  31.317  1.00  0.00    -0.744 OA
ENDBRANCH  56  60
ENDBRANCH  29  53
BRANCH  41  64
ATOM     64  C   UNL A   1      44.822  33.366  29.699  1.00  0.00     0.023 A 
ATOM     65  C   UNL A   1      44.665  34.456  28.823  1.00  0.00     0.031 A 
ATOM     66  C   UNL A   1      45.508  33.583  30.906  1.00  0.00     0.131 A 
ATOM     67  C   UNL A   1      45.257  35.690  29.129  1.00  0.00     0.055 A 
ATOM     68  C   UNL A   1      46.033  34.832  31.238  1.00  0.00     0.041 A 
ATOM     69  F   UNL A   1      45.691  32.579  31.779  1.00  0.00    -0.206 F 
ATOM     70  C   UNL A   1      45.926  35.890  30.339  1.00  0.00     0.022 A 
BRANCH  67  71
ATOM     71  S   UNL A   1      45.251  36.991  27.865  1.00  0.00     0.124 S 
ATOM     72  O   UNL A   1      45.143  38.199  28.676  1.00  0.00    -0.237 OA
ATOM     73  O   UNL A   1      46.531  36.783  27.198  1.00  0.00    -0.237 OA
ATOM     74  O   UNL A   1      44.072  36.679  27.058  1.00  0.00    -0.744 OA
ENDBRANCH  67  71
ENDBRANCH  41  64
ENDBRANCH  15  16
ENDBRANCH   8  10
ENDBRANCH   5   6
ENDBRANCH   4   5
ENDBRANCH   3   4
ENDBRANCH   2   3
ENDBRANCH   1   2
BRANCH   1  75
ATOM     75  C   UNL A   1      33.732  26.532  25.559  1.00  0.00     0.116 C 
BRANCH  75  76
ATOM     76  N   UNL A   1      34.186  27.299  24.410  1.00  0.00    -0.351 N 
ATOM     77  C   UNL A   1      33.858  28.580  24.060  1.00  0.00     0.269 C 
ATOM     78  H   UNL A   1      34.810  26.836  23.806  1.00  0.00     0.163 HD
ATOM     79  O   UNL A   1      34.173  28.993  22.940  1.00  0.00    -0.268 OA
BRANCH  77  80
ATOM     80  C   UNL A   1      33.093  29.363  24.980  1.00  0.00     0.131 A 
ATOM     81  N   UNL A   1      33.618  29.796  26.165  1.00  0.00    -0.272 N 
ATOM     82  C   UNL A   1      31.781  29.822  24.959  1.00  0.00     0.057 A 
ATOM     83  N   UNL A   1      32.837  30.670  26.815  1.00  0.00    -0.183 NA
ATOM     84  H   UNL A   1      34.489  29.495  26.510  1.00  0.00     0.190 HD
ATOM     85  C   UNL A   1      31.725  30.694  26.078  1.00  0.00     0.145 A 
BRANCH  82  86
ATOM     86  C   UNL A   1      30.708  29.523  23.951  1.00  0.00     0.303 C 
BRANCH  86  87
ATOM     87  N   UNL A   1      30.078  28.203  24.099  1.00  0.00    -0.330 N 
ATOM     88  C   UNL A   1      28.701  28.158  23.596  1.00  0.00     0.262 C 
ATOM     89  C   UNL A   1      30.919  27.128  23.572  1.00  0.00     0.274 C 
ATOM     90  H   UNL A   1      29.996  28.036  25.102  1.00  0.00     0.348 HD
ATOM     91  C   UNL A   1      28.060  26.793  23.854  1.00  0.00     0.062 C 
ATOM     92  C   UNL A   1      30.326  25.733  23.786  1.00  0.00     0.116 C 
ATOM     93  C   UNL A   1      28.897  25.670  23.249  1.00  0.00     0.023 C 
BRANCH  92  94
ATOM     94  C   UNL A   1      31.231  24.760  23.045  1.00  0.00     0.171 C 
ATOM     95  O   UNL A   1      31.818  25.043  22.003  1.00  0.00    -0.294 OA
BRANCH  94  96
ATOM     96  C   UNL A   1      31.435  23.421  23.621  1.00  0.00     0.018 A 
ATOM     97  C   UNL A   1      31.186  23.226  24.982  1.00  0.00     0.015 A 
ATOM     98  C   UNL A   1      31.912  22.378  22.827  1.00  0.00     0.015 A 
ATOM     99  C   UNL A   1      31.433  21.979  25.555  1.00  0.00     0.048 A 
ATOM    100  C   UNL A   1      32.158  21.136  23.406  1.00  0.00     0.048 A 
ATOM    101  C   UNL A   1      31.945  20.937  24.776  1.00  0.00     0.127 A 
BRANCH 101 102
ATOM    102  O   UNL A   1      32.196  19.762  25.455  1.00  0.00    -0.457 OA
BRANCH 102 103
ATOM    103  C   UNL A   1      32.973  18.820  24.830  1.00  0.00     0.127 A 
ATOM    104  C   UNL A   1      34.358  18.962  24.903  1.00  0.00     0.047 A 
ATOM    105  C   UNL A   1      32.398  17.762  24.124  1.00  0.00     0.047 A 
ATOM    106  C   UNL A   1      35.177  18.002  24.313  1.00  0.00     0.004 A 
ATOM    107  C   UNL A   1      33.221  16.796  23.545  1.00  0.00     0.004 A 
ATOM    108  C   UNL A   1      34.608  16.914  23.644  1.00  0.00     0.000 A 
ENDBRANCH 102 103
ENDBRANCH 101 102
ENDBRANCH  94  96
ENDBRANCH  92  94
ENDBRANCH  86  87
ENDBRANCH  82  86
ENDBRANCH  77  80
ENDBRANCH  75  76
ENDBRANCH   1  75
TORSDOF 22
ENDMDL
MODEL 2
REMARK VINA RESULT:     -11.8      5.220      8.704
REMARK SMILES O=C(NCCCCCCNC(=O)c1[nH]ncc1C[N@H+]1CCC[C@@H](C(=O)c2ccc(Oc3ccccc3)cc2)C1)c1ccc(-c2c3nc(c(-c4cc(S(=O)(=O)[O-])ccc4F)c4ccc([nH]4)c(-c4cc(S(=O)(=O)[O-])ccc4F)c4nc(c(-c5cc(S(=O)(=O)[O-])ccc5F)c5ccc2[nH]5)C=C4)C=C3)cc1
REMARK SMILES IDX 8 1 7 2 6 3 5 4 4 5 3 6 1 7 2 8 40 10 41 11 102 12 42 13
REMARK SMILES IDX 101 14 43 15 44 16 45 17 95 18 46 19 100 20 94 21 96 22
REMARK SMILES IDX 47 23 99 24 93 25 92 26 48 28 80 29 60 30 79 31 61 32 64 33
REMARK SMILES IDX 78 34 97 35 62 36 63 37 77 39 98 40 65 41 49 42 50 43 58 44
REMARK SMILES IDX 51 45 57 46 59 47 56 48 52 49 53 50 54 51 55 52 81 53 82 54
REMARK SMILES IDX 90 55 83 56 89 57 91 58 88 59 84 60 85 61 86 62 87 63 66 64
REMARK SMILES IDX 67 65 75 66 68 67 74 68 76 69 73 70 69 71 70 72 71 73 72 74
REMARK SMILES IDX 9 75 10 76 11 77 12 79 13 80 14 81 17 82 15 83 16 85 18 86
REMARK SMILES IDX 19 87 20 88 39 89 21 91 23 92 22 93 24 94 25 95 26 96 27 97
REMARK SMILES IDX 38 98 28 99 37 100 29 101 30 102 31 103 32 104 36 105 33 106
REMARK SMILES IDX 35 107 34 108
REMARK H PARENT 3 9 96 27 64 38 10 78 14 84 19 90
REMARK Flexibility Score: inf
ROOT
ATOM      1  C   UNL A   1      34.260  29.084  26.752  1.00  0.00     0.021 C 
ENDROOT
BRANCH   1   2
ATOM      2  C   UNL A   1      33.818  30.279  27.600  1.00  0.00     0.002 C 
BRANCH   2   3
ATOM      3  C   UNL A   1      34.816  31.436  27.700  1.00  0.00     0.002 C 
BRANCH   3   4
ATOM      4  C   UNL A   1      34.281  32.812  27.306  1.00  0.00     0.021 C 
BRANCH   4   5
ATOM      5  C   UNL A   1      32.868  33.116  27.776  1.00  0.00     0.116 C 
BRANCH   5   6
ATOM      6  N   UNL A   1      32.740  34.424  28.396  1.00  0.00    -0.352 N 
ATOM      7  O   UNL A   1      33.141  36.028  29.936  1.00  0.00    -0.269 OA
ATOM      8  C   UNL A   1      33.455  34.946  29.450  1.00  0.00     0.251 C 
ATOM      9  H   UNL A   1      32.052  35.015  28.011  1.00  0.00     0.163 HD
BRANCH   8  10
ATOM     10  C   UNL A   1      34.588  34.172  30.005  1.00  0.00     0.039 A 
ATOM     11  C   UNL A   1      34.350  33.127  30.898  1.00  0.00     0.014 A 
ATOM     12  C   UNL A   1      35.897  34.517  29.658  1.00  0.00     0.014 A 
ATOM     13  C   UNL A   1      35.415  32.543  31.569  1.00  0.00     0.010 A 
ATOM     14  C   UNL A   1      36.973  33.846  30.254  1.00  0.00     0.010 A 
ATOM     15  C   UNL A   1      36.740  32.871  31.237  1.00  0.00    -0.014 A 
BRANCH  15  16
ATOM     16  C   UNL A   1      37.840  32.108  31.885  1.00  0.00     0.031 A 
ATOM     17  C   UNL A   1      38.573  31.009  31.166  1.00  0.00     0.074 A 
ATOM     18  C   UNL A   1      38.218  32.480  33.125  1.00  0.00     0.049 A 
ATOM     19  N   UNL A   1      39.595  30.301  31.575  1.00  0.00    -0.248 NA
ATOM     20  C   UNL A   1      38.095  30.651  29.823  1.00  0.00     0.031 C 
ATOM     21  C   UNL A   1      37.562  33.524  33.921  1.00  0.00     0.029 A 
ATOM     22  N   UNL A   1      39.253  32.064  33.920  1.00  0.00    -0.354 N 
ATOM     23  C   UNL A   1      39.885  29.412  30.545  1.00  0.00     0.074 A 
ATOM     24  C   UNL A   1      38.899  29.644  29.509  1.00  0.00     0.031 C 
ATOM     25  C   UNL A   1      38.250  33.714  35.054  1.00  0.00     0.029 A 
ATOM     26  C   UNL A   1      39.341  32.750  35.110  1.00  0.00     0.049 A 
ATOM     27  H   UNL A   1      39.872  31.344  33.665  1.00  0.00     0.167 HD
ATOM     28  C   UNL A   1      40.886  28.498  30.471  1.00  0.00     0.034 A 
ATOM     29  C   UNL A   1      40.189  32.608  36.145  1.00  0.00     0.034 A 
ATOM     30  C   UNL A   1      41.853  28.277  31.524  1.00  0.00     0.049 A 
ATOM     31  C   UNL A   1      41.271  31.568  36.046  1.00  0.00     0.074 A 
ATOM     32  C   UNL A   1      42.905  27.375  31.554  1.00  0.00     0.029 A 
ATOM     33  N   UNL A   1      41.887  28.959  32.734  1.00  0.00    -0.354 N 
ATOM     34  N   UNL A   1      41.531  30.741  35.058  1.00  0.00    -0.248 NA
ATOM     35  C   UNL A   1      42.176  31.447  37.192  1.00  0.00     0.031 C 
ATOM     36  C   UNL A   1      43.532  27.469  32.802  1.00  0.00     0.029 A 
ATOM     37  C   UNL A   1      42.924  28.483  33.525  1.00  0.00     0.049 A 
ATOM     38  H   UNL A   1      41.264  29.676  32.994  1.00  0.00     0.167 HD
ATOM     39  C   UNL A   1      42.638  30.005  35.466  1.00  0.00     0.074 A 
ATOM     40  C   UNL A   1      43.019  30.520  36.766  1.00  0.00     0.031 C 
ATOM     41  C   UNL A   1      43.275  28.988  34.832  1.00  0.00     0.034 A 
BRANCH  28  42
ATOM     42  C   UNL A   1      40.965  27.645  29.226  1.00  0.00     0.023 A 
ATOM     43  C   UNL A   1      41.909  27.899  28.216  1.00  0.00     0.031 A 
ATOM     44  C   UNL A   1      40.089  26.559  29.046  1.00  0.00     0.131 A 
ATOM     45  C   UNL A   1      41.920  27.114  27.050  1.00  0.00     0.055 A 
ATOM     46  C   UNL A   1      40.152  25.738  27.919  1.00  0.00     0.041 A 
ATOM     47  F   UNL A   1      39.151  26.279  29.967  1.00  0.00    -0.206 F 
ATOM     48  C   UNL A   1      41.064  26.020  26.907  1.00  0.00     0.022 A 
BRANCH  45  49
ATOM     49  S   UNL A   1      42.991  27.616  25.674  1.00  0.00     0.124 S 
ATOM     50  O   UNL A   1      42.597  26.670  24.633  1.00  0.00    -0.237 OA
ATOM     51  O   UNL A   1      42.597  29.003  25.457  1.00  0.00    -0.237 OA
ATOM     52  O   UNL A   1      44.340  27.426  26.201  1.00  0.00    -0.744 OA
ENDBRANCH  45  49
ENDBRANCH  28  42
BRANCH  29  53
ATOM     53  C   UNL A   1      40.020  33.434  37.375  1.00  0.00     0.023 A 
ATOM     54  C   UNL A   1      39.451  32.900  38.542  1.00  0.00     0.031 A 
ATOM     55  C   UNL A   1      40.393  34.792  37.386  1.00  0.00     0.131 A 
ATOM     56  C   UNL A   1      39.225  33.730  39.650  1.00  0.00     0.055 A 
ATOM     57  C   UNL A   1      40.228  35.595  38.513  1.00  0.00     0.041 A 
ATOM     58  F   UNL A   1      40.943  35.353  36.298  1.00  0.00    -0.206 F 
ATOM     59  C   UNL A   1      39.624  35.070  39.650  1.00  0.00     0.022 A 
BRANCH  56  60
ATOM     60  S   UNL A   1      38.298  33.063  41.058  1.00  0.00     0.124 S 
ATOM     61  O   UNL A   1      39.221  33.302  42.162  1.00  0.00    -0.237 OA
ATOM     62  O   UNL A   1      37.091  33.884  41.042  1.00  0.00    -0.237 OA
ATOM     63  O   UNL A   1      38.101  31.660  40.702  1.00  0.00    -0.744 OA
ENDBRANCH  56  60
ENDBRANCH  29  53
BRANCH  41  64
ATOM     64  C   UNL A   1      44.464  28.393  35.546  1.00  0.00     0.023 A 
ATOM     65  C   UNL A   1      44.308  27.390  36.520  1.00  0.00     0.031 A 
ATOM     66  C   UNL A   1      45.760  28.874  35.296  1.00  0.00     0.131 A 
ATOM     67  C   UNL A   1      45.415  26.960  37.265  1.00  0.00     0.055 A 
ATOM     68  C   UNL A   1      46.870  28.390  35.990  1.00  0.00     0.041 A 
ATOM     69  F   UNL A   1      45.969  29.833  34.379  1.00  0.00    -0.206 F 
ATOM     70  C   UNL A   1      46.698  27.441  36.996  1.00  0.00     0.022 A 
BRANCH  67  71
ATOM     71  S   UNL A   1      45.135  25.858  38.679  1.00  0.00     0.124 S 
ATOM     72  O   UNL A   1      46.476  25.741  39.240  1.00  0.00    -0.237 OA
ATOM     73  O   UNL A   1      44.174  26.612  39.476  1.00  0.00    -0.237 OA
ATOM     74  O   UNL A   1      44.610  24.639  38.064  1.00  0.00    -0.744 OA
ENDBRANCH  67  71
ENDBRANCH  41  64
ENDBRANCH  15  16
ENDBRANCH   8  10
ENDBRANCH   5   6
ENDBRANCH   4   5
ENDBRANCH   3   4
ENDBRANCH   2   3
ENDBRANCH   1   2
BRANCH   1  75
ATOM     75  C   UNL A   1      33.375  28.785  25.550  1.00  0.00     0.116 C 
BRANCH  75  76
ATOM     76  N   UNL A   1      34.101  28.845  24.292  1.00  0.00    -0.351 N 
ATOM     77  C   UNL A   1      33.626  28.639  23.026  1.00  0.00     0.269 C 
ATOM     78  H   UNL A   1      35.059  29.060  24.360  1.00  0.00     0.163 HD
ATOM     79  O   UNL A   1      34.430  28.523  22.096  1.00  0.00    -0.268 OA
BRANCH  77  80
ATOM     80  C   UNL A   1      32.215  28.491  22.844  1.00  0.00     0.131 A 
ATOM     81  N   UNL A   1      31.371  29.565  22.856  1.00  0.00    -0.272 N 
ATOM     82  C   UNL A   1      31.404  27.377  22.657  1.00  0.00     0.057 A 
ATOM     83  N   UNL A   1      30.118  29.273  22.483  1.00  0.00    -0.183 NA
ATOM     84  H   UNL A   1      31.658  30.471  23.114  1.00  0.00     0.190 HD
ATOM     85  C   UNL A   1      30.139  27.945  22.352  1.00  0.00     0.145 A 
BRANCH  82  86
ATOM     86  C   UNL A   1      31.794  25.927  22.694  1.00  0.00     0.303 C 
BRANCH  86  87
ATOM     87  N   UNL A   1      32.711  25.567  23.786  1.00  0.00    -0.330 N 
ATOM     88  C   UNL A   1      32.030  24.979  24.944  1.00  0.00     0.262 C 
ATOM     89  C   UNL A   1      33.842  24.766  23.315  1.00  0.00     0.274 C 
ATOM     90  H   UNL A   1      33.104  26.442  24.130  1.00  0.00     0.348 HD
ATOM     91  C   UNL A   1      33.011  24.704  26.085  1.00  0.00     0.062 C 
ATOM     92  C   UNL A   1      34.857  24.445  24.414  1.00  0.00     0.116 C 
ATOM     93  C   UNL A   1      34.160  23.814  25.619  1.00  0.00     0.023 C 
BRANCH  92  94
ATOM     94  C   UNL A   1      35.866  23.484  23.803  1.00  0.00     0.171 C 
ATOM     95  O   UNL A   1      35.882  23.190  22.610  1.00  0.00    -0.294 OA
BRANCH  94  96
ATOM     96  C   UNL A   1      36.892  22.898  24.682  1.00  0.00     0.018 A 
ATOM     97  C   UNL A   1      37.514  23.714  25.630  1.00  0.00     0.015 A 
ATOM     98  C   UNL A   1      37.263  21.562  24.536  1.00  0.00     0.015 A 
ATOM     99  C   UNL A   1      38.531  23.189  26.427  1.00  0.00     0.048 A 
ATOM    100  C   UNL A   1      38.280  21.044  25.335  1.00  0.00     0.048 A 
ATOM    101  C   UNL A   1      38.935  21.861  26.265  1.00  0.00     0.127 A 
BRANCH 101 102
ATOM    102  O   UNL A   1      39.981  21.460  27.074  1.00  0.00    -0.457 OA
BRANCH 102 103
ATOM    103  C   UNL A   1      41.220  21.342  26.498  1.00  0.00     0.127 A 
ATOM    104  C   UNL A   1      41.757  20.064  26.358  1.00  0.00     0.047 A 
ATOM    105  C   UNL A   1      41.934  22.468  26.082  1.00  0.00     0.047 A 
ATOM    106  C   UNL A   1      42.996  19.905  25.742  1.00  0.00     0.004 A 
ATOM    107  C   UNL A   1      43.168  22.304  25.455  1.00  0.00     0.004 A 
ATOM    108  C   UNL A   1      43.696  21.023  25.280  1.00  0.00     0.000 A 
ENDBRANCH 102 103
ENDBRANCH 101 102
ENDBRANCH  94  96
ENDBRANCH  92  94
ENDBRANCH  86  87
ENDBRANCH  82  86
ENDBRANCH  77  80
ENDBRANCH  75  76
ENDBRANCH   1  75
TORSDOF 22
ENDMDL
MODEL 3
REMARK VINA RESULT:     -11.6      1.876      7.298
REMARK SMILES O=C(NCCCCCCNC(=O)c1[nH]ncc1C[N@H+]1CCC[C@@H](C(=O)c2ccc(Oc3ccccc3)cc2)C1)c1ccc(-c2c3nc(c(-c4cc(S(=O)(=O)[O-])ccc4F)c4ccc([nH]4)c(-c4cc(S(=O)(=O)[O-])ccc4F)c4nc(c(-c5cc(S(=O)(=O)[O-])ccc5F)c5ccc2[nH]5)C=C4)C=C3)cc1
REMARK SMILES IDX 8 1 7 2 6 3 5 4 4 5 3 6 1 7 2 8 40 10 41 11 102 12 42 13
REMARK SMILES IDX 101 14 43 15 44 16 45 17 95 18 46 19 100 20 94 21 96 22
REMARK SMILES IDX 47 23 99 24 93 25 92 26 48 28 80 29 60 30 79 31 61 32 64 33
REMARK SMILES IDX 78 34 97 35 62 36 63 37 77 39 98 40 65 41 49 42 50 43 58 44
REMARK SMILES IDX 51 45 57 46 59 47 56 48 52 49 53 50 54 51 55 52 81 53 82 54
REMARK SMILES IDX 90 55 83 56 89 57 91 58 88 59 84 60 85 61 86 62 87 63 66 64
REMARK SMILES IDX 67 65 75 66 68 67 74 68 76 69 73 70 69 71 70 72 71 73 72 74
REMARK SMILES IDX 9 75 10 76 11 77 12 79 13 80 14 81 17 82 15 83 16 85 18 86
REMARK SMILES IDX 19 87 20 88 39 89 21 91 23 92 22 93 24 94 25 95 26 96 27 97
REMARK SMILES IDX 38 98 28 99 37 100 29 101 30 102 31 103 32 104 36 105 33 106
REMARK SMILES IDX 35 107 34 108
REMARK H PARENT 3 9 96 27 64 38 10 78 14 84 19 90
REMARK Flexibility Score: inf
ROOT
ATOM      1  C   UNL A   1      34.406  25.074  25.429  1.00  0.00     0.021 C 
ENDROOT
BRANCH   1   2
ATOM      2  C   UNL A   1      34.935  24.553  24.091  1.00  0.00     0.002 C 
BRANCH   2   3
ATOM      3  C   UNL A   1      35.052  23.031  23.963  1.00  0.00     0.002 C 
BRANCH   3   4
ATOM      4  C   UNL A   1      36.451  22.452  24.165  1.00  0.00     0.021 C 
BRANCH   4   5
ATOM      5  C   UNL A   1      36.826  22.152  25.607  1.00  0.00     0.116 C 
BRANCH   5   6
ATOM      6  N   UNL A   1      37.792  21.074  25.735  1.00  0.00    -0.352 N 
ATOM      7  O   UNL A   1      39.832  20.156  26.054  1.00  0.00    -0.269 OA
ATOM      8  C   UNL A   1      39.114  21.149  26.112  1.00  0.00     0.251 C 
ATOM      9  H   UNL A   1      37.458  20.172  25.526  1.00  0.00     0.163 HD
BRANCH   8  10
ATOM     10  C   UNL A   1      39.662  22.448  26.562  1.00  0.00     0.039 A 
ATOM     11  C   UNL A   1      39.300  23.625  25.905  1.00  0.00     0.014 A 
ATOM     12  C   UNL A   1      40.570  22.486  27.624  1.00  0.00     0.014 A 
ATOM     13  C   UNL A   1      39.969  24.805  26.194  1.00  0.00     0.010 A 
ATOM     14  C   UNL A   1      41.159  23.703  27.990  1.00  0.00     0.010 A 
ATOM     15  C   UNL A   1      40.884  24.870  27.259  1.00  0.00    -0.014 A 
BRANCH  15  16
ATOM     16  C   UNL A   1      41.459  26.193  27.616  1.00  0.00     0.031 A 
ATOM     17  C   UNL A   1      40.688  27.201  28.423  1.00  0.00     0.074 A 
ATOM     18  C   UNL A   1      42.735  26.443  27.256  1.00  0.00     0.049 A 
ATOM     19  N   UNL A   1      41.079  28.368  28.868  1.00  0.00    -0.248 NA
ATOM     20  C   UNL A   1      39.299  26.864  28.766  1.00  0.00     0.031 C 
ATOM     21  C   UNL A   1      43.570  25.539  26.456  1.00  0.00     0.029 A 
ATOM     22  N   UNL A   1      43.567  27.494  27.538  1.00  0.00    -0.354 N 
ATOM     23  C   UNL A   1      39.989  28.909  29.543  1.00  0.00     0.074 A 
ATOM     24  C   UNL A   1      38.906  27.956  29.409  1.00  0.00     0.031 C 
ATOM     25  C   UNL A   1      44.809  26.041  26.372  1.00  0.00     0.029 A 
ATOM     26  C   UNL A   1      44.838  27.339  27.033  1.00  0.00     0.049 A 
ATOM     27  H   UNL A   1      43.283  28.285  28.050  1.00  0.00     0.167 HD
ATOM     28  C   UNL A   1      39.908  30.084  30.217  1.00  0.00     0.034 A 
ATOM     29  C   UNL A   1      45.907  28.156  27.075  1.00  0.00     0.034 A 
ATOM     30  C   UNL A   1      41.000  31.025  30.329  1.00  0.00     0.049 A 
ATOM     31  C   UNL A   1      45.777  29.464  27.806  1.00  0.00     0.074 A 
ATOM     32  C   UNL A   1      41.025  32.245  30.985  1.00  0.00     0.029 A 
ATOM     33  N   UNL A   1      42.262  30.856  29.769  1.00  0.00    -0.354 N 
ATOM     34  N   UNL A   1      44.737  29.952  28.443  1.00  0.00    -0.248 NA
ATOM     35  C   UNL A   1      46.963  30.325  27.831  1.00  0.00     0.031 C 
ATOM     36  C   UNL A   1      42.274  32.838  30.769  1.00  0.00     0.029 A 
ATOM     37  C   UNL A   1      43.061  31.958  30.044  1.00  0.00     0.049 A 
ATOM     38  H   UNL A   1      42.546  30.070  29.250  1.00  0.00     0.167 HD
ATOM     39  C   UNL A   1      45.151  31.179  28.951  1.00  0.00     0.074 A 
ATOM     40  C   UNL A   1      46.545  31.329  28.584  1.00  0.00     0.031 C 
ATOM     41  C   UNL A   1      44.442  32.104  29.647  1.00  0.00     0.034 A 
BRANCH  28  42
ATOM     42  C   UNL A   1      38.584  30.434  30.857  1.00  0.00     0.023 A 
ATOM     43  C   UNL A   1      37.638  31.242  30.200  1.00  0.00     0.031 A 
ATOM     44  C   UNL A   1      38.258  29.951  32.136  1.00  0.00     0.131 A 
ATOM     45  C   UNL A   1      36.438  31.586  30.846  1.00  0.00     0.055 A 
ATOM     46  C   UNL A   1      37.033  30.237  32.744  1.00  0.00     0.041 A 
ATOM     47  F   UNL A   1      39.128  29.192  32.822  1.00  0.00    -0.206 F 
ATOM     48  C   UNL A   1      36.120  31.068  32.103  1.00  0.00     0.022 A 
BRANCH  45  49
ATOM     49  S   UNL A   1      35.354  32.814  30.068  1.00  0.00     0.124 S 
ATOM     50  O   UNL A   1      36.283  33.913  29.815  1.00  0.00    -0.237 OA
ATOM     51  O   UNL A   1      34.868  32.107  28.889  1.00  0.00    -0.237 OA
ATOM     52  O   UNL A   1      34.347  33.082  31.093  1.00  0.00    -0.744 OA
ENDBRANCH  45  49
ENDBRANCH  28  42
BRANCH  29  53
ATOM     53  C   UNL A   1      47.166  27.786  26.368  1.00  0.00     0.023 A 
ATOM     54  C   UNL A   1      47.312  27.975  24.985  1.00  0.00     0.031 A 
ATOM     55  C   UNL A   1      48.235  27.195  27.068  1.00  0.00     0.131 A 
ATOM     56  C   UNL A   1      48.475  27.532  24.339  1.00  0.00     0.055 A 
ATOM     57  C   UNL A   1      49.417  26.818  26.432  1.00  0.00     0.041 A 
ATOM     58  F   UNL A   1      48.150  26.991  28.392  1.00  0.00    -0.206 F 
ATOM     59  C   UNL A   1      49.536  26.969  25.055  1.00  0.00     0.022 A 
BRANCH  56  60
ATOM     60  S   UNL A   1      48.541  27.599  22.528  1.00  0.00     0.124 S 
ATOM     61  O   UNL A   1      49.784  28.329  22.302  1.00  0.00    -0.237 OA
ATOM     62  O   UNL A   1      48.555  26.183  22.174  1.00  0.00    -0.237 OA
ATOM     63  O   UNL A   1      47.320  28.317  22.170  1.00  0.00    -0.744 OA
ENDBRANCH  56  60
ENDBRANCH  29  53
BRANCH  41  64
ATOM     64  C   UNL A   1      45.190  33.347  30.066  1.00  0.00     0.023 A 
ATOM     65  C   UNL A   1      45.847  33.424  31.308  1.00  0.00     0.031 A 
ATOM     66  C   UNL A   1      45.196  34.486  29.244  1.00  0.00     0.131 A 
ATOM     67  C   UNL A   1      46.410  34.638  31.727  1.00  0.00     0.055 A 
ATOM     68  C   UNL A   1      45.822  35.670  29.635  1.00  0.00     0.041 A 
ATOM     69  F   UNL A   1      44.584  34.471  28.049  1.00  0.00    -0.206 F 
ATOM     70  C   UNL A   1      46.416  35.758  30.892  1.00  0.00     0.022 A 
BRANCH  67  71
ATOM     71  S   UNL A   1      47.019  34.770  33.431  1.00  0.00     0.124 S 
ATOM     72  O   UNL A   1      46.224  33.755  34.114  1.00  0.00    -0.237 OA
ATOM     73  O   UNL A   1      48.438  34.473  33.278  1.00  0.00    -0.237 OA
ATOM     74  O   UNL A   1      46.709  36.151  33.799  1.00  0.00    -0.744 OA
ENDBRANCH  67  71
ENDBRANCH  41  64
ENDBRANCH  15  16
ENDBRANCH   8  10
ENDBRANCH   5   6
ENDBRANCH   4   5
ENDBRANCH   3   4
ENDBRANCH   2   3
ENDBRANCH   1   2
BRANCH   1  75
ATOM     75  C   UNL A   1      33.719  26.432  25.365  1.00  0.00     0.116 C 
BRANCH  75  76
ATOM     76  N   UNL A   1      34.168  27.234  24.239  1.00  0.00    -0.351 N 
ATOM     77  C   UNL A   1      33.860  28.534  23.945  1.00  0.00     0.269 C 
ATOM     78  H   UNL A   1      34.771  26.783  23.605  1.00  0.00     0.163 HD
ATOM     79  O   UNL A   1      34.163  28.984  22.836  1.00  0.00    -0.268 OA
BRANCH  77  80
ATOM     80  C   UNL A   1      33.130  29.295  24.910  1.00  0.00     0.131 A 
ATOM     81  N   UNL A   1      33.696  29.698  26.087  1.00  0.00    -0.272 N 
ATOM     82  C   UNL A   1      31.819  29.758  24.945  1.00  0.00     0.057 A 
ATOM     83  N   UNL A   1      32.940  30.557  26.784  1.00  0.00    -0.183 NA
ATOM     84  H   UNL A   1      34.577  29.386  26.394  1.00  0.00     0.190 HD
ATOM     85  C   UNL A   1      31.804  30.602  26.086  1.00  0.00     0.145 A 
BRANCH  82  86
ATOM     86  C   UNL A   1      30.712  29.487  23.966  1.00  0.00     0.303 C 
BRANCH  86  87
ATOM     87  N   UNL A   1      30.082  28.165  24.104  1.00  0.00    -0.330 N 
ATOM     88  C   UNL A   1      28.711  28.120  23.585  1.00  0.00     0.262 C 
ATOM     89  C   UNL A   1      30.931  27.093  23.583  1.00  0.00     0.274 C 
ATOM     90  H   UNL A   1      29.989  27.996  25.105  1.00  0.00     0.348 HD
ATOM     91  C   UNL A   1      28.069  26.754  23.832  1.00  0.00     0.062 C 
ATOM     92  C   UNL A   1      30.338  25.697  23.787  1.00  0.00     0.116 C 
ATOM     93  C   UNL A   1      28.915  25.633  23.234  1.00  0.00     0.023 C 
BRANCH  92  94
ATOM     94  C   UNL A   1      31.252  24.727  23.054  1.00  0.00     0.171 C 
ATOM     95  O   UNL A   1      31.833  25.006  22.008  1.00  0.00    -0.294 OA
BRANCH  94  96
ATOM     96  C   UNL A   1      31.472  23.395  23.642  1.00  0.00     0.018 A 
ATOM     97  C   UNL A   1      31.285  23.225  25.016  1.00  0.00     0.015 A 
ATOM     98  C   UNL A   1      31.903  22.336  22.844  1.00  0.00     0.015 A 
ATOM     99  C   UNL A   1      31.549  21.986  25.598  1.00  0.00     0.048 A 
ATOM    100  C   UNL A   1      32.166  21.101  23.432  1.00  0.00     0.048 A 
ATOM    101  C   UNL A   1      32.015  20.927  24.814  1.00  0.00     0.127 A 
BRANCH 101 102
ATOM    102  O   UNL A   1      32.289  19.761  25.500  1.00  0.00    -0.457 OA
BRANCH 102 103
ATOM    103  C   UNL A   1      33.020  18.798  24.852  1.00  0.00     0.127 A 
ATOM    104  C   UNL A   1      32.328  17.827  24.131  1.00  0.00     0.047 A 
ATOM    105  C   UNL A   1      34.414  18.777  24.927  1.00  0.00     0.047 A 
ATOM    106  C   UNL A   1      33.041  16.857  23.429  1.00  0.00     0.004 A 
ATOM    107  C   UNL A   1      35.124  17.813  24.213  1.00  0.00     0.004 A 
ATOM    108  C   UNL A   1      34.438  16.858  23.461  1.00  0.00     0.000 A 
ENDBRANCH 102 103
ENDBRANCH 101 102
ENDBRANCH  94  96
ENDBRANCH  92  94
ENDBRANCH  86  87
ENDBRANCH  82  86
ENDBRANCH  77  80
ENDBRANCH  75  76
ENDBRANCH   1  75
TORSDOF 22
ENDMDL
