MODEL 1
REMARK VINA RESULT:     -11.8      0.000      0.000
REMARK SMILES CC1(C)CC[N@H+](CCC(=O)NCCCCCCNC(=O)c2ccc(-c3c4nc(c(-c5cc(S(=O)(=O)[O-])ccc5F)c5ccc([nH]5)c(-c5cc(S(=O)(=O)[O-])ccc5F)c5nc(c(-c6cc(S(=O)(=O)[O-])ccc6F)c6ccc3[nH]6)C=C5)C=C4)cc2)C1
REMARK SMILES IDX 15 1 14 2 13 3 12 4 11 5 9 6 10 7 8 9 7 10 6 11 1 12 2 13
REMARK SMILES IDX 3 14 4 15 84 16 5 17 16 19 17 20 18 21 19 22 20 24 21 25
REMARK SMILES IDX 22 26 83 27 23 28 82 29 24 30 25 31 26 32 76 33 27 34 81 35
REMARK SMILES IDX 75 36 77 37 28 38 80 39 74 40 73 41 29 43 61 44 41 45 60 46
REMARK SMILES IDX 42 47 45 48 59 49 78 50 43 51 44 52 58 54 79 55 46 56 30 57
REMARK SMILES IDX 31 58 39 59 32 60 38 61 40 62 37 63 33 64 34 65 35 66 36 67
REMARK SMILES IDX 62 68 63 69 71 70 64 71 70 72 72 73 69 74 65 75 66 76 67 77
REMARK SMILES IDX 68 78 47 79 48 80 56 81 49 82 55 83 57 84 54 85 50 86 51 87
REMARK SMILES IDX 52 88 53 89
REMARK H PARENT 11 8 6 18 18 23 77 42 45 53
REMARK Flexibility Score: inf
ROOT
ATOM      1  C   UNL A   1      37.338  20.962  24.615  1.00  0.00     0.002 C 
ENDROOT
BRANCH   1   2
ATOM      2  C   UNL A   1      35.850  20.739  24.995  1.00  0.00     0.002 C 
BRANCH   2   3
ATOM      3  C   UNL A   1      34.360  21.684  24.620  1.00  0.00     0.021 C 
BRANCH   3   4
ATOM      4  C   UNL A   1      33.891  23.728  23.981  1.00  0.00     0.116 C 
BRANCH   4   5
ATOM      5  N   UNL A   1      33.173  24.311  22.714  1.00  0.00    -0.356 N 
ATOM      6  C   UNL A   1      32.541  25.520  22.628  1.00  0.00     0.225 C 
ATOM      7  O   UNL A   1      31.944  25.844  21.605  1.00  0.00    -0.275 OA
ATOM      8  H   UNL A   1      33.176  23.751  21.903  1.00  0.00     0.163 HD
BRANCH   6   9
ATOM      9  C   UNL A   1      32.672  26.409  23.826  1.00  0.00     0.161 C 
BRANCH   9  10
ATOM     10  C   UNL A   1      31.339  26.972  24.300  1.00  0.00     0.272 C 
BRANCH  10  11
ATOM     11  N   UNL A   1      30.286  27.296  23.343  1.00  0.00    -0.334 N 
ATOM     12  C   UNL A   1      28.110  30.459  21.267  1.00  0.00     0.017 C 
ATOM     13  C   UNL A   1      28.371  29.803  22.705  1.00  0.00     0.019 C 
ATOM     14  C   UNL A   1      28.133  31.136  23.551  1.00  0.00     0.017 C 
ATOM     15  C   UNL A   1      27.232  28.272  23.422  1.00  0.00     0.073 C 
ATOM     16  C   UNL A   1      30.242  29.083  22.673  1.00  0.00     0.268 C 
ATOM     17  C   UNL A   1      28.498  26.686  23.726  1.00  0.00     0.263 C 
ATOM     18  H   UNL A   1      30.629  26.701  22.588  1.00  0.00     0.348 HD
ENDBRANCH  10  11
ENDBRANCH   9  10
ENDBRANCH   6   9
ENDBRANCH   4   5
ENDBRANCH   3   4
ENDBRANCH   2   3
ENDBRANCH   1   2
BRANCH   1  19
ATOM     19  C   UNL A   1      38.314  19.846  24.956  1.00  0.00     0.021 C 
BRANCH  19  20
ATOM     20  C   UNL A   1      39.251  20.230  26.089  1.00  0.00     0.116 C 
BRANCH  20  21
ATOM     21  N   UNL A   1      40.375  19.303  26.109  1.00  0.00    -0.352 N 
ATOM     22  C   UNL A   1      41.703  19.612  25.973  1.00  0.00     0.251 C 
ATOM     23  H   UNL A   1      40.157  18.352  26.235  1.00  0.00     0.163 HD
ATOM     24  O   UNL A   1      42.500  18.780  25.558  1.00  0.00    -0.269 OA
BRANCH  22  25
ATOM     25  C   UNL A   1      42.136  20.969  26.352  1.00  0.00     0.039 A 
ATOM     26  C   UNL A   1      42.480  21.245  27.674  1.00  0.00     0.014 A 
ATOM     27  C   UNL A   1      42.217  21.957  25.364  1.00  0.00     0.014 A 
ATOM     28  C   UNL A   1      42.950  22.517  28.000  1.00  0.00     0.010 A 
ATOM     29  C   UNL A   1      42.758  23.193  25.675  1.00  0.00     0.010 A 
ATOM     30  C   UNL A   1      43.117  23.488  26.997  1.00  0.00    -0.014 A 
BRANCH  30  31
ATOM     31  C   UNL A   1      43.662  24.829  27.308  1.00  0.00     0.031 A 
ATOM     32  C   UNL A   1      42.743  25.900  27.826  1.00  0.00     0.074 A 
ATOM     33  C   UNL A   1      44.958  25.088  27.053  1.00  0.00     0.049 A 
ATOM     34  N   UNL A   1      43.000  27.155  28.080  1.00  0.00    -0.248 NA
ATOM     35  C   UNL A   1      41.341  25.515  28.054  1.00  0.00     0.031 C 
ATOM     36  C   UNL A   1      45.919  24.127  26.506  1.00  0.00     0.029 A 
ATOM     37  N   UNL A   1      45.689  26.236  27.208  1.00  0.00    -0.354 N 
ATOM     38  C   UNL A   1      41.794  27.711  28.492  1.00  0.00     0.074 A 
ATOM     39  C   UNL A   1      40.793  26.674  28.383  1.00  0.00     0.031 C 
ATOM     40  C   UNL A   1      47.119  24.717  26.401  1.00  0.00     0.029 A 
ATOM     41  C   UNL A   1      47.003  26.110  26.820  1.00  0.00     0.049 A 
ATOM     42  H   UNL A   1      45.311  27.072  27.565  1.00  0.00     0.167 HD
ATOM     43  C   UNL A   1      41.554  28.966  28.943  1.00  0.00     0.034 A 
ATOM     44  C   UNL A   1      47.994  27.022  26.791  1.00  0.00     0.034 A 
ATOM     45  C   UNL A   1      42.576  29.980  29.046  1.00  0.00     0.049 A 
ATOM     46  C   UNL A   1      47.692  28.422  27.261  1.00  0.00     0.074 A 
ATOM     47  C   UNL A   1      42.468  31.266  29.541  1.00  0.00     0.029 A 
ATOM     48  N   UNL A   1      43.894  29.822  28.633  1.00  0.00    -0.354 N 
ATOM     49  N   UNL A   1      46.560  28.918  27.708  1.00  0.00    -0.248 NA
ATOM     50  C   UNL A   1      48.800  29.383  27.230  1.00  0.00     0.031 C 
ATOM     51  C   UNL A   1      43.694  31.910  29.356  1.00  0.00     0.029 A 
ATOM     52  C   UNL A   1      44.597  31.001  28.823  1.00  0.00     0.049 A 
ATOM     53  H   UNL A   1      44.274  28.994  28.261  1.00  0.00     0.167 HD
ATOM     54  C   UNL A   1      46.829  30.243  28.033  1.00  0.00     0.074 A 
ATOM     55  C   UNL A   1      48.235  30.460  27.754  1.00  0.00     0.031 C 
ATOM     56  C   UNL A   1      45.995  31.199  28.519  1.00  0.00     0.034 A 
BRANCH  43  57
ATOM     57  C   UNL A   1      40.136  29.311  29.331  1.00  0.00     0.023 A 
ATOM     58  C   UNL A   1      39.718  29.313  30.673  1.00  0.00     0.031 A 
ATOM     59  C   UNL A   1      39.185  29.624  28.346  1.00  0.00     0.131 A 
ATOM     60  C   UNL A   1      38.371  29.549  30.988  1.00  0.00     0.055 A 
ATOM     61  C   UNL A   1      37.864  29.941  28.672  1.00  0.00     0.041 A 
ATOM     62  F   UNL A   1      39.517  29.616  27.045  1.00  0.00    -0.206 F 
ATOM     63  C   UNL A   1      37.447  29.891  29.998  1.00  0.00     0.022 A 
BRANCH  60  64
ATOM     64  S   UNL A   1      37.816  29.265  32.691  1.00  0.00     0.124 S 
ATOM     65  O   UNL A   1      38.760  30.083  33.448  1.00  0.00    -0.237 OA
ATOM     66  O   UNL A   1      36.439  29.743  32.658  1.00  0.00    -0.237 OA
ATOM     67  O   UNL A   1      37.972  27.822  32.867  1.00  0.00    -0.744 OA
ENDBRANCH  60  64
ENDBRANCH  43  57
BRANCH  44  68
ATOM     68  C   UNL A   1      49.349  26.652  26.291  1.00  0.00     0.023 A 
ATOM     69  C   UNL A   1      49.818  27.130  25.056  1.00  0.00     0.031 A 
ATOM     70  C   UNL A   1      50.182  25.782  27.017  1.00  0.00     0.131 A 
ATOM     71  C   UNL A   1      51.056  26.695  24.562  1.00  0.00     0.055 A 
ATOM     72  C   UNL A   1      51.440  25.400  26.549  1.00  0.00     0.041 A 
ATOM     73  F   UNL A   1      49.786  25.299  28.206  1.00  0.00    -0.206 F 
ATOM     74  C   UNL A   1      51.878  25.845  25.307  1.00  0.00     0.022 A 
BRANCH  71  75
ATOM     75  S   UNL A   1      51.536  27.177  22.881  1.00  0.00     0.124 S 
ATOM     76  O   UNL A   1      52.736  26.373  22.673  1.00  0.00    -0.237 OA
ATOM     77  O   UNL A   1      50.361  26.788  22.108  1.00  0.00    -0.237 OA
ATOM     78  O   UNL A   1      51.760  28.617  22.991  1.00  0.00    -0.744 OA
ENDBRANCH  71  75
ENDBRANCH  44  68
BRANCH  56  79
ATOM     79  C   UNL A   1      46.597  32.552  28.798  1.00  0.00     0.023 A 
ATOM     80  C   UNL A   1      46.622  33.562  27.821  1.00  0.00     0.031 A 
ATOM     81  C   UNL A   1      47.161  32.833  30.056  1.00  0.00     0.131 A 
ATOM     82  C   UNL A   1      47.249  34.785  28.098  1.00  0.00     0.055 A 
ATOM     83  C   UNL A   1      47.722  34.076  30.347  1.00  0.00     0.041 A 
ATOM     84  F   UNL A   1      47.167  31.903  31.025  1.00  0.00    -0.206 F 
ATOM     85  C   UNL A   1      47.781  35.056  29.361  1.00  0.00     0.022 A 
BRANCH  82  86
ATOM     86  S   UNL A   1      47.448  35.983  26.751  1.00  0.00     0.124 S 
ATOM     87  O   UNL A   1      48.349  35.275  25.847  1.00  0.00    -0.237 OA
ATOM     88  O   UNL A   1      46.077  36.153  26.279  1.00  0.00    -0.237 OA
ATOM     89  O   UNL A   1      48.024  37.152  27.414  1.00  0.00    -0.744 OA
ENDBRANCH  82  86
ENDBRANCH  56  79
ENDBRANCH  30  31
ENDBRANCH  22  25
ENDBRANCH  20  21
ENDBRANCH  19  20
ENDBRANCH   1  19
TORSDOF 18
ENDMDL
MODEL 2
REMARK VINA RESULT:     -11.8      3.816      9.086
REMARK SMILES CC1(C)CC[N@H+](CCC(=O)NCCCCCCNC(=O)c2ccc(-c3c4nc(c(-c5cc(S(=O)(=O)[O-])ccc5F)c5ccc([nH]5)c(-c5cc(S(=O)(=O)[O-])ccc5F)c5nc(c(-c6cc(S(=O)(=O)[O-])ccc6F)c6ccc3[nH]6)C=C5)C=C4)cc2)C1
REMARK SMILES IDX 15 1 14 2 13 3 12 4 11 5 9 6 10 7 8 9 7 10 6 11 1 12 2 13
REMARK SMILES IDX 3 14 4 15 84 16 5 17 16 19 17 20 18 21 19 22 20 24 21 25
REMARK SMILES IDX 22 26 83 27 23 28 82 29 24 30 25 31 26 32 76 33 27 34 81 35
REMARK SMILES IDX 75 36 77 37 28 38 80 39 74 40 73 41 29 43 61 44 41 45 60 46
REMARK SMILES IDX 42 47 45 48 59 49 78 50 43 51 44 52 58 54 79 55 46 56 30 57
REMARK SMILES IDX 31 58 39 59 32 60 38 61 40 62 37 63 33 64 34 65 35 66 36 67
REMARK SMILES IDX 62 68 63 69 71 70 64 71 70 72 72 73 69 74 65 75 66 76 67 77
REMARK SMILES IDX 68 78 47 79 48 80 56 81 49 82 55 83 57 84 54 85 50 86 51 87
REMARK SMILES IDX 52 88 53 89
REMARK H PARENT 11 8 6 18 18 23 77 42 45 53
REMARK Flexibility Score: inf
ROOT
ATOM      1  C   UNL A   1      35.323  21.964  24.659  1.00  0.00     0.002 C 
ENDROOT
BRANCH   1   2
ATOM      2  C   UNL A   1      34.028  21.219  24.241  1.00  0.00     0.002 C 
BRANCH   2   3
ATOM      3  C   UNL A   1      32.290  21.699  24.309  1.00  0.00     0.021 C 
BRANCH   3   4
ATOM      4  C   UNL A   1      31.145  23.559  24.117  1.00  0.00     0.116 C 
BRANCH   4   5
ATOM      5  N   UNL A   1      30.967  24.584  22.942  1.00  0.00    -0.356 N 
ATOM      6  C   UNL A   1      31.918  25.445  22.471  1.00  0.00     0.225 C 
ATOM      7  O   UNL A   1      31.646  26.260  21.593  1.00  0.00    -0.275 OA
ATOM      8  H   UNL A   1      30.086  24.609  22.502  1.00  0.00     0.163 HD
BRANCH   6   9
ATOM      9  C   UNL A   1      33.286  25.289  23.058  1.00  0.00     0.161 C 
BRANCH   9  10
ATOM     10  C   UNL A   1      33.651  26.406  24.028  1.00  0.00     0.272 C 
BRANCH  10  11
ATOM     11  N   UNL A   1      32.612  27.231  24.635  1.00  0.00    -0.334 N 
ATOM     12  C   UNL A   1      31.589  31.120  26.333  1.00  0.00     0.017 C 
ATOM     13  C   UNL A   1      32.474  29.805  26.564  1.00  0.00     0.019 C 
ATOM     14  C   UNL A   1      33.644  30.522  27.380  1.00  0.00     0.017 C 
ATOM     15  C   UNL A   1      31.764  28.185  27.578  1.00  0.00     0.073 C 
ATOM     16  C   UNL A   1      32.947  29.108  24.744  1.00  0.00     0.268 C 
ATOM     17  C   UNL A   1      31.802  26.606  26.269  1.00  0.00     0.263 C 
ATOM     18  H   UNL A   1      31.913  27.093  23.906  1.00  0.00     0.348 HD
ENDBRANCH  10  11
ENDBRANCH   9  10
ENDBRANCH   6   9
ENDBRANCH   4   5
ENDBRANCH   3   4
ENDBRANCH   2   3
ENDBRANCH   1   2
BRANCH   1  19
ATOM     19  C   UNL A   1      35.155  23.271  25.418  1.00  0.00     0.021 C 
BRANCH  19  20
ATOM     20  C   UNL A   1      36.483  23.823  25.910  1.00  0.00     0.116 C 
BRANCH  20  21
ATOM     21  N   UNL A   1      37.387  22.711  26.179  1.00  0.00    -0.352 N 
ATOM     22  C   UNL A   1      38.746  22.772  26.342  1.00  0.00     0.251 C 
ATOM     23  H   UNL A   1      36.976  21.820  26.252  1.00  0.00     0.163 HD
ATOM     24  O   UNL A   1      39.448  21.795  26.114  1.00  0.00    -0.269 OA
BRANCH  22  25
ATOM     25  C   UNL A   1      39.326  24.044  26.809  1.00  0.00     0.039 A 
ATOM     26  C   UNL A   1      39.921  24.913  25.896  1.00  0.00     0.014 A 
ATOM     27  C   UNL A   1      39.245  24.369  28.168  1.00  0.00     0.014 A 
ATOM     28  C   UNL A   1      40.405  26.140  26.347  1.00  0.00     0.010 A 
ATOM     29  C   UNL A   1      39.654  25.620  28.598  1.00  0.00     0.010 A 
ATOM     30  C   UNL A   1      40.249  26.511  27.694  1.00  0.00    -0.014 A 
BRANCH  30  31
ATOM     31  C   UNL A   1      40.708  27.829  28.188  1.00  0.00     0.031 A 
ATOM     32  C   UNL A   1      42.181  28.100  28.317  1.00  0.00     0.074 A 
ATOM     33  C   UNL A   1      39.797  28.738  28.582  1.00  0.00     0.049 A 
ATOM     34  N   UNL A   1      42.787  29.151  28.801  1.00  0.00    -0.248 NA
ATOM     35  C   UNL A   1      43.091  27.032  27.872  1.00  0.00     0.031 C 
ATOM     36  C   UNL A   1      38.344  28.549  28.540  1.00  0.00     0.029 A 
ATOM     37  N   UNL A   1      39.953  29.994  29.105  1.00  0.00    -0.354 N 
ATOM     38  C   UNL A   1      44.147  28.869  28.727  1.00  0.00     0.074 A 
ATOM     39  C   UNL A   1      44.271  27.522  28.217  1.00  0.00     0.031 C 
ATOM     40  C   UNL A   1      37.744  29.663  28.988  1.00  0.00     0.029 A 
ATOM     41  C   UNL A   1      38.764  30.621  29.400  1.00  0.00     0.049 A 
ATOM     42  H   UNL A   1      40.833  30.410  29.256  1.00  0.00     0.167 HD
ATOM     43  C   UNL A   1      45.192  29.675  29.033  1.00  0.00     0.034 A 
ATOM     44  C   UNL A   1      38.529  31.826  29.955  1.00  0.00     0.034 A 
ATOM     45  C   UNL A   1      45.037  31.019  29.534  1.00  0.00     0.049 A 
ATOM     46  C   UNL A   1      39.710  32.688  30.323  1.00  0.00     0.074 A 
ATOM     47  C   UNL A   1      46.018  31.949  29.824  1.00  0.00     0.029 A 
ATOM     48  N   UNL A   1      43.819  31.619  29.832  1.00  0.00    -0.354 N 
ATOM     49  N   UNL A   1      40.992  32.434  30.187  1.00  0.00    -0.248 NA
ATOM     50  C   UNL A   1      39.414  33.999  30.910  1.00  0.00     0.031 C 
ATOM     51  C   UNL A   1      45.401  33.079  30.369  1.00  0.00     0.029 A 
ATOM     52  C   UNL A   1      44.027  32.890  30.342  1.00  0.00     0.049 A 
ATOM     53  H   UNL A   1      42.937  31.202  29.699  1.00  0.00     0.167 HD
ATOM     54  C   UNL A   1      41.653  33.565  30.652  1.00  0.00     0.074 A 
ATOM     55  C   UNL A   1      40.628  34.511  31.047  1.00  0.00     0.031 C 
ATOM     56  C   UNL A   1      42.987  33.808  30.747  1.00  0.00     0.034 A 
BRANCH  43  57
ATOM     57  C   UNL A   1      46.583  29.114  28.855  1.00  0.00     0.023 A 
ATOM     58  C   UNL A   1      47.167  28.976  27.584  1.00  0.00     0.031 A 
ATOM     59  C   UNL A   1      47.328  28.693  29.970  1.00  0.00     0.131 A 
ATOM     60  C   UNL A   1      48.424  28.366  27.451  1.00  0.00     0.055 A 
ATOM     61  C   UNL A   1      48.614  28.164  29.838  1.00  0.00     0.041 A 
ATOM     62  F   UNL A   1      46.816  28.776  31.208  1.00  0.00    -0.206 F 
ATOM     63  C   UNL A   1      49.164  27.985  28.573  1.00  0.00     0.022 A 
BRANCH  60  64
ATOM     64  S   UNL A   1      49.016  27.953  25.788  1.00  0.00     0.124 S 
ATOM     65  O   UNL A   1      50.163  28.847  25.653  1.00  0.00    -0.237 OA
ATOM     66  O   UNL A   1      49.323  26.532  25.906  1.00  0.00    -0.237 OA
ATOM     67  O   UNL A   1      47.878  28.276  24.929  1.00  0.00    -0.744 OA
ENDBRANCH  60  64
ENDBRANCH  43  57
BRANCH  44  68
ATOM     68  C   UNL A   1      37.133  32.283  30.211  1.00  0.00     0.023 A 
ATOM     69  C   UNL A   1      36.400  32.955  29.219  1.00  0.00     0.031 A 
ATOM     70  C   UNL A   1      36.523  32.094  31.464  1.00  0.00     0.131 A 
ATOM     71  C   UNL A   1      35.124  33.459  29.512  1.00  0.00     0.055 A 
ATOM     72  C   UNL A   1      35.229  32.544  31.731  1.00  0.00     0.041 A 
ATOM     73  F   UNL A   1      37.176  31.454  32.448  1.00  0.00    -0.206 F 
ATOM     74  C   UNL A   1      34.527  33.245  30.757  1.00  0.00     0.022 A 
BRANCH  71  75
ATOM     75  S   UNL A   1      34.294  34.488  28.271  1.00  0.00     0.124 S 
ATOM     76  O   UNL A   1      34.268  35.788  28.934  1.00  0.00    -0.237 OA
ATOM     77  O   UNL A   1      35.192  34.368  27.128  1.00  0.00    -0.237 OA
ATOM     78  O   UNL A   1      32.992  33.843  28.111  1.00  0.00    -0.744 OA
ENDBRANCH  71  75
ENDBRANCH  44  68
BRANCH  56  79
ATOM     79  C   UNL A   1      43.399  35.158  31.276  1.00  0.00     0.023 A 
ATOM     80  C   UNL A   1      43.639  35.371  32.644  1.00  0.00     0.031 A 
ATOM     81  C   UNL A   1      43.546  36.249  30.400  1.00  0.00     0.131 A 
ATOM     82  C   UNL A   1      43.957  36.656  33.105  1.00  0.00     0.055 A 
ATOM     83  C   UNL A   1      43.929  37.510  30.856  1.00  0.00     0.041 A 
ATOM     84  F   UNL A   1      43.325  36.103  29.083  1.00  0.00    -0.206 F 
ATOM     85  C   UNL A   1      44.124  37.722  32.218  1.00  0.00     0.022 A 
BRANCH  82  86
ATOM     86  S   UNL A   1      44.053  36.937  34.893  1.00  0.00     0.124 S 
ATOM     87  O   UNL A   1      43.267  35.825  35.417  1.00  0.00    -0.237 OA
ATOM     88  O   UNL A   1      45.490  36.874  35.143  1.00  0.00    -0.237 OA
ATOM     89  O   UNL A   1      43.453  38.259  35.066  1.00  0.00    -0.744 OA
ENDBRANCH  82  86
ENDBRANCH  56  79
ENDBRANCH  30  31
ENDBRANCH  22  25
ENDBRANCH  20  21
ENDBRANCH  19  20
ENDBRANCH   1  19
TORSDOF 18
ENDMDL
MODEL 3
REMARK VINA RESULT:     -11.7      2.359      3.046
REMARK SMILES CC1(C)CC[N@H+](CCC(=O)NCCCCCCNC(=O)c2ccc(-c3c4nc(c(-c5cc(S(=O)(=O)[O-])ccc5F)c5ccc([nH]5)c(-c5cc(S(=O)(=O)[O-])ccc5F)c5nc(c(-c6cc(S(=O)(=O)[O-])ccc6F)c6ccc3[nH]6)C=C5)C=C4)cc2)C1
REMARK SMILES IDX 15 1 14 2 13 3 12 4 11 5 9 6 10 7 8 9 7 10 6 11 1 12 2 13
REMARK SMILES IDX 3 14 4 15 84 16 5 17 16 19 17 20 18 21 19 22 20 24 21 25
REMARK SMILES IDX 22 26 83 27 23 28 82 29 24 30 25 31 26 32 76 33 27 34 81 35
REMARK SMILES IDX 75 36 77 37 28 38 80 39 74 40 73 41 29 43 61 44 41 45 60 46
REMARK SMILES IDX 42 47 45 48 59 49 78 50 43 51 44 52 58 54 79 55 46 56 30 57
REMARK SMILES IDX 31 58 39 59 32 60 38 61 40 62 37 63 33 64 34 65 35 66 36 67
REMARK SMILES IDX 62 68 63 69 71 70 64 71 70 72 72 73 69 74 65 75 66 76 67 77
REMARK SMILES IDX 68 78 47 79 48 80 56 81 49 82 55 83 57 84 54 85 50 86 51 87
REMARK SMILES IDX 52 88 53 89
REMARK H PARENT 11 8 6 18 18 23 77 42 45 53
REMARK Flexibility Score: inf
ROOT
ATOM      1  C   UNL A   1      36.813  20.900  24.746  1.00  0.00     0.002 C 
ENDROOT
BRANCH   1   2
ATOM      2  C   UNL A   1      35.387  20.360  25.032  1.00  0.00     0.002 C 
BRANCH   2   3
ATOM      3  C   UNL A   1      33.936  21.131  25.775  1.00  0.00     0.021 C 
BRANCH   3   4
ATOM      4  C   UNL A   1      31.846  21.471  25.203  1.00  0.00     0.116 C 
BRANCH   4   5
ATOM      5  N   UNL A   1      30.588  21.961  26.003  1.00  0.00    -0.356 N 
ATOM      6  C   UNL A   1      30.567  22.944  26.952  1.00  0.00     0.225 C 
ATOM      7  O   UNL A   1      29.538  23.195  27.572  1.00  0.00    -0.275 OA
ATOM      8  H   UNL A   1      29.733  21.516  25.803  1.00  0.00     0.163 HD
BRANCH   6   9
ATOM      9  C   UNL A   1      31.848  23.699  27.135  1.00  0.00     0.161 C 
BRANCH   9  10
ATOM     10  C   UNL A   1      31.804  25.103  26.546  1.00  0.00     0.272 C 
BRANCH  10  11
ATOM     11  N   UNL A   1      32.545  25.422  25.330  1.00  0.00    -0.334 N 
ATOM     12  C   UNL A   1      32.944  24.751  21.036  1.00  0.00     0.017 C 
ATOM     13  C   UNL A   1      33.082  24.048  22.469  1.00  0.00     0.019 C 
ATOM     14  C   UNL A   1      32.734  22.571  21.974  1.00  0.00     0.017 C 
ATOM     15  C   UNL A   1      34.826  24.071  23.525  1.00  0.00     0.073 C 
ATOM     16  C   UNL A   1      31.740  24.931  23.670  1.00  0.00     0.268 C 
ATOM     17  C   UNL A   1      34.433  25.031  25.295  1.00  0.00     0.263 C 
ATOM     18  H   UNL A   1      32.471  26.436  25.412  1.00  0.00     0.348 HD
ENDBRANCH  10  11
ENDBRANCH   9  10
ENDBRANCH   6   9
ENDBRANCH   4   5
ENDBRANCH   3   4
ENDBRANCH   2   3
ENDBRANCH   1   2
BRANCH   1  19
ATOM     19  C   UNL A   1      37.973  19.940  24.960  1.00  0.00     0.021 C 
BRANCH  19  20
ATOM     20  C   UNL A   1      39.066  20.546  25.825  1.00  0.00     0.116 C 
BRANCH  20  21
ATOM     21  N   UNL A   1      40.045  19.515  26.143  1.00  0.00    -0.352 N 
ATOM     22  C   UNL A   1      41.408  19.652  26.179  1.00  0.00     0.251 C 
ATOM     23  H   UNL A   1      39.688  18.623  26.357  1.00  0.00     0.163 HD
ATOM     24  O   UNL A   1      42.139  18.684  26.007  1.00  0.00    -0.269 OA
BRANCH  22  25
ATOM     25  C   UNL A   1      41.957  20.994  26.439  1.00  0.00     0.039 A 
ATOM     26  C   UNL A   1      42.223  21.855  25.376  1.00  0.00     0.014 A 
ATOM     27  C   UNL A   1      42.181  21.391  27.762  1.00  0.00     0.014 A 
ATOM     28  C   UNL A   1      42.680  23.144  25.647  1.00  0.00     0.010 A 
ATOM     29  C   UNL A   1      42.559  22.696  28.031  1.00  0.00     0.010 A 
ATOM     30  C   UNL A   1      42.823  23.579  26.976  1.00  0.00    -0.014 A 
BRANCH  30  31
ATOM     31  C   UNL A   1      43.259  24.959  27.290  1.00  0.00     0.031 A 
ATOM     32  C   UNL A   1      42.299  25.905  27.958  1.00  0.00     0.074 A 
ATOM     33  C   UNL A   1      44.483  25.366  26.907  1.00  0.00     0.049 A 
ATOM     34  N   UNL A   1      42.454  27.170  28.243  1.00  0.00    -0.248 NA
ATOM     35  C   UNL A   1      40.980  25.362  28.320  1.00  0.00     0.031 C 
ATOM     36  C   UNL A   1      45.469  24.535  26.211  1.00  0.00     0.029 A 
ATOM     37  N   UNL A   1      45.105  26.579  27.037  1.00  0.00    -0.354 N 
ATOM     38  C   UNL A   1      41.252  27.577  28.812  1.00  0.00     0.074 A 
ATOM     39  C   UNL A   1      40.357  26.442  28.764  1.00  0.00     0.031 C 
ATOM     40  C   UNL A   1      46.582  25.254  26.004  1.00  0.00     0.029 A 
ATOM     41  C   UNL A   1      46.372  26.610  26.501  1.00  0.00     0.049 A 
ATOM     42  H   UNL A   1      44.686  27.356  27.473  1.00  0.00     0.167 HD
ATOM     43  C   UNL A   1      40.938  28.782  29.347  1.00  0.00     0.034 A 
ATOM     44  C   UNL A   1      47.254  27.624  26.408  1.00  0.00     0.034 A 
ATOM     45  C   UNL A   1      41.855  29.895  29.387  1.00  0.00     0.049 A 
ATOM     46  C   UNL A   1      46.866  28.965  26.976  1.00  0.00     0.074 A 
ATOM     47  C   UNL A   1      41.671  31.142  29.954  1.00  0.00     0.029 A 
ATOM     48  N   UNL A   1      43.126  29.896  28.824  1.00  0.00    -0.354 N 
ATOM     49  N   UNL A   1      45.747  29.319  27.569  1.00  0.00    -0.248 NA
ATOM     50  C   UNL A   1      47.858  30.041  26.870  1.00  0.00     0.031 C 
ATOM     51  C   UNL A   1      42.796  31.921  29.667  1.00  0.00     0.029 A 
ATOM     52  C   UNL A   1      43.720  31.136  28.994  1.00  0.00     0.049 A 
ATOM     53  H   UNL A   1      43.544  29.128  28.372  1.00  0.00     0.167 HD
ATOM     54  C   UNL A   1      45.914  30.652  27.927  1.00  0.00     0.074 A 
ATOM     55  C   UNL A   1      47.248  31.031  27.506  1.00  0.00     0.031 C 
ATOM     56  C   UNL A   1      45.046  31.494  28.548  1.00  0.00     0.034 A 
BRANCH  43  57
ATOM     57  C   UNL A   1      39.545  28.957  29.906  1.00  0.00     0.023 A 
ATOM     58  C   UNL A   1      38.519  29.557  29.156  1.00  0.00     0.031 A 
ATOM     59  C   UNL A   1      39.245  28.535  31.212  1.00  0.00     0.131 A 
ATOM     60  C   UNL A   1      37.264  29.786  29.741  1.00  0.00     0.055 A 
ATOM     61  C   UNL A   1      37.969  28.689  31.760  1.00  0.00     0.041 A 
ATOM     62  F   UNL A   1      40.189  27.977  31.987  1.00  0.00    -0.206 F 
ATOM     63  C   UNL A   1      36.974  29.329  31.029  1.00  0.00     0.022 A 
BRANCH  60  64
ATOM     64  S   UNL A   1      36.064  30.809  28.846  1.00  0.00     0.124 S 
ATOM     65  O   UNL A   1      35.372  29.810  28.036  1.00  0.00    -0.237 OA
ATOM     66  O   UNL A   1      35.288  31.404  29.928  1.00  0.00    -0.237 OA
ATOM     67  O   UNL A   1      36.901  31.741  28.093  1.00  0.00    -0.744 OA
ENDBRANCH  60  64
ENDBRANCH  43  57
BRANCH  44  68
ATOM     68  C   UNL A   1      48.574  27.422  25.744  1.00  0.00     0.023 A 
ATOM     69  C   UNL A   1      48.718  27.590  24.357  1.00  0.00     0.031 A 
ATOM     70  C   UNL A   1      49.703  27.016  26.477  1.00  0.00     0.131 A 
ATOM     71  C   UNL A   1      49.945  27.304  23.741  1.00  0.00     0.055 A 
ATOM     72  C   UNL A   1      50.938  26.790  25.868  1.00  0.00     0.041 A 
ATOM     73  F   UNL A   1      49.624  26.843  27.807  1.00  0.00    -0.206 F 
ATOM     74  C   UNL A   1      51.061  26.919  24.489  1.00  0.00     0.022 A 
BRANCH  71  75
ATOM     75  S   UNL A   1      50.035  27.343  21.930  1.00  0.00     0.124 S 
ATOM     76  O   UNL A   1      48.869  26.550  21.558  1.00  0.00    -0.237 OA
ATOM     77  O   UNL A   1      49.953  28.774  21.655  1.00  0.00    -0.237 OA
ATOM     78  O   UNL A   1      51.328  26.726  21.641  1.00  0.00    -0.744 OA
ENDBRANCH  71  75
ENDBRANCH  44  68
BRANCH  56  79
ATOM     79  C   UNL A   1      45.534  32.894  28.824  1.00  0.00     0.023 A 
ATOM     80  C   UNL A   1      45.279  33.951  27.935  1.00  0.00     0.031 A 
ATOM     81  C   UNL A   1      46.271  33.171  29.990  1.00  0.00     0.131 A 
ATOM     82  C   UNL A   1      45.805  35.225  28.196  1.00  0.00     0.055 A 
ATOM     83  C   UNL A   1      46.733  34.455  30.278  1.00  0.00     0.041 A 
ATOM     84  F   UNL A   1      46.547  32.197  30.873  1.00  0.00    -0.206 F 
ATOM     85  C   UNL A   1      46.513  35.488  29.371  1.00  0.00     0.022 A 
BRANCH  82  86
ATOM     86  S   UNL A   1      45.635  36.510  26.929  1.00  0.00     0.124 S 
ATOM     87  O   UNL A   1      46.229  35.865  25.762  1.00  0.00    -0.237 OA
ATOM     88  O   UNL A   1      44.190  36.711  26.880  1.00  0.00    -0.237 OA
ATOM     89  O   UNL A   1      46.398  37.632  27.473  1.00  0.00    -0.744 OA
ENDBRANCH  82  86
ENDBRANCH  56  79
ENDBRANCH  30  31
ENDBRANCH  22  25
ENDBRANCH  20  21
ENDBRANCH  19  20
ENDBRANCH   1  19
TORSDOF 18
ENDMDL
