MODEL 1
REMARK VINA RESULT:     -12.1      0.000      0.000
REMARK SMILES COC(=O)c1ccccc1N(C)S(=O)(=O)c1c[nH]c(C(=O)NCCCCCCNC(=O)c2ccc(-c3c4nc(c(-c5cc(S(=O)(=O)[O-])ccc5F)c5ccc([nH]5)c(-c5cc(S(=O)(=O)[O-])ccc5F)c5nc(c(-c6cc(S(=O)(=O)[O-])ccc6F)c6ccc3[nH]6)C=C5)C=C4)cc2)c1
REMARK SMILES IDX 24 1 23 2 22 3 20 4 21 5 19 7 16 8 17 9 95 10 18 11 13 13
REMARK SMILES IDX 14 14 15 15 11 16 12 17 10 18 5 19 6 20 7 21 9 22 8 23 3 24
REMARK SMILES IDX 4 25 2 26 1 27 25 28 26 29 27 30 28 31 29 32 30 33 31 35
REMARK SMILES IDX 32 36 33 37 94 38 34 39 93 40 35 41 36 42 37 43 87 44 38 45
REMARK SMILES IDX 92 46 86 47 88 48 39 49 91 50 85 51 84 52 40 54 72 55 52 56
REMARK SMILES IDX 71 57 53 58 56 59 70 60 89 61 54 62 55 63 69 65 90 66 57 67
REMARK SMILES IDX 41 68 42 69 50 70 43 71 49 72 51 73 48 74 44 75 45 76 46 77
REMARK SMILES IDX 47 78 73 79 74 80 82 81 75 82 81 83 83 84 80 85 76 86 77 87
REMARK SMILES IDX 78 88 79 89 58 90 59 91 67 92 60 93 66 94 68 95 65 96 61 97
REMARK SMILES IDX 62 98 63 99 64 100
REMARK H PARENT 22 6 18 12 29 34 88 53 56 64
REMARK Flexibility Score: inf
ROOT
ATOM      1  C   UNL A   1      31.084  29.870  25.005  1.00  0.00     0.021 C 
ENDROOT
BRANCH   1   2
ATOM      2  C   UNL A   1      30.678  29.612  23.552  1.00  0.00     0.116 C 
BRANCH   2   3
ATOM      3  N   UNL A   1      29.425  28.883  23.474  1.00  0.00    -0.351 N 
ATOM      4  C   UNL A   1      29.132  27.543  23.471  1.00  0.00     0.267 C 
ATOM      5  O   UNL A   1      27.939  27.232  23.486  1.00  0.00    -0.268 OA
ATOM      6  H   UNL A   1      28.631  29.461  23.412  1.00  0.00     0.163 HD
BRANCH   4   7
ATOM      7  C   UNL A   1      30.160  26.525  23.518  1.00  0.00     0.105 A 
ATOM      8  C   UNL A   1      32.057  25.267  23.475  1.00  0.00     0.106 A 
ATOM      9  C   UNL A   1      31.175  24.652  24.330  1.00  0.00     0.105 A 
ATOM     10  C   UNL A   1      31.364  26.352  22.869  1.00  0.00     0.055 A 
ATOM     11  N   UNL A   1      30.023  25.406  24.326  1.00  0.00    -0.356 N 
ATOM     12  H   UNL A   1      29.208  25.181  24.831  1.00  0.00     0.166 HD
BRANCH   8  13
ATOM     13  S   UNL A   1      33.711  24.954  23.074  1.00  0.00     0.265 S 
ATOM     14  O   UNL A   1      34.356  25.294  24.321  1.00  0.00    -0.201 OA
ATOM     15  O   UNL A   1      33.869  25.737  21.864  1.00  0.00    -0.201 OA
BRANCH  13  16
ATOM     16  N   UNL A   1      34.092  23.314  22.748  1.00  0.00    -0.268 N 
ATOM     17  C   UNL A   1      32.880  22.571  22.277  1.00  0.00     0.164 C 
BRANCH  16  18
ATOM     18  C   UNL A   1      34.955  22.596  23.743  1.00  0.00     0.066 A 
ATOM     19  C   UNL A   1      34.608  22.039  25.003  1.00  0.00     0.084 A 
ATOM     20  C   UNL A   1      35.570  21.379  25.808  1.00  0.00     0.018 A 
ATOM     21  C   UNL A   1      36.899  21.291  25.421  1.00  0.00     0.001 A 
ATOM     22  C   UNL A   1      36.343  22.584  23.460  1.00  0.00     0.028 A 
ATOM     23  C   UNL A   1      37.290  21.919  24.254  1.00  0.00     0.002 A 
BRANCH  19  24
ATOM     24  C   UNL A   1      33.320  22.114  25.711  1.00  0.00     0.340 C 
ATOM     25  O   UNL A   1      33.196  22.647  26.802  1.00  0.00    -0.246 OA
BRANCH  24  26
ATOM     26  O   UNL A   1      32.416  21.356  25.054  1.00  0.00    -0.465 OA
ATOM     27  C   UNL A   1      32.608  19.944  25.185  1.00  0.00     0.282 C 
ENDBRANCH  24  26
ENDBRANCH  19  24
ENDBRANCH  16  18
ENDBRANCH  13  16
ENDBRANCH   8  13
ENDBRANCH   4   7
ENDBRANCH   2   3
ENDBRANCH   1   2
BRANCH   1  28
ATOM     28  C   UNL A   1      32.509  29.402  25.335  1.00  0.00     0.002 C 
BRANCH  28  29
ATOM     29  C   UNL A   1      32.945  29.613  26.793  1.00  0.00     0.002 C 
BRANCH  29  30
ATOM     30  C   UNL A   1      34.254  28.914  27.194  1.00  0.00     0.021 C 
BRANCH  30  31
ATOM     31  C   UNL A   1      35.354  29.885  27.630  1.00  0.00     0.116 C 
BRANCH  31  32
ATOM     32  N   UNL A   1      35.469  29.893  29.079  1.00  0.00    -0.352 N 
ATOM     33  C   UNL A   1      36.485  29.502  29.906  1.00  0.00     0.251 C 
ATOM     34  H   UNL A   1      34.675  30.240  29.547  1.00  0.00     0.163 HD
ATOM     35  O   UNL A   1      36.233  29.339  31.099  1.00  0.00    -0.269 OA
BRANCH  33  36
ATOM     36  C   UNL A   1      37.851  29.231  29.409  1.00  0.00     0.039 A 
ATOM     37  C   UNL A   1      38.811  28.844  30.354  1.00  0.00     0.014 A 
ATOM     38  C   UNL A   1      38.225  29.430  28.076  1.00  0.00     0.014 A 
ATOM     39  C   UNL A   1      40.119  28.581  29.959  1.00  0.00     0.010 A 
ATOM     40  C   UNL A   1      39.535  29.159  27.674  1.00  0.00     0.010 A 
ATOM     41  C   UNL A   1      40.474  28.703  28.610  1.00  0.00    -0.014 A 
BRANCH  41  42
ATOM     42  C   UNL A   1      41.785  28.161  28.170  1.00  0.00     0.031 A 
ATOM     43  C   UNL A   1      42.854  29.265  27.936  1.00  0.00     0.074 A 
ATOM     44  C   UNL A   1      41.869  26.810  28.010  1.00  0.00     0.049 A 
ATOM     45  N   UNL A   1      43.974  29.266  27.266  1.00  0.00    -0.248 NA
ATOM     46  C   UNL A   1      42.569  30.615  28.499  1.00  0.00     0.031 C 
ATOM     47  C   UNL A   1      40.775  25.833  28.219  1.00  0.00     0.029 A 
ATOM     48  N   UNL A   1      42.895  25.988  27.620  1.00  0.00    -0.354 N 
ATOM     49  C   UNL A   1      44.604  30.515  27.496  1.00  0.00     0.074 A 
ATOM     50  C   UNL A   1      43.628  31.341  28.141  1.00  0.00     0.031 C 
ATOM     51  C   UNL A   1      41.169  24.586  27.870  1.00  0.00     0.029 A 
ATOM     52  C   UNL A   1      42.548  24.626  27.427  1.00  0.00     0.049 A 
ATOM     53  H   UNL A   1      43.811  26.320  27.483  1.00  0.00     0.167 HD
ATOM     54  C   UNL A   1      45.929  30.788  27.298  1.00  0.00     0.034 A 
ATOM     55  C   UNL A   1      43.315  23.629  26.888  1.00  0.00     0.034 A 
ATOM     56  C   UNL A   1      46.651  29.681  26.761  1.00  0.00     0.049 A 
ATOM     57  C   UNL A   1      44.617  24.273  26.651  1.00  0.00     0.074 A 
ATOM     58  C   UNL A   1      47.173  29.281  25.553  1.00  0.00     0.029 A 
ATOM     59  N   UNL A   1      47.084  28.783  27.699  1.00  0.00    -0.354 N 
ATOM     60  N   UNL A   1      45.500  24.526  27.562  1.00  0.00    -0.248 NA
ATOM     61  C   UNL A   1      44.846  24.854  25.330  1.00  0.00     0.031 C 
ATOM     62  C   UNL A   1      47.748  27.997  25.782  1.00  0.00     0.029 A 
ATOM     63  C   UNL A   1      47.344  27.610  27.054  1.00  0.00     0.049 A 
ATOM     64  H   UNL A   1      47.188  28.953  28.663  1.00  0.00     0.167 HD
ATOM     65  C   UNL A   1      46.303  25.486  26.996  1.00  0.00     0.074 A 
ATOM     66  C   UNL A   1      45.941  25.558  25.585  1.00  0.00     0.031 C 
ATOM     67  C   UNL A   1      46.973  26.403  27.737  1.00  0.00     0.034 A 
BRANCH  54  68
ATOM     68  C   UNL A   1      46.811  31.913  27.846  1.00  0.00     0.023 A 
ATOM     69  C   UNL A   1      47.127  32.965  26.945  1.00  0.00     0.031 A 
ATOM     70  C   UNL A   1      47.628  31.829  28.986  1.00  0.00     0.131 A 
ATOM     71  C   UNL A   1      48.267  33.766  27.104  1.00  0.00     0.055 A 
ATOM     72  C   UNL A   1      48.721  32.691  29.188  1.00  0.00     0.041 A 
ATOM     73  F   UNL A   1      47.471  30.862  29.901  1.00  0.00    -0.206 F 
ATOM     74  C   UNL A   1      49.071  33.636  28.227  1.00  0.00     0.022 A 
BRANCH  71  75
ATOM     75  S   UNL A   1      48.767  34.836  25.721  1.00  0.00     0.124 S 
ATOM     76  O   UNL A   1      49.965  34.169  25.222  1.00  0.00    -0.237 OA
ATOM     77  O   UNL A   1      47.596  34.774  24.852  1.00  0.00    -0.237 OA
ATOM     78  O   UNL A   1      48.996  36.131  26.359  1.00  0.00    -0.744 OA
ENDBRANCH  71  75
ENDBRANCH  54  68
BRANCH  55  79
ATOM     79  C   UNL A   1      43.163  22.204  26.403  1.00  0.00     0.023 A 
ATOM     80  C   UNL A   1      44.131  21.456  25.713  1.00  0.00     0.031 A 
ATOM     81  C   UNL A   1      41.950  21.502  26.686  1.00  0.00     0.131 A 
ATOM     82  C   UNL A   1      43.895  20.088  25.400  1.00  0.00     0.055 A 
ATOM     83  C   UNL A   1      41.739  20.149  26.417  1.00  0.00     0.041 A 
ATOM     84  F   UNL A   1      40.901  22.099  27.270  1.00  0.00    -0.206 F 
ATOM     85  C   UNL A   1      42.724  19.427  25.782  1.00  0.00     0.022 A 
BRANCH  82  86
ATOM     86  S   UNL A   1      45.131  19.087  24.519  1.00  0.00     0.124 S 
ATOM     87  O   UNL A   1      45.227  17.905  25.369  1.00  0.00    -0.237 OA
ATOM     88  O   UNL A   1      44.522  18.886  23.208  1.00  0.00    -0.237 OA
ATOM     89  O   UNL A   1      46.312  19.951  24.521  1.00  0.00    -0.744 OA
ENDBRANCH  82  86
ENDBRANCH  55  79
BRANCH  67  90
ATOM     90  C   UNL A   1      46.760  26.289  29.236  1.00  0.00     0.023 A 
ATOM     91  C   UNL A   1      45.615  26.787  29.866  1.00  0.00     0.031 A 
ATOM     92  C   UNL A   1      47.762  25.752  30.075  1.00  0.00     0.131 A 
ATOM     93  C   UNL A   1      45.501  26.716  31.272  1.00  0.00     0.055 A 
ATOM     94  C   UNL A   1      47.640  25.655  31.460  1.00  0.00     0.041 A 
ATOM     95  F   UNL A   1      48.898  25.277  29.560  1.00  0.00    -0.206 F 
ATOM     96  C   UNL A   1      46.498  26.143  32.068  1.00  0.00     0.022 A 
BRANCH  93  97
ATOM     97  S   UNL A   1      44.017  27.375  32.076  1.00  0.00     0.124 S 
ATOM     98  O   UNL A   1      44.509  28.601  32.693  1.00  0.00    -0.237 OA
ATOM     99  O   UNL A   1      43.097  27.547  30.956  1.00  0.00    -0.237 OA
ATOM    100  O   UNL A   1      43.641  26.320  33.018  1.00  0.00    -0.744 OA
ENDBRANCH  93  97
ENDBRANCH  67  90
ENDBRANCH  41  42
ENDBRANCH  33  36
ENDBRANCH  31  32
ENDBRANCH  30  31
ENDBRANCH  29  30
ENDBRANCH  28  29
ENDBRANCH   1  28
TORSDOF 21
ENDMDL
MODEL 2
REMARK VINA RESULT:     -12.1      3.935      4.941
REMARK SMILES COC(=O)c1ccccc1N(C)S(=O)(=O)c1c[nH]c(C(=O)NCCCCCCNC(=O)c2ccc(-c3c4nc(c(-c5cc(S(=O)(=O)[O-])ccc5F)c5ccc([nH]5)c(-c5cc(S(=O)(=O)[O-])ccc5F)c5nc(c(-c6cc(S(=O)(=O)[O-])ccc6F)c6ccc3[nH]6)C=C5)C=C4)cc2)c1
REMARK SMILES IDX 24 1 23 2 22 3 20 4 21 5 19 7 16 8 17 9 95 10 18 11 13 13
REMARK SMILES IDX 14 14 15 15 11 16 12 17 10 18 5 19 6 20 7 21 9 22 8 23 3 24
REMARK SMILES IDX 4 25 2 26 1 27 25 28 26 29 27 30 28 31 29 32 30 33 31 35
REMARK SMILES IDX 32 36 33 37 94 38 34 39 93 40 35 41 36 42 37 43 87 44 38 45
REMARK SMILES IDX 92 46 86 47 88 48 39 49 91 50 85 51 84 52 40 54 72 55 52 56
REMARK SMILES IDX 71 57 53 58 56 59 70 60 89 61 54 62 55 63 69 65 90 66 57 67
REMARK SMILES IDX 41 68 42 69 50 70 43 71 49 72 51 73 48 74 44 75 45 76 46 77
REMARK SMILES IDX 47 78 73 79 74 80 82 81 75 82 81 83 83 84 80 85 76 86 77 87
REMARK SMILES IDX 78 88 79 89 58 90 59 91 67 92 60 93 66 94 68 95 65 96 61 97
REMARK SMILES IDX 62 98 63 99 64 100
REMARK H PARENT 22 6 18 12 29 34 88 53 56 64
REMARK Flexibility Score: inf
ROOT
ATOM      1  C   UNL A   1      33.848  28.638  23.596  1.00  0.00     0.021 C 
ENDROOT
BRANCH   1   2
ATOM      2  C   UNL A   1      32.671  28.330  22.668  1.00  0.00     0.116 C 
BRANCH   2   3
ATOM      3  N   UNL A   1      33.037  27.355  21.655  1.00  0.00    -0.351 N 
ATOM      4  C   UNL A   1      32.853  25.999  21.566  1.00  0.00     0.267 C 
ATOM      5  O   UNL A   1      33.204  25.456  20.516  1.00  0.00    -0.268 OA
ATOM      6  H   UNL A   1      33.507  27.742  20.882  1.00  0.00     0.163 HD
BRANCH   4   7
ATOM      7  C   UNL A   1      32.216  25.233  22.616  1.00  0.00     0.105 A 
ATOM      8  C   UNL A   1      31.490  24.267  24.545  1.00  0.00     0.106 A 
ATOM      9  C   UNL A   1      30.471  24.171  23.628  1.00  0.00     0.105 A 
ATOM     10  C   UNL A   1      32.618  24.801  23.863  1.00  0.00     0.055 A 
ATOM     11  N   UNL A   1      30.932  24.733  22.459  1.00  0.00    -0.356 N 
ATOM     12  H   UNL A   1      30.417  24.776  21.620  1.00  0.00     0.166 HD
BRANCH   8  13
ATOM     13  S   UNL A   1      31.591  23.879  26.228  1.00  0.00     0.265 S 
ATOM     14  O   UNL A   1      30.294  23.282  26.442  1.00  0.00    -0.201 OA
ATOM     15  O   UNL A   1      31.976  25.156  26.797  1.00  0.00    -0.201 OA
BRANCH  13  16
ATOM     16  N   UNL A   1      32.759  22.693  26.642  1.00  0.00    -0.268 N 
ATOM     17  C   UNL A   1      32.862  22.545  28.129  1.00  0.00     0.164 C 
BRANCH  16  18
ATOM     18  C   UNL A   1      34.060  22.718  25.894  1.00  0.00     0.066 A 
ATOM     19  C   UNL A   1      34.485  21.921  24.797  1.00  0.00     0.084 A 
ATOM     20  C   UNL A   1      35.761  22.100  24.206  1.00  0.00     0.018 A 
ATOM     21  C   UNL A   1      36.664  23.027  24.704  1.00  0.00     0.001 A 
ATOM     22  C   UNL A   1      35.066  23.557  26.433  1.00  0.00     0.028 A 
ATOM     23  C   UNL A   1      36.324  23.740  25.838  1.00  0.00     0.002 A 
BRANCH  19  24
ATOM     24  C   UNL A   1      33.792  20.784  24.172  1.00  0.00     0.340 C 
ATOM     25  O   UNL A   1      32.749  20.907  23.549  1.00  0.00    -0.246 OA
BRANCH  24  26
ATOM     26  O   UNL A   1      34.387  19.638  24.566  1.00  0.00    -0.465 OA
ATOM     27  C   UNL A   1      33.544  18.482  24.536  1.00  0.00     0.282 C 
ENDBRANCH  24  26
ENDBRANCH  19  24
ENDBRANCH  16  18
ENDBRANCH  13  16
ENDBRANCH   8  13
ENDBRANCH   4   7
ENDBRANCH   2   3
ENDBRANCH   1   2
BRANCH   1  28
ATOM     28  C   UNL A   1      33.660  28.102  25.023  1.00  0.00     0.002 C 
BRANCH  28  29
ATOM     29  C   UNL A   1      33.542  29.177  26.115  1.00  0.00     0.002 C 
BRANCH  29  30
ATOM     30  C   UNL A   1      34.109  28.782  27.488  1.00  0.00     0.021 C 
BRANCH  30  31
ATOM     31  C   UNL A   1      35.480  29.397  27.781  1.00  0.00     0.116 C 
BRANCH  31  32
ATOM     32  N   UNL A   1      35.340  30.515  28.700  1.00  0.00    -0.352 N 
ATOM     33  C   UNL A   1      36.108  30.914  29.758  1.00  0.00     0.251 C 
ATOM     34  H   UNL A   1      34.554  31.083  28.531  1.00  0.00     0.163 HD
ATOM     35  O   UNL A   1      35.627  31.720  30.554  1.00  0.00    -0.269 OA
BRANCH  33  36
ATOM     36  C   UNL A   1      37.467  30.382  29.997  1.00  0.00     0.039 A 
ATOM     37  C   UNL A   1      37.584  29.300  30.881  1.00  0.00     0.014 A 
ATOM     38  C   UNL A   1      38.616  30.965  29.452  1.00  0.00     0.014 A 
ATOM     39  C   UNL A   1      38.833  28.753  31.160  1.00  0.00     0.010 A 
ATOM     40  C   UNL A   1      39.870  30.413  29.722  1.00  0.00     0.010 A 
ATOM     41  C   UNL A   1      39.975  29.287  30.551  1.00  0.00    -0.014 A 
BRANCH  41  42
ATOM     42  C   UNL A   1      41.249  28.528  30.644  1.00  0.00     0.031 A 
ATOM     43  C   UNL A   1      42.332  29.256  31.489  1.00  0.00     0.074 A 
ATOM     44  C   UNL A   1      41.307  27.340  29.977  1.00  0.00     0.049 A 
ATOM     45  N   UNL A   1      43.629  29.115  31.551  1.00  0.00    -0.248 NA
ATOM     46  C   UNL A   1      41.876  30.379  32.355  1.00  0.00     0.031 C 
ATOM     47  C   UNL A   1      40.227  26.743  29.157  1.00  0.00     0.029 A 
ATOM     48  N   UNL A   1      42.299  26.404  29.842  1.00  0.00    -0.354 N 
ATOM     49  C   UNL A   1      44.096  29.965  32.585  1.00  0.00     0.074 A 
ATOM     50  C   UNL A   1      42.994  30.809  32.936  1.00  0.00     0.031 C 
ATOM     51  C   UNL A   1      40.654  25.611  28.549  1.00  0.00     0.029 A 
ATOM     52  C   UNL A   1      42.029  25.353  28.929  1.00  0.00     0.049 A 
ATOM     53  H   UNL A   1      43.143  26.458  30.344  1.00  0.00     0.167 HD
ATOM     54  C   UNL A   1      45.302  29.856  33.222  1.00  0.00     0.034 A 
ATOM     55  C   UNL A   1      42.886  24.387  28.476  1.00  0.00     0.034 A 
ATOM     56  C   UNL A   1      46.113  28.806  32.699  1.00  0.00     0.049 A 
ATOM     57  C   UNL A   1      44.124  24.631  29.234  1.00  0.00     0.074 A 
ATOM     58  C   UNL A   1      47.213  28.662  31.885  1.00  0.00     0.029 A 
ATOM     59  N   UNL A   1      45.843  27.571  33.225  1.00  0.00    -0.354 N 
ATOM     60  N   UNL A   1      44.321  24.295  30.469  1.00  0.00    -0.248 NA
ATOM     61  C   UNL A   1      45.129  25.494  28.617  1.00  0.00     0.031 C 
ATOM     62  C   UNL A   1      47.443  27.259  31.785  1.00  0.00     0.029 A 
ATOM     63  C   UNL A   1      46.341  26.640  32.362  1.00  0.00     0.049 A 
ATOM     64  H   UNL A   1      45.374  27.389  34.071  1.00  0.00     0.167 HD
ATOM     65  C   UNL A   1      45.374  25.082  30.868  1.00  0.00     0.074 A 
ATOM     66  C   UNL A   1      45.916  25.702  29.665  1.00  0.00     0.031 C 
ATOM     67  C   UNL A   1      45.549  25.461  32.158  1.00  0.00     0.034 A 
BRANCH  54  68
ATOM     68  C   UNL A   1      45.777  30.416  34.565  1.00  0.00     0.023 A 
ATOM     69  C   UNL A   1      44.840  30.381  35.632  1.00  0.00     0.031 A 
ATOM     70  C   UNL A   1      46.871  31.278  34.750  1.00  0.00     0.131 A 
ATOM     71  C   UNL A   1      44.918  31.259  36.722  1.00  0.00     0.055 A 
ATOM     72  C   UNL A   1      46.994  32.097  35.887  1.00  0.00     0.041 A 
ATOM     73  F   UNL A   1      47.811  31.442  33.809  1.00  0.00    -0.206 F 
ATOM     74  C   UNL A   1      45.997  32.122  36.859  1.00  0.00     0.022 A 
BRANCH  71  75
ATOM     75  S   UNL A   1      43.489  31.373  37.841  1.00  0.00     0.124 S 
ATOM     76  O   UNL A   1      42.954  32.696  37.536  1.00  0.00    -0.237 OA
ATOM     77  O   UNL A   1      42.674  30.243  37.408  1.00  0.00    -0.237 OA
ATOM     78  O   UNL A   1      44.084  31.234  39.169  1.00  0.00    -0.744 OA
ENDBRANCH  71  75
ENDBRANCH  54  68
BRANCH  55  79
ATOM     79  C   UNL A   1      42.939  23.311  27.415  1.00  0.00     0.023 A 
ATOM     80  C   UNL A   1      43.943  23.153  26.445  1.00  0.00     0.031 A 
ATOM     81  C   UNL A   1      41.913  22.315  27.386  1.00  0.00     0.131 A 
ATOM     82  C   UNL A   1      43.923  22.034  25.566  1.00  0.00     0.055 A 
ATOM     83  C   UNL A   1      41.920  21.197  26.552  1.00  0.00     0.041 A 
ATOM     84  F   UNL A   1      40.846  22.370  28.197  1.00  0.00    -0.206 F 
ATOM     85  C   UNL A   1      42.941  21.042  25.642  1.00  0.00     0.022 A 
BRANCH  82  86
ATOM     86  S   UNL A   1      45.212  21.791  24.306  1.00  0.00     0.124 S 
ATOM     87  O   UNL A   1      46.414  21.658  25.122  1.00  0.00    -0.237 OA
ATOM     88  O   UNL A   1      44.773  20.586  23.610  1.00  0.00    -0.237 OA
ATOM     89  O   UNL A   1      45.130  23.020  23.516  1.00  0.00    -0.744 OA
ENDBRANCH  82  86
ENDBRANCH  55  79
BRANCH  67  90
ATOM     90  C   UNL A   1      44.488  24.956  33.120  1.00  0.00     0.023 A 
ATOM     91  C   UNL A   1      43.575  25.814  33.741  1.00  0.00     0.031 A 
ATOM     92  C   UNL A   1      44.440  23.596  33.502  1.00  0.00     0.131 A 
ATOM     93  C   UNL A   1      42.655  25.299  34.680  1.00  0.00     0.055 A 
ATOM     94  C   UNL A   1      43.515  23.080  34.408  1.00  0.00     0.041 A 
ATOM     95  F   UNL A   1      45.292  22.711  32.979  1.00  0.00    -0.206 F 
ATOM     96  C   UNL A   1      42.612  23.939  35.006  1.00  0.00     0.022 A 
BRANCH  93  97
ATOM     97  S   UNL A   1      41.485  26.424  35.485  1.00  0.00     0.124 S 
ATOM     98  O   UNL A   1      40.407  25.527  35.885  1.00  0.00    -0.237 OA
ATOM     99  O   UNL A   1      42.281  26.990  36.568  1.00  0.00    -0.237 OA
ATOM    100  O   UNL A   1      41.136  27.371  34.425  1.00  0.00    -0.744 OA
ENDBRANCH  93  97
ENDBRANCH  67  90
ENDBRANCH  41  42
ENDBRANCH  33  36
ENDBRANCH  31  32
ENDBRANCH  30  31
ENDBRANCH  29  30
ENDBRANCH  28  29
ENDBRANCH   1  28
TORSDOF 21
ENDMDL
MODEL 3
REMARK VINA RESULT:     -11.5      3.239      8.633
REMARK SMILES COC(=O)c1ccccc1N(C)S(=O)(=O)c1c[nH]c(C(=O)NCCCCCCNC(=O)c2ccc(-c3c4nc(c(-c5cc(S(=O)(=O)[O-])ccc5F)c5ccc([nH]5)c(-c5cc(S(=O)(=O)[O-])ccc5F)c5nc(c(-c6cc(S(=O)(=O)[O-])ccc6F)c6ccc3[nH]6)C=C5)C=C4)cc2)c1
REMARK SMILES IDX 24 1 23 2 22 3 20 4 21 5 19 7 16 8 17 9 95 10 18 11 13 13
REMARK SMILES IDX 14 14 15 15 11 16 12 17 10 18 5 19 6 20 7 21 9 22 8 23 3 24
REMARK SMILES IDX 4 25 2 26 1 27 25 28 26 29 27 30 28 31 29 32 30 33 31 35
REMARK SMILES IDX 32 36 33 37 94 38 34 39 93 40 35 41 36 42 37 43 87 44 38 45
REMARK SMILES IDX 92 46 86 47 88 48 39 49 91 50 85 51 84 52 40 54 72 55 52 56
REMARK SMILES IDX 71 57 53 58 56 59 70 60 89 61 54 62 55 63 69 65 90 66 57 67
REMARK SMILES IDX 41 68 42 69 50 70 43 71 49 72 51 73 48 74 44 75 45 76 46 77
REMARK SMILES IDX 47 78 73 79 74 80 82 81 75 82 81 83 83 84 80 85 76 86 77 87
REMARK SMILES IDX 78 88 79 89 58 90 59 91 67 92 60 93 66 94 68 95 65 96 61 97
REMARK SMILES IDX 62 98 63 99 64 100
REMARK H PARENT 22 6 18 12 29 34 88 53 56 64
REMARK Flexibility Score: inf
ROOT
ATOM      1  C   UNL A   1      37.567  21.220  25.100  1.00  0.00     0.021 C 
ENDROOT
BRANCH   1   2
ATOM      2  C   UNL A   1      36.145  21.539  24.632  1.00  0.00     0.116 C 
BRANCH   2   3
ATOM      3  N   UNL A   1      35.167  20.701  25.303  1.00  0.00    -0.351 N 
ATOM      4  C   UNL A   1      33.797  20.736  25.355  1.00  0.00     0.267 C 
ATOM      5  O   UNL A   1      33.237  19.812  25.949  1.00  0.00    -0.268 OA
ATOM      6  H   UNL A   1      35.564  19.964  25.821  1.00  0.00     0.163 HD
BRANCH   4   7
ATOM      7  C   UNL A   1      33.023  21.763  24.692  1.00  0.00     0.105 A 
ATOM      8  C   UNL A   1      32.129  23.662  23.808  1.00  0.00     0.106 A 
ATOM      9  C   UNL A   1      31.704  22.608  23.035  1.00  0.00     0.105 A 
ATOM     10  C   UNL A   1      32.831  23.111  24.916  1.00  0.00     0.055 A 
ATOM     11  N   UNL A   1      32.228  21.465  23.595  1.00  0.00    -0.356 N 
ATOM     12  H   UNL A   1      32.061  20.554  23.261  1.00  0.00     0.166 HD
BRANCH   8  13
ATOM     13  S   UNL A   1      31.958  25.376  23.648  1.00  0.00     0.265 S 
ATOM     14  O   UNL A   1      31.454  25.468  22.298  1.00  0.00    -0.201 OA
ATOM     15  O   UNL A   1      33.278  25.836  24.032  1.00  0.00    -0.201 OA
BRANCH  13  16
ATOM     16  N   UNL A   1      30.783  26.097  24.668  1.00  0.00    -0.268 N 
ATOM     17  C   UNL A   1      29.440  26.111  24.004  1.00  0.00     0.164 C 
BRANCH  16  18
ATOM     18  C   UNL A   1      31.172  27.356  25.385  1.00  0.00     0.066 A 
ATOM     19  C   UNL A   1      31.353  28.668  24.872  1.00  0.00     0.084 A 
ATOM     20  C   UNL A   1      31.714  29.747  25.717  1.00  0.00     0.018 A 
ATOM     21  C   UNL A   1      31.952  29.558  27.070  1.00  0.00     0.001 A 
ATOM     22  C   UNL A   1      31.547  27.201  26.743  1.00  0.00     0.028 A 
ATOM     23  C   UNL A   1      31.893  28.275  27.579  1.00  0.00     0.002 A 
BRANCH  19  24
ATOM     24  C   UNL A   1      31.305  29.115  23.472  1.00  0.00     0.340 C 
ATOM     25  O   UNL A   1      32.275  29.074  22.731  1.00  0.00    -0.246 OA
BRANCH  24  26
ATOM     26  O   UNL A   1      30.120  29.721  23.246  1.00  0.00    -0.465 OA
ATOM     27  C   UNL A   1      29.826  29.971  21.868  1.00  0.00     0.282 C 
ENDBRANCH  24  26
ENDBRANCH  19  24
ENDBRANCH  16  18
ENDBRANCH  13  16
ENDBRANCH   8  13
ENDBRANCH   4   7
ENDBRANCH   2   3
ENDBRANCH   1   2
BRANCH   1  28
ATOM     28  C   UNL A   1      37.952  19.744  24.925  1.00  0.00     0.002 C 
BRANCH  28  29
ATOM     29  C   UNL A   1      39.352  19.368  25.436  1.00  0.00     0.002 C 
BRANCH  29  30
ATOM     30  C   UNL A   1      40.031  20.425  26.322  1.00  0.00     0.021 C 
BRANCH  30  31
ATOM     31  C   UNL A   1      41.230  19.883  27.105  1.00  0.00     0.116 C 
BRANCH  31  32
ATOM     32  N   UNL A   1      42.440  19.996  26.309  1.00  0.00    -0.352 N 
ATOM     33  C   UNL A   1      43.186  21.084  25.949  1.00  0.00     0.251 C 
ATOM     34  H   UNL A   1      42.783  19.137  25.968  1.00  0.00     0.163 HD
ATOM     35  O   UNL A   1      44.001  20.954  25.037  1.00  0.00    -0.269 OA
BRANCH  33  36
ATOM     36  C   UNL A   1      43.014  22.407  26.586  1.00  0.00     0.039 A 
ATOM     37  C   UNL A   1      42.660  22.423  27.943  1.00  0.00     0.014 A 
ATOM     38  C   UNL A   1      43.104  23.608  25.875  1.00  0.00     0.014 A 
ATOM     39  C   UNL A   1      42.474  23.633  28.605  1.00  0.00     0.010 A 
ATOM     40  C   UNL A   1      42.926  24.824  26.538  1.00  0.00     0.010 A 
ATOM     41  C   UNL A   1      42.642  24.837  27.912  1.00  0.00    -0.014 A 
BRANCH  41  42
ATOM     42  C   UNL A   1      42.708  26.100  28.690  1.00  0.00     0.031 A 
ATOM     43  C   UNL A   1      43.990  26.214  29.561  1.00  0.00     0.074 A 
ATOM     44  C   UNL A   1      41.655  26.957  28.561  1.00  0.00     0.049 A 
ATOM     45  N   UNL A   1      44.279  26.958  30.594  1.00  0.00    -0.248 NA
ATOM     46  C   UNL A   1      45.105  25.275  29.252  1.00  0.00     0.031 C 
ATOM     47  C   UNL A   1      40.447  26.742  27.731  1.00  0.00     0.029 A 
ATOM     48  N   UNL A   1      41.385  28.179  29.121  1.00  0.00    -0.354 N 
ATOM     49  C   UNL A   1      45.641  26.728  30.913  1.00  0.00     0.074 A 
ATOM     50  C   UNL A   1      46.043  25.588  30.145  1.00  0.00     0.031 C 
ATOM     51  C   UNL A   1      39.552  27.740  27.914  1.00  0.00     0.029 A 
ATOM     52  C   UNL A   1      40.094  28.703  28.852  1.00  0.00     0.049 A 
ATOM     53  H   UNL A   1      42.042  28.661  29.672  1.00  0.00     0.167 HD
ATOM     54  C   UNL A   1      46.434  27.552  31.663  1.00  0.00     0.034 A 
ATOM     55  C   UNL A   1      39.500  29.805  29.405  1.00  0.00     0.034 A 
ATOM     56  C   UNL A   1      45.734  28.684  32.173  1.00  0.00     0.049 A 
ATOM     57  C   UNL A   1      40.547  30.377  30.265  1.00  0.00     0.074 A 
ATOM     58  C   UNL A   1      45.197  29.114  33.365  1.00  0.00     0.029 A 
ATOM     59  N   UNL A   1      45.651  29.735  31.299  1.00  0.00    -0.354 N 
ATOM     60  N   UNL A   1      41.557  31.071  29.849  1.00  0.00    -0.248 NA
ATOM     61  C   UNL A   1      40.565  29.962  31.666  1.00  0.00     0.031 C 
ATOM     62  C   UNL A   1      44.602  30.380  33.093  1.00  0.00     0.029 A 
ATOM     63  C   UNL A   1      44.624  30.532  31.712  1.00  0.00     0.049 A 
ATOM     64  H   UNL A   1      46.227  29.887  30.515  1.00  0.00     0.167 HD
ATOM     65  C   UNL A   1      42.460  31.006  30.883  1.00  0.00     0.074 A 
ATOM     66  C   UNL A   1      41.756  30.428  32.020  1.00  0.00     0.031 C 
ATOM     67  C   UNL A   1      43.798  31.102  30.685  1.00  0.00     0.034 A 
BRANCH  54  68
ATOM     68  C   UNL A   1      47.958  27.650  31.768  1.00  0.00     0.023 A 
ATOM     69  C   UNL A   1      48.665  27.837  30.550  1.00  0.00     0.031 A 
ATOM     70  C   UNL A   1      48.733  27.209  32.853  1.00  0.00     0.131 A 
ATOM     71  C   UNL A   1      50.007  27.460  30.401  1.00  0.00     0.055 A 
ATOM     72  C   UNL A   1      50.102  26.914  32.725  1.00  0.00     0.041 A 
ATOM     73  F   UNL A   1      48.191  26.952  34.052  1.00  0.00    -0.206 F 
ATOM     74  C   UNL A   1      50.736  26.997  31.487  1.00  0.00     0.022 A 
BRANCH  71  75
ATOM     75  S   UNL A   1      50.708  27.411  28.723  1.00  0.00     0.124 S 
ATOM     76  O   UNL A   1      51.953  26.677  28.922  1.00  0.00    -0.237 OA
ATOM     77  O   UNL A   1      49.666  26.707  27.981  1.00  0.00    -0.237 OA
ATOM     78  O   UNL A   1      50.865  28.822  28.379  1.00  0.00    -0.744 OA
ENDBRANCH  71  75
ENDBRANCH  54  68
BRANCH  55  79
ATOM     79  C   UNL A   1      38.139  30.464  29.459  1.00  0.00     0.023 A 
ATOM     80  C   UNL A   1      37.580  31.120  30.569  1.00  0.00     0.031 A 
ATOM     81  C   UNL A   1      37.330  30.480  28.281  1.00  0.00     0.131 A 
ATOM     82  C   UNL A   1      36.328  31.786  30.454  1.00  0.00     0.055 A 
ATOM     83  C   UNL A   1      36.124  31.171  28.160  1.00  0.00     0.041 A 
ATOM     84  F   UNL A   1      37.689  29.834  27.162  1.00  0.00    -0.206 F 
ATOM     85  C   UNL A   1      35.622  31.845  29.250  1.00  0.00     0.022 A 
BRANCH  82  86
ATOM     86  S   UNL A   1      35.581  32.655  31.866  1.00  0.00     0.124 S 
ATOM     87  O   UNL A   1      35.934  31.783  32.982  1.00  0.00    -0.237 OA
ATOM     88  O   UNL A   1      36.236  33.958  31.839  1.00  0.00    -0.237 OA
ATOM     89  O   UNL A   1      34.159  32.676  31.520  1.00  0.00    -0.744 OA
ENDBRANCH  82  86
ENDBRANCH  55  79
BRANCH  67  90
ATOM     90  C   UNL A   1      44.217  31.278  29.237  1.00  0.00     0.023 A 
ATOM     91  C   UNL A   1      44.796  30.242  28.497  1.00  0.00     0.031 A 
ATOM     92  C   UNL A   1      44.124  32.535  28.599  1.00  0.00     0.131 A 
ATOM     93  C   UNL A   1      45.231  30.481  27.176  1.00  0.00     0.055 A 
ATOM     94  C   UNL A   1      44.526  32.768  27.285  1.00  0.00     0.041 A 
ATOM     95  F   UNL A   1      43.607  33.587  29.239  1.00  0.00    -0.206 F 
ATOM     96  C   UNL A   1      45.087  31.731  26.563  1.00  0.00     0.022 A 
BRANCH  93  97
ATOM     97  S   UNL A   1      45.990  29.132  26.232  1.00  0.00     0.124 S 
ATOM     98  O   UNL A   1      44.906  28.160  26.142  1.00  0.00    -0.237 OA
ATOM     99  O   UNL A   1      46.366  29.788  24.985  1.00  0.00    -0.237 OA
ATOM    100  O   UNL A   1      47.117  28.721  27.070  1.00  0.00    -0.744 OA
ENDBRANCH  93  97
ENDBRANCH  67  90
ENDBRANCH  41  42
ENDBRANCH  33  36
ENDBRANCH  31  32
ENDBRANCH  30  31
ENDBRANCH  29  30
ENDBRANCH  28  29
ENDBRANCH   1  28
TORSDOF 21
ENDMDL
