MODEL 1
REMARK VINA RESULT:     -10.3      0.000      0.000
REMARK SMILES Cc1nc([C@H](C)[NH2+]CC(=O)NCCCCCCNC(=O)c2ccc(-c3c4nc(c(-c5cc(S(=O)(=O)[O-])ccc5F)c5ccc([nH]5)c(-c5cc(S(=O)(=O)[O-])ccc5F)c5nc(c(-c6cc(S(=O)(=O)[O-])ccc6F)c6ccc3[nH]6)C=C5)C=C4)cc2)cs1
REMARK SMILES IDX 14 1 13 2 12 3 11 4 9 5 10 6 8 8 7 9 5 12 6 13 4 14 1 15
REMARK SMILES IDX 2 16 3 17 85 18 84 19 15 20 16 21 17 22 18 23 19 24 20 26
REMARK SMILES IDX 21 27 22 28 83 29 23 30 82 31 24 32 25 33 26 34 76 35 27 36
REMARK SMILES IDX 81 37 75 38 77 39 28 40 80 41 74 42 73 43 29 45 61 46 41 47
REMARK SMILES IDX 60 48 42 49 45 50 59 51 78 52 43 53 44 54 58 56 79 57 46 58
REMARK SMILES IDX 30 59 31 60 39 61 32 62 38 63 40 64 37 65 33 66 34 67 35 68
REMARK SMILES IDX 36 69 62 70 63 71 71 72 64 73 70 74 72 75 69 76 65 77 66 78
REMARK SMILES IDX 67 79 68 80 47 81 48 82 56 83 49 84 55 85 57 86 54 87 50 88
REMARK SMILES IDX 51 89 52 90 53 91
REMARK H PARENT 11 7 7 10 7 11 18 25 77 44 45 55
REMARK Flexibility Score: inf
ROOT
ATOM      1  C   UNL A   1      31.159  27.509  24.776  1.00  0.00     0.002 C 
ENDROOT
BRANCH   1   2
ATOM      2  C   UNL A   1      31.161  26.568  25.985  1.00  0.00     0.021 C 
BRANCH   2   3
ATOM      3  C   UNL A   1      31.682  25.140  25.750  1.00  0.00     0.116 C 
BRANCH   3   4
ATOM      4  N   UNL A   1      31.700  24.253  26.906  1.00  0.00    -0.351 N 
ATOM      5  C   UNL A   1      32.310  23.048  27.117  1.00  0.00     0.275 C 
ATOM      6  O   UNL A   1      32.356  22.623  28.277  1.00  0.00    -0.269 OA
ATOM      7  H   UNL A   1      31.179  24.581  27.673  1.00  0.00     0.163 HD
BRANCH   5   8
ATOM      8  C   UNL A   1      32.819  22.184  25.957  1.00  0.00     0.362 C 
BRANCH   8   9
ATOM      9  N   UNL A   1      32.181  20.840  25.954  1.00  0.00    -0.331 N 
ATOM     10  H   UNL A   1      32.644  20.250  26.644  1.00  0.00     0.347 HD
ATOM     11  H   UNL A   1      31.193  20.951  26.182  1.00  0.00     0.347 HD
BRANCH   9  12
ATOM     12  C   UNL A   1      32.285  20.206  24.631  1.00  0.00     0.230 C 
ATOM     13  C   UNL A   1      32.919  21.153  23.615  1.00  0.00     0.082 C 
BRANCH  12  14
ATOM     14  C   UNL A   1      32.908  18.821  24.662  1.00  0.00     0.108 A 
ATOM     15  C   UNL A   1      32.338  15.335  25.642  1.00  0.00     0.079 C 
ATOM     16  C   UNL A   1      32.853  16.652  25.181  1.00  0.00     0.090 A 
ATOM     17  N   UNL A   1      32.136  17.754  25.117  1.00  0.00    -0.240 NA
ATOM     18  S   UNL A   1      34.495  16.813  24.723  1.00  0.00    -0.127 S 
ATOM     19  C   UNL A   1      34.220  18.469  24.394  1.00  0.00     0.096 A 
ENDBRANCH  12  14
ENDBRANCH   9  12
ENDBRANCH   8   9
ENDBRANCH   5   8
ENDBRANCH   3   4
ENDBRANCH   2   3
ENDBRANCH   1   2
BRANCH   1  20
ATOM     20  C   UNL A   1      32.092  28.716  24.896  1.00  0.00     0.002 C 
BRANCH  20  21
ATOM     21  C   UNL A   1      33.575  28.383  25.083  1.00  0.00     0.021 C 
BRANCH  21  22
ATOM     22  C   UNL A   1      34.185  28.858  26.400  1.00  0.00     0.116 C 
BRANCH  22  23
ATOM     23  N   UNL A   1      33.855  30.246  26.682  1.00  0.00    -0.352 N 
ATOM     24  C   UNL A   1      34.446  31.093  27.596  1.00  0.00     0.251 C 
ATOM     25  H   UNL A   1      33.117  30.629  26.155  1.00  0.00     0.163 HD
ATOM     26  O   UNL A   1      33.932  32.164  27.875  1.00  0.00    -0.269 OA
BRANCH  24  27
ATOM     27  C   UNL A   1      35.704  30.664  28.247  1.00  0.00     0.039 A 
ATOM     28  C   UNL A   1      35.651  29.755  29.306  1.00  0.00     0.014 A 
ATOM     29  C   UNL A   1      36.933  31.123  27.766  1.00  0.00     0.014 A 
ATOM     30  C   UNL A   1      36.842  29.251  29.837  1.00  0.00     0.010 A 
ATOM     31  C   UNL A   1      38.114  30.566  28.250  1.00  0.00     0.010 A 
ATOM     32  C   UNL A   1      38.082  29.623  29.290  1.00  0.00    -0.014 A 
BRANCH  32  33
ATOM     33  C   UNL A   1      39.356  29.046  29.796  1.00  0.00     0.031 A 
ATOM     34  C   UNL A   1      40.070  29.701  30.948  1.00  0.00     0.074 A 
ATOM     35  C   UNL A   1      39.901  27.974  29.184  1.00  0.00     0.049 A 
ATOM     36  N   UNL A   1      41.225  29.404  31.485  1.00  0.00    -0.248 NA
ATOM     37  C   UNL A   1      39.408  30.867  31.552  1.00  0.00     0.031 C 
ATOM     38  C   UNL A   1      39.326  27.278  28.031  1.00  0.00     0.029 A 
ATOM     39  N   UNL A   1      41.062  27.287  29.439  1.00  0.00    -0.354 N 
ATOM     40  C   UNL A   1      41.432  30.351  32.484  1.00  0.00     0.074 A 
ATOM     41  C   UNL A   1      40.317  31.272  32.424  1.00  0.00     0.031 C 
ATOM     42  C   UNL A   1      40.125  26.252  27.693  1.00  0.00     0.029 A 
ATOM     43  C   UNL A   1      41.289  26.241  28.573  1.00  0.00     0.049 A 
ATOM     44  H   UNL A   1      41.675  27.521  30.172  1.00  0.00     0.167 HD
ATOM     45  C   UNL A   1      42.441  30.426  33.389  1.00  0.00     0.034 A 
ATOM     46  C   UNL A   1      42.323  25.379  28.491  1.00  0.00     0.034 A 
ATOM     47  C   UNL A   1      43.541  29.495  33.438  1.00  0.00     0.049 A 
ATOM     48  C   UNL A   1      43.449  25.498  29.490  1.00  0.00     0.074 A 
ATOM     49  C   UNL A   1      44.597  29.454  34.333  1.00  0.00     0.029 A 
ATOM     50  N   UNL A   1      43.732  28.443  32.552  1.00  0.00    -0.354 N 
ATOM     51  N   UNL A   1      43.604  26.369  30.461  1.00  0.00    -0.248 NA
ATOM     52  C   UNL A   1      44.531  24.509  29.392  1.00  0.00     0.031 C 
ATOM     53  C   UNL A   1      45.457  28.419  33.949  1.00  0.00     0.029 A 
ATOM     54  C   UNL A   1      44.900  27.763  32.863  1.00  0.00     0.049 A 
ATOM     55  H   UNL A   1      43.127  28.212  31.811  1.00  0.00     0.167 HD
ATOM     56  C   UNL A   1      44.784  26.010  31.108  1.00  0.00     0.074 A 
ATOM     57  C   UNL A   1      45.289  24.836  30.428  1.00  0.00     0.031 C 
ATOM     58  C   UNL A   1      45.394  26.596  32.170  1.00  0.00     0.034 A 
BRANCH  45  59
ATOM     59  C   UNL A   1      42.398  31.567  34.379  1.00  0.00     0.023 A 
ATOM     60  C   UNL A   1      41.520  31.553  35.478  1.00  0.00     0.031 A 
ATOM     61  C   UNL A   1      43.215  32.697  34.207  1.00  0.00     0.131 A 
ATOM     62  C   UNL A   1      41.419  32.678  36.309  1.00  0.00     0.055 A 
ATOM     63  C   UNL A   1      43.173  33.779  35.091  1.00  0.00     0.041 A 
ATOM     64  F   UNL A   1      44.060  32.780  33.167  1.00  0.00    -0.206 F 
ATOM     65  C   UNL A   1      42.258  33.781  36.140  1.00  0.00     0.022 A 
BRANCH  62  66
ATOM     66  S   UNL A   1      40.067  32.740  37.517  1.00  0.00     0.124 S 
ATOM     67  O   UNL A   1      39.211  31.649  37.057  1.00  0.00    -0.237 OA
ATOM     68  O   UNL A   1      40.761  32.517  38.781  1.00  0.00    -0.237 OA
ATOM     69  O   UNL A   1      39.509  34.078  37.339  1.00  0.00    -0.744 OA
ENDBRANCH  62  66
ENDBRANCH  45  59
BRANCH  46  70
ATOM     70  C   UNL A   1      42.360  24.335  27.425  1.00  0.00     0.023 A 
ATOM     71  C   UNL A   1      41.785  23.070  27.628  1.00  0.00     0.031 A 
ATOM     72  C   UNL A   1      43.018  24.569  26.204  1.00  0.00     0.131 A 
ATOM     73  C   UNL A   1      41.925  22.071  26.651  1.00  0.00     0.055 A 
ATOM     74  C   UNL A   1      43.105  23.591  25.212  1.00  0.00     0.041 A 
ATOM     75  F   UNL A   1      43.582  25.762  25.954  1.00  0.00    -0.206 F 
ATOM     76  C   UNL A   1      42.569  22.327  25.439  1.00  0.00     0.022 A 
BRANCH  73  77
ATOM     77  S   UNL A   1      41.335  20.397  27.028  1.00  0.00     0.124 S 
ATOM     78  O   UNL A   1      42.589  19.677  27.217  1.00  0.00    -0.237 OA
ATOM     79  O   UNL A   1      40.536  20.622  28.228  1.00  0.00    -0.237 OA
ATOM     80  O   UNL A   1      40.575  20.028  25.836  1.00  0.00    -0.744 OA
ENDBRANCH  73  77
ENDBRANCH  46  70
BRANCH  58  81
ATOM     81  C   UNL A   1      46.651  25.939  32.687  1.00  0.00     0.023 A 
ATOM     82  C   UNL A   1      46.609  24.884  33.616  1.00  0.00     0.031 A 
ATOM     83  C   UNL A   1      47.911  26.382  32.246  1.00  0.00     0.131 A 
ATOM     84  C   UNL A   1      47.805  24.347  34.117  1.00  0.00     0.055 A 
ATOM     85  C   UNL A   1      49.096  25.802  32.702  1.00  0.00     0.041 A 
ATOM     86  F   UNL A   1      48.010  27.388  31.361  1.00  0.00    -0.206 F 
ATOM     87  C   UNL A   1      49.047  24.788  33.653  1.00  0.00     0.022 A 
BRANCH  84  88
ATOM     88  S   UNL A   1      47.716  23.127  35.456  1.00  0.00     0.124 S 
ATOM     89  O   UNL A   1      48.810  22.223  35.115  1.00  0.00    -0.237 OA
ATOM     90  O   UNL A   1      47.918  23.950  36.643  1.00  0.00    -0.237 OA
ATOM     91  O   UNL A   1      46.376  22.559  35.316  1.00  0.00    -0.744 OA
ENDBRANCH  84  88
ENDBRANCH  58  81
ENDBRANCH  32  33
ENDBRANCH  24  27
ENDBRANCH  22  23
ENDBRANCH  21  22
ENDBRANCH  20  21
ENDBRANCH   1  20
TORSDOF 19
ENDMDL
MODEL 2
REMARK VINA RESULT:     -10.2      2.640      3.496
REMARK SMILES Cc1nc([C@H](C)[NH2+]CC(=O)NCCCCCCNC(=O)c2ccc(-c3c4nc(c(-c5cc(S(=O)(=O)[O-])ccc5F)c5ccc([nH]5)c(-c5cc(S(=O)(=O)[O-])ccc5F)c5nc(c(-c6cc(S(=O)(=O)[O-])ccc6F)c6ccc3[nH]6)C=C5)C=C4)cc2)cs1
REMARK SMILES IDX 14 1 13 2 12 3 11 4 9 5 10 6 8 8 7 9 5 12 6 13 4 14 1 15
REMARK SMILES IDX 2 16 3 17 85 18 84 19 15 20 16 21 17 22 18 23 19 24 20 26
REMARK SMILES IDX 21 27 22 28 83 29 23 30 82 31 24 32 25 33 26 34 76 35 27 36
REMARK SMILES IDX 81 37 75 38 77 39 28 40 80 41 74 42 73 43 29 45 61 46 41 47
REMARK SMILES IDX 60 48 42 49 45 50 59 51 78 52 43 53 44 54 58 56 79 57 46 58
REMARK SMILES IDX 30 59 31 60 39 61 32 62 38 63 40 64 37 65 33 66 34 67 35 68
REMARK SMILES IDX 36 69 62 70 63 71 71 72 64 73 70 74 72 75 69 76 65 77 66 78
REMARK SMILES IDX 67 79 68 80 47 81 48 82 56 83 49 84 55 85 57 86 54 87 50 88
REMARK SMILES IDX 51 89 52 90 53 91
REMARK H PARENT 11 7 7 10 7 11 18 25 77 44 45 55
REMARK Flexibility Score: inf
ROOT
ATOM      1  C   UNL A   1      32.869  27.775  25.201  1.00  0.00     0.002 C 
ENDROOT
BRANCH   1   2
ATOM      2  C   UNL A   1      33.040  26.604  26.175  1.00  0.00     0.021 C 
BRANCH   2   3
ATOM      3  C   UNL A   1      32.517  25.235  25.710  1.00  0.00     0.116 C 
BRANCH   3   4
ATOM      4  N   UNL A   1      31.338  24.719  26.395  1.00  0.00    -0.351 N 
ATOM      5  C   UNL A   1      30.894  23.445  26.605  1.00  0.00     0.275 C 
ATOM      6  O   UNL A   1      29.985  23.280  27.426  1.00  0.00    -0.269 OA
ATOM      7  H   UNL A   1      30.756  25.417  26.775  1.00  0.00     0.163 HD
BRANCH   5   8
ATOM      8  C   UNL A   1      31.409  22.261  25.776  1.00  0.00     0.362 C 
BRANCH   8   9
ATOM      9  N   UNL A   1      32.484  21.519  26.489  1.00  0.00    -0.331 N 
ATOM     10  H   UNL A   1      33.099  22.188  26.951  1.00  0.00     0.347 HD
ATOM     11  H   UNL A   1      32.049  20.899  27.173  1.00  0.00     0.347 HD
BRANCH   9  12
ATOM     12  C   UNL A   1      33.275  20.704  25.556  1.00  0.00     0.230 C 
ATOM     13  C   UNL A   1      32.615  20.645  24.180  1.00  0.00     0.082 C 
BRANCH  12  14
ATOM     14  C   UNL A   1      34.749  21.066  25.522  1.00  0.00     0.108 A 
ATOM     15  C   UNL A   1      37.152  23.773  26.103  1.00  0.00     0.079 C 
ATOM     16  C   UNL A   1      36.422  22.522  25.763  1.00  0.00     0.090 A 
ATOM     17  N   UNL A   1      35.134  22.333  25.958  1.00  0.00    -0.240 NA
ATOM     18  S   UNL A   1      37.258  21.218  25.034  1.00  0.00    -0.127 S 
ATOM     19  C   UNL A   1      35.798  20.329  24.997  1.00  0.00     0.096 A 
ENDBRANCH  12  14
ENDBRANCH   9  12
ENDBRANCH   8   9
ENDBRANCH   5   8
ENDBRANCH   3   4
ENDBRANCH   2   3
ENDBRANCH   1   2
BRANCH   1  20
ATOM     20  C   UNL A   1      31.581  28.581  25.381  1.00  0.00     0.002 C 
BRANCH  20  21
ATOM     21  C   UNL A   1      31.765  30.098  25.477  1.00  0.00     0.021 C 
BRANCH  21  22
ATOM     22  C   UNL A   1      32.187  30.615  26.851  1.00  0.00     0.116 C 
BRANCH  22  23
ATOM     23  N   UNL A   1      32.271  32.067  26.883  1.00  0.00    -0.352 N 
ATOM     24  C   UNL A   1      33.227  32.851  27.492  1.00  0.00     0.251 C 
ATOM     25  H   UNL A   1      31.554  32.550  26.412  1.00  0.00     0.163 HD
ATOM     26  O   UNL A   1      33.059  34.054  27.618  1.00  0.00    -0.269 OA
BRANCH  24  27
ATOM     27  C   UNL A   1      34.451  32.200  28.011  1.00  0.00     0.039 A 
ATOM     28  C   UNL A   1      35.655  32.907  28.016  1.00  0.00     0.014 A 
ATOM     29  C   UNL A   1      34.383  30.909  28.544  1.00  0.00     0.014 A 
ATOM     30  C   UNL A   1      36.780  32.341  28.622  1.00  0.00     0.010 A 
ATOM     31  C   UNL A   1      35.486  30.379  29.208  1.00  0.00     0.010 A 
ATOM     32  C   UNL A   1      36.697  31.089  29.256  1.00  0.00    -0.014 A 
BRANCH  32  33
ATOM     33  C   UNL A   1      37.865  30.502  29.965  1.00  0.00     0.031 A 
ATOM     34  C   UNL A   1      38.163  30.910  31.383  1.00  0.00     0.074 A 
ATOM     35  C   UNL A   1      38.692  29.655  29.317  1.00  0.00     0.049 A 
ATOM     36  N   UNL A   1      39.171  30.578  32.148  1.00  0.00    -0.248 NA
ATOM     37  C   UNL A   1      37.213  31.840  32.010  1.00  0.00     0.031 C 
ATOM     38  C   UNL A   1      38.534  29.220  27.927  1.00  0.00     0.029 A 
ATOM     39  N   UNL A   1      39.832  29.016  29.735  1.00  0.00    -0.354 N 
ATOM     40  C   UNL A   1      38.982  31.266  33.342  1.00  0.00     0.074 A 
ATOM     41  C   UNL A   1      37.803  32.088  33.170  1.00  0.00     0.031 C 
ATOM     42  C   UNL A   1      39.527  28.370  27.617  1.00  0.00     0.029 A 
ATOM     43  C   UNL A   1      40.417  28.233  28.765  1.00  0.00     0.049 A 
ATOM     44  H   UNL A   1      40.199  29.109  30.644  1.00  0.00     0.167 HD
ATOM     45  C   UNL A   1      39.705  31.193  34.488  1.00  0.00     0.034 A 
ATOM     46  C   UNL A   1      41.546  27.496  28.796  1.00  0.00     0.034 A 
ATOM     47  C   UNL A   1      40.873  30.364  34.646  1.00  0.00     0.049 A 
ATOM     48  C   UNL A   1      42.351  27.452  30.072  1.00  0.00     0.074 A 
ATOM     49  C   UNL A   1      41.660  30.185  35.771  1.00  0.00     0.029 A 
ATOM     50  N   UNL A   1      41.429  29.576  33.646  1.00  0.00    -0.354 N 
ATOM     51  N   UNL A   1      42.129  28.070  31.210  1.00  0.00    -0.248 NA
ATOM     52  C   UNL A   1      43.547  26.601  30.074  1.00  0.00     0.031 C 
ATOM     53  C   UNL A   1      42.725  29.341  35.433  1.00  0.00     0.029 A 
ATOM     54  C   UNL A   1      42.561  28.930  34.121  1.00  0.00     0.049 A 
ATOM     55  H   UNL A   1      41.072  29.488  32.733  1.00  0.00     0.167 HD
ATOM     56  C   UNL A   1      43.142  27.654  32.071  1.00  0.00     0.074 A 
ATOM     57  C   UNL A   1      43.962  26.721  31.326  1.00  0.00     0.031 C 
ATOM     58  C   UNL A   1      43.372  28.007  33.361  1.00  0.00     0.034 A 
BRANCH  45  59
ATOM     59  C   UNL A   1      39.253  32.052  35.646  1.00  0.00     0.023 A 
ATOM     60  C   UNL A   1      39.719  33.370  35.810  1.00  0.00     0.031 A 
ATOM     61  C   UNL A   1      38.375  31.543  36.618  1.00  0.00     0.131 A 
ATOM     62  C   UNL A   1      39.376  34.098  36.958  1.00  0.00     0.055 A 
ATOM     63  C   UNL A   1      37.966  32.306  37.715  1.00  0.00     0.041 A 
ATOM     64  F   UNL A   1      37.910  30.287  36.530  1.00  0.00    -0.206 F 
ATOM     65  C   UNL A   1      38.480  33.587  37.899  1.00  0.00     0.022 A 
BRANCH  62  66
ATOM     66  S   UNL A   1      40.238  35.662  37.279  1.00  0.00     0.124 S 
ATOM     67  O   UNL A   1      39.658  36.532  36.258  1.00  0.00    -0.237 OA
ATOM     68  O   UNL A   1      39.861  35.954  38.657  1.00  0.00    -0.237 OA
ATOM     69  O   UNL A   1      41.645  35.326  37.074  1.00  0.00    -0.744 OA
ENDBRANCH  62  66
ENDBRANCH  45  59
BRANCH  46  70
ATOM     70  C   UNL A   1      41.999  26.749  27.586  1.00  0.00     0.023 A 
ATOM     71  C   UNL A   1      41.774  25.369  27.459  1.00  0.00     0.031 A 
ATOM     72  C   UNL A   1      42.712  27.395  26.559  1.00  0.00     0.131 A 
ATOM     73  C   UNL A   1      42.302  24.670  26.361  1.00  0.00     0.055 A 
ATOM     74  C   UNL A   1      43.184  26.706  25.441  1.00  0.00     0.041 A 
ATOM     75  F   UNL A   1      42.951  28.715  26.626  1.00  0.00    -0.206 F 
ATOM     76  C   UNL A   1      42.994  25.331  25.345  1.00  0.00     0.022 A 
BRANCH  73  77
ATOM     77  S   UNL A   1      42.154  22.861  26.329  1.00  0.00     0.124 S 
ATOM     78  O   UNL A   1      40.722  22.678  26.534  1.00  0.00    -0.237 OA
ATOM     79  O   UNL A   1      42.660  22.541  24.999  1.00  0.00    -0.237 OA
ATOM     80  O   UNL A   1      43.004  22.432  27.437  1.00  0.00    -0.744 OA
ENDBRANCH  73  77
ENDBRANCH  46  70
BRANCH  58  81
ATOM     81  C   UNL A   1      44.534  27.340  34.058  1.00  0.00     0.023 A 
ATOM     82  C   UNL A   1      45.820  27.908  34.067  1.00  0.00     0.031 A 
ATOM     83  C   UNL A   1      44.349  26.112  34.719  1.00  0.00     0.131 A 
ATOM     84  C   UNL A   1      46.883  27.221  34.673  1.00  0.00     0.055 A 
ATOM     85  C   UNL A   1      45.397  25.464  35.374  1.00  0.00     0.041 A 
ATOM     86  F   UNL A   1      43.142  25.523  34.742  1.00  0.00    -0.206 F 
ATOM     87  C   UNL A   1      46.676  26.011  35.341  1.00  0.00     0.022 A 
BRANCH  84  88
ATOM     88  S   UNL A   1      48.561  27.884  34.495  1.00  0.00     0.124 S 
ATOM     89  O   UNL A   1      48.948  28.109  35.885  1.00  0.00    -0.237 OA
ATOM     90  O   UNL A   1      49.255  26.799  33.809  1.00  0.00    -0.237 OA
ATOM     91  O   UNL A   1      48.370  29.097  33.701  1.00  0.00    -0.744 OA
ENDBRANCH  84  88
ENDBRANCH  58  81
ENDBRANCH  32  33
ENDBRANCH  24  27
ENDBRANCH  22  23
ENDBRANCH  21  22
ENDBRANCH  20  21
ENDBRANCH   1  20
TORSDOF 19
ENDMDL
MODEL 3
REMARK VINA RESULT:     -10.1      5.277      9.783
REMARK SMILES Cc1nc([C@H](C)[NH2+]CC(=O)NCCCCCCNC(=O)c2ccc(-c3c4nc(c(-c5cc(S(=O)(=O)[O-])ccc5F)c5ccc([nH]5)c(-c5cc(S(=O)(=O)[O-])ccc5F)c5nc(c(-c6cc(S(=O)(=O)[O-])ccc6F)c6ccc3[nH]6)C=C5)C=C4)cc2)cs1
REMARK SMILES IDX 14 1 13 2 12 3 11 4 9 5 10 6 8 8 7 9 5 12 6 13 4 14 1 15
REMARK SMILES IDX 2 16 3 17 85 18 84 19 15 20 16 21 17 22 18 23 19 24 20 26
REMARK SMILES IDX 21 27 22 28 83 29 23 30 82 31 24 32 25 33 26 34 76 35 27 36
REMARK SMILES IDX 81 37 75 38 77 39 28 40 80 41 74 42 73 43 29 45 61 46 41 47
REMARK SMILES IDX 60 48 42 49 45 50 59 51 78 52 43 53 44 54 58 56 79 57 46 58
REMARK SMILES IDX 30 59 31 60 39 61 32 62 38 63 40 64 37 65 33 66 34 67 35 68
REMARK SMILES IDX 36 69 62 70 63 71 71 72 64 73 70 74 72 75 69 76 65 77 66 78
REMARK SMILES IDX 67 79 68 80 47 81 48 82 56 83 49 84 55 85 57 86 54 87 50 88
REMARK SMILES IDX 51 89 52 90 53 91
REMARK H PARENT 11 7 7 10 7 11 18 25 77 44 45 55
REMARK Flexibility Score: inf
ROOT
ATOM      1  C   UNL A   1      38.352  23.531  26.710  1.00  0.00     0.002 C 
ENDROOT
BRANCH   1   2
ATOM      2  C   UNL A   1      37.640  23.738  25.369  1.00  0.00     0.021 C 
BRANCH   2   3
ATOM      3  C   UNL A   1      36.154  23.347  25.306  1.00  0.00     0.116 C 
BRANCH   3   4
ATOM      4  N   UNL A   1      35.587  22.743  26.505  1.00  0.00    -0.351 N 
ATOM      5  C   UNL A   1      34.432  22.043  26.710  1.00  0.00     0.275 C 
ATOM      6  O   UNL A   1      34.309  21.438  27.781  1.00  0.00    -0.269 OA
ATOM      7  H   UNL A   1      36.135  22.862  27.314  1.00  0.00     0.163 HD
BRANCH   5   8
ATOM      8  C   UNL A   1      33.267  22.091  25.713  1.00  0.00     0.362 C 
BRANCH   8   9
ATOM      9  N   UNL A   1      32.338  20.945  25.901  1.00  0.00    -0.331 N 
ATOM     10  H   UNL A   1      32.712  20.327  26.620  1.00  0.00     0.347 HD
ATOM     11  H   UNL A   1      31.426  21.310  26.179  1.00  0.00     0.347 HD
BRANCH   9  12
ATOM     12  C   UNL A   1      32.174  20.186  24.652  1.00  0.00     0.230 C 
ATOM     13  C   UNL A   1      32.528  21.040  23.437  1.00  0.00     0.082 C 
BRANCH  12  14
ATOM     14  C   UNL A   1      32.844  18.823  24.670  1.00  0.00     0.108 A 
ATOM     15  C   UNL A   1      32.420  15.323  25.676  1.00  0.00     0.079 C 
ATOM     16  C   UNL A   1      32.878  16.656  25.198  1.00  0.00     0.090 A 
ATOM     17  N   UNL A   1      32.122  17.732  25.149  1.00  0.00    -0.240 NA
ATOM     18  S   UNL A   1      34.500  16.871  24.695  1.00  0.00    -0.127 S 
ATOM     19  C   UNL A   1      34.160  18.515  24.369  1.00  0.00     0.096 A 
ENDBRANCH  12  14
ENDBRANCH   9  12
ENDBRANCH   8   9
ENDBRANCH   5   8
ENDBRANCH   3   4
ENDBRANCH   2   3
ENDBRANCH   1   2
BRANCH   1  20
ATOM     20  C   UNL A   1      39.708  22.829  26.618  1.00  0.00     0.002 C 
BRANCH  20  21
ATOM     21  C   UNL A   1      39.663  21.372  26.148  1.00  0.00     0.021 C 
BRANCH  21  22
ATOM     22  C   UNL A   1      40.397  20.378  27.046  1.00  0.00     0.116 C 
BRANCH  22  23
ATOM     23  N   UNL A   1      41.349  19.571  26.298  1.00  0.00    -0.352 N 
ATOM     24  C   UNL A   1      42.518  19.977  25.690  1.00  0.00     0.251 C 
ATOM     25  H   UNL A   1      41.130  18.614  26.217  1.00  0.00     0.163 HD
ATOM     26  O   UNL A   1      43.109  19.236  24.920  1.00  0.00    -0.269 OA
BRANCH  24  27
ATOM     27  C   UNL A   1      43.025  21.339  25.971  1.00  0.00     0.039 A 
ATOM     28  C   UNL A   1      43.037  22.290  24.949  1.00  0.00     0.014 A 
ATOM     29  C   UNL A   1      43.435  21.679  27.264  1.00  0.00     0.014 A 
ATOM     30  C   UNL A   1      43.394  23.609  25.244  1.00  0.00     0.010 A 
ATOM     31  C   UNL A   1      43.722  23.007  27.568  1.00  0.00     0.010 A 
ATOM     32  C   UNL A   1      43.704  23.987  26.562  1.00  0.00    -0.014 A 
BRANCH  32  33
ATOM     33  C   UNL A   1      44.020  25.399  26.907  1.00  0.00     0.031 A 
ATOM     34  C   UNL A   1      45.422  25.917  26.733  1.00  0.00     0.074 A 
ATOM     35  C   UNL A   1      43.066  26.195  27.434  1.00  0.00     0.049 A 
ATOM     36  N   UNL A   1      45.921  27.085  27.047  1.00  0.00    -0.248 NA
ATOM     37  C   UNL A   1      46.400  24.981  26.157  1.00  0.00     0.031 C 
ATOM     38  C   UNL A   1      41.681  25.794  27.692  1.00  0.00     0.029 A 
ATOM     39  N   UNL A   1      43.116  27.500  27.854  1.00  0.00    -0.354 N 
ATOM     40  C   UNL A   1      47.271  27.021  26.715  1.00  0.00     0.074 A 
ATOM     41  C   UNL A   1      47.524  25.675  26.246  1.00  0.00     0.031 C 
ATOM     42  C   UNL A   1      41.010  26.838  28.206  1.00  0.00     0.029 A 
ATOM     43  C   UNL A   1      41.921  27.967  28.357  1.00  0.00     0.049 A 
ATOM     44  H   UNL A   1      43.929  28.052  27.803  1.00  0.00     0.167 HD
ATOM     45  C   UNL A   1      48.206  28.003  26.766  1.00  0.00     0.034 A 
ATOM     46  C   UNL A   1      41.601  29.166  28.886  1.00  0.00     0.034 A 
ATOM     47  C   UNL A   1      47.936  29.341  27.230  1.00  0.00     0.049 A 
ATOM     48  C   UNL A   1      42.664  30.235  28.960  1.00  0.00     0.074 A 
ATOM     49  C   UNL A   1      48.797  30.425  27.291  1.00  0.00     0.029 A 
ATOM     50  N   UNL A   1      46.712  29.781  27.721  1.00  0.00    -0.354 N 
ATOM     51  N   UNL A   1      43.924  30.174  28.595  1.00  0.00    -0.248 NA
ATOM     52  C   UNL A   1      42.259  31.538  29.501  1.00  0.00     0.031 C 
ATOM     53  C   UNL A   1      48.113  31.497  27.875  1.00  0.00     0.029 A 
ATOM     54  C   UNL A   1      46.803  31.109  28.108  1.00  0.00     0.049 A 
ATOM     55  H   UNL A   1      45.899  29.230  27.784  1.00  0.00     0.167 HD
ATOM     56  C   UNL A   1      44.451  31.441  28.833  1.00  0.00     0.074 A 
ATOM     57  C   UNL A   1      43.368  32.247  29.356  1.00  0.00     0.031 C 
ATOM     58  C   UNL A   1      45.713  31.898  28.635  1.00  0.00     0.034 A 
BRANCH  45  59
ATOM     59  C   UNL A   1      49.607  27.648  26.324  1.00  0.00     0.023 A 
ATOM     60  C   UNL A   1      50.033  27.855  24.999  1.00  0.00     0.031 A 
ATOM     61  C   UNL A   1      50.517  27.064  27.221  1.00  0.00     0.131 A 
ATOM     62  C   UNL A   1      51.297  27.404  24.590  1.00  0.00     0.055 A 
ATOM     63  C   UNL A   1      51.807  26.697  26.829  1.00  0.00     0.041 A 
ATOM     64  F   UNL A   1      50.164  26.821  28.493  1.00  0.00    -0.206 F 
ATOM     65  C   UNL A   1      52.198  26.852  25.502  1.00  0.00     0.022 A 
BRANCH  62  66
ATOM     66  S   UNL A   1      51.684  27.411  22.818  1.00  0.00     0.124 S 
ATOM     67  O   UNL A   1      50.402  27.020  22.235  1.00  0.00    -0.237 OA
ATOM     68  O   UNL A   1      52.094  28.792  22.589  1.00  0.00    -0.237 OA
ATOM     69  O   UNL A   1      52.746  26.416  22.695  1.00  0.00    -0.744 OA
ENDBRANCH  62  66
ENDBRANCH  45  59
BRANCH  46  70
ATOM     70  C   UNL A   1      40.225  29.425  29.403  1.00  0.00     0.023 A 
ATOM     71  C   UNL A   1      39.960  29.444  30.782  1.00  0.00     0.031 A 
ATOM     72  C   UNL A   1      39.143  29.607  28.523  1.00  0.00     0.131 A 
ATOM     73  C   UNL A   1      38.640  29.585  31.241  1.00  0.00     0.055 A 
ATOM     74  C   UNL A   1      37.840  29.805  28.986  1.00  0.00     0.041 A 
ATOM     75  F   UNL A   1      39.339  29.603  27.195  1.00  0.00    -0.206 F 
ATOM     76  C   UNL A   1      37.581  29.779  30.352  1.00  0.00     0.022 A 
BRANCH  73  77
ATOM     77  S   UNL A   1      38.314  29.414  33.018  1.00  0.00     0.124 S 
ATOM     78  O   UNL A   1      37.388  28.288  33.042  1.00  0.00    -0.237 OA
ATOM     79  O   UNL A   1      39.650  29.161  33.546  1.00  0.00    -0.237 OA
ATOM     80  O   UNL A   1      37.736  30.706  33.382  1.00  0.00    -0.744 OA
ENDBRANCH  73  77
ENDBRANCH  46  70
BRANCH  58  81
ATOM     81  C   UNL A   1      45.972  33.354  28.942  1.00  0.00     0.023 A 
ATOM     82  C   UNL A   1      46.412  33.778  30.208  1.00  0.00     0.031 A 
ATOM     83  C   UNL A   1      45.768  34.331  27.951  1.00  0.00     0.131 A 
ATOM     84  C   UNL A   1      46.578  35.147  30.467  1.00  0.00     0.055 A 
ATOM     85  C   UNL A   1      45.994  35.686  28.196  1.00  0.00     0.041 A 
ATOM     86  F   UNL A   1      45.346  33.982  26.724  1.00  0.00    -0.206 F 
ATOM     87  C   UNL A   1      46.388  36.102  29.464  1.00  0.00     0.022 A 
BRANCH  84  88
ATOM     88  S   UNL A   1      46.954  35.673  32.161  1.00  0.00     0.124 S 
ATOM     89  O   UNL A   1      45.649  35.572  32.807  1.00  0.00    -0.237 OA
ATOM     90  O   UNL A   1      47.949  34.692  32.579  1.00  0.00    -0.237 OA
ATOM     91  O   UNL A   1      47.460  37.035  31.994  1.00  0.00    -0.744 OA
ENDBRANCH  84  88
ENDBRANCH  58  81
ENDBRANCH  32  33
ENDBRANCH  24  27
ENDBRANCH  22  23
ENDBRANCH  21  22
ENDBRANCH  20  21
ENDBRANCH   1  20
TORSDOF 19
ENDMDL
