MODEL 1
REMARK VINA RESULT:     -12.7      0.000      0.000
REMARK SMILES Nc1ccnc(N2CCC[C@](Cc3ccc(F)cc3)(C(=O)NCCCCCCNC(=O)c3ccc(-c4c5nc(c(-c6cc(S(=O)(=O)[O-])ccc6F)c6ccc([nH]6)c(-c6cc(S(=O)(=O)[O-])ccc6F)c6nc(c(-c7cc(S(=O)(=O)[O-])ccc7F)c7ccc4[nH]7)C=C6)C=C5)cc3)C2)n1
REMARK SMILES IDX 26 1 25 2 24 3 23 4 22 5 20 6 21 7 11 9 7 10 8 11 95 12 9 13
REMARK SMILES IDX 10 14 6 15 2 16 3 17 96 18 4 19 5 20 1 21 12 24 13 25 14 26
REMARK SMILES IDX 19 27 15 28 18 29 16 30 17 31 27 32 28 33 29 34 30 35 31 37
REMARK SMILES IDX 32 38 33 39 94 40 34 41 93 42 35 43 36 44 37 45 87 46 38 47
REMARK SMILES IDX 92 48 86 49 88 50 39 51 91 52 85 53 84 54 40 56 72 57 52 58
REMARK SMILES IDX 71 59 53 60 56 61 70 62 89 63 54 64 55 65 69 67 90 68 57 69
REMARK SMILES IDX 41 70 42 71 50 72 43 73 49 74 51 75 48 76 44 77 45 78 46 79
REMARK SMILES IDX 47 80 73 81 74 82 82 83 75 84 81 85 83 86 80 87 76 88 77 89
REMARK SMILES IDX 78 90 79 91 58 92 59 93 67 94 60 95 66 96 68 97 65 98 61 99
REMARK SMILES IDX 62 100 63 101 64 102
REMARK H PARENT 22 8 1 22 1 23 29 36 88 55 56 66
REMARK Flexibility Score: inf
ROOT
ATOM      1  C   UNL A   1      34.279  22.403  23.741  1.00  0.00     0.002 C 
ENDROOT
BRANCH   1   2
ATOM      2  C   UNL A   1      33.462  21.431  24.592  1.00  0.00     0.002 C 
BRANCH   2   3
ATOM      3  C   UNL A   1      32.398  21.964  25.569  1.00  0.00     0.021 C 
BRANCH   3   4
ATOM      4  C   UNL A   1      32.618  23.312  26.265  1.00  0.00     0.116 C 
BRANCH   4   5
ATOM      5  N   UNL A   1      31.492  24.204  26.016  1.00  0.00    -0.356 N 
ATOM      6  C   UNL A   1      31.330  25.510  25.726  1.00  0.00     0.228 C 
ATOM      7  O   UNL A   1      30.195  25.928  26.020  1.00  0.00    -0.274 OA
ATOM      8  H   UNL A   1      30.630  23.733  26.076  1.00  0.00     0.163 HD
BRANCH   6   9
ATOM      9  C   UNL A   1      32.299  26.469  24.985  1.00  0.00     0.071 C 
ATOM     10  N   UNL A   1      30.970  27.429  23.124  1.00  0.00    -0.340 N 
ATOM     11  C   UNL A   1      31.635  26.654  22.089  1.00  0.00     0.120 C 
ATOM     12  C   UNL A   1      31.717  27.744  24.332  1.00  0.00     0.137 C 
ATOM     13  C   UNL A   1      32.111  25.343  22.694  1.00  0.00     0.023 C 
ATOM     14  C   UNL A   1      33.017  25.615  23.893  1.00  0.00     0.021 C 
BRANCH  10  15
ATOM     15  C   UNL A   1      30.000  28.288  22.655  1.00  0.00     0.227 A 
ATOM     16  C   UNL A   1      27.761  28.825  22.687  1.00  0.00     0.128 A 
ATOM     17  C   UNL A   1      27.988  29.979  21.987  1.00  0.00     0.067 A 
ATOM     18  N   UNL A   1      28.739  27.976  22.988  1.00  0.00    -0.196 NA
ATOM     19  C   UNL A   1      29.300  30.220  21.655  1.00  0.00     0.119 A 
ATOM     20  N   UNL A   1      30.324  29.415  22.009  1.00  0.00    -0.221 NA
BRANCH  16  21
ATOM     21  N   UNL A   1      26.531  28.522  23.231  1.00  0.00    -0.384 N 
ATOM     22  H   UNL A   1      26.392  28.590  24.203  1.00  0.00     0.158 HD
ATOM     23  H   UNL A   1      25.792  28.236  22.647  1.00  0.00     0.158 HD
ENDBRANCH  16  21
ENDBRANCH  10  15
BRANCH   9  24
ATOM     24  C   UNL A   1      33.316  26.864  26.120  1.00  0.00     0.054 C 
BRANCH  24  25
ATOM     25  C   UNL A   1      33.371  28.317  26.549  1.00  0.00    -0.047 A 
ATOM     26  C   UNL A   1      34.598  28.958  26.766  1.00  0.00     0.007 A 
ATOM     27  C   UNL A   1      32.182  29.042  26.743  1.00  0.00     0.007 A 
ATOM     28  C   UNL A   1      34.637  30.273  27.232  1.00  0.00     0.039 A 
ATOM     29  C   UNL A   1      32.222  30.363  27.190  1.00  0.00     0.039 A 
ATOM     30  C   UNL A   1      33.450  30.961  27.445  1.00  0.00     0.123 A 
ATOM     31  F   UNL A   1      33.488  32.220  27.901  1.00  0.00    -0.207 F 
ENDBRANCH  24  25
ENDBRANCH   9  24
ENDBRANCH   6   9
ENDBRANCH   4   5
ENDBRANCH   3   4
ENDBRANCH   2   3
ENDBRANCH   1   2
BRANCH   1  32
ATOM     32  C   UNL A   1      35.747  22.608  24.120  1.00  0.00     0.021 C 
BRANCH  32  33
ATOM     33  C   UNL A   1      36.236  22.045  25.461  1.00  0.00     0.116 C 
BRANCH  33  34
ATOM     34  N   UNL A   1      37.200  20.965  25.398  1.00  0.00    -0.352 N 
ATOM     35  C   UNL A   1      38.527  20.988  25.757  1.00  0.00     0.251 C 
ATOM     36  H   UNL A   1      36.863  20.106  25.054  1.00  0.00     0.163 HD
ATOM     37  O   UNL A   1      39.207  19.967  25.657  1.00  0.00    -0.269 OA
BRANCH  35  38
ATOM     38  C   UNL A   1      39.154  22.245  26.224  1.00  0.00     0.039 A 
ATOM     39  C   UNL A   1      40.380  22.167  26.889  1.00  0.00     0.014 A 
ATOM     40  C   UNL A   1      38.533  23.486  26.052  1.00  0.00     0.014 A 
ATOM     41  C   UNL A   1      41.007  23.335  27.334  1.00  0.00     0.010 A 
ATOM     42  C   UNL A   1      39.181  24.658  26.464  1.00  0.00     0.010 A 
ATOM     43  C   UNL A   1      40.431  24.596  27.102  1.00  0.00    -0.014 A 
BRANCH  43  44
ATOM     44  C   UNL A   1      41.156  25.836  27.504  1.00  0.00     0.031 A 
ATOM     45  C   UNL A   1      42.553  26.114  27.013  1.00  0.00     0.074 A 
ATOM     46  C   UNL A   1      40.544  26.730  28.310  1.00  0.00     0.049 A 
ATOM     47  N   UNL A   1      43.318  27.150  27.254  1.00  0.00    -0.248 NA
ATOM     48  C   UNL A   1      43.174  25.100  26.149  1.00  0.00     0.031 C 
ATOM     49  C   UNL A   1      39.196  26.579  28.862  1.00  0.00     0.029 A 
ATOM     50  N   UNL A   1      40.961  27.948  28.791  1.00  0.00    -0.354 N 
ATOM     51  C   UNL A   1      44.503  26.920  26.563  1.00  0.00     0.074 A 
ATOM     52  C   UNL A   1      44.377  25.621  25.938  1.00  0.00     0.031 C 
ATOM     53  C   UNL A   1      38.881  27.679  29.563  1.00  0.00     0.029 A 
ATOM     54  C   UNL A   1      40.016  28.597  29.555  1.00  0.00     0.049 A 
ATOM     55  H   UNL A   1      41.852  28.323  28.607  1.00  0.00     0.167 HD
ATOM     56  C   UNL A   1      45.585  27.728  26.440  1.00  0.00     0.034 A 
ATOM     57  C   UNL A   1      40.052  29.792  30.180  1.00  0.00     0.034 A 
ATOM     58  C   UNL A   1      45.704  29.028  27.051  1.00  0.00     0.049 A 
ATOM     59  C   UNL A   1      41.292  30.644  30.075  1.00  0.00     0.074 A 
ATOM     60  C   UNL A   1      46.755  29.926  26.958  1.00  0.00     0.029 A 
ATOM     61  N   UNL A   1      44.749  29.621  27.863  1.00  0.00    -0.354 N 
ATOM     62  N   UNL A   1      42.401  30.403  29.416  1.00  0.00    -0.248 NA
ATOM     63  C   UNL A   1      41.287  31.925  30.796  1.00  0.00     0.031 C 
ATOM     64  C   UNL A   1      46.464  31.030  27.763  1.00  0.00     0.029 A 
ATOM     65  C   UNL A   1      45.198  30.857  28.299  1.00  0.00     0.049 A 
ATOM     66  H   UNL A   1      43.879  29.222  28.096  1.00  0.00     0.167 HD
ATOM     67  C   UNL A   1      43.210  31.517  29.618  1.00  0.00     0.074 A 
ATOM     68  C   UNL A   1      42.467  32.430  30.460  1.00  0.00     0.031 C 
ATOM     69  C   UNL A   1      44.455  31.761  29.140  1.00  0.00     0.034 A 
BRANCH  56  70
ATOM     70  C   UNL A   1      46.745  27.239  25.611  1.00  0.00     0.023 A 
ATOM     71  C   UNL A   1      46.985  27.747  24.323  1.00  0.00     0.031 A 
ATOM     72  C   UNL A   1      47.660  26.315  26.143  1.00  0.00     0.131 A 
ATOM     73  C   UNL A   1      48.105  27.309  23.600  1.00  0.00     0.055 A 
ATOM     74  C   UNL A   1      48.802  25.926  25.441  1.00  0.00     0.041 A 
ATOM     75  F   UNL A   1      47.470  25.791  27.364  1.00  0.00    -0.206 F 
ATOM     76  C   UNL A   1      49.028  26.421  24.160  1.00  0.00     0.022 A 
BRANCH  73  77
ATOM     77  S   UNL A   1      48.312  27.877  21.892  1.00  0.00     0.124 S 
ATOM     78  O   UNL A   1      49.595  28.572  21.968  1.00  0.00    -0.237 OA
ATOM     79  O   UNL A   1      48.306  26.628  21.138  1.00  0.00    -0.237 OA
ATOM     80  O   UNL A   1      47.153  28.741  21.674  1.00  0.00    -0.744 OA
ENDBRANCH  73  77
ENDBRANCH  56  70
BRANCH  57  81
ATOM     81  C   UNL A   1      38.878  30.261  30.972  1.00  0.00     0.023 A 
ATOM     82  C   UNL A   1      37.963  31.179  30.434  1.00  0.00     0.031 A 
ATOM     83  C   UNL A   1      38.667  29.811  32.287  1.00  0.00     0.131 A 
ATOM     84  C   UNL A   1      36.894  31.642  31.219  1.00  0.00     0.055 A 
ATOM     85  C   UNL A   1      37.578  30.238  33.048  1.00  0.00     0.041 A 
ATOM     86  F   UNL A   1      39.512  28.928  32.846  1.00  0.00    -0.206 F 
ATOM     87  C   UNL A   1      36.689  31.167  32.517  1.00  0.00     0.022 A 
BRANCH  84  88
ATOM     88  S   UNL A   1      35.800  32.918  30.537  1.00  0.00     0.124 S 
ATOM     89  O   UNL A   1      34.484  32.338  30.782  1.00  0.00    -0.237 OA
ATOM     90  O   UNL A   1      36.151  34.082  31.343  1.00  0.00    -0.237 OA
ATOM     91  O   UNL A   1      36.199  32.992  29.133  1.00  0.00    -0.744 OA
ENDBRANCH  84  88
ENDBRANCH  57  81
BRANCH  69  92
ATOM     92  C   UNL A   1      45.092  33.084  29.476  1.00  0.00     0.023 A 
ATOM     93  C   UNL A   1      44.907  34.217  28.668  1.00  0.00     0.031 A 
ATOM     94  C   UNL A   1      45.835  33.225  30.662  1.00  0.00     0.131 A 
ATOM     95  C   UNL A   1      45.477  35.443  29.048  1.00  0.00     0.055 A 
ATOM     96  C   UNL A   1      46.361  34.456  31.057  1.00  0.00     0.041 A 
ATOM     97  F   UNL A   1      46.036  32.172  31.470  1.00  0.00    -0.206 F 
ATOM     98  C   UNL A   1      46.185  35.573  30.245  1.00  0.00     0.022 A 
BRANCH  95  99
ATOM     99  S   UNL A   1      45.295  36.870  27.943  1.00  0.00     0.124 S 
ATOM    100  O   UNL A   1      43.878  36.810  27.603  1.00  0.00    -0.237 OA
ATOM    101  O   UNL A   1      45.699  37.985  28.796  1.00  0.00    -0.237 OA
ATOM    102  O   UNL A   1      46.211  36.572  26.843  1.00  0.00    -0.744 OA
ENDBRANCH  95  99
ENDBRANCH  69  92
ENDBRANCH  43  44
ENDBRANCH  35  38
ENDBRANCH  33  34
ENDBRANCH  32  33
ENDBRANCH   1  32
TORSDOF 20
ENDMDL
MODEL 2
REMARK VINA RESULT:     -12.7      2.524      4.333
REMARK SMILES Nc1ccnc(N2CCC[C@](Cc3ccc(F)cc3)(C(=O)NCCCCCCNC(=O)c3ccc(-c4c5nc(c(-c6cc(S(=O)(=O)[O-])ccc6F)c6ccc([nH]6)c(-c6cc(S(=O)(=O)[O-])ccc6F)c6nc(c(-c7cc(S(=O)(=O)[O-])ccc7F)c7ccc4[nH]7)C=C6)C=C5)cc3)C2)n1
REMARK SMILES IDX 26 1 25 2 24 3 23 4 22 5 20 6 21 7 11 9 7 10 8 11 95 12 9 13
REMARK SMILES IDX 10 14 6 15 2 16 3 17 96 18 4 19 5 20 1 21 12 24 13 25 14 26
REMARK SMILES IDX 19 27 15 28 18 29 16 30 17 31 27 32 28 33 29 34 30 35 31 37
REMARK SMILES IDX 32 38 33 39 94 40 34 41 93 42 35 43 36 44 37 45 87 46 38 47
REMARK SMILES IDX 92 48 86 49 88 50 39 51 91 52 85 53 84 54 40 56 72 57 52 58
REMARK SMILES IDX 71 59 53 60 56 61 70 62 89 63 54 64 55 65 69 67 90 68 57 69
REMARK SMILES IDX 41 70 42 71 50 72 43 73 49 74 51 75 48 76 44 77 45 78 46 79
REMARK SMILES IDX 47 80 73 81 74 82 82 83 75 84 81 85 83 86 80 87 76 88 77 89
REMARK SMILES IDX 78 90 79 91 58 92 59 93 67 94 60 95 66 96 68 97 65 98 61 99
REMARK SMILES IDX 62 100 63 101 64 102
REMARK H PARENT 22 8 1 22 1 23 29 36 88 55 56 66
REMARK Flexibility Score: inf
ROOT
ATOM      1  C   UNL A   1      37.773  21.495  24.895  1.00  0.00     0.002 C 
ENDROOT
BRANCH   1   2
ATOM      2  C   UNL A   1      38.369  22.583  25.787  1.00  0.00     0.002 C 
BRANCH   2   3
ATOM      3  C   UNL A   1      37.548  23.840  26.128  1.00  0.00     0.021 C 
BRANCH   3   4
ATOM      4  C   UNL A   1      36.114  23.971  25.602  1.00  0.00     0.116 C 
BRANCH   4   5
ATOM      5  N   UNL A   1      35.218  23.086  26.337  1.00  0.00    -0.356 N 
ATOM      6  C   UNL A   1      33.896  22.828  26.347  1.00  0.00     0.228 C 
ATOM      7  O   UNL A   1      33.516  22.319  27.417  1.00  0.00    -0.274 OA
ATOM      8  H   UNL A   1      35.704  22.537  26.995  1.00  0.00     0.163 HD
BRANCH   6   9
ATOM      9  C   UNL A   1      32.871  22.962  25.190  1.00  0.00     0.071 C 
ATOM     10  N   UNL A   1      31.662  25.082  25.631  1.00  0.00    -0.340 N 
ATOM     11  C   UNL A   1      30.435  24.432  26.065  1.00  0.00     0.120 C 
ATOM     12  C   UNL A   1      32.512  24.378  24.684  1.00  0.00     0.137 C 
ATOM     13  C   UNL A   1      30.788  23.084  26.672  1.00  0.00     0.023 C 
ATOM     14  C   UNL A   1      31.570  22.242  25.665  1.00  0.00     0.021 C 
BRANCH  10  15
ATOM     15  C   UNL A   1      31.608  26.459  25.638  1.00  0.00     0.227 A 
ATOM     16  C   UNL A   1      32.274  28.380  26.719  1.00  0.00     0.128 A 
ATOM     17  C   UNL A   1      31.770  29.164  25.715  1.00  0.00     0.067 A 
ATOM     18  N   UNL A   1      32.167  27.055  26.702  1.00  0.00    -0.196 NA
ATOM     19  C   UNL A   1      31.186  28.486  24.672  1.00  0.00     0.119 A 
ATOM     20  N   UNL A   1      31.128  27.140  24.591  1.00  0.00    -0.221 NA
BRANCH  16  21
ATOM     21  N   UNL A   1      33.028  28.897  27.751  1.00  0.00    -0.384 N 
ATOM     22  H   UNL A   1      33.649  29.641  27.582  1.00  0.00     0.158 HD
ATOM     23  H   UNL A   1      32.946  28.519  28.656  1.00  0.00     0.158 HD
ENDBRANCH  16  21
ENDBRANCH  10  15
BRANCH   9  24
ATOM     24  C   UNL A   1      33.555  22.138  24.036  1.00  0.00     0.054 C 
BRANCH  24  25
ATOM     25  C   UNL A   1      33.391  20.631  24.047  1.00  0.00    -0.047 A 
ATOM     26  C   UNL A   1      34.333  19.809  24.681  1.00  0.00     0.007 A 
ATOM     27  C   UNL A   1      32.289  20.036  23.409  1.00  0.00     0.007 A 
ATOM     28  C   UNL A   1      34.211  18.419  24.622  1.00  0.00     0.039 A 
ATOM     29  C   UNL A   1      32.159  18.647  23.367  1.00  0.00     0.039 A 
ATOM     30  C   UNL A   1      33.130  17.852  23.962  1.00  0.00     0.123 A 
ATOM     31  F   UNL A   1      33.021  16.518  23.898  1.00  0.00    -0.207 F 
ENDBRANCH  24  25
ENDBRANCH   9  24
ENDBRANCH   6   9
ENDBRANCH   4   5
ENDBRANCH   3   4
ENDBRANCH   2   3
ENDBRANCH   1   2
BRANCH   1  32
ATOM     32  C   UNL A   1      38.396  20.100  24.974  1.00  0.00     0.021 C 
BRANCH  32  33
ATOM     33  C   UNL A   1      39.262  19.759  26.194  1.00  0.00     0.116 C 
BRANCH  33  34
ATOM     34  N   UNL A   1      40.490  19.034  25.935  1.00  0.00    -0.352 N 
ATOM     35  C   UNL A   1      41.783  19.494  26.024  1.00  0.00     0.251 C 
ATOM     36  H   UNL A   1      40.386  18.094  25.660  1.00  0.00     0.163 HD
ATOM     37  O   UNL A   1      42.721  18.733  25.786  1.00  0.00    -0.269 OA
BRANCH  35  38
ATOM     38  C   UNL A   1      42.053  20.909  26.364  1.00  0.00     0.039 A 
ATOM     39  C   UNL A   1      42.279  21.238  27.702  1.00  0.00     0.014 A 
ATOM     40  C   UNL A   1      42.043  21.913  25.391  1.00  0.00     0.014 A 
ATOM     41  C   UNL A   1      42.549  22.563  28.058  1.00  0.00     0.010 A 
ATOM     42  C   UNL A   1      42.351  23.234  25.744  1.00  0.00     0.010 A 
ATOM     43  C   UNL A   1      42.616  23.572  27.082  1.00  0.00    -0.014 A 
BRANCH  43  44
ATOM     44  C   UNL A   1      42.992  24.963  27.468  1.00  0.00     0.031 A 
ATOM     45  C   UNL A   1      44.394  25.476  27.264  1.00  0.00     0.074 A 
ATOM     46  C   UNL A   1      42.056  25.780  27.995  1.00  0.00     0.049 A 
ATOM     47  N   UNL A   1      44.883  26.661  27.529  1.00  0.00    -0.248 NA
ATOM     48  C   UNL A   1      45.375  24.537  26.698  1.00  0.00     0.031 C 
ATOM     49  C   UNL A   1      40.663  25.408  28.252  1.00  0.00     0.029 A 
ATOM     50  N   UNL A   1      42.122  27.095  28.393  1.00  0.00    -0.354 N 
ATOM     51  C   UNL A   1      46.221  26.618  27.152  1.00  0.00     0.074 A 
ATOM     52  C   UNL A   1      46.481  25.271  26.690  1.00  0.00     0.031 C 
ATOM     53  C   UNL A   1      39.998  26.478  28.716  1.00  0.00     0.029 A 
ATOM     54  C   UNL A   1      40.921  27.602  28.839  1.00  0.00     0.049 A 
ATOM     55  H   UNL A   1      42.951  27.625  28.362  1.00  0.00     0.167 HD
ATOM     56  C   UNL A   1      47.140  27.614  27.166  1.00  0.00     0.034 A 
ATOM     57  C   UNL A   1      40.594  28.829  29.294  1.00  0.00     0.034 A 
ATOM     58  C   UNL A   1      46.877  28.959  27.613  1.00  0.00     0.049 A 
ATOM     59  C   UNL A   1      41.652  29.902  29.354  1.00  0.00     0.074 A 
ATOM     60  C   UNL A   1      47.743  30.040  27.636  1.00  0.00     0.029 A 
ATOM     61  N   UNL A   1      45.665  29.414  28.110  1.00  0.00    -0.354 N 
ATOM     62  N   UNL A   1      42.911  29.835  28.992  1.00  0.00    -0.248 NA
ATOM     63  C   UNL A   1      41.247  31.213  29.882  1.00  0.00     0.031 C 
ATOM     64  C   UNL A   1      47.076  31.127  28.206  1.00  0.00     0.029 A 
ATOM     65  C   UNL A   1      45.770  30.748  28.468  1.00  0.00     0.049 A 
ATOM     66  H   UNL A   1      44.849  28.868  28.195  1.00  0.00     0.167 HD
ATOM     67  C   UNL A   1      43.438  31.103  29.220  1.00  0.00     0.074 A 
ATOM     68  C   UNL A   1      42.365  31.915  29.750  1.00  0.00     0.031 C 
ATOM     69  C   UNL A   1      44.698  31.552  29.000  1.00  0.00     0.034 A 
BRANCH  56  70
ATOM     70  C   UNL A   1      48.533  27.301  26.683  1.00  0.00     0.023 A 
ATOM     71  C   UNL A   1      48.923  27.565  25.360  1.00  0.00     0.031 A 
ATOM     72  C   UNL A   1      49.501  26.806  27.575  1.00  0.00     0.131 A 
ATOM     73  C   UNL A   1      50.243  27.311  24.958  1.00  0.00     0.055 A 
ATOM     74  C   UNL A   1      50.826  26.609  27.184  1.00  0.00     0.041 A 
ATOM     75  F   UNL A   1      49.177  26.527  28.848  1.00  0.00    -0.206 F 
ATOM     76  C   UNL A   1      51.203  26.858  25.868  1.00  0.00     0.022 A 
BRANCH  73  77
ATOM     77  S   UNL A   1      50.678  27.531  23.213  1.00  0.00     0.124 S 
ATOM     78  O   UNL A   1      51.875  26.700  23.103  1.00  0.00    -0.237 OA
ATOM     79  O   UNL A   1      49.492  27.037  22.524  1.00  0.00    -0.237 OA
ATOM     80  O   UNL A   1      50.912  28.970  23.097  1.00  0.00    -0.744 OA
ENDBRANCH  73  77
ENDBRANCH  56  70
BRANCH  57  81
ATOM     81  C   UNL A   1      39.200  29.117  29.740  1.00  0.00     0.023 A 
ATOM     82  C   UNL A   1      38.293  29.777  28.897  1.00  0.00     0.031 A 
ATOM     83  C   UNL A   1      38.762  28.751  31.025  1.00  0.00     0.131 A 
ATOM     84  C   UNL A   1      37.002  30.080  29.360  1.00  0.00     0.055 A 
ATOM     85  C   UNL A   1      37.464  29.013  31.465  1.00  0.00     0.041 A 
ATOM     86  F   UNL A   1      39.590  28.112  31.868  1.00  0.00    -0.206 F 
ATOM     87  C   UNL A   1      36.578  29.690  30.633  1.00  0.00     0.022 A 
BRANCH  84  88
ATOM     88  S   UNL A   1      35.895  31.041  28.292  1.00  0.00     0.124 S 
ATOM     89  O   UNL A   1      34.748  31.249  29.168  1.00  0.00    -0.237 OA
ATOM     90  O   UNL A   1      36.703  32.220  27.997  1.00  0.00    -0.237 OA
ATOM     91  O   UNL A   1      35.661  30.150  27.157  1.00  0.00    -0.744 OA
ENDBRANCH  84  88
ENDBRANCH  57  81
BRANCH  69  92
ATOM     92  C   UNL A   1      44.991  33.001  29.292  1.00  0.00     0.023 A 
ATOM     93  C   UNL A   1      44.755  34.006  28.340  1.00  0.00     0.031 A 
ATOM     94  C   UNL A   1      45.446  33.382  30.567  1.00  0.00     0.131 A 
ATOM     95  C   UNL A   1      44.993  35.349  28.674  1.00  0.00     0.055 A 
ATOM     96  C   UNL A   1      45.637  34.722  30.907  1.00  0.00     0.041 A 
ATOM     97  F   UNL A   1      45.681  32.458  31.511  1.00  0.00    -0.206 F 
ATOM     98  C   UNL A   1      45.414  35.713  29.956  1.00  0.00     0.022 A 
BRANCH  95  99
ATOM     99  S   UNL A   1      44.761  36.620  27.401  1.00  0.00     0.124 S 
ATOM    100  O   UNL A   1      45.694  36.185  26.367  1.00  0.00    -0.237 OA
ATOM    101  O   UNL A   1      43.344  36.488  27.076  1.00  0.00    -0.237 OA
ATOM    102  O   UNL A   1      45.125  37.860  28.084  1.00  0.00    -0.744 OA
ENDBRANCH  95  99
ENDBRANCH  69  92
ENDBRANCH  43  44
ENDBRANCH  35  38
ENDBRANCH  33  34
ENDBRANCH  32  33
ENDBRANCH   1  32
TORSDOF 20
ENDMDL
MODEL 3
REMARK VINA RESULT:     -12.6      0.591      7.220
REMARK SMILES Nc1ccnc(N2CCC[C@](Cc3ccc(F)cc3)(C(=O)NCCCCCCNC(=O)c3ccc(-c4c5nc(c(-c6cc(S(=O)(=O)[O-])ccc6F)c6ccc([nH]6)c(-c6cc(S(=O)(=O)[O-])ccc6F)c6nc(c(-c7cc(S(=O)(=O)[O-])ccc7F)c7ccc4[nH]7)C=C6)C=C5)cc3)C2)n1
REMARK SMILES IDX 26 1 25 2 24 3 23 4 22 5 20 6 21 7 11 9 7 10 8 11 95 12 9 13
REMARK SMILES IDX 10 14 6 15 2 16 3 17 96 18 4 19 5 20 1 21 12 24 13 25 14 26
REMARK SMILES IDX 19 27 15 28 18 29 16 30 17 31 27 32 28 33 29 34 30 35 31 37
REMARK SMILES IDX 32 38 33 39 94 40 34 41 93 42 35 43 36 44 37 45 87 46 38 47
REMARK SMILES IDX 92 48 86 49 88 50 39 51 91 52 85 53 84 54 40 56 72 57 52 58
REMARK SMILES IDX 71 59 53 60 56 61 70 62 89 63 54 64 55 65 69 67 90 68 57 69
REMARK SMILES IDX 41 70 42 71 50 72 43 73 49 74 51 75 48 76 44 77 45 78 46 79
REMARK SMILES IDX 47 80 73 81 74 82 82 83 75 84 81 85 83 86 80 87 76 88 77 89
REMARK SMILES IDX 78 90 79 91 58 92 59 93 67 94 60 95 66 96 68 97 65 98 61 99
REMARK SMILES IDX 62 100 63 101 64 102
REMARK H PARENT 22 8 1 22 1 23 29 36 88 55 56 66
REMARK Flexibility Score: inf
ROOT
ATOM      1  C   UNL A   1      34.762  22.420  23.871  1.00  0.00     0.002 C 
ENDROOT
BRANCH   1   2
ATOM      2  C   UNL A   1      33.708  21.451  24.405  1.00  0.00     0.002 C 
BRANCH   2   3
ATOM      3  C   UNL A   1      32.307  21.964  24.785  1.00  0.00     0.021 C 
BRANCH   3   4
ATOM      4  C   UNL A   1      32.147  22.901  25.988  1.00  0.00     0.116 C 
BRANCH   4   5
ATOM      5  N   UNL A   1      31.063  23.848  25.756  1.00  0.00    -0.356 N 
ATOM      6  C   UNL A   1      30.953  25.179  25.580  1.00  0.00     0.228 C 
ATOM      7  O   UNL A   1      29.813  25.604  25.842  1.00  0.00    -0.274 OA
ATOM      8  H   UNL A   1      30.186  23.401  25.718  1.00  0.00     0.163 HD
BRANCH   6   9
ATOM      9  C   UNL A   1      31.992  26.171  24.993  1.00  0.00     0.071 C 
ATOM     10  N   UNL A   1      30.828  27.303  23.119  1.00  0.00    -0.340 N 
ATOM     11  C   UNL A   1      31.559  26.595  22.079  1.00  0.00     0.120 C 
ATOM     12  C   UNL A   1      31.485  27.505  24.401  1.00  0.00     0.137 C 
ATOM     13  C   UNL A   1      31.964  25.231  22.613  1.00  0.00     0.023 C 
ATOM     14  C   UNL A   1      32.779  25.388  23.895  1.00  0.00     0.021 C 
BRANCH  10  15
ATOM     15  C   UNL A   1      29.912  28.217  22.647  1.00  0.00     0.227 A 
ATOM     16  C   UNL A   1      27.701  28.862  22.641  1.00  0.00     0.128 A 
ATOM     17  C   UNL A   1      28.000  30.018  21.971  1.00  0.00     0.067 A 
ATOM     18  N   UNL A   1      28.630  27.960  22.945  1.00  0.00    -0.196 NA
ATOM     19  C   UNL A   1      29.329  30.200  21.673  1.00  0.00     0.119 A 
ATOM     20  N   UNL A   1      30.305  29.339  22.032  1.00  0.00    -0.221 NA
BRANCH  16  21
ATOM     21  N   UNL A   1      26.445  28.608  23.151  1.00  0.00    -0.384 N 
ATOM     22  H   UNL A   1      26.342  28.026  23.938  1.00  0.00     0.158 HD
ATOM     23  H   UNL A   1      25.653  29.009  22.728  1.00  0.00     0.158 HD
ENDBRANCH  16  21
ENDBRANCH  10  15
BRANCH   9  24
ATOM     24  C   UNL A   1      32.925  26.454  26.230  1.00  0.00     0.054 C 
BRANCH  24  25
ATOM     25  C   UNL A   1      33.136  27.896  26.645  1.00  0.00    -0.047 A 
ATOM     26  C   UNL A   1      32.050  28.712  26.989  1.00  0.00     0.007 A 
ATOM     27  C   UNL A   1      34.432  28.439  26.680  1.00  0.00     0.007 A 
ATOM     28  C   UNL A   1      32.247  30.060  27.298  1.00  0.00     0.039 A 
ATOM     29  C   UNL A   1      34.630  29.781  27.008  1.00  0.00     0.039 A 
ATOM     30  C   UNL A   1      33.533  30.582  27.299  1.00  0.00     0.123 A 
ATOM     31  F   UNL A   1      33.720  31.878  27.586  1.00  0.00    -0.207 F 
ENDBRANCH  24  25
ENDBRANCH   9  24
ENDBRANCH   6   9
ENDBRANCH   4   5
ENDBRANCH   3   4
ENDBRANCH   2   3
ENDBRANCH   1   2
BRANCH   1  32
ATOM     32  C   UNL A   1      35.577  23.209  24.897  1.00  0.00     0.021 C 
BRANCH  32  33
ATOM     33  C   UNL A   1      36.111  22.465  26.128  1.00  0.00     0.116 C 
BRANCH  33  34
ATOM     34  N   UNL A   1      37.080  21.415  25.881  1.00  0.00    -0.352 N 
ATOM     35  C   UNL A   1      38.449  21.479  25.997  1.00  0.00     0.251 C 
ATOM     36  H   UNL A   1      36.713  20.548  25.594  1.00  0.00     0.163 HD
ATOM     37  O   UNL A   1      39.129  20.480  25.766  1.00  0.00    -0.269 OA
BRANCH  35  38
ATOM     38  C   UNL A   1      39.112  22.752  26.357  1.00  0.00     0.039 A 
ATOM     39  C   UNL A   1      40.150  22.718  27.290  1.00  0.00     0.014 A 
ATOM     40  C   UNL A   1      38.697  23.975  25.821  1.00  0.00     0.014 A 
ATOM     41  C   UNL A   1      40.807  23.900  27.646  1.00  0.00     0.010 A 
ATOM     42  C   UNL A   1      39.380  25.153  26.149  1.00  0.00     0.010 A 
ATOM     43  C   UNL A   1      40.450  25.127  27.060  1.00  0.00    -0.014 A 
BRANCH  43  44
ATOM     44  C   UNL A   1      41.220  26.363  27.384  1.00  0.00     0.031 A 
ATOM     45  C   UNL A   1      40.634  27.436  28.265  1.00  0.00     0.074 A 
ATOM     46  C   UNL A   1      42.468  26.515  26.892  1.00  0.00     0.049 A 
ATOM     47  N   UNL A   1      41.173  28.563  28.658  1.00  0.00    -0.248 NA
ATOM     48  C   UNL A   1      39.266  27.222  28.761  1.00  0.00     0.031 C 
ATOM     49  C   UNL A   1      43.151  25.556  26.021  1.00  0.00     0.029 A 
ATOM     50  N   UNL A   1      43.393  27.518  27.064  1.00  0.00    -0.354 N 
ATOM     51  C   UNL A   1      40.221  29.186  29.457  1.00  0.00     0.074 A 
ATOM     52  C   UNL A   1      39.048  28.338  29.448  1.00  0.00     0.031 C 
ATOM     53  C   UNL A   1      44.397  25.992  25.776  1.00  0.00     0.029 A 
ATOM     54  C   UNL A   1      44.592  27.283  26.429  1.00  0.00     0.049 A 
ATOM     55  H   UNL A   1      43.214  28.329  27.592  1.00  0.00     0.167 HD
ATOM     56  C   UNL A   1      40.323  30.345  30.153  1.00  0.00     0.034 A 
ATOM     57  C   UNL A   1      45.723  28.017  26.374  1.00  0.00     0.034 A 
ATOM     58  C   UNL A   1      41.496  31.183  30.173  1.00  0.00     0.049 A 
ATOM     59  C   UNL A   1      45.787  29.331  27.111  1.00  0.00     0.074 A 
ATOM     60  C   UNL A   1      41.697  32.362  30.873  1.00  0.00     0.029 A 
ATOM     61  N   UNL A   1      42.666  30.937  29.471  1.00  0.00    -0.354 N 
ATOM     62  N   UNL A   1      44.872  29.899  27.859  1.00  0.00    -0.248 NA
ATOM     63  C   UNL A   1      47.034  30.102  26.997  1.00  0.00     0.031 C 
ATOM     64  C   UNL A   1      42.959  32.861  30.544  1.00  0.00     0.029 A 
ATOM     65  C   UNL A   1      43.578  31.955  29.698  1.00  0.00     0.049 A 
ATOM     66  H   UNL A   1      42.825  30.154  28.895  1.00  0.00     0.167 HD
ATOM     67  C   UNL A   1      45.445  31.077  28.328  1.00  0.00     0.074 A 
ATOM     68  C   UNL A   1      46.782  31.142  27.781  1.00  0.00     0.031 C 
ATOM     69  C   UNL A   1      44.909  32.016  29.147  1.00  0.00     0.034 A 
BRANCH  56  70
ATOM     70  C   UNL A   1      39.133  30.794  30.962  1.00  0.00     0.023 A 
ATOM     71  C   UNL A   1      38.120  31.582  30.393  1.00  0.00     0.031 A 
ATOM     72  C   UNL A   1      38.974  30.364  32.291  1.00  0.00     0.131 A 
ATOM     73  C   UNL A   1      37.000  31.937  31.159  1.00  0.00     0.055 A 
ATOM     74  C   UNL A   1      37.830  30.673  33.030  1.00  0.00     0.041 A 
ATOM     75  F   UNL A   1      39.918  29.617  32.886  1.00  0.00    -0.206 F 
ATOM     76  C   UNL A   1      36.836  31.467  32.465  1.00  0.00     0.022 A 
BRANCH  73  77
ATOM     77  S   UNL A   1      35.779  33.068  30.442  1.00  0.00     0.124 S 
ATOM     78  O   UNL A   1      36.314  33.262  29.096  1.00  0.00    -0.237 OA
ATOM     79  O   UNL A   1      34.542  32.301  30.533  1.00  0.00    -0.237 OA
ATOM     80  O   UNL A   1      35.848  34.243  31.309  1.00  0.00    -0.744 OA
ENDBRANCH  73  77
ENDBRANCH  56  70
BRANCH  57  81
ATOM     81  C   UNL A   1      46.894  27.534  25.587  1.00  0.00     0.023 A 
ATOM     82  C   UNL A   1      47.065  27.903  24.244  1.00  0.00     0.031 A 
ATOM     83  C   UNL A   1      47.849  26.677  26.164  1.00  0.00     0.131 A 
ATOM     84  C   UNL A   1      48.149  27.392  23.512  1.00  0.00     0.055 A 
ATOM     85  C   UNL A   1      48.950  26.210  25.446  1.00  0.00     0.041 A 
ATOM     86  F   UNL A   1      47.733  26.299  27.448  1.00  0.00    -0.206 F 
ATOM     87  C   UNL A   1      49.100  26.560  24.108  1.00  0.00     0.022 A 
BRANCH  84  88
ATOM     88  S   UNL A   1      48.275  27.791  21.747  1.00  0.00     0.124 S 
ATOM     89  O   UNL A   1      46.924  28.257  21.453  1.00  0.00    -0.237 OA
ATOM     90  O   UNL A   1      49.322  28.807  21.738  1.00  0.00    -0.237 OA
ATOM     91  O   UNL A   1      48.643  26.516  21.136  1.00  0.00    -0.744 OA
ENDBRANCH  84  88
ENDBRANCH  57  81
BRANCH  69  92
ATOM     92  C   UNL A   1      45.775  33.183  29.543  1.00  0.00     0.023 A 
ATOM     93  C   UNL A   1      45.816  34.361  28.781  1.00  0.00     0.031 A 
ATOM     94  C   UNL A   1      46.513  33.137  30.740  1.00  0.00     0.131 A 
ATOM     95  C   UNL A   1      46.597  35.445  29.216  1.00  0.00     0.055 A 
ATOM     96  C   UNL A   1      47.250  34.233  31.190  1.00  0.00     0.041 A 
ATOM     97  F   UNL A   1      46.502  32.035  31.506  1.00  0.00    -0.206 F 
ATOM     98  C   UNL A   1      47.297  35.394  30.423  1.00  0.00     0.022 A 
BRANCH  95  99
ATOM     99  S   UNL A   1      46.699  36.923  28.170  1.00  0.00     0.124 S 
ATOM    100  O   UNL A   1      46.669  36.347  26.830  1.00  0.00    -0.237 OA
ATOM    101  O   UNL A   1      45.513  37.675  28.567  1.00  0.00    -0.237 OA
ATOM    102  O   UNL A   1      47.972  37.529  28.557  1.00  0.00    -0.744 OA
ENDBRANCH  95  99
ENDBRANCH  69  92
ENDBRANCH  43  44
ENDBRANCH  35  38
ENDBRANCH  33  34
ENDBRANCH  32  33
ENDBRANCH   1  32
TORSDOF 20
ENDMDL
