MODEL 1
REMARK VINA RESULT:     -12.4      0.000      0.000
REMARK SMILES O=C(NCCCCCCNC(=O)[C@@H]1CCCC[C@@H]1C(=O)Nc1nc(-c2ccc(Cl)c(Cl)c2)cs1)c1ccc(-c2c3nc(c(-c4cc(S(=O)(=O)[O-])ccc4F)c4ccc([nH]4)c(-c4cc(S(=O)(=O)[O-])ccc4F)c4nc(c(-c5cc(S(=O)(=O)[O-])ccc5F)c5ccc2[nH]5)C=C4)C=C3)cc1
REMARK SMILES IDX 6 1 5 2 4 3 3 4 1 5 2 6 35 8 36 9 97 10 37 11 96 12 38 13
REMARK SMILES IDX 39 14 40 15 90 16 41 17 95 18 89 19 91 20 42 21 94 22 88 23
REMARK SMILES IDX 87 24 43 26 75 27 55 28 74 29 56 30 59 31 73 32 92 33 57 34
REMARK SMILES IDX 58 35 72 37 93 38 60 39 44 40 45 41 53 42 46 43 52 44 54 45
REMARK SMILES IDX 51 46 47 47 48 48 49 49 50 50 76 51 77 52 85 53 78 54 84 55
REMARK SMILES IDX 86 56 83 57 79 58 80 59 81 60 82 61 61 62 62 63 70 64 63 65
REMARK SMILES IDX 69 66 71 67 68 68 64 69 65 70 66 71 67 72 7 73 8 74 9 75
REMARK SMILES IDX 10 76 11 77 12 79 13 80 14 81 18 82 15 83 17 84 16 85 19 86
REMARK SMILES IDX 20 87 21 88 22 90 23 91 34 92 24 93 33 94 25 95 26 96 32 97
REMARK SMILES IDX 27 98 30 99 28 100 31 101 29 102
REMARK H PARENT 3 7 91 25 59 36 10 78 21 89
REMARK Flexibility Score: inf
ROOT
ATOM      1  C   UNL A   1      31.828  28.689  27.233  1.00  0.00     0.002 C 
ENDROOT
BRANCH   1   2
ATOM      2  C   UNL A   1      31.640  30.141  26.779  1.00  0.00     0.021 C 
BRANCH   2   3
ATOM      3  C   UNL A   1      32.930  30.901  26.483  1.00  0.00     0.116 C 
BRANCH   3   4
ATOM      4  N   UNL A   1      32.848  32.299  26.882  1.00  0.00    -0.352 N 
ATOM      5  O   UNL A   1      33.268  34.092  28.195  1.00  0.00    -0.269 OA
ATOM      6  C   UNL A   1      33.615  32.981  27.796  1.00  0.00     0.251 C 
ATOM      7  H   UNL A   1      32.148  32.830  26.435  1.00  0.00     0.163 HD
BRANCH   6   8
ATOM      8  C   UNL A   1      34.858  32.363  28.304  1.00  0.00     0.039 A 
ATOM      9  C   UNL A   1      34.808  31.109  28.914  1.00  0.00     0.014 A 
ATOM     10  C   UNL A   1      36.073  33.041  28.189  1.00  0.00     0.014 A 
ATOM     11  C   UNL A   1      35.935  30.610  29.555  1.00  0.00     0.010 A 
ATOM     12  C   UNL A   1      37.229  32.488  28.750  1.00  0.00     0.010 A 
ATOM     13  C   UNL A   1      37.164  31.286  29.473  1.00  0.00    -0.014 A 
BRANCH  13  14
ATOM     14  C   UNL A   1      38.363  30.690  30.126  1.00  0.00     0.031 A 
ATOM     15  C   UNL A   1      38.746  31.057  31.536  1.00  0.00     0.074 A 
ATOM     16  C   UNL A   1      39.083  29.774  29.447  1.00  0.00     0.049 A 
ATOM     17  N   UNL A   1      39.738  30.609  32.263  1.00  0.00    -0.248 NA
ATOM     18  C   UNL A   1      37.915  32.063  32.212  1.00  0.00     0.031 C 
ATOM     19  C   UNL A   1      38.808  29.338  28.075  1.00  0.00     0.029 A 
ATOM     20  N   UNL A   1      40.170  29.026  29.817  1.00  0.00    -0.354 N 
ATOM     21  C   UNL A   1      39.667  31.292  33.474  1.00  0.00     0.074 A 
ATOM     22  C   UNL A   1      38.553  32.211  33.364  1.00  0.00     0.031 C 
ATOM     23  C   UNL A   1      39.661  28.360  27.744  1.00  0.00     0.029 A 
ATOM     24  C   UNL A   1      40.596  28.152  28.842  1.00  0.00     0.049 A 
ATOM     25  H   UNL A   1      40.606  29.104  30.697  1.00  0.00     0.167 HD
ATOM     26  C   UNL A   1      40.453  31.158  34.573  1.00  0.00     0.034 A 
ATOM     27  C   UNL A   1      41.634  27.295  28.821  1.00  0.00     0.034 A 
ATOM     28  C   UNL A   1      41.559  30.231  34.663  1.00  0.00     0.049 A 
ATOM     29  C   UNL A   1      42.517  27.200  30.037  1.00  0.00     0.074 A 
ATOM     30  C   UNL A   1      42.397  29.990  35.738  1.00  0.00     0.029 A 
ATOM     31  N   UNL A   1      41.992  29.399  33.636  1.00  0.00    -0.354 N 
ATOM     32  N   UNL A   1      42.421  27.839  31.181  1.00  0.00    -0.248 NA
ATOM     33  C   UNL A   1      43.642  26.262  29.961  1.00  0.00     0.031 C 
ATOM     34  C   UNL A   1      43.383  29.083  35.336  1.00  0.00     0.029 A 
ATOM     35  C   UNL A   1      43.105  28.676  34.042  1.00  0.00     0.049 A 
ATOM     36  H   UNL A   1      41.571  29.334  32.749  1.00  0.00     0.167 HD
ATOM     37  C   UNL A   1      43.455  27.349  31.974  1.00  0.00     0.074 A 
ATOM     38  C   UNL A   1      44.147  26.352  31.181  1.00  0.00     0.031 C 
ATOM     39  C   UNL A   1      43.796  27.689  33.243  1.00  0.00     0.034 A 
BRANCH  26  40
ATOM     40  C   UNL A   1      40.179  32.073  35.747  1.00  0.00     0.023 A 
ATOM     41  C   UNL A   1      39.174  31.798  36.691  1.00  0.00     0.031 A 
ATOM     42  C   UNL A   1      40.927  33.254  35.914  1.00  0.00     0.131 A 
ATOM     43  C   UNL A   1      38.894  32.725  37.708  1.00  0.00     0.055 A 
ATOM     44  C   UNL A   1      40.702  34.128  36.979  1.00  0.00     0.041 A 
ATOM     45  F   UNL A   1      41.885  33.586  35.035  1.00  0.00    -0.206 F 
ATOM     46  C   UNL A   1      39.668  33.874  37.876  1.00  0.00     0.022 A 
BRANCH  43  47
ATOM     47  S   UNL A   1      37.402  32.483  38.712  1.00  0.00     0.124 S 
ATOM     48  O   UNL A   1      37.392  31.032  38.884  1.00  0.00    -0.237 OA
ATOM     49  O   UNL A   1      37.695  33.266  39.906  1.00  0.00    -0.237 OA
ATOM     50  O   UNL A   1      36.331  33.009  37.867  1.00  0.00    -0.744 OA
ENDBRANCH  43  47
ENDBRANCH  26  40
BRANCH  27  51
ATOM     51  C   UNL A   1      41.911  26.475  27.607  1.00  0.00     0.023 A 
ATOM     52  C   UNL A   1      41.513  25.132  27.534  1.00  0.00     0.031 A 
ATOM     53  C   UNL A   1      42.619  27.013  26.516  1.00  0.00     0.131 A 
ATOM     54  C   UNL A   1      41.868  24.357  26.419  1.00  0.00     0.055 A 
ATOM     55  C   UNL A   1      42.912  26.256  25.381  1.00  0.00     0.041 A 
ATOM     56  F   UNL A   1      43.022  28.292  26.532  1.00  0.00    -0.206 F 
ATOM     57  C   UNL A   1      42.549  24.915  25.334  1.00  0.00     0.022 A 
BRANCH  54  58
ATOM     58  S   UNL A   1      41.510  22.580  26.449  1.00  0.00     0.124 S 
ATOM     59  O   UNL A   1      42.362  22.088  25.372  1.00  0.00    -0.237 OA
ATOM     60  O   UNL A   1      41.914  22.213  27.803  1.00  0.00    -0.237 OA
ATOM     61  O   UNL A   1      40.074  22.518  26.190  1.00  0.00    -0.744 OA
ENDBRANCH  54  58
ENDBRANCH  27  51
BRANCH  39  62
ATOM     62  C   UNL A   1      44.936  26.921  33.874  1.00  0.00     0.023 A 
ATOM     63  C   UNL A   1      44.740  25.682  34.509  1.00  0.00     0.031 A 
ATOM     64  C   UNL A   1      46.235  27.461  33.872  1.00  0.00     0.131 A 
ATOM     65  C   UNL A   1      45.806  25.063  35.180  1.00  0.00     0.055 A 
ATOM     66  C   UNL A   1      47.307  26.803  34.474  1.00  0.00     0.041 A 
ATOM     67  F   UNL A   1      46.482  28.645  33.288  1.00  0.00    -0.206 F 
ATOM     68  C   UNL A   1      47.092  25.606  35.149  1.00  0.00     0.022 A 
BRANCH  65  69
ATOM     69  S   UNL A   1      45.462  23.606  36.204  1.00  0.00     0.124 S 
ATOM     70  O   UNL A   1      44.279  23.051  35.553  1.00  0.00    -0.237 OA
ATOM     71  O   UNL A   1      46.689  22.828  36.065  1.00  0.00    -0.237 OA
ATOM     72  O   UNL A   1      45.231  24.169  37.533  1.00  0.00    -0.744 OA
ENDBRANCH  65  69
ENDBRANCH  39  62
ENDBRANCH  13  14
ENDBRANCH   6   8
ENDBRANCH   3   4
ENDBRANCH   2   3
ENDBRANCH   1   2
BRANCH   1  73
ATOM     73  C   UNL A   1      33.228  28.107  27.033  1.00  0.00     0.002 C 
BRANCH  73  74
ATOM     74  C   UNL A   1      33.473  27.475  25.661  1.00  0.00     0.021 C 
BRANCH  74  75
ATOM     75  C   UNL A   1      34.020  26.047  25.653  1.00  0.00     0.116 C 
BRANCH  75  76
ATOM     76  N   UNL A   1      34.006  25.529  24.295  1.00  0.00    -0.356 N 
ATOM     77  C   UNL A   1      34.536  24.431  23.705  1.00  0.00     0.223 C 
ATOM     78  H   UNL A   1      33.502  26.099  23.670  1.00  0.00     0.163 HD
ATOM     79  O   UNL A   1      34.404  24.381  22.474  1.00  0.00    -0.275 OA
BRANCH  77  80
ATOM     80  C   UNL A   1      35.132  23.220  24.433  1.00  0.00     0.091 C 
ATOM     81  C   UNL A   1      36.229  22.569  23.584  1.00  0.00     0.014 C 
ATOM     82  C   UNL A   1      34.254  22.252  25.255  1.00  0.00     0.091 C 
ATOM     83  C   UNL A   1      37.058  21.592  24.410  1.00  0.00     0.001 C 
ATOM     84  C   UNL A   1      35.101  21.127  25.914  1.00  0.00     0.014 C 
ATOM     85  C   UNL A   1      36.166  20.516  25.002  1.00  0.00     0.001 C 
BRANCH  82  86
ATOM     86  C   UNL A   1      33.089  21.560  24.561  1.00  0.00     0.230 C 
ATOM     87  O   UNL A   1      33.256  20.525  23.910  1.00  0.00    -0.274 OA
ATOM     88  N   UNL A   1      31.808  21.992  24.739  1.00  0.00    -0.302 N 
ATOM     89  H   UNL A   1      31.095  21.315  24.711  1.00  0.00     0.172 HD
BRANCH  88  90
ATOM     90  C   UNL A   1      31.435  23.287  24.954  1.00  0.00     0.189 A 
ATOM     91  N   UNL A   1      31.097  24.194  24.076  1.00  0.00    -0.220 NA
ATOM     92  S   UNL A   1      31.134  23.663  26.595  1.00  0.00    -0.105 S 
ATOM     93  C   UNL A   1      30.475  25.241  24.721  1.00  0.00     0.084 A 
ATOM     94  C   UNL A   1      30.357  25.110  26.092  1.00  0.00     0.097 A 
BRANCH  93  95
ATOM     95  C   UNL A   1      30.020  26.409  23.998  1.00  0.00     0.003 A 
ATOM     96  C   UNL A   1      30.910  27.223  23.291  1.00  0.00     0.012 A 
ATOM     97  C   UNL A   1      28.664  26.746  24.045  1.00  0.00     0.032 A 
ATOM     98  C   UNL A   1      30.446  28.368  22.635  1.00  0.00     0.023 A 
ATOM     99  C   UNL A   1      28.198  27.888  23.389  1.00  0.00     0.060 A 
ATOM    100  C   UNL A   1      29.089  28.701  22.682  1.00  0.00     0.059 A 
ATOM    101  Cl  UNL A   1      26.509  28.235  23.501  1.00  0.00    -0.083 Cl
ATOM    102  Cl  UNL A   1      28.577  30.127  21.850  1.00  0.00    -0.083 Cl
ENDBRANCH  93  95
ENDBRANCH  88  90
ENDBRANCH  82  86
ENDBRANCH  77  80
ENDBRANCH  75  76
ENDBRANCH  74  75
ENDBRANCH  73  74
ENDBRANCH   1  73
TORSDOF 19
ENDMDL
MODEL 2
REMARK VINA RESULT:     -12.0      5.078     10.007
REMARK SMILES O=C(NCCCCCCNC(=O)[C@@H]1CCCC[C@@H]1C(=O)Nc1nc(-c2ccc(Cl)c(Cl)c2)cs1)c1ccc(-c2c3nc(c(-c4cc(S(=O)(=O)[O-])ccc4F)c4ccc([nH]4)c(-c4cc(S(=O)(=O)[O-])ccc4F)c4nc(c(-c5cc(S(=O)(=O)[O-])ccc5F)c5ccc2[nH]5)C=C4)C=C3)cc1
REMARK SMILES IDX 6 1 5 2 4 3 3 4 1 5 2 6 35 8 36 9 97 10 37 11 96 12 38 13
REMARK SMILES IDX 39 14 40 15 90 16 41 17 95 18 89 19 91 20 42 21 94 22 88 23
REMARK SMILES IDX 87 24 43 26 75 27 55 28 74 29 56 30 59 31 73 32 92 33 57 34
REMARK SMILES IDX 58 35 72 37 93 38 60 39 44 40 45 41 53 42 46 43 52 44 54 45
REMARK SMILES IDX 51 46 47 47 48 48 49 49 50 50 76 51 77 52 85 53 78 54 84 55
REMARK SMILES IDX 86 56 83 57 79 58 80 59 81 60 82 61 61 62 62 63 70 64 63 65
REMARK SMILES IDX 69 66 71 67 68 68 64 69 65 70 66 71 67 72 7 73 8 74 9 75
REMARK SMILES IDX 10 76 11 77 12 79 13 80 14 81 18 82 15 83 17 84 16 85 19 86
REMARK SMILES IDX 20 87 21 88 22 90 23 91 34 92 24 93 33 94 25 95 26 96 32 97
REMARK SMILES IDX 27 98 30 99 28 100 31 101 29 102
REMARK H PARENT 3 7 91 25 59 36 10 78 21 89
REMARK Flexibility Score: inf
ROOT
ATOM      1  C   UNL A   1      36.529  21.861  24.361  1.00  0.00     0.002 C 
ENDROOT
BRANCH   1   2
ATOM      2  C   UNL A   1      37.456  20.813  24.989  1.00  0.00     0.021 C 
BRANCH   2   3
ATOM      3  C   UNL A   1      38.662  21.376  25.736  1.00  0.00     0.116 C 
BRANCH   3   4
ATOM      4  N   UNL A   1      39.660  20.355  26.019  1.00  0.00    -0.352 N 
ATOM      5  O   UNL A   1      41.751  19.551  26.325  1.00  0.00    -0.269 OA
ATOM      6  C   UNL A   1      40.984  20.513  26.352  1.00  0.00     0.251 C 
ATOM      7  H   UNL A   1      39.344  19.423  25.963  1.00  0.00     0.163 HD
BRANCH   6   8
ATOM      8  C   UNL A   1      41.480  21.851  26.736  1.00  0.00     0.039 A 
ATOM      9  C   UNL A   1      41.653  22.165  28.084  1.00  0.00     0.014 A 
ATOM     10  C   UNL A   1      41.758  22.800  25.750  1.00  0.00     0.014 A 
ATOM     11  C   UNL A   1      41.939  23.473  28.454  1.00  0.00     0.010 A 
ATOM     12  C   UNL A   1      42.145  24.092  26.126  1.00  0.00     0.010 A 
ATOM     13  C   UNL A   1      42.200  24.452  27.482  1.00  0.00    -0.014 A 
BRANCH  13  14
ATOM     14  C   UNL A   1      42.559  25.830  27.920  1.00  0.00     0.031 A 
ATOM     15  C   UNL A   1      43.970  26.345  27.796  1.00  0.00     0.074 A 
ATOM     16  C   UNL A   1      41.586  26.635  28.392  1.00  0.00     0.049 A 
ATOM     17  N   UNL A   1      44.445  27.526  28.101  1.00  0.00    -0.248 NA
ATOM     18  C   UNL A   1      44.977  25.411  27.275  1.00  0.00     0.031 C 
ATOM     19  C   UNL A   1      40.182  26.246  28.558  1.00  0.00     0.029 A 
ATOM     20  N   UNL A   1      41.613  27.945  28.795  1.00  0.00    -0.354 N 
ATOM     21  C   UNL A   1      45.809  27.475  27.829  1.00  0.00     0.074 A 
ATOM     22  C   UNL A   1      46.087  26.129  27.371  1.00  0.00     0.031 C 
ATOM     23  C   UNL A   1      39.475  27.308  28.966  1.00  0.00     0.029 A 
ATOM     24  C   UNL A   1      40.382  28.431  29.172  1.00  0.00     0.049 A 
ATOM     25  H   UNL A   1      42.435  28.487  28.812  1.00  0.00     0.167 HD
ATOM     26  C   UNL A   1      46.738  28.459  27.947  1.00  0.00     0.034 A 
ATOM     27  C   UNL A   1      40.021  29.637  29.651  1.00  0.00     0.034 A 
ATOM     28  C   UNL A   1      46.438  29.796  28.404  1.00  0.00     0.049 A 
ATOM     29  C   UNL A   1      41.080  30.695  29.815  1.00  0.00     0.074 A 
ATOM     30  C   UNL A   1      47.294  30.878  28.528  1.00  0.00     0.029 A 
ATOM     31  N   UNL A   1      45.188  30.237  28.828  1.00  0.00    -0.354 N 
ATOM     32  N   UNL A   1      42.361  30.633  29.532  1.00  0.00    -0.248 NA
ATOM     33  C   UNL A   1      40.640  31.987  30.352  1.00  0.00     0.031 C 
ATOM     34  C   UNL A   1      46.587  31.939  29.103  1.00  0.00     0.029 A 
ATOM     35  C   UNL A   1      45.262  31.559  29.245  1.00  0.00     0.049 A 
ATOM     36  H   UNL A   1      44.370  29.690  28.830  1.00  0.00     0.167 HD
ATOM     37  C   UNL A   1      42.873  31.895  29.825  1.00  0.00     0.074 A 
ATOM     38  C   UNL A   1      41.756  32.695  30.287  1.00  0.00     0.031 C 
ATOM     39  C   UNL A   1      44.147  32.350  29.715  1.00  0.00     0.034 A 
BRANCH  26  40
ATOM     40  C   UNL A   1      48.175  28.109  27.626  1.00  0.00     0.023 A 
ATOM     41  C   UNL A   1      48.723  28.298  26.345  1.00  0.00     0.031 A 
ATOM     42  C   UNL A   1      49.007  27.557  28.618  1.00  0.00     0.131 A 
ATOM     43  C   UNL A   1      50.032  27.870  26.072  1.00  0.00     0.055 A 
ATOM     44  C   UNL A   1      50.336  27.214  28.362  1.00  0.00     0.041 A 
ATOM     45  F   UNL A   1      48.538  27.328  29.855  1.00  0.00    -0.206 F 
ATOM     46  C   UNL A   1      50.852  27.354  27.077  1.00  0.00     0.022 A 
BRANCH  43  47
ATOM     47  S   UNL A   1      50.593  27.850  24.346  1.00  0.00     0.124 S 
ATOM     48  O   UNL A   1      49.324  27.791  23.622  1.00  0.00    -0.237 OA
ATOM     49  O   UNL A   1      51.331  29.102  24.240  1.00  0.00    -0.237 OA
ATOM     50  O   UNL A   1      51.404  26.637  24.264  1.00  0.00    -0.744 OA
ENDBRANCH  43  47
ENDBRANCH  26  40
BRANCH  27  51
ATOM     51  C   UNL A   1      38.604  29.905  30.031  1.00  0.00     0.023 A 
ATOM     52  C   UNL A   1      37.743  30.600  29.170  1.00  0.00     0.031 A 
ATOM     53  C   UNL A   1      38.103  29.506  31.284  1.00  0.00     0.131 A 
ATOM     54  C   UNL A   1      36.443  30.920  29.591  1.00  0.00     0.055 A 
ATOM     55  C   UNL A   1      36.789  29.769  31.671  1.00  0.00     0.041 A 
ATOM     56  F   UNL A   1      38.883  28.836  32.146  1.00  0.00    -0.206 F 
ATOM     57  C   UNL A   1      35.954  30.494  30.828  1.00  0.00     0.022 A 
BRANCH  54  58
ATOM     58  S   UNL A   1      35.429  31.989  28.534  1.00  0.00     0.124 S 
ATOM     59  O   UNL A   1      34.927  31.040  27.547  1.00  0.00    -0.237 OA
ATOM     60  O   UNL A   1      34.448  32.509  29.481  1.00  0.00    -0.237 OA
ATOM     61  O   UNL A   1      36.385  32.971  28.027  1.00  0.00    -0.744 OA
ENDBRANCH  54  58
ENDBRANCH  27  51
BRANCH  39  62
ATOM     62  C   UNL A   1      44.384  33.807  30.042  1.00  0.00     0.023 A 
ATOM     63  C   UNL A   1      44.653  34.244  31.351  1.00  0.00     0.031 A 
ATOM     64  C   UNL A   1      44.301  34.778  29.028  1.00  0.00     0.131 A 
ATOM     65  C   UNL A   1      44.751  35.618  31.624  1.00  0.00     0.055 A 
ATOM     66  C   UNL A   1      44.476  36.136  29.293  1.00  0.00     0.041 A 
ATOM     67  F   UNL A   1      44.040  34.421  27.760  1.00  0.00    -0.206 F 
ATOM     68  C   UNL A   1      44.685  36.564  30.600  1.00  0.00     0.022 A 
BRANCH  65  69
ATOM     69  S   UNL A   1      44.836  36.158  33.354  1.00  0.00     0.124 S 
ATOM     70  O   UNL A   1      43.632  36.975  33.474  1.00  0.00    -0.237 OA
ATOM     71  O   UNL A   1      44.820  34.891  34.077  1.00  0.00    -0.237 OA
ATOM     72  O   UNL A   1      46.096  36.895  33.421  1.00  0.00    -0.744 OA
ENDBRANCH  65  69
ENDBRANCH  39  62
ENDBRANCH  13  14
ENDBRANCH   6   8
ENDBRANCH   3   4
ENDBRANCH   2   3
ENDBRANCH   1   2
BRANCH   1  73
ATOM     73  C   UNL A   1      36.671  23.283  24.905  1.00  0.00     0.002 C 
BRANCH  73  74
ATOM     74  C   UNL A   1      35.561  23.719  25.864  1.00  0.00     0.021 C 
BRANCH  74  75
ATOM     75  C   UNL A   1      34.688  24.890  25.412  1.00  0.00     0.116 C 
BRANCH  75  76
ATOM     76  N   UNL A   1      33.372  24.778  26.019  1.00  0.00    -0.356 N 
ATOM     77  C   UNL A   1      32.415  25.676  26.354  1.00  0.00     0.223 C 
ATOM     78  H   UNL A   1      33.123  23.850  26.233  1.00  0.00     0.163 HD
ATOM     79  O   UNL A   1      31.447  25.207  26.971  1.00  0.00    -0.275 OA
BRANCH  77  80
ATOM     80  C   UNL A   1      32.367  27.144  25.914  1.00  0.00     0.091 C 
ATOM     81  C   UNL A   1      31.673  28.002  26.978  1.00  0.00     0.014 C 
ATOM     82  C   UNL A   1      32.102  27.546  24.447  1.00  0.00     0.091 C 
ATOM     83  C   UNL A   1      31.911  29.487  26.730  1.00  0.00     0.001 C 
ATOM     84  C   UNL A   1      32.132  29.089  24.260  1.00  0.00     0.014 C 
ATOM     85  C   UNL A   1      31.407  29.876  25.352  1.00  0.00     0.001 C 
BRANCH  82  86
ATOM     86  C   UNL A   1      30.822  27.058  23.781  1.00  0.00     0.230 C 
ATOM     87  O   UNL A   1      29.757  27.666  23.919  1.00  0.00    -0.274 OA
ATOM     88  N   UNL A   1      30.839  26.008  22.911  1.00  0.00    -0.302 N 
ATOM     89  H   UNL A   1      30.187  26.021  22.175  1.00  0.00     0.172 HD
BRANCH  88  90
ATOM     90  C   UNL A   1      31.687  24.941  22.979  1.00  0.00     0.189 A 
ATOM     91  N   UNL A   1      31.543  23.827  23.647  1.00  0.00    -0.220 NA
ATOM     92  S   UNL A   1      32.962  24.990  21.840  1.00  0.00    -0.105 S 
ATOM     93  C   UNL A   1      32.448  22.898  23.179  1.00  0.00     0.084 A 
ATOM     94  C   UNL A   1      33.274  23.331  22.159  1.00  0.00     0.097 A 
BRANCH  93  95
ATOM     95  C   UNL A   1      32.537  21.574  23.759  1.00  0.00     0.003 A 
ATOM     96  C   UNL A   1      32.841  21.389  25.111  1.00  0.00     0.012 A 
ATOM     97  C   UNL A   1      32.354  20.462  22.932  1.00  0.00     0.032 A 
ATOM     98  C   UNL A   1      32.960  20.097  25.634  1.00  0.00     0.023 A 
ATOM     99  C   UNL A   1      32.471  19.171  23.453  1.00  0.00     0.060 A 
ATOM    100  C   UNL A   1      32.774  18.986  24.805  1.00  0.00     0.059 A 
ATOM    101  Cl  UNL A   1      32.234  17.851  22.363  1.00  0.00    -0.083 Cl
ATOM    102  Cl  UNL A   1      32.933  17.416  25.510  1.00  0.00    -0.083 Cl
ENDBRANCH  93  95
ENDBRANCH  88  90
ENDBRANCH  82  86
ENDBRANCH  77  80
ENDBRANCH  75  76
ENDBRANCH  74  75
ENDBRANCH  73  74
ENDBRANCH   1  73
TORSDOF 19
ENDMDL
MODEL 3
REMARK VINA RESULT:     -11.9      1.624      2.069
REMARK SMILES O=C(NCCCCCCNC(=O)[C@@H]1CCCC[C@@H]1C(=O)Nc1nc(-c2ccc(Cl)c(Cl)c2)cs1)c1ccc(-c2c3nc(c(-c4cc(S(=O)(=O)[O-])ccc4F)c4ccc([nH]4)c(-c4cc(S(=O)(=O)[O-])ccc4F)c4nc(c(-c5cc(S(=O)(=O)[O-])ccc5F)c5ccc2[nH]5)C=C4)C=C3)cc1
REMARK SMILES IDX 6 1 5 2 4 3 3 4 1 5 2 6 35 8 36 9 97 10 37 11 96 12 38 13
REMARK SMILES IDX 39 14 40 15 90 16 41 17 95 18 89 19 91 20 42 21 94 22 88 23
REMARK SMILES IDX 87 24 43 26 75 27 55 28 74 29 56 30 59 31 73 32 92 33 57 34
REMARK SMILES IDX 58 35 72 37 93 38 60 39 44 40 45 41 53 42 46 43 52 44 54 45
REMARK SMILES IDX 51 46 47 47 48 48 49 49 50 50 76 51 77 52 85 53 78 54 84 55
REMARK SMILES IDX 86 56 83 57 79 58 80 59 81 60 82 61 61 62 62 63 70 64 63 65
REMARK SMILES IDX 69 66 71 67 68 68 64 69 65 70 66 71 67 72 7 73 8 74 9 75
REMARK SMILES IDX 10 76 11 77 12 79 13 80 14 81 18 82 15 83 17 84 16 85 19 86
REMARK SMILES IDX 20 87 21 88 22 90 23 91 34 92 24 93 33 94 25 95 26 96 32 97
REMARK SMILES IDX 27 98 30 99 28 100 31 101 29 102
REMARK H PARENT 3 7 91 25 59 36 10 78 21 89
REMARK Flexibility Score: inf
ROOT
ATOM      1  C   UNL A   1      31.782  29.157  26.556  1.00  0.00     0.002 C 
ENDROOT
BRANCH   1   2
ATOM      2  C   UNL A   1      31.797  30.689  26.506  1.00  0.00     0.021 C 
BRANCH   2   3
ATOM      3  C   UNL A   1      32.966  31.351  27.231  1.00  0.00     0.116 C 
BRANCH   3   4
ATOM      4  N   UNL A   1      32.764  32.782  27.408  1.00  0.00    -0.352 N 
ATOM      5  O   UNL A   1      32.903  34.760  28.495  1.00  0.00    -0.269 OA
ATOM      6  C   UNL A   1      33.356  33.630  28.313  1.00  0.00     0.251 C 
ATOM      7  H   UNL A   1      32.114  33.200  26.797  1.00  0.00     0.163 HD
BRANCH   6   8
ATOM      8  C   UNL A   1      34.536  33.169  29.075  1.00  0.00     0.039 A 
ATOM      9  C   UNL A   1      35.817  33.396  28.570  1.00  0.00     0.014 A 
ATOM     10  C   UNL A   1      34.365  32.493  30.285  1.00  0.00     0.014 A 
ATOM     11  C   UNL A   1      36.913  32.805  29.185  1.00  0.00     0.010 A 
ATOM     12  C   UNL A   1      35.484  31.985  30.955  1.00  0.00     0.010 A 
ATOM     13  C   UNL A   1      36.764  32.101  30.392  1.00  0.00    -0.014 A 
BRANCH  13  14
ATOM     14  C   UNL A   1      37.972  31.530  31.050  1.00  0.00     0.031 A 
ATOM     15  C   UNL A   1      38.380  31.956  32.437  1.00  0.00     0.074 A 
ATOM     16  C   UNL A   1      38.679  30.584  30.400  1.00  0.00     0.049 A 
ATOM     17  N   UNL A   1      39.383  31.537  33.166  1.00  0.00    -0.248 NA
ATOM     18  C   UNL A   1      37.563  32.992  33.083  1.00  0.00     0.031 C 
ATOM     19  C   UNL A   1      38.380  30.091  29.052  1.00  0.00     0.029 A 
ATOM     20  N   UNL A   1      39.771  29.849  30.783  1.00  0.00    -0.354 N 
ATOM     21  C   UNL A   1      39.334  32.271  34.348  1.00  0.00     0.074 A 
ATOM     22  C   UNL A   1      38.221  33.188  34.217  1.00  0.00     0.031 C 
ATOM     23  C   UNL A   1      39.225  29.096  28.748  1.00  0.00     0.029 A 
ATOM     24  C   UNL A   1      40.178  28.934  29.839  1.00  0.00     0.049 A 
ATOM     25  H   UNL A   1      40.221  29.964  31.651  1.00  0.00     0.167 HD
ATOM     26  C   UNL A   1      40.138  32.181  35.438  1.00  0.00     0.034 A 
ATOM     27  C   UNL A   1      41.214  28.073  29.838  1.00  0.00     0.034 A 
ATOM     28  C   UNL A   1      41.243  31.256  35.549  1.00  0.00     0.049 A 
ATOM     29  C   UNL A   1      42.117  28.028  31.041  1.00  0.00     0.074 A 
ATOM     30  C   UNL A   1      42.099  31.059  36.620  1.00  0.00     0.029 A 
ATOM     31  N   UNL A   1      41.658  30.380  34.551  1.00  0.00    -0.354 N 
ATOM     32  N   UNL A   1      42.042  28.715  32.158  1.00  0.00    -0.248 NA
ATOM     33  C   UNL A   1      43.238  27.084  30.987  1.00  0.00     0.031 C 
ATOM     34  C   UNL A   1      43.076  30.132  36.240  1.00  0.00     0.029 A 
ATOM     35  C   UNL A   1      42.775  29.671  34.969  1.00  0.00     0.049 A 
ATOM     36  H   UNL A   1      41.221  30.278  33.675  1.00  0.00     0.167 HD
ATOM     37  C   UNL A   1      43.088  28.257  32.954  1.00  0.00     0.074 A 
ATOM     38  C   UNL A   1      43.763  27.224  32.194  1.00  0.00     0.031 C 
ATOM     39  C   UNL A   1      43.451  28.649  34.202  1.00  0.00     0.034 A 
BRANCH  26  40
ATOM     40  C   UNL A   1      39.886  33.146  36.576  1.00  0.00     0.023 A 
ATOM     41  C   UNL A   1      39.254  32.750  37.768  1.00  0.00     0.031 A 
ATOM     42  C   UNL A   1      40.269  34.496  36.458  1.00  0.00     0.131 A 
ATOM     43  C   UNL A   1      38.956  33.702  38.756  1.00  0.00     0.055 A 
ATOM     44  C   UNL A   1      40.049  35.420  37.482  1.00  0.00     0.041 A 
ATOM     45  F   UNL A   1      40.855  34.945  35.338  1.00  0.00    -0.206 F 
ATOM     46  C   UNL A   1      39.373  35.028  38.633  1.00  0.00     0.022 A 
BRANCH  43  47
ATOM     47  S   UNL A   1      37.877  33.214  40.131  1.00  0.00     0.124 S 
ATOM     48  O   UNL A   1      38.588  32.056  40.669  1.00  0.00    -0.237 OA
ATOM     49  O   UNL A   1      37.873  34.408  40.967  1.00  0.00    -0.237 OA
ATOM     50  O   UNL A   1      36.607  32.905  39.476  1.00  0.00    -0.744 OA
ENDBRANCH  43  47
ENDBRANCH  26  40
BRANCH  27  51
ATOM     51  C   UNL A   1      41.468  27.201  28.655  1.00  0.00     0.023 A 
ATOM     52  C   UNL A   1      42.459  27.525  27.716  1.00  0.00     0.031 A 
ATOM     53  C   UNL A   1      40.692  26.051  28.423  1.00  0.00     0.131 A 
ATOM     54  C   UNL A   1      42.614  26.739  26.564  1.00  0.00     0.055 A 
ATOM     55  C   UNL A   1      40.894  25.235  27.309  1.00  0.00     0.041 A 
ATOM     56  F   UNL A   1      39.731  25.693  29.289  1.00  0.00    -0.206 F 
ATOM     57  C   UNL A   1      41.851  25.586  26.363  1.00  0.00     0.022 A 
BRANCH  54  58
ATOM     58  S   UNL A   1      43.766  27.301  25.281  1.00  0.00     0.124 S 
ATOM     59  O   UNL A   1      44.508  26.079  24.994  1.00  0.00    -0.237 OA
ATOM     60  O   UNL A   1      42.855  27.758  24.236  1.00  0.00    -0.237 OA
ATOM     61  O   UNL A   1      44.528  28.355  25.946  1.00  0.00    -0.744 OA
ENDBRANCH  54  58
ENDBRANCH  27  51
BRANCH  39  62
ATOM     62  C   UNL A   1      44.599  27.906  34.846  1.00  0.00     0.023 A 
ATOM     63  C   UNL A   1      44.414  26.685  35.518  1.00  0.00     0.031 A 
ATOM     64  C   UNL A   1      45.895  28.451  34.818  1.00  0.00     0.131 A 
ATOM     65  C   UNL A   1      45.489  26.090  36.199  1.00  0.00     0.055 A 
ATOM     66  C   UNL A   1      46.975  27.816  35.431  1.00  0.00     0.041 A 
ATOM     67  F   UNL A   1      46.132  29.619  34.197  1.00  0.00    -0.206 F 
ATOM     68  C   UNL A   1      46.772  26.639  36.142  1.00  0.00     0.022 A 
BRANCH  65  69
ATOM     69  S   UNL A   1      45.160  24.662  37.268  1.00  0.00     0.124 S 
ATOM     70  O   UNL A   1      46.496  24.337  37.758  1.00  0.00    -0.237 OA
ATOM     71  O   UNL A   1      44.238  25.217  38.254  1.00  0.00    -0.237 OA
ATOM     72  O   UNL A   1      44.577  23.679  36.357  1.00  0.00    -0.744 OA
ENDBRANCH  65  69
ENDBRANCH  39  62
ENDBRANCH  13  14
ENDBRANCH   6   8
ENDBRANCH   3   4
ENDBRANCH   2   3
ENDBRANCH   1   2
BRANCH   1  73
ATOM     73  C   UNL A   1      33.133  28.487  26.808  1.00  0.00     0.002 C 
BRANCH  73  74
ATOM     74  C   UNL A   1      33.759  27.819  25.582  1.00  0.00     0.021 C 
BRANCH  74  75
ATOM     75  C   UNL A   1      33.900  26.297  25.630  1.00  0.00     0.116 C 
BRANCH  75  76
ATOM     76  N   UNL A   1      33.847  25.761  24.280  1.00  0.00    -0.356 N 
ATOM     77  C   UNL A   1      34.388  24.673  23.682  1.00  0.00     0.223 C 
ATOM     78  H   UNL A   1      33.301  26.306  23.669  1.00  0.00     0.163 HD
ATOM     79  O   UNL A   1      34.208  24.602  22.457  1.00  0.00    -0.275 OA
BRANCH  77  80
ATOM     80  C   UNL A   1      35.051  23.490  24.399  1.00  0.00     0.091 C 
ATOM     81  C   UNL A   1      36.176  22.903  23.539  1.00  0.00     0.014 C 
ATOM     82  C   UNL A   1      34.230  22.473  25.221  1.00  0.00     0.091 C 
ATOM     83  C   UNL A   1      37.060  21.966  24.354  1.00  0.00     0.001 C 
ATOM     84  C   UNL A   1      35.140  21.390  25.867  1.00  0.00     0.014 C 
ATOM     85  C   UNL A   1      36.229  20.841  24.945  1.00  0.00     0.001 C 
BRANCH  82  86
ATOM     86  C   UNL A   1      33.099  21.725  24.529  1.00  0.00     0.230 C 
ATOM     87  O   UNL A   1      33.320  20.720  23.847  1.00  0.00    -0.274 OA
ATOM     88  N   UNL A   1      31.796  22.067  24.743  1.00  0.00    -0.302 N 
ATOM     89  H   UNL A   1      31.128  21.345  24.709  1.00  0.00     0.172 HD
BRANCH  88  90
ATOM     90  C   UNL A   1      31.344  23.329  25.000  1.00  0.00     0.189 A 
ATOM     91  N   UNL A   1      30.998  24.259  24.150  1.00  0.00    -0.220 NA
ATOM     92  S   UNL A   1      30.950  23.607  26.640  1.00  0.00    -0.105 S 
ATOM     93  C   UNL A   1      30.291  25.240  24.814  1.00  0.00     0.084 A 
ATOM     94  C   UNL A   1      30.119  25.035  26.170  1.00  0.00     0.097 A 
BRANCH  93  95
ATOM     95  C   UNL A   1      29.806  26.416  24.125  1.00  0.00     0.003 A 
ATOM     96  C   UNL A   1      28.438  26.658  23.967  1.00  0.00     0.012 A 
ATOM     97  C   UNL A   1      30.734  27.306  23.575  1.00  0.00     0.032 A 
ATOM     98  C   UNL A   1      28.001  27.783  23.262  1.00  0.00     0.023 A 
ATOM     99  C   UNL A   1      30.298  28.432  22.871  1.00  0.00     0.060 A 
ATOM    100  C   UNL A   1      28.930  28.672  22.714  1.00  0.00     0.059 A 
ATOM    101  Cl  UNL A   1      31.509  29.478  22.219  1.00  0.00    -0.083 Cl
ATOM    102  Cl  UNL A   1      28.327  30.045  21.854  1.00  0.00    -0.083 Cl
ENDBRANCH  93  95
ENDBRANCH  88  90
ENDBRANCH  82  86
ENDBRANCH  77  80
ENDBRANCH  75  76
ENDBRANCH  74  75
ENDBRANCH  73  74
ENDBRANCH   1  73
TORSDOF 19
ENDMDL
