MODEL 1
REMARK VINA RESULT:     -10.9      0.000      0.000
REMARK SMILES CC[C@@H](C)N(C)C(=O)N1[C@@H](C(=O)NCCCCCCNC(=O)c2ccc(-c3c4nc(c(-c5cc(S(=O)(=O)[O-])ccc5F)c5ccc([nH]5)c(-c5cc(S(=O)(=O)[O-])ccc5F)c5nc(c(-c6cc(S(=O)(=O)[O-])ccc6F)c6ccc3[nH]6)C=C5)C=C4)cc2)CC[C@H]2CCCC[C@H]21
REMARK SMILES IDX 16 1 15 2 14 3 13 4 11 5 12 6 10 8 9 9 93 10 86 11 88 12
REMARK SMILES IDX 92 13 87 14 89 15 91 16 90 17 7 18 8 19 5 20 6 21 3 22 4 23
REMARK SMILES IDX 2 24 1 25 17 26 18 27 19 28 20 29 21 30 22 32 23 33 24 34
REMARK SMILES IDX 85 35 25 36 84 37 26 38 27 39 28 40 78 41 29 42 83 43 77 44
REMARK SMILES IDX 79 45 30 46 82 47 76 48 75 49 31 51 63 52 43 53 62 54 44 55
REMARK SMILES IDX 47 56 61 57 80 58 45 59 46 60 60 62 81 63 48 64 32 65 33 66
REMARK SMILES IDX 41 67 34 68 40 69 42 70 39 71 35 72 36 73 37 74 38 75 64 76
REMARK SMILES IDX 65 77 73 78 66 79 72 80 74 81 71 82 67 83 68 84 69 85 70 86
REMARK SMILES IDX 49 87 50 88 58 89 51 90 57 91 59 92 56 93 52 94 53 95 54 96
REMARK SMILES IDX 55 97
REMARK H PARENT 13 7 20 31 79 50 47 61
REMARK Flexibility Score: inf
ROOT
ATOM      1  C   UNL A   1      35.268  23.188  23.317  1.00  0.00     0.002 C 
ENDROOT
BRANCH   1   2
ATOM      2  C   UNL A   1      34.010  23.282  22.447  1.00  0.00     0.021 C 
BRANCH   2   3
ATOM      3  C   UNL A   1      33.209  24.551  22.697  1.00  0.00     0.116 C 
BRANCH   3   4
ATOM      4  N   UNL A   1      31.799  24.312  22.446  1.00  0.00    -0.354 N 
ATOM      5  C   UNL A   1      30.728  24.577  23.239  1.00  0.00     0.242 C 
ATOM      6  O   UNL A   1      29.633  24.108  22.906  1.00  0.00    -0.273 OA
ATOM      7  H   UNL A   1      31.590  23.899  21.577  1.00  0.00     0.163 HD
BRANCH   5   8
ATOM      8  C   UNL A   1      30.884  25.313  24.585  1.00  0.00     0.176 C 
ATOM      9  N   UNL A   1      31.072  26.785  24.532  1.00  0.00    -0.309 N 
ATOM     10  C   UNL A   1      31.434  27.420  25.816  1.00  0.00     0.091 C 
ATOM     11  C   UNL A   1      32.033  24.594  25.338  1.00  0.00     0.036 C 
ATOM     12  C   UNL A   1      32.658  26.779  26.480  1.00  0.00     0.012 C 
ATOM     13  C   UNL A   1      31.581  28.948  25.873  1.00  0.00     0.025 C 
ATOM     14  C   UNL A   1      32.455  25.270  26.636  1.00  0.00     0.008 C 
ATOM     15  C   UNL A   1      33.985  27.145  25.801  1.00  0.00     0.006 C 
ATOM     16  C   UNL A   1      32.950  29.497  25.461  1.00  0.00     0.002 C 
ATOM     17  C   UNL A   1      33.990  28.465  25.033  1.00  0.00     0.000 C 
BRANCH   9  18
ATOM     18  C   UNL A   1      30.809  27.583  23.436  1.00  0.00     0.320 C 
ATOM     19  O   UNL A   1      31.730  27.860  22.666  1.00  0.00    -0.248 OA
BRANCH  18  20
ATOM     20  N   UNL A   1      29.539  28.071  23.193  1.00  0.00    -0.325 N 
ATOM     21  C   UNL A   1      28.291  27.433  23.584  1.00  0.00     0.149 C 
BRANCH  20  22
ATOM     22  C   UNL A   1      29.402  29.471  22.703  1.00  0.00     0.083 C 
ATOM     23  C   UNL A   1      29.648  30.516  23.798  1.00  0.00     0.031 C 
BRANCH  22  24
ATOM     24  C   UNL A   1      28.067  29.671  21.947  1.00  0.00     0.021 C 
ATOM     25  C   UNL A   1      28.081  30.807  20.935  1.00  0.00     0.006 C 
ENDBRANCH  22  24
ENDBRANCH  20  22
ENDBRANCH  18  20
ENDBRANCH   9  18
ENDBRANCH   5   8
ENDBRANCH   3   4
ENDBRANCH   2   3
ENDBRANCH   1   2
BRANCH   1  26
ATOM     26  C   UNL A   1      35.096  22.357  24.594  1.00  0.00     0.002 C 
BRANCH  26  27
ATOM     27  C   UNL A   1      35.605  23.036  25.866  1.00  0.00     0.021 C 
BRANCH  27  28
ATOM     28  C   UNL A   1      37.048  23.517  25.772  1.00  0.00     0.116 C 
BRANCH  28  29
ATOM     29  N   UNL A   1      37.988  22.445  26.059  1.00  0.00    -0.352 N 
ATOM     30  C   UNL A   1      39.300  22.533  26.450  1.00  0.00     0.251 C 
ATOM     31  H   UNL A   1      37.634  21.532  25.960  1.00  0.00     0.163 HD
ATOM     32  O   UNL A   1      40.017  21.541  26.419  1.00  0.00    -0.269 OA
BRANCH  30  33
ATOM     33  C   UNL A   1      39.832  23.840  26.886  1.00  0.00     0.039 A 
ATOM     34  C   UNL A   1      40.057  24.832  25.931  1.00  0.00     0.014 A 
ATOM     35  C   UNL A   1      40.086  24.084  28.239  1.00  0.00     0.014 A 
ATOM     36  C   UNL A   1      40.489  26.093  26.344  1.00  0.00     0.010 A 
ATOM     37  C   UNL A   1      40.434  25.364  28.654  1.00  0.00     0.010 A 
ATOM     38  C   UNL A   1      40.648  26.379  27.711  1.00  0.00    -0.014 A 
BRANCH  38  39
ATOM     39  C   UNL A   1      41.048  27.732  28.171  1.00  0.00     0.031 A 
ATOM     40  C   UNL A   1      42.500  28.120  28.197  1.00  0.00     0.074 A 
ATOM     41  C   UNL A   1      40.109  28.587  28.617  1.00  0.00     0.049 A 
ATOM     42  N   UNL A   1      43.054  29.231  28.610  1.00  0.00    -0.248 NA
ATOM     43  C   UNL A   1      43.457  27.108  27.729  1.00  0.00     0.031 C 
ATOM     44  C   UNL A   1      38.672  28.309  28.674  1.00  0.00     0.029 A 
ATOM     45  N   UNL A   1      40.219  29.863  29.109  1.00  0.00    -0.354 N 
ATOM     46  C   UNL A   1      44.424  29.047  28.463  1.00  0.00     0.074 A 
ATOM     47  C   UNL A   1      44.615  27.690  27.997  1.00  0.00     0.031 C 
ATOM     48  C   UNL A   1      38.032  29.396  29.130  1.00  0.00     0.029 A 
ATOM     49  C   UNL A   1      39.013  30.429  29.449  1.00  0.00     0.049 A 
ATOM     50  H   UNL A   1      41.080  30.330  29.209  1.00  0.00     0.167 HD
ATOM     51  C   UNL A   1      45.428  29.937  28.670  1.00  0.00     0.034 A 
ATOM     52  C   UNL A   1      38.730  31.640  29.967  1.00  0.00     0.034 A 
ATOM     53  C   UNL A   1      45.214  31.285  29.140  1.00  0.00     0.049 A 
ATOM     54  C   UNL A   1      39.861  32.594  30.243  1.00  0.00     0.074 A 
ATOM     55  C   UNL A   1      46.144  32.290  29.333  1.00  0.00     0.029 A 
ATOM     56  N   UNL A   1      43.981  31.813  29.508  1.00  0.00    -0.354 N 
ATOM     57  N   UNL A   1      41.150  32.430  30.046  1.00  0.00    -0.248 NA
ATOM     58  C   UNL A   1      39.499  33.900  30.807  1.00  0.00     0.031 C 
ATOM     59  C   UNL A   1      45.491  33.390  29.900  1.00  0.00     0.029 A 
ATOM     60  C   UNL A   1      44.135  33.112  29.971  1.00  0.00     0.049 A 
ATOM     61  H   UNL A   1      43.122  31.335  29.448  1.00  0.00     0.167 HD
ATOM     62  C   UNL A   1      41.749  33.628  30.432  1.00  0.00     0.074 A 
ATOM     63  C   UNL A   1      40.677  34.504  30.861  1.00  0.00     0.031 C 
ATOM     64  C   UNL A   1      43.062  33.972  30.420  1.00  0.00     0.034 A 
BRANCH  51  65
ATOM     65  C   UNL A   1      46.841  29.452  28.428  1.00  0.00     0.023 A 
ATOM     66  C   UNL A   1      47.314  29.166  27.134  1.00  0.00     0.031 A 
ATOM     67  C   UNL A   1      47.707  29.206  29.508  1.00  0.00     0.131 A 
ATOM     68  C   UNL A   1      48.561  28.549  26.962  1.00  0.00     0.055 A 
ATOM     69  C   UNL A   1      48.992  28.688  29.320  1.00  0.00     0.041 A 
ATOM     70  F   UNL A   1      47.313  29.436  30.769  1.00  0.00    -0.206 F 
ATOM     71  C   UNL A   1      49.416  28.334  28.044  1.00  0.00     0.022 A 
BRANCH  68  72
ATOM     72  S   UNL A   1      48.959  27.847  25.336  1.00  0.00     0.124 S 
ATOM     73  O   UNL A   1      47.776  28.215  24.560  1.00  0.00    -0.237 OA
ATOM     74  O   UNL A   1      50.193  28.540  24.987  1.00  0.00    -0.237 OA
ATOM     75  O   UNL A   1      49.098  26.417  25.604  1.00  0.00    -0.744 OA
ENDBRANCH  68  72
ENDBRANCH  51  65
BRANCH  52  76
ATOM     76  C   UNL A   1      37.317  32.023  30.248  1.00  0.00     0.023 A 
ATOM     77  C   UNL A   1      36.520  32.608  29.253  1.00  0.00     0.031 A 
ATOM     78  C   UNL A   1      36.746  31.817  31.516  1.00  0.00     0.131 A 
ATOM     79  C   UNL A   1      35.206  33.000  29.549  1.00  0.00     0.055 A 
ATOM     80  C   UNL A   1      35.422  32.161  31.792  1.00  0.00     0.041 A 
ATOM     81  F   UNL A   1      37.465  31.257  32.503  1.00  0.00    -0.206 F 
ATOM     82  C   UNL A   1      34.646  32.765  30.808  1.00  0.00     0.022 A 
BRANCH  79  83
ATOM     83  S   UNL A   1      34.254  33.881  28.282  1.00  0.00     0.124 S 
ATOM     84  O   UNL A   1      33.716  35.003  29.042  1.00  0.00    -0.237 OA
ATOM     85  O   UNL A   1      35.283  34.206  27.300  1.00  0.00    -0.237 OA
ATOM     86  O   UNL A   1      33.271  32.892  27.846  1.00  0.00    -0.744 OA
ENDBRANCH  79  83
ENDBRANCH  52  76
BRANCH  64  87
ATOM     87  C   UNL A   1      43.408  35.380  30.849  1.00  0.00     0.023 A 
ATOM     88  C   UNL A   1      43.422  35.763  32.202  1.00  0.00     0.031 A 
ATOM     89  C   UNL A   1      43.716  36.356  29.884  1.00  0.00     0.131 A 
ATOM     90  C   UNL A   1      43.681  37.099  32.548  1.00  0.00     0.055 A 
ATOM     91  C   UNL A   1      44.041  37.666  30.239  1.00  0.00     0.041 A 
ATOM     92  F   UNL A   1      43.710  36.051  28.576  1.00  0.00    -0.206 F 
ATOM     93  C   UNL A   1      44.010  38.047  31.576  1.00  0.00     0.022 A 
BRANCH  90  94
ATOM     94  S   UNL A   1      43.477  37.606  34.278  1.00  0.00     0.124 S 
ATOM     95  O   UNL A   1      44.850  37.561  34.770  1.00  0.00    -0.237 OA
ATOM     96  O   UNL A   1      42.890  38.936  34.147  1.00  0.00    -0.237 OA
ATOM     97  O   UNL A   1      42.586  36.587  34.831  1.00  0.00    -0.744 OA
ENDBRANCH  90  94
ENDBRANCH  64  87
ENDBRANCH  38  39
ENDBRANCH  30  33
ENDBRANCH  28  29
ENDBRANCH  27  28
ENDBRANCH  26  27
ENDBRANCH   1  26
TORSDOF 20
ENDMDL
MODEL 2
REMARK VINA RESULT:     -10.8      3.091      8.618
REMARK SMILES CC[C@@H](C)N(C)C(=O)N1[C@@H](C(=O)NCCCCCCNC(=O)c2ccc(-c3c4nc(c(-c5cc(S(=O)(=O)[O-])ccc5F)c5ccc([nH]5)c(-c5cc(S(=O)(=O)[O-])ccc5F)c5nc(c(-c6cc(S(=O)(=O)[O-])ccc6F)c6ccc3[nH]6)C=C5)C=C4)cc2)CC[C@H]2CCCC[C@H]21
REMARK SMILES IDX 16 1 15 2 14 3 13 4 11 5 12 6 10 8 9 9 93 10 86 11 88 12
REMARK SMILES IDX 92 13 87 14 89 15 91 16 90 17 7 18 8 19 5 20 6 21 3 22 4 23
REMARK SMILES IDX 2 24 1 25 17 26 18 27 19 28 20 29 21 30 22 32 23 33 24 34
REMARK SMILES IDX 85 35 25 36 84 37 26 38 27 39 28 40 78 41 29 42 83 43 77 44
REMARK SMILES IDX 79 45 30 46 82 47 76 48 75 49 31 51 63 52 43 53 62 54 44 55
REMARK SMILES IDX 47 56 61 57 80 58 45 59 46 60 60 62 81 63 48 64 32 65 33 66
REMARK SMILES IDX 41 67 34 68 40 69 42 70 39 71 35 72 36 73 37 74 38 75 64 76
REMARK SMILES IDX 65 77 73 78 66 79 72 80 74 81 71 82 67 83 68 84 69 85 70 86
REMARK SMILES IDX 49 87 50 88 58 89 51 90 57 91 59 92 56 93 52 94 53 95 54 96
REMARK SMILES IDX 55 97
REMARK H PARENT 13 7 20 31 79 50 47 61
REMARK Flexibility Score: inf
ROOT
ATOM      1  C   UNL A   1      37.589  22.003  24.910  1.00  0.00     0.002 C 
ENDROOT
BRANCH   1   2
ATOM      2  C   UNL A   1      37.025  22.977  23.870  1.00  0.00     0.021 C 
BRANCH   2   3
ATOM      3  C   UNL A   1      35.594  23.401  24.168  1.00  0.00     0.116 C 
BRANCH   3   4
ATOM      4  N   UNL A   1      34.892  23.702  22.933  1.00  0.00    -0.354 N 
ATOM      5  C   UNL A   1      33.847  24.543  22.722  1.00  0.00     0.242 C 
ATOM      6  O   UNL A   1      33.279  24.494  21.625  1.00  0.00    -0.273 OA
ATOM      7  H   UNL A   1      35.222  23.229  22.136  1.00  0.00     0.163 HD
BRANCH   5   8
ATOM      8  C   UNL A   1      33.284  25.430  23.852  1.00  0.00     0.176 C 
ATOM      9  N   UNL A   1      31.976  25.035  24.433  1.00  0.00    -0.309 N 
ATOM     10  C   UNL A   1      31.371  26.022  25.351  1.00  0.00     0.091 C 
ATOM     11  C   UNL A   1      33.275  26.878  23.297  1.00  0.00     0.036 C 
ATOM     12  C   UNL A   1      31.247  27.420  24.734  1.00  0.00     0.012 C 
ATOM     13  C   UNL A   1      30.051  25.671  26.053  1.00  0.00     0.025 C 
ATOM     14  C   UNL A   1      32.604  27.897  24.208  1.00  0.00     0.008 C 
ATOM     15  C   UNL A   1      30.122  27.534  23.696  1.00  0.00     0.006 C 
ATOM     16  C   UNL A   1      28.778  25.955  25.251  1.00  0.00     0.002 C 
ATOM     17  C   UNL A   1      28.976  26.536  23.854  1.00  0.00     0.000 C 
BRANCH   9  18
ATOM     18  C   UNL A   1      31.378  23.799  24.283  1.00  0.00     0.320 C 
ATOM     19  O   UNL A   1      30.672  23.594  23.296  1.00  0.00    -0.248 OA
BRANCH  18  20
ATOM     20  N   UNL A   1      31.559  22.798  25.218  1.00  0.00    -0.325 N 
ATOM     21  C   UNL A   1      30.567  22.336  26.178  1.00  0.00     0.149 C 
BRANCH  20  22
ATOM     22  C   UNL A   1      32.774  21.941  25.110  1.00  0.00     0.083 C 
ATOM     23  C   UNL A   1      32.572  20.730  24.191  1.00  0.00     0.031 C 
BRANCH  22  24
ATOM     24  C   UNL A   1      33.323  21.571  26.508  1.00  0.00     0.021 C 
ATOM     25  C   UNL A   1      33.993  22.722  27.245  1.00  0.00     0.006 C 
ENDBRANCH  22  24
ENDBRANCH  20  22
ENDBRANCH  18  20
ENDBRANCH   9  18
ENDBRANCH   5   8
ENDBRANCH   3   4
ENDBRANCH   2   3
ENDBRANCH   1   2
BRANCH   1  26
ATOM     26  C   UNL A   1      37.111  20.555  24.749  1.00  0.00     0.002 C 
BRANCH  26  27
ATOM     27  C   UNL A   1      38.152  19.499  25.119  1.00  0.00     0.021 C 
BRANCH  27  28
ATOM     28  C   UNL A   1      39.369  20.061  25.843  1.00  0.00     0.116 C 
BRANCH  28  29
ATOM     29  N   UNL A   1      40.410  19.058  25.996  1.00  0.00    -0.352 N 
ATOM     30  C   UNL A   1      41.765  19.236  26.125  1.00  0.00     0.251 C 
ATOM     31  H   UNL A   1      40.101  18.123  26.010  1.00  0.00     0.163 HD
ATOM     32  O   UNL A   1      42.523  18.283  26.005  1.00  0.00    -0.269 OA
BRANCH  30  33
ATOM     33  C   UNL A   1      42.287  20.592  26.389  1.00  0.00     0.039 A 
ATOM     34  C   UNL A   1      42.469  21.468  25.319  1.00  0.00     0.014 A 
ATOM     35  C   UNL A   1      42.575  20.997  27.696  1.00  0.00     0.014 A 
ATOM     36  C   UNL A   1      42.892  22.774  25.568  1.00  0.00     0.010 A 
ATOM     37  C   UNL A   1      42.914  22.320  27.949  1.00  0.00     0.010 A 
ATOM     38  C   UNL A   1      43.085  23.221  26.887  1.00  0.00    -0.014 A 
BRANCH  38  39
ATOM     39  C   UNL A   1      43.475  24.623  27.174  1.00  0.00     0.031 A 
ATOM     40  C   UNL A   1      42.488  25.567  27.801  1.00  0.00     0.074 A 
ATOM     41  C   UNL A   1      44.699  25.059  26.817  1.00  0.00     0.049 A 
ATOM     42  N   UNL A   1      42.620  26.838  28.084  1.00  0.00    -0.248 NA
ATOM     43  C   UNL A   1      41.165  25.014  28.120  1.00  0.00     0.031 C 
ATOM     44  C   UNL A   1      45.729  24.245  26.168  1.00  0.00     0.029 A 
ATOM     45  N   UNL A   1      45.284  26.292  26.947  1.00  0.00    -0.354 N 
ATOM     46  C   UNL A   1      41.394  27.239  28.602  1.00  0.00     0.074 A 
ATOM     47  C   UNL A   1      40.512  26.093  28.519  1.00  0.00     0.031 C 
ATOM     48  C   UNL A   1      46.833  24.988  25.998  1.00  0.00     0.029 A 
ATOM     49  C   UNL A   1      46.574  26.344  26.474  1.00  0.00     0.049 A 
ATOM     50  H   UNL A   1      44.825  27.068  27.342  1.00  0.00     0.167 HD
ATOM     51  C   UNL A   1      41.044  28.441  29.124  1.00  0.00     0.034 A 
ATOM     52  C   UNL A   1      47.447  27.368  26.422  1.00  0.00     0.034 A 
ATOM     53  C   UNL A   1      41.940  29.572  29.191  1.00  0.00     0.049 A 
ATOM     54  C   UNL A   1      47.023  28.711  26.955  1.00  0.00     0.074 A 
ATOM     55  C   UNL A   1      41.716  30.819  29.747  1.00  0.00     0.029 A 
ATOM     56  N   UNL A   1      43.229  29.597  28.670  1.00  0.00    -0.354 N 
ATOM     57  N   UNL A   1      45.878  29.064  27.495  1.00  0.00    -0.248 NA
ATOM     58  C   UNL A   1      48.011  29.793  26.876  1.00  0.00     0.031 C 
ATOM     59  C   UNL A   1      42.831  31.623  29.483  1.00  0.00     0.029 A 
ATOM     60  C   UNL A   1      43.793  30.853  28.849  1.00  0.00     0.049 A 
ATOM     61  H   UNL A   1      43.678  28.836  28.237  1.00  0.00     0.167 HD
ATOM     62  C   UNL A   1      46.024  30.403  27.852  1.00  0.00     0.074 A 
ATOM     63  C   UNL A   1      47.369  30.787  27.472  1.00  0.00     0.031 C 
ATOM     64  C   UNL A   1      45.129  31.233  28.447  1.00  0.00     0.034 A 
BRANCH  51  65
ATOM     65  C   UNL A   1      39.621  28.593  29.616  1.00  0.00     0.023 A 
ATOM     66  C   UNL A   1      38.581  29.000  28.760  1.00  0.00     0.031 A 
ATOM     67  C   UNL A   1      39.309  28.394  30.973  1.00  0.00     0.131 A 
ATOM     68  C   UNL A   1      37.317  29.304  29.285  1.00  0.00     0.055 A 
ATOM     69  C   UNL A   1      38.019  28.597  31.470  1.00  0.00     0.041 A 
ATOM     70  F   UNL A   1      40.257  28.025  31.847  1.00  0.00    -0.206 F 
ATOM     71  C   UNL A   1      37.020  29.078  30.630  1.00  0.00     0.022 A 
BRANCH  68  72
ATOM     72  S   UNL A   1      36.135  30.190  28.230  1.00  0.00     0.124 S 
ATOM     73  O   UNL A   1      36.110  31.509  28.860  1.00  0.00    -0.237 OA
ATOM     74  O   UNL A   1      36.768  30.119  26.919  1.00  0.00    -0.237 OA
ATOM     75  O   UNL A   1      34.902  29.418  28.373  1.00  0.00    -0.744 OA
ENDBRANCH  68  72
ENDBRANCH  51  65
BRANCH  52  76
ATOM     76  C   UNL A   1      48.810  27.162  25.856  1.00  0.00     0.023 A 
ATOM     77  C   UNL A   1      49.081  27.451  24.510  1.00  0.00     0.031 A 
ATOM     78  C   UNL A   1      49.860  26.666  26.650  1.00  0.00     0.131 A 
ATOM     79  C   UNL A   1      50.360  27.210  23.987  1.00  0.00     0.055 A 
ATOM     80  C   UNL A   1      51.144  26.477  26.138  1.00  0.00     0.041 A 
ATOM     81  F   UNL A   1      49.654  26.377  27.945  1.00  0.00    -0.206 F 
ATOM     82  C   UNL A   1      51.398  26.740  24.796  1.00  0.00     0.022 A 
BRANCH  79  83
ATOM     83  S   UNL A   1      50.634  27.460  22.211  1.00  0.00     0.124 S 
ATOM     84  O   UNL A   1      50.622  28.915  22.112  1.00  0.00    -0.237 OA
ATOM     85  O   UNL A   1      51.927  26.814  22.009  1.00  0.00    -0.237 OA
ATOM     86  O   UNL A   1      49.498  26.782  21.593  1.00  0.00    -0.744 OA
ENDBRANCH  79  83
ENDBRANCH  52  76
BRANCH  64  87
ATOM     87  C   UNL A   1      45.598  32.636  28.763  1.00  0.00     0.023 A 
ATOM     88  C   UNL A   1      45.311  33.724  27.921  1.00  0.00     0.031 A 
ATOM     89  C   UNL A   1      46.355  32.881  29.923  1.00  0.00     0.131 A 
ATOM     90  C   UNL A   1      45.827  34.995  28.220  1.00  0.00     0.055 A 
ATOM     91  C   UNL A   1      46.806  34.160  30.252  1.00  0.00     0.041 A 
ATOM     92  F   UNL A   1      46.667  31.880  30.762  1.00  0.00    -0.206 F 
ATOM     93  C   UNL A   1      46.555  35.224  29.391  1.00  0.00     0.022 A 
BRANCH  90  94
ATOM     94  S   UNL A   1      45.624  36.326  27.004  1.00  0.00     0.124 S 
ATOM     95  O   UNL A   1      45.826  37.517  27.823  1.00  0.00    -0.237 OA
ATOM     96  O   UNL A   1      46.677  36.031  26.038  1.00  0.00    -0.237 OA
ATOM     97  O   UNL A   1      44.260  36.136  26.512  1.00  0.00    -0.744 OA
ENDBRANCH  90  94
ENDBRANCH  64  87
ENDBRANCH  38  39
ENDBRANCH  30  33
ENDBRANCH  28  29
ENDBRANCH  27  28
ENDBRANCH  26  27
ENDBRANCH   1  26
TORSDOF 20
ENDMDL
MODEL 3
REMARK VINA RESULT:     -10.8      3.711      5.709
REMARK SMILES CC[C@@H](C)N(C)C(=O)N1[C@@H](C(=O)NCCCCCCNC(=O)c2ccc(-c3c4nc(c(-c5cc(S(=O)(=O)[O-])ccc5F)c5ccc([nH]5)c(-c5cc(S(=O)(=O)[O-])ccc5F)c5nc(c(-c6cc(S(=O)(=O)[O-])ccc6F)c6ccc3[nH]6)C=C5)C=C4)cc2)CC[C@H]2CCCC[C@H]21
REMARK SMILES IDX 16 1 15 2 14 3 13 4 11 5 12 6 10 8 9 9 93 10 86 11 88 12
REMARK SMILES IDX 92 13 87 14 89 15 91 16 90 17 7 18 8 19 5 20 6 21 3 22 4 23
REMARK SMILES IDX 2 24 1 25 17 26 18 27 19 28 20 29 21 30 22 32 23 33 24 34
REMARK SMILES IDX 85 35 25 36 84 37 26 38 27 39 28 40 78 41 29 42 83 43 77 44
REMARK SMILES IDX 79 45 30 46 82 47 76 48 75 49 31 51 63 52 43 53 62 54 44 55
REMARK SMILES IDX 47 56 61 57 80 58 45 59 46 60 60 62 81 63 48 64 32 65 33 66
REMARK SMILES IDX 41 67 34 68 40 69 42 70 39 71 35 72 36 73 37 74 38 75 64 76
REMARK SMILES IDX 65 77 73 78 66 79 72 80 74 81 71 82 67 83 68 84 69 85 70 86
REMARK SMILES IDX 49 87 50 88 58 89 51 90 57 91 59 92 56 93 52 94 53 95 54 96
REMARK SMILES IDX 55 97
REMARK H PARENT 13 7 20 31 79 50 47 61
REMARK Flexibility Score: inf
ROOT
ATOM      1  C   UNL A   1      40.087  22.345  26.709  1.00  0.00     0.002 C 
ENDROOT
BRANCH   1   2
ATOM      2  C   UNL A   1      38.881  21.899  25.875  1.00  0.00     0.021 C 
BRANCH   2   3
ATOM      3  C   UNL A   1      37.788  22.955  25.798  1.00  0.00     0.116 C 
BRANCH   3   4
ATOM      4  N   UNL A   1      37.241  23.014  24.455  1.00  0.00    -0.354 N 
ATOM      5  C   UNL A   1      36.048  23.507  24.034  1.00  0.00     0.242 C 
ATOM      6  O   UNL A   1      35.705  23.274  22.869  1.00  0.00    -0.273 OA
ATOM      7  H   UNL A   1      37.817  22.642  23.749  1.00  0.00     0.163 HD
BRANCH   5   8
ATOM      8  C   UNL A   1      35.079  24.213  25.005  1.00  0.00     0.176 C 
ATOM      9  N   UNL A   1      34.079  23.362  25.698  1.00  0.00    -0.309 N 
ATOM     10  C   UNL A   1      33.037  24.098  26.445  1.00  0.00     0.091 C 
ATOM     11  C   UNL A   1      34.424  25.363  24.198  1.00  0.00     0.036 C 
ATOM     12  C   UNL A   1      32.307  25.139  25.590  1.00  0.00     0.012 C 
ATOM     13  C   UNL A   1      32.000  23.301  27.250  1.00  0.00     0.025 C 
ATOM     14  C   UNL A   1      33.308  26.093  24.935  1.00  0.00     0.008 C 
ATOM     15  C   UNL A   1      31.313  24.526  24.593  1.00  0.00     0.006 C 
ATOM     16  C   UNL A   1      30.784  22.808  26.460  1.00  0.00     0.002 C 
ATOM     17  C   UNL A   1      30.759  23.155  24.974  1.00  0.00     0.000 C 
BRANCH   9  18
ATOM     18  C   UNL A   1      34.136  21.986  25.798  1.00  0.00     0.320 C 
ATOM     19  O   UNL A   1      34.703  21.483  26.769  1.00  0.00    -0.248 OA
BRANCH  18  20
ATOM     20  N   UNL A   1      33.572  21.174  24.834  1.00  0.00    -0.325 N 
ATOM     21  C   UNL A   1      33.096  21.604  23.527  1.00  0.00     0.149 C 
BRANCH  20  22
ATOM     22  C   UNL A   1      33.654  19.697  25.017  1.00  0.00     0.083 C 
ATOM     23  C   UNL A   1      35.015  19.118  24.610  1.00  0.00     0.031 C 
BRANCH  22  24
ATOM     24  C   UNL A   1      32.455  18.983  24.350  1.00  0.00     0.021 C 
ATOM     25  C   UNL A   1      32.842  17.907  23.346  1.00  0.00     0.006 C 
ENDBRANCH  22  24
ENDBRANCH  20  22
ENDBRANCH  18  20
ENDBRANCH   9  18
ENDBRANCH   5   8
ENDBRANCH   3   4
ENDBRANCH   2   3
ENDBRANCH   1   2
BRANCH   1  26
ATOM     26  C   UNL A   1      40.899  21.196  27.317  1.00  0.00     0.002 C 
BRANCH  26  27
ATOM     27  C   UNL A   1      41.175  20.038  26.358  1.00  0.00     0.021 C 
BRANCH  27  28
ATOM     28  C   UNL A   1      42.421  19.233  26.708  1.00  0.00     0.116 C 
BRANCH  28  29
ATOM     29  N   UNL A   1      43.289  19.062  25.554  1.00  0.00    -0.352 N 
ATOM     30  C   UNL A   1      43.938  20.020  24.816  1.00  0.00     0.251 C 
ATOM     31  H   UNL A   1      43.431  18.133  25.262  1.00  0.00     0.163 HD
ATOM     32  O   UNL A   1      44.435  19.731  23.736  1.00  0.00    -0.269 OA
BRANCH  30  33
ATOM     33  C   UNL A   1      44.007  21.400  25.338  1.00  0.00     0.039 A 
ATOM     34  C   UNL A   1      44.641  21.632  26.559  1.00  0.00     0.014 A 
ATOM     35  C   UNL A   1      43.462  22.461  24.607  1.00  0.00     0.014 A 
ATOM     36  C   UNL A   1      44.775  22.942  27.023  1.00  0.00     0.010 A 
ATOM     37  C   UNL A   1      43.672  23.768  25.029  1.00  0.00     0.010 A 
ATOM     38  C   UNL A   1      44.322  24.022  26.246  1.00  0.00    -0.014 A 
BRANCH  38  39
ATOM     39  C   UNL A   1      44.511  25.423  26.695  1.00  0.00     0.031 A 
ATOM     40  C   UNL A   1      45.864  26.070  26.598  1.00  0.00     0.074 A 
ATOM     41  C   UNL A   1      43.478  26.091  27.242  1.00  0.00     0.049 A 
ATOM     42  N   UNL A   1      46.243  27.262  26.981  1.00  0.00    -0.248 NA
ATOM     43  C   UNL A   1      46.942  25.251  26.025  1.00  0.00     0.031 C 
ATOM     44  C   UNL A   1      42.127  25.555  27.422  1.00  0.00     0.029 A 
ATOM     45  N   UNL A   1      43.400  27.364  27.747  1.00  0.00    -0.354 N 
ATOM     46  C   UNL A   1      47.605  27.332  26.707  1.00  0.00     0.074 A 
ATOM     47  C   UNL A   1      47.994  26.034  26.198  1.00  0.00     0.031 C 
ATOM     48  C   UNL A   1      41.345  26.506  27.956  1.00  0.00     0.029 A 
ATOM     49  C   UNL A   1      42.148  27.699  28.206  1.00  0.00     0.049 A 
ATOM     50  H   UNL A   1      44.167  27.980  27.778  1.00  0.00     0.167 HD
ATOM     51  C   UNL A   1      48.445  28.389  26.840  1.00  0.00     0.034 A 
ATOM     52  C   UNL A   1      41.699  28.836  28.772  1.00  0.00     0.034 A 
ATOM     53  C   UNL A   1      48.034  29.674  27.354  1.00  0.00     0.049 A 
ATOM     54  C   UNL A   1      42.659  29.981  28.964  1.00  0.00     0.074 A 
ATOM     55  C   UNL A   1      48.781  30.831  27.482  1.00  0.00     0.029 A 
ATOM     56  N   UNL A   1      46.765  29.967  27.842  1.00  0.00    -0.354 N 
ATOM     57  N   UNL A   1      43.932  30.055  28.648  1.00  0.00    -0.248 NA
ATOM     58  C   UNL A   1      42.119  31.196  29.584  1.00  0.00     0.031 C 
ATOM     59  C   UNL A   1      47.994  31.792  28.128  1.00  0.00     0.029 A 
ATOM     60  C   UNL A   1      46.724  31.271  28.316  1.00  0.00     0.049 A 
ATOM     61  H   UNL A   1      46.006  29.341  27.851  1.00  0.00     0.167 HD
ATOM     62  C   UNL A   1      44.336  31.341  29.001  1.00  0.00     0.074 A 
ATOM     63  C   UNL A   1      43.168  32.005  29.543  1.00  0.00     0.031 C 
ATOM     64  C   UNL A   1      45.559  31.919  28.877  1.00  0.00     0.034 A 
BRANCH  51  65
ATOM     65  C   UNL A   1      49.894  28.171  26.461  1.00  0.00     0.023 A 
ATOM     66  C   UNL A   1      50.385  28.510  25.187  1.00  0.00     0.031 A 
ATOM     67  C   UNL A   1      50.783  27.554  27.360  1.00  0.00     0.131 A 
ATOM     68  C   UNL A   1      51.681  28.129  24.809  1.00  0.00     0.055 A 
ATOM     69  C   UNL A   1      52.107  27.273  27.012  1.00  0.00     0.041 A 
ATOM     70  F   UNL A   1      50.374  27.186  28.583  1.00  0.00    -0.206 F 
ATOM     71  C   UNL A   1      52.556  27.539  25.722  1.00  0.00     0.022 A 
BRANCH  68  72
ATOM     72  S   UNL A   1      52.133  28.232  23.054  1.00  0.00     0.124 S 
ATOM     73  O   UNL A   1      51.580  26.981  22.535  1.00  0.00    -0.237 OA
ATOM     74  O   UNL A   1      51.462  29.453  22.627  1.00  0.00    -0.237 OA
ATOM     75  O   UNL A   1      53.593  28.294  23.079  1.00  0.00    -0.744 OA
ENDBRANCH  68  72
ENDBRANCH  51  65
BRANCH  52  76
ATOM     76  C   UNL A   1      40.272  28.954  29.186  1.00  0.00     0.023 A 
ATOM     77  C   UNL A   1      39.904  28.840  30.535  1.00  0.00     0.031 A 
ATOM     78  C   UNL A   1      39.255  29.172  28.240  1.00  0.00     0.131 A 
ATOM     79  C   UNL A   1      38.551  28.912  30.899  1.00  0.00     0.055 A 
ATOM     80  C   UNL A   1      37.916  29.294  28.612  1.00  0.00     0.041 A 
ATOM     81  F   UNL A   1      39.555  29.292  26.936  1.00  0.00    -0.206 F 
ATOM     82  C   UNL A   1      37.556  29.154  29.949  1.00  0.00     0.022 A 
BRANCH  79  83
ATOM     83  S   UNL A   1      38.100  28.620  32.632  1.00  0.00     0.124 S 
ATOM     84  O   UNL A   1      39.181  29.299  33.338  1.00  0.00    -0.237 OA
ATOM     85  O   UNL A   1      36.785  29.248  32.714  1.00  0.00    -0.237 OA
ATOM     86  O   UNL A   1      38.099  27.163  32.742  1.00  0.00    -0.744 OA
ENDBRANCH  79  83
ENDBRANCH  52  76
BRANCH  64  87
ATOM     87  C   UNL A   1      45.681  33.365  29.302  1.00  0.00     0.023 A 
ATOM     88  C   UNL A   1      45.276  34.422  28.469  1.00  0.00     0.031 A 
ATOM     89  C   UNL A   1      46.225  33.686  30.559  1.00  0.00     0.131 A 
ATOM     90  C   UNL A   1      45.473  35.750  28.878  1.00  0.00     0.055 A 
ATOM     91  C   UNL A   1      46.354  35.008  30.989  1.00  0.00     0.041 A 
ATOM     92  F   UNL A   1      46.637  32.720  31.395  1.00  0.00    -0.206 F 
ATOM     93  C   UNL A   1      45.990  36.049  30.141  1.00  0.00     0.022 A 
BRANCH  90  94
ATOM     94  S   UNL A   1      45.143  37.085  27.695  1.00  0.00     0.124 S 
ATOM     95  O   UNL A   1      46.466  37.317  27.122  1.00  0.00    -0.237 OA
ATOM     96  O   UNL A   1      44.160  36.477  26.804  1.00  0.00    -0.237 OA
ATOM     97  O   UNL A   1      44.632  38.168  28.533  1.00  0.00    -0.744 OA
ENDBRANCH  90  94
ENDBRANCH  64  87
ENDBRANCH  38  39
ENDBRANCH  30  33
ENDBRANCH  28  29
ENDBRANCH  27  28
ENDBRANCH  26  27
ENDBRANCH   1  26
TORSDOF 20
ENDMDL
