MODEL 1
REMARK VINA RESULT:     -10.7      0.000      0.000
REMARK SMILES CC[C@](C)(NC(=O)N[C@@H]1C[C@@H]1C)C(=O)NCCCCCCNC(=O)c1ccc(-c2c3nc(c(-c4cc(S(=O)(=O)[O-])ccc4F)c4ccc([nH]4)c(-c4cc(S(=O)(=O)[O-])ccc4F)c4nc(c(-c5cc(S(=O)(=O)[O-])ccc5F)c5ccc2[nH]5)C=C4)C=C3)cc1
REMARK SMILES IDX 19 1 18 2 17 3 16 4 15 5 13 6 14 7 3 9 4 10 2 11 1 12 5 13
REMARK SMILES IDX 6 14 7 16 8 17 9 19 10 20 11 21 12 22 20 23 21 24 22 25
REMARK SMILES IDX 23 26 24 28 25 29 26 30 87 31 27 32 86 33 28 34 29 35 30 36
REMARK SMILES IDX 80 37 31 38 85 39 79 40 81 41 32 42 84 43 78 44 77 45 33 47
REMARK SMILES IDX 65 48 45 49 64 50 46 51 49 52 63 53 82 54 47 55 48 56 62 58
REMARK SMILES IDX 83 59 50 60 34 61 35 62 43 63 36 64 42 65 44 66 41 67 37 68
REMARK SMILES IDX 38 69 39 70 40 71 66 72 67 73 75 74 68 75 74 76 76 77 73 78
REMARK SMILES IDX 69 79 70 80 71 81 72 82 51 83 52 84 60 85 53 86 59 87 61 88
REMARK SMILES IDX 58 89 54 90 55 91 56 92 57 93
REMARK H PARENT 15 8 5 15 8 18 22 27 81 46 49 57
REMARK Flexibility Score: inf
ROOT
ATOM      1  C   UNL A   1      31.360  28.080  24.744  1.00  0.00     0.002 C 
ENDROOT
BRANCH   1   2
ATOM      2  C   UNL A   1      31.724  28.749  23.418  1.00  0.00     0.002 C 
BRANCH   2   3
ATOM      3  C   UNL A   1      32.439  27.862  22.398  1.00  0.00     0.021 C 
BRANCH   3   4
ATOM      4  C   UNL A   1      31.834  26.477  22.163  1.00  0.00     0.116 C 
BRANCH   4   5
ATOM      5  N   UNL A   1      32.798  25.437  21.820  1.00  0.00    -0.354 N 
ATOM      6  C   UNL A   1      32.942  24.151  22.281  1.00  0.00     0.245 C 
ATOM      7  O   UNL A   1      33.613  23.380  21.587  1.00  0.00    -0.272 OA
ATOM      8  H   UNL A   1      33.460  25.703  21.140  1.00  0.00     0.163 HD
BRANCH   6   9
ATOM      9  C   UNL A   1      32.137  23.648  23.517  1.00  0.00     0.117 C 
ATOM     10  C   UNL A   1      30.624  23.904  23.506  1.00  0.00     0.045 C 
BRANCH   9  11
ATOM     11  C   UNL A   1      32.733  24.435  24.746  1.00  0.00     0.035 C 
ATOM     12  C   UNL A   1      31.808  24.566  25.959  1.00  0.00     0.007 C 
ENDBRANCH   9  11
BRANCH   9  13
ATOM     13  N   UNL A   1      32.368  22.205  23.700  1.00  0.00    -0.324 N 
ATOM     14  C   UNL A   1      33.387  21.426  24.058  1.00  0.00     0.315 C 
ATOM     15  H   UNL A   1      31.558  21.679  23.508  1.00  0.00     0.166 HD
ATOM     16  O   UNL A   1      33.129  20.219  24.158  1.00  0.00    -0.249 OA
ATOM     17  N   UNL A   1      34.613  21.798  24.445  1.00  0.00    -0.335 N 
ATOM     18  H   UNL A   1      34.929  21.202  25.161  1.00  0.00     0.165 HD
BRANCH  17  19
ATOM     19  C   UNL A   1      35.610  22.776  24.157  1.00  0.00     0.087 C 
ATOM     20  C   UNL A   1      36.703  22.928  23.157  1.00  0.00     0.030 C 
ATOM     21  C   UNL A   1      37.046  22.397  24.513  1.00  0.00     0.010 C 
ATOM     22  C   UNL A   1      37.430  20.970  24.745  1.00  0.00     0.010 C 
ENDBRANCH  17  19
ENDBRANCH   9  13
ENDBRANCH   6   9
ENDBRANCH   4   5
ENDBRANCH   3   4
ENDBRANCH   2   3
ENDBRANCH   1   2
BRANCH   1  23
ATOM     23  C   UNL A   1      32.361  28.279  25.879  1.00  0.00     0.021 C 
BRANCH  23  24
ATOM     24  C   UNL A   1      33.421  29.336  25.614  1.00  0.00     0.116 C 
BRANCH  24  25
ATOM     25  N   UNL A   1      33.002  30.650  26.073  1.00  0.00    -0.352 N 
ATOM     26  C   UNL A   1      33.512  31.394  27.106  1.00  0.00     0.251 C 
ATOM     27  H   UNL A   1      32.256  31.059  25.577  1.00  0.00     0.163 HD
ATOM     28  O   UNL A   1      32.905  32.386  27.508  1.00  0.00    -0.269 OA
BRANCH  26  29
ATOM     29  C   UNL A   1      34.775  30.973  27.748  1.00  0.00     0.039 A 
ATOM     30  C   UNL A   1      35.818  31.893  27.856  1.00  0.00     0.014 A 
ATOM     31  C   UNL A   1      34.915  29.682  28.270  1.00  0.00     0.014 A 
ATOM     32  C   UNL A   1      36.982  31.534  28.537  1.00  0.00     0.010 A 
ATOM     33  C   UNL A   1      36.037  29.359  29.027  1.00  0.00     0.010 A 
ATOM     34  C   UNL A   1      37.088  30.277  29.159  1.00  0.00    -0.014 A 
BRANCH  34  35
ATOM     35  C   UNL A   1      38.297  29.928  29.949  1.00  0.00     0.031 A 
ATOM     36  C   UNL A   1      38.484  30.471  31.339  1.00  0.00     0.074 A 
ATOM     37  C   UNL A   1      39.237  29.133  29.399  1.00  0.00     0.049 A 
ATOM     38  N   UNL A   1      39.446  30.239  32.195  1.00  0.00    -0.248 NA
ATOM     39  C   UNL A   1      37.471  31.422  31.820  1.00  0.00     0.031 C 
ATOM     40  C   UNL A   1      39.190  28.592  28.038  1.00  0.00     0.029 A 
ATOM     41  N   UNL A   1      40.401  28.626  29.914  1.00  0.00    -0.354 N 
ATOM     42  C   UNL A   1      39.159  31.019  33.311  1.00  0.00     0.074 A 
ATOM     43  C   UNL A   1      37.973  31.784  32.990  1.00  0.00     0.031 C 
ATOM     44  C   UNL A   1      40.244  27.783  27.850  1.00  0.00     0.029 A 
ATOM     45  C   UNL A   1      41.067  27.783  29.054  1.00  0.00     0.049 A 
ATOM     46  H   UNL A   1      40.732  28.846  30.816  1.00  0.00     0.167 HD
ATOM     47  C   UNL A   1      39.808  31.072  34.501  1.00  0.00     0.034 A 
ATOM     48  C   UNL A   1      42.206  27.084  29.221  1.00  0.00     0.034 A 
ATOM     49  C   UNL A   1      40.989  30.297  34.798  1.00  0.00     0.049 A 
ATOM     50  C   UNL A   1      42.924  27.177  30.543  1.00  0.00     0.074 A 
ATOM     51  C   UNL A   1      41.692  30.218  35.988  1.00  0.00     0.029 A 
ATOM     52  N   UNL A   1      41.658  29.482  33.891  1.00  0.00    -0.354 N 
ATOM     53  N   UNL A   1      42.594  27.856  31.618  1.00  0.00    -0.248 NA
ATOM     54  C   UNL A   1      44.160  26.399  30.674  1.00  0.00     0.031 C 
ATOM     55  C   UNL A   1      42.829  29.431  35.775  1.00  0.00     0.029 A 
ATOM     56  C   UNL A   1      42.791  28.938  34.481  1.00  0.00     0.049 A 
ATOM     57  H   UNL A   1      41.370  29.316  32.965  1.00  0.00     0.167 HD
ATOM     58  C   UNL A   1      43.573  27.565  32.564  1.00  0.00     0.074 A 
ATOM     59  C   UNL A   1      44.484  26.626  31.937  1.00  0.00     0.031 C 
ATOM     60  C   UNL A   1      43.710  28.029  33.834  1.00  0.00     0.034 A 
BRANCH  47  61
ATOM     61  C   UNL A   1      39.270  32.025  35.545  1.00  0.00     0.023 A 
ATOM     62  C   UNL A   1      39.690  33.366  35.616  1.00  0.00     0.031 A 
ATOM     63  C   UNL A   1      38.354  31.576  36.514  1.00  0.00     0.131 A 
ATOM     64  C   UNL A   1      39.267  34.180  36.678  1.00  0.00     0.055 A 
ATOM     65  C   UNL A   1      37.864  32.419  37.514  1.00  0.00     0.041 A 
ATOM     66  F   UNL A   1      37.932  30.301  36.517  1.00  0.00    -0.206 F 
ATOM     67  C   UNL A   1      38.335  33.724  37.613  1.00  0.00     0.022 A 
BRANCH  64  68
ATOM     68  S   UNL A   1      40.085  35.781  36.921  1.00  0.00     0.124 S 
ATOM     69  O   UNL A   1      39.655  36.517  35.733  1.00  0.00    -0.237 OA
ATOM     70  O   UNL A   1      39.527  36.233  38.189  1.00  0.00    -0.237 OA
ATOM     71  O   UNL A   1      41.506  35.440  36.949  1.00  0.00    -0.744 OA
ENDBRANCH  64  68
ENDBRANCH  47  61
BRANCH  48  72
ATOM     72  C   UNL A   1      42.736  26.227  28.121  1.00  0.00     0.023 A 
ATOM     73  C   UNL A   1      42.143  24.991  27.817  1.00  0.00     0.031 A 
ATOM     74  C   UNL A   1      43.865  26.615  27.378  1.00  0.00     0.131 A 
ATOM     75  C   UNL A   1      42.706  24.168  26.829  1.00  0.00     0.055 A 
ATOM     76  C   UNL A   1      44.387  25.819  26.358  1.00  0.00     0.041 A 
ATOM     77  F   UNL A   1      44.471  27.788  27.625  1.00  0.00    -0.206 F 
ATOM     78  C   UNL A   1      43.814  24.581  26.087  1.00  0.00     0.022 A 
BRANCH  75  79
ATOM     79  S   UNL A   1      42.015  22.508  26.584  1.00  0.00     0.124 S 
ATOM     80  O   UNL A   1      40.583  22.776  26.613  1.00  0.00    -0.237 OA
ATOM     81  O   UNL A   1      42.575  22.136  25.288  1.00  0.00    -0.237 OA
ATOM     82  O   UNL A   1      42.534  21.754  27.723  1.00  0.00    -0.744 OA
ENDBRANCH  75  79
ENDBRANCH  48  72
BRANCH  60  83
ATOM     83  C   UNL A   1      44.884  27.500  34.627  1.00  0.00     0.023 A 
ATOM     84  C   UNL A   1      44.785  26.325  35.394  1.00  0.00     0.031 A 
ATOM     85  C   UNL A   1      46.100  28.205  34.655  1.00  0.00     0.131 A 
ATOM     86  C   UNL A   1      45.850  25.939  36.222  1.00  0.00     0.055 A 
ATOM     87  C   UNL A   1      47.186  27.769  35.418  1.00  0.00     0.041 A 
ATOM     88  F   UNL A   1      46.254  29.336  33.949  1.00  0.00    -0.206 F 
ATOM     89  C   UNL A   1      47.057  26.641  36.224  1.00  0.00     0.022 A 
BRANCH  86  90
ATOM     90  S   UNL A   1      45.580  24.590  37.406  1.00  0.00     0.124 S 
ATOM     91  O   UNL A   1      45.095  23.521  36.541  1.00  0.00    -0.237 OA
ATOM     92  O   UNL A   1      46.913  24.399  37.969  1.00  0.00    -0.237 OA
ATOM     93  O   UNL A   1      44.589  25.139  38.330  1.00  0.00    -0.744 OA
ENDBRANCH  86  90
ENDBRANCH  60  83
ENDBRANCH  34  35
ENDBRANCH  26  29
ENDBRANCH  24  25
ENDBRANCH  23  24
ENDBRANCH   1  23
TORSDOF 19
ENDMDL
MODEL 2
REMARK VINA RESULT:     -10.6      4.702     10.001
REMARK SMILES CC[C@](C)(NC(=O)N[C@@H]1C[C@@H]1C)C(=O)NCCCCCCNC(=O)c1ccc(-c2c3nc(c(-c4cc(S(=O)(=O)[O-])ccc4F)c4ccc([nH]4)c(-c4cc(S(=O)(=O)[O-])ccc4F)c4nc(c(-c5cc(S(=O)(=O)[O-])ccc5F)c5ccc2[nH]5)C=C4)C=C3)cc1
REMARK SMILES IDX 19 1 18 2 17 3 16 4 15 5 13 6 14 7 3 9 4 10 2 11 1 12 5 13
REMARK SMILES IDX 6 14 7 16 8 17 9 19 10 20 11 21 12 22 20 23 21 24 22 25
REMARK SMILES IDX 23 26 24 28 25 29 26 30 87 31 27 32 86 33 28 34 29 35 30 36
REMARK SMILES IDX 80 37 31 38 85 39 79 40 81 41 32 42 84 43 78 44 77 45 33 47
REMARK SMILES IDX 65 48 45 49 64 50 46 51 49 52 63 53 82 54 47 55 48 56 62 58
REMARK SMILES IDX 83 59 50 60 34 61 35 62 43 63 36 64 42 65 44 66 41 67 37 68
REMARK SMILES IDX 38 69 39 70 40 71 66 72 67 73 75 74 68 75 74 76 76 77 73 78
REMARK SMILES IDX 69 79 70 80 71 81 72 82 51 83 52 84 60 85 53 86 59 87 61 88
REMARK SMILES IDX 58 89 54 90 55 91 56 92 57 93
REMARK H PARENT 15 8 5 15 8 18 22 27 81 46 49 57
REMARK Flexibility Score: inf
ROOT
ATOM      1  C   UNL A   1      34.780  21.979  23.971  1.00  0.00     0.002 C 
ENDROOT
BRANCH   1   2
ATOM      2  C   UNL A   1      34.110  20.779  24.642  1.00  0.00     0.002 C 
BRANCH   2   3
ATOM      3  C   UNL A   1      33.095  21.108  25.738  1.00  0.00     0.021 C 
BRANCH   3   4
ATOM      4  C   UNL A   1      31.758  21.686  25.271  1.00  0.00     0.116 C 
BRANCH   4   5
ATOM      5  N   UNL A   1      30.954  22.299  26.322  1.00  0.00    -0.354 N 
ATOM      6  C   UNL A   1      30.617  23.611  26.552  1.00  0.00     0.245 C 
ATOM      7  O   UNL A   1      29.657  23.819  27.300  1.00  0.00    -0.272 OA
ATOM      8  H   UNL A   1      30.589  21.664  26.980  1.00  0.00     0.163 HD
BRANCH   6   9
ATOM      9  C   UNL A   1      31.296  24.765  25.753  1.00  0.00     0.117 C 
ATOM     10  C   UNL A   1      30.867  26.195  26.106  1.00  0.00     0.045 C 
BRANCH   9  11
ATOM     11  C   UNL A   1      30.896  24.516  24.249  1.00  0.00     0.035 C 
ATOM     12  C   UNL A   1      29.953  25.556  23.635  1.00  0.00     0.007 C 
ENDBRANCH   9  11
BRANCH   9  13
ATOM     13  N   UNL A   1      32.759  24.665  25.894  1.00  0.00    -0.324 N 
ATOM     14  C   UNL A   1      33.824  25.301  25.408  1.00  0.00     0.315 C 
ATOM     15  H   UNL A   1      33.017  23.941  26.509  1.00  0.00     0.166 HD
ATOM     16  O   UNL A   1      34.917  24.932  25.857  1.00  0.00    -0.249 OA
ATOM     17  N   UNL A   1      33.850  26.366  24.598  1.00  0.00    -0.335 N 
ATOM     18  H   UNL A   1      34.593  26.958  24.854  1.00  0.00     0.165 HD
BRANCH  17  19
ATOM     19  C   UNL A   1      33.152  26.921  23.486  1.00  0.00     0.087 C 
ATOM     20  C   UNL A   1      33.427  27.970  22.465  1.00  0.00     0.030 C 
ATOM     21  C   UNL A   1      32.619  28.342  23.668  1.00  0.00     0.010 C 
ATOM     22  C   UNL A   1      33.149  29.228  24.751  1.00  0.00     0.010 C 
ENDBRANCH  17  19
ENDBRANCH   9  13
ENDBRANCH   6   9
ENDBRANCH   4   5
ENDBRANCH   3   4
ENDBRANCH   2   3
ENDBRANCH   1   2
BRANCH   1  23
ATOM     23  C   UNL A   1      36.281  22.115  24.211  1.00  0.00     0.021 C 
BRANCH  23  24
ATOM     24  C   UNL A   1      36.719  21.883  25.648  1.00  0.00     0.116 C 
BRANCH  24  25
ATOM     25  N   UNL A   1      37.716  20.832  25.749  1.00  0.00    -0.352 N 
ATOM     26  C   UNL A   1      39.048  20.946  26.056  1.00  0.00     0.251 C 
ATOM     27  H   UNL A   1      37.393  19.918  25.574  1.00  0.00     0.163 HD
ATOM     28  O   UNL A   1      39.803  19.991  25.884  1.00  0.00    -0.269 OA
BRANCH  26  29
ATOM     29  C   UNL A   1      39.566  22.234  26.564  1.00  0.00     0.039 A 
ATOM     30  C   UNL A   1      40.584  22.225  27.517  1.00  0.00     0.014 A 
ATOM     31  C   UNL A   1      39.068  23.447  26.075  1.00  0.00     0.014 A 
ATOM     32  C   UNL A   1      41.141  23.433  27.938  1.00  0.00     0.010 A 
ATOM     33  C   UNL A   1      39.687  24.642  26.426  1.00  0.00     0.010 A 
ATOM     34  C   UNL A   1      40.722  24.650  27.371  1.00  0.00    -0.014 A 
BRANCH  34  35
ATOM     35  C   UNL A   1      41.371  25.927  27.765  1.00  0.00     0.031 A 
ATOM     36  C   UNL A   1      42.779  26.233  27.334  1.00  0.00     0.074 A 
ATOM     37  C   UNL A   1      40.690  26.802  28.532  1.00  0.00     0.049 A 
ATOM     38  N   UNL A   1      43.491  27.311  27.540  1.00  0.00    -0.248 NA
ATOM     39  C   UNL A   1      43.491  25.177  26.599  1.00  0.00     0.031 C 
ATOM     40  C   UNL A   1      39.339  26.589  29.057  1.00  0.00     0.029 A 
ATOM     41  N   UNL A   1      41.028  28.050  28.990  1.00  0.00    -0.354 N 
ATOM     42  C   UNL A   1      44.734  27.061  26.967  1.00  0.00     0.074 A 
ATOM     43  C   UNL A   1      44.699  25.702  26.472  1.00  0.00     0.031 C 
ATOM     44  C   UNL A   1      38.943  27.691  29.711  1.00  0.00     0.029 A 
ATOM     45  C   UNL A   1      40.023  28.670  29.696  1.00  0.00     0.049 A 
ATOM     46  H   UNL A   1      41.907  28.463  28.828  1.00  0.00     0.167 HD
ATOM     47  C   UNL A   1      45.796  27.897  26.842  1.00  0.00     0.034 A 
ATOM     48  C   UNL A   1      39.976  29.893  30.260  1.00  0.00     0.034 A 
ATOM     49  C   UNL A   1      45.807  29.250  27.344  1.00  0.00     0.049 A 
ATOM     50  C   UNL A   1      41.177  30.795  30.130  1.00  0.00     0.074 A 
ATOM     51  C   UNL A   1      46.797  30.209  27.217  1.00  0.00     0.029 A 
ATOM     52  N   UNL A   1      44.787  29.834  28.087  1.00  0.00    -0.354 N 
ATOM     53  N   UNL A   1      42.316  30.574  29.513  1.00  0.00    -0.248 NA
ATOM     54  C   UNL A   1      41.077  32.114  30.762  1.00  0.00     0.031 C 
ATOM     55  C   UNL A   1      46.416  31.334  27.957  1.00  0.00     0.029 A 
ATOM     56  C   UNL A   1      45.146  31.120  28.467  1.00  0.00     0.049 A 
ATOM     57  H   UNL A   1      43.933  29.398  28.312  1.00  0.00     0.167 HD
ATOM     58  C   UNL A   1      43.059  31.741  29.664  1.00  0.00     0.074 A 
ATOM     59  C   UNL A   1      42.224  32.668  30.403  1.00  0.00     0.031 C 
ATOM     60  C   UNL A   1      44.318  32.023  29.233  1.00  0.00     0.034 A 
BRANCH  47  61
ATOM     61  C   UNL A   1      47.036  27.350  26.171  1.00  0.00     0.023 A 
ATOM     62  C   UNL A   1      48.021  26.644  26.886  1.00  0.00     0.031 A 
ATOM     63  C   UNL A   1      47.260  27.573  24.799  1.00  0.00     0.131 A 
ATOM     64  C   UNL A   1      49.217  26.270  26.254  1.00  0.00     0.055 A 
ATOM     65  C   UNL A   1      48.410  27.114  24.155  1.00  0.00     0.041 A 
ATOM     66  F   UNL A   1      46.371  28.259  24.064  1.00  0.00    -0.206 F 
ATOM     67  C   UNL A   1      49.407  26.475  24.886  1.00  0.00     0.022 A 
BRANCH  64  68
ATOM     68  S   UNL A   1      50.588  25.669  27.280  1.00  0.00     0.124 S 
ATOM     69  O   UNL A   1      50.120  24.334  27.647  1.00  0.00    -0.237 OA
ATOM     70  O   UNL A   1      51.717  25.720  26.360  1.00  0.00    -0.237 OA
ATOM     71  O   UNL A   1      50.635  26.627  28.383  1.00  0.00    -0.744 OA
ENDBRANCH  64  68
ENDBRANCH  47  61
BRANCH  48  72
ATOM     72  C   UNL A   1      38.755  30.345  30.987  1.00  0.00     0.023 A 
ATOM     73  C   UNL A   1      37.712  30.998  30.312  1.00  0.00     0.031 A 
ATOM     74  C   UNL A   1      38.626  30.160  32.375  1.00  0.00     0.131 A 
ATOM     75  C   UNL A   1      36.607  31.482  31.030  1.00  0.00     0.055 A 
ATOM     76  C   UNL A   1      37.499  30.593  33.076  1.00  0.00     0.041 A 
ATOM     77  F   UNL A   1      39.593  29.540  33.071  1.00  0.00    -0.206 F 
ATOM     78  C   UNL A   1      36.487  31.270  32.405  1.00  0.00     0.022 A 
BRANCH  75  79
ATOM     79  S   UNL A   1      35.364  32.469  30.152  1.00  0.00     0.124 S 
ATOM     80  O   UNL A   1      35.050  31.610  29.017  1.00  0.00    -0.237 OA
ATOM     81  O   UNL A   1      34.320  32.609  31.162  1.00  0.00    -0.237 OA
ATOM     82  O   UNL A   1      36.078  33.701  29.824  1.00  0.00    -0.744 OA
ENDBRANCH  75  79
ENDBRANCH  48  72
BRANCH  60  83
ATOM     83  C   UNL A   1      44.846  33.406  29.540  1.00  0.00     0.023 A 
ATOM     84  C   UNL A   1      44.635  34.487  28.664  1.00  0.00     0.031 A 
ATOM     85  C   UNL A   1      45.610  33.637  30.698  1.00  0.00     0.131 A 
ATOM     86  C   UNL A   1      45.253  35.720  28.914  1.00  0.00     0.055 A 
ATOM     87  C   UNL A   1      46.154  34.890  30.983  1.00  0.00     0.041 A 
ATOM     88  F   UNL A   1      45.851  32.644  31.569  1.00  0.00    -0.206 F 
ATOM     89  C   UNL A   1      45.994  35.936  30.077  1.00  0.00     0.022 A 
BRANCH  86  90
ATOM     90  S   UNL A   1      45.195  36.995  27.623  1.00  0.00     0.124 S 
ATOM     91  O   UNL A   1      43.935  36.691  26.955  1.00  0.00    -0.237 OA
ATOM     92  O   UNL A   1      45.222  38.229  28.402  1.00  0.00    -0.237 OA
ATOM     93  O   UNL A   1      46.396  36.734  26.832  1.00  0.00    -0.744 OA
ENDBRANCH  86  90
ENDBRANCH  60  83
ENDBRANCH  34  35
ENDBRANCH  26  29
ENDBRANCH  24  25
ENDBRANCH  23  24
ENDBRANCH   1  23
TORSDOF 19
ENDMDL
MODEL 3
REMARK VINA RESULT:     -10.6      1.660      2.568
REMARK SMILES CC[C@](C)(NC(=O)N[C@@H]1C[C@@H]1C)C(=O)NCCCCCCNC(=O)c1ccc(-c2c3nc(c(-c4cc(S(=O)(=O)[O-])ccc4F)c4ccc([nH]4)c(-c4cc(S(=O)(=O)[O-])ccc4F)c4nc(c(-c5cc(S(=O)(=O)[O-])ccc5F)c5ccc2[nH]5)C=C4)C=C3)cc1
REMARK SMILES IDX 19 1 18 2 17 3 16 4 15 5 13 6 14 7 3 9 4 10 2 11 1 12 5 13
REMARK SMILES IDX 6 14 7 16 8 17 9 19 10 20 11 21 12 22 20 23 21 24 22 25
REMARK SMILES IDX 23 26 24 28 25 29 26 30 87 31 27 32 86 33 28 34 29 35 30 36
REMARK SMILES IDX 80 37 31 38 85 39 79 40 81 41 32 42 84 43 78 44 77 45 33 47
REMARK SMILES IDX 65 48 45 49 64 50 46 51 49 52 63 53 82 54 47 55 48 56 62 58
REMARK SMILES IDX 83 59 50 60 34 61 35 62 43 63 36 64 42 65 44 66 41 67 37 68
REMARK SMILES IDX 38 69 39 70 40 71 66 72 67 73 75 74 68 75 74 76 76 77 73 78
REMARK SMILES IDX 69 79 70 80 71 81 72 82 51 83 52 84 60 85 53 86 59 87 61 88
REMARK SMILES IDX 58 89 54 90 55 91 56 92 57 93
REMARK H PARENT 15 8 5 15 8 18 22 27 81 46 49 57
REMARK Flexibility Score: inf
ROOT
ATOM      1  C   UNL A   1      31.400  27.446  26.510  1.00  0.00     0.002 C 
ENDROOT
BRANCH   1   2
ATOM      2  C   UNL A   1      32.154  26.131  26.310  1.00  0.00     0.002 C 
BRANCH   2   3
ATOM      3  C   UNL A   1      33.577  26.255  25.763  1.00  0.00     0.021 C 
BRANCH   3   4
ATOM      4  C   UNL A   1      34.430  24.985  25.798  1.00  0.00     0.116 C 
BRANCH   4   5
ATOM      5  N   UNL A   1      34.951  24.560  24.504  1.00  0.00    -0.354 N 
ATOM      6  C   UNL A   1      34.785  23.390  23.803  1.00  0.00     0.245 C 
ATOM      7  O   UNL A   1      35.047  23.419  22.597  1.00  0.00    -0.272 OA
ATOM      8  H   UNL A   1      35.520  25.226  24.055  1.00  0.00     0.163 HD
BRANCH   6   9
ATOM      9  C   UNL A   1      34.116  22.147  24.465  1.00  0.00     0.117 C 
ATOM     10  C   UNL A   1      33.331  22.394  25.761  1.00  0.00     0.045 C 
BRANCH   9  11
ATOM     11  C   UNL A   1      35.307  21.178  24.819  1.00  0.00     0.035 C 
ATOM     12  C   UNL A   1      36.276  21.685  25.890  1.00  0.00     0.007 C 
ENDBRANCH   9  11
BRANCH   9  13
ATOM     13  N   UNL A   1      33.223  21.494  23.493  1.00  0.00    -0.324 N 
ATOM     14  C   UNL A   1      32.229  21.867  22.689  1.00  0.00     0.315 C 
ATOM     15  H   UNL A   1      33.410  20.530  23.416  1.00  0.00     0.166 HD
ATOM     16  O   UNL A   1      31.776  20.982  21.952  1.00  0.00    -0.249 OA
ATOM     17  N   UNL A   1      31.749  23.100  22.489  1.00  0.00    -0.335 N 
ATOM     18  H   UNL A   1      31.507  23.212  21.542  1.00  0.00     0.165 HD
BRANCH  17  19
ATOM     19  C   UNL A   1      31.474  24.305  23.202  1.00  0.00     0.087 C 
ATOM     20  C   UNL A   1      30.605  25.497  22.994  1.00  0.00     0.030 C 
ATOM     21  C   UNL A   1      32.046  25.587  22.599  1.00  0.00     0.010 C 
ATOM     22  C   UNL A   1      32.487  25.636  21.171  1.00  0.00     0.010 C 
ENDBRANCH  17  19
ENDBRANCH   9  13
ENDBRANCH   6   9
ENDBRANCH   4   5
ENDBRANCH   3   4
ENDBRANCH   2   3
ENDBRANCH   1   2
BRANCH   1  23
ATOM     23  C   UNL A   1      32.193  28.565  27.180  1.00  0.00     0.021 C 
BRANCH  23  24
ATOM     24  C   UNL A   1      32.964  29.458  26.222  1.00  0.00     0.116 C 
BRANCH  24  25
ATOM     25  N   UNL A   1      32.766  30.867  26.516  1.00  0.00    -0.352 N 
ATOM     26  C   UNL A   1      33.512  31.682  27.329  1.00  0.00     0.251 C 
ATOM     27  H   UNL A   1      31.995  31.292  26.073  1.00  0.00     0.163 HD
ATOM     28  O   UNL A   1      33.086  32.791  27.646  1.00  0.00    -0.269 OA
BRANCH  26  29
ATOM     29  C   UNL A   1      34.812  31.200  27.840  1.00  0.00     0.039 A 
ATOM     30  C   UNL A   1      35.872  32.100  27.950  1.00  0.00     0.014 A 
ATOM     31  C   UNL A   1      34.973  29.868  28.239  1.00  0.00     0.014 A 
ATOM     32  C   UNL A   1      37.076  31.677  28.513  1.00  0.00     0.010 A 
ATOM     33  C   UNL A   1      36.142  29.475  28.884  1.00  0.00     0.010 A 
ATOM     34  C   UNL A   1      37.211  30.371  29.018  1.00  0.00    -0.014 A 
BRANCH  34  35
ATOM     35  C   UNL A   1      38.468  29.948  29.686  1.00  0.00     0.031 A 
ATOM     36  C   UNL A   1      38.812  30.458  31.059  1.00  0.00     0.074 A 
ATOM     37  C   UNL A   1      39.310  29.116  29.041  1.00  0.00     0.049 A 
ATOM     38  N   UNL A   1      39.837  30.164  31.817  1.00  0.00    -0.248 NA
ATOM     39  C   UNL A   1      37.899  31.451  31.644  1.00  0.00     0.031 C 
ATOM     40  C   UNL A   1      39.109  28.601  27.684  1.00  0.00     0.029 A 
ATOM     41  N   UNL A   1      40.490  28.542  29.439  1.00  0.00    -0.354 N 
ATOM     42  C   UNL A   1      39.695  30.939  32.965  1.00  0.00     0.074 A 
ATOM     43  C   UNL A   1      38.526  31.769  32.765  1.00  0.00     0.031 C 
ATOM     44  C   UNL A   1      40.096  27.742  27.389  1.00  0.00     0.029 A 
ATOM     45  C   UNL A   1      41.027  27.681  28.510  1.00  0.00     0.049 A 
ATOM     46  H   UNL A   1      40.914  28.730  30.308  1.00  0.00     0.167 HD
ATOM     47  C   UNL A   1      40.454  30.939  34.089  1.00  0.00     0.034 A 
ATOM     48  C   UNL A   1      42.139  26.922  28.561  1.00  0.00     0.034 A 
ATOM     49  C   UNL A   1      41.617  30.101  34.264  1.00  0.00     0.049 A 
ATOM     50  C   UNL A   1      42.981  26.957  29.811  1.00  0.00     0.074 A 
ATOM     51  C   UNL A   1      42.422  29.967  35.382  1.00  0.00     0.029 A 
ATOM     52  N   UNL A   1      42.155  29.268  33.289  1.00  0.00    -0.354 N 
ATOM     53  N   UNL A   1      42.788  27.634  30.920  1.00  0.00    -0.248 NA
ATOM     54  C   UNL A   1      44.181  26.115  29.816  1.00  0.00     0.031 C 
ATOM     55  C   UNL A   1      43.492  29.127  35.054  1.00  0.00     0.029 A 
ATOM     56  C   UNL A   1      43.307  28.658  33.764  1.00  0.00     0.049 A 
ATOM     57  H   UNL A   1      41.773  29.132  32.392  1.00  0.00     0.167 HD
ATOM     58  C   UNL A   1      43.835  27.278  31.766  1.00  0.00     0.074 A 
ATOM     59  C   UNL A   1      44.633  26.305  31.045  1.00  0.00     0.031 C 
ATOM     60  C   UNL A   1      44.114  27.714  33.023  1.00  0.00     0.034 A 
BRANCH  47  61
ATOM     61  C   UNL A   1      40.067  31.901  35.190  1.00  0.00     0.023 A 
ATOM     62  C   UNL A   1      39.262  31.507  36.275  1.00  0.00     0.031 A 
ATOM     63  C   UNL A   1      40.475  33.247  35.135  1.00  0.00     0.131 A 
ATOM     64  C   UNL A   1      38.818  32.460  37.204  1.00  0.00     0.055 A 
ATOM     65  C   UNL A   1      40.106  34.170  36.116  1.00  0.00     0.041 A 
ATOM     66  F   UNL A   1      41.224  33.693  34.115  1.00  0.00    -0.206 F 
ATOM     67  C   UNL A   1      39.257  33.784  37.148  1.00  0.00     0.022 A 
BRANCH  64  68
ATOM     68  S   UNL A   1      37.522  31.983  38.381  1.00  0.00     0.124 S 
ATOM     69  O   UNL A   1      37.270  30.595  37.997  1.00  0.00    -0.237 OA
ATOM     70  O   UNL A   1      38.175  32.182  39.668  1.00  0.00    -0.237 OA
ATOM     71  O   UNL A   1      36.431  32.909  38.084  1.00  0.00    -0.744 OA
ENDBRANCH  64  68
ENDBRANCH  47  61
BRANCH  48  72
ATOM     72  C   UNL A   1      42.519  26.058  27.406  1.00  0.00     0.023 A 
ATOM     73  C   UNL A   1      42.072  24.730  27.319  1.00  0.00     0.031 A 
ATOM     74  C   UNL A   1      43.363  26.536  26.388  1.00  0.00     0.131 A 
ATOM     75  C   UNL A   1      42.505  23.912  26.263  1.00  0.00     0.055 A 
ATOM     76  C   UNL A   1      43.744  25.736  25.309  1.00  0.00     0.041 A 
ATOM     77  F   UNL A   1      43.818  27.799  26.419  1.00  0.00    -0.206 F 
ATOM     78  C   UNL A   1      43.325  24.411  25.250  1.00  0.00     0.022 A 
BRANCH  75  79
ATOM     79  S   UNL A   1      42.045  22.157  26.278  1.00  0.00     0.124 S 
ATOM     80  O   UNL A   1      40.610  22.224  26.032  1.00  0.00    -0.237 OA
ATOM     81  O   UNL A   1      42.860  21.622  25.192  1.00  0.00    -0.237 OA
ATOM     82  O   UNL A   1      42.430  21.717  27.617  1.00  0.00    -0.744 OA
ENDBRANCH  75  79
ENDBRANCH  48  72
BRANCH  60  83
ATOM     83  C   UNL A   1      45.327  27.113  33.696  1.00  0.00     0.023 A 
ATOM     84  C   UNL A   1      45.230  25.965  34.503  1.00  0.00     0.031 A 
ATOM     85  C   UNL A   1      46.588  27.723  33.569  1.00  0.00     0.131 A 
ATOM     86  C   UNL A   1      46.349  25.516  35.219  1.00  0.00     0.055 A 
ATOM     87  C   UNL A   1      47.717  27.222  34.219  1.00  0.00     0.041 A 
ATOM     88  F   UNL A   1      46.744  28.825  32.817  1.00  0.00    -0.206 F 
ATOM     89  C   UNL A   1      47.597  26.124  35.066  1.00  0.00     0.022 A 
BRANCH  86  90
ATOM     90  S   UNL A   1      46.117  24.217  36.464  1.00  0.00     0.124 S 
ATOM     91  O   UNL A   1      45.431  24.940  37.530  1.00  0.00    -0.237 OA
ATOM     92  O   UNL A   1      45.315  23.233  35.743  1.00  0.00    -0.237 OA
ATOM     93  O   UNL A   1      47.481  23.796  36.778  1.00  0.00    -0.744 OA
ENDBRANCH  86  90
ENDBRANCH  60  83
ENDBRANCH  34  35
ENDBRANCH  26  29
ENDBRANCH  24  25
ENDBRANCH  23  24
ENDBRANCH   1  23
TORSDOF 19
ENDMDL
