MODEL 1
REMARK VINA RESULT:     -12.5      0.000      0.000
REMARK SMILES Cc1ccc(C(=O)NCCCCCCNC(=O)c2ccc(-c3c4nc(c(-c5cc(S(=O)(=O)[O-])ccc5F)c5ccc([nH]5)c(-c5cc(S(=O)(=O)[O-])ccc5F)c5nc(c(-c6cc(S(=O)(=O)[O-])ccc6F)c6ccc3[nH]6)C=C5)C=C4)cc2)c(Oc2cccc(F)c2C(N)=O)c1
REMARK SMILES IDX 11 1 10 2 9 3 8 4 6 5 7 6 5 8 1 9 2 10 3 11 93 12 4 13 81 14
REMARK SMILES IDX 82 15 83 16 84 17 89 18 85 19 87 20 86 21 88 22 90 23 91 24
REMARK SMILES IDX 92 25 12 28 13 29 14 30 15 31 16 32 17 34 18 35 19 36 80 37
REMARK SMILES IDX 20 38 79 39 21 40 22 41 23 42 73 43 24 44 78 45 72 46 74 47
REMARK SMILES IDX 25 48 77 49 71 50 70 51 26 53 58 54 38 55 57 56 39 57 42 58
REMARK SMILES IDX 56 59 75 60 40 61 41 62 55 64 76 65 43 66 27 67 28 68 36 69
REMARK SMILES IDX 29 70 35 71 37 72 34 73 30 74 31 75 32 76 33 77 59 78 60 79
REMARK SMILES IDX 68 80 61 81 67 82 69 83 66 84 62 85 63 86 64 87 65 88 44 89
REMARK SMILES IDX 45 90 53 91 46 92 52 93 54 94 51 95 47 96 48 97 49 98 50 99
REMARK H PARENT 8 7 91 26 91 27 15 33 74 52 42 63
REMARK Flexibility Score: inf
ROOT
ATOM      1  C   UNL A   1      36.423  23.598  24.873  1.00  0.00     0.002 C 
ENDROOT
BRANCH   1   2
ATOM      2  C   UNL A   1      35.450  24.055  25.960  1.00  0.00     0.021 C 
BRANCH   2   3
ATOM      3  C   UNL A   1      34.346  25.028  25.565  1.00  0.00     0.116 C 
BRANCH   3   4
ATOM      4  N   UNL A   1      33.112  24.942  26.297  1.00  0.00    -0.352 N 
ATOM      5  C   UNL A   1      32.267  23.874  26.489  1.00  0.00     0.255 C 
ATOM      6  O   UNL A   1      31.337  24.032  27.286  1.00  0.00    -0.269 OA
ATOM      7  H   UNL A   1      32.828  25.779  26.729  1.00  0.00     0.163 HD
BRANCH   5   8
ATOM      8  C   UNL A   1      32.337  22.562  25.761  1.00  0.00     0.082 A 
ATOM      9  C   UNL A   1      33.151  18.730  23.884  1.00  0.00     0.044 C 
ATOM     10  C   UNL A   1      32.892  20.058  24.531  1.00  0.00    -0.047 A 
ATOM     11  C   UNL A   1      33.511  20.402  25.729  1.00  0.00     0.004 A 
ATOM     12  C   UNL A   1      32.038  20.985  23.928  1.00  0.00     0.051 A 
ATOM     13  C   UNL A   1      33.247  21.640  26.324  1.00  0.00     0.018 A 
ATOM     14  C   UNL A   1      31.705  22.199  24.559  1.00  0.00     0.140 A 
BRANCH  14  15
ATOM     15  O   UNL A   1      30.871  23.071  23.916  1.00  0.00    -0.456 OA
BRANCH  15  16
ATOM     16  C   UNL A   1      31.336  24.236  23.327  1.00  0.00     0.143 A 
ATOM     17  C   UNL A   1      32.494  23.994  22.564  1.00  0.00     0.048 A 
ATOM     18  C   UNL A   1      30.888  25.562  23.470  1.00  0.00     0.117 A 
ATOM     19  C   UNL A   1      33.185  25.032  21.936  1.00  0.00     0.007 A 
ATOM     20  C   UNL A   1      31.592  26.593  22.832  1.00  0.00     0.139 A 
ATOM     21  C   UNL A   1      32.731  26.337  22.074  1.00  0.00     0.040 A 
ATOM     22  F   UNL A   1      31.195  27.869  22.952  1.00  0.00    -0.206 F 
BRANCH  18  23
ATOM     23  C   UNL A   1      29.673  25.998  24.176  1.00  0.00     0.255 C 
ATOM     24  N   UNL A   1      29.504  25.586  25.465  1.00  0.00    -0.365 N 
ATOM     25  O   UNL A   1      28.867  26.729  23.615  1.00  0.00    -0.269 OA
ATOM     26  H   UNL A   1      30.172  24.998  25.886  1.00  0.00     0.159 HD
ATOM     27  H   UNL A   1      28.713  25.877  25.975  1.00  0.00     0.159 HD
ENDBRANCH  18  23
ENDBRANCH  15  16
ENDBRANCH  14  15
ENDBRANCH   5   8
ENDBRANCH   3   4
ENDBRANCH   2   3
ENDBRANCH   1   2
BRANCH   1  28
ATOM     28  C   UNL A   1      36.846  22.124  24.843  1.00  0.00     0.002 C 
BRANCH  28  29
ATOM     29  C   UNL A   1      38.274  21.796  25.277  1.00  0.00     0.021 C 
BRANCH  29  30
ATOM     30  C   UNL A   1      38.833  22.647  26.411  1.00  0.00     0.116 C 
BRANCH  30  31
ATOM     31  N   UNL A   1      40.278  22.826  26.374  1.00  0.00    -0.352 N 
ATOM     32  C   UNL A   1      41.010  23.996  26.540  1.00  0.00     0.251 C 
ATOM     33  H   UNL A   1      40.807  22.011  26.209  1.00  0.00     0.163 HD
ATOM     34  O   UNL A   1      42.218  24.018  26.463  1.00  0.00    -0.269 OA
BRANCH  32  35
ATOM     35  C   UNL A   1      40.270  25.222  26.939  1.00  0.00     0.039 A 
ATOM     36  C   UNL A   1      40.614  26.413  26.293  1.00  0.00     0.014 A 
ATOM     37  C   UNL A   1      39.461  25.237  28.071  1.00  0.00     0.014 A 
ATOM     38  C   UNL A   1      40.347  27.628  26.920  1.00  0.00     0.010 A 
ATOM     39  C   UNL A   1      39.277  26.434  28.740  1.00  0.00     0.010 A 
ATOM     40  C   UNL A   1      39.781  27.621  28.198  1.00  0.00    -0.014 A 
BRANCH  40  41
ATOM     41  C   UNL A   1      39.856  28.775  29.089  1.00  0.00     0.031 A 
ATOM     42  C   UNL A   1      38.813  29.817  29.099  1.00  0.00     0.074 A 
ATOM     43  C   UNL A   1      40.919  28.936  29.909  1.00  0.00     0.049 A 
ATOM     44  N   UNL A   1      39.059  31.070  29.306  1.00  0.00    -0.248 NA
ATOM     45  C   UNL A   1      37.404  29.532  28.850  1.00  0.00     0.031 C 
ATOM     46  C   UNL A   1      41.066  29.915  30.984  1.00  0.00     0.029 A 
ATOM     47  N   UNL A   1      42.186  28.394  29.768  1.00  0.00    -0.354 N 
ATOM     48  C   UNL A   1      37.853  31.687  29.518  1.00  0.00     0.074 A 
ATOM     49  C   UNL A   1      36.851  30.715  29.137  1.00  0.00     0.031 C 
ATOM     50  C   UNL A   1      42.373  30.087  31.236  1.00  0.00     0.029 A 
ATOM     51  C   UNL A   1      43.116  29.320  30.253  1.00  0.00     0.049 A 
ATOM     52  H   UNL A   1      42.397  27.509  29.392  1.00  0.00     0.167 HD
ATOM     53  C   UNL A   1      37.791  32.892  30.149  1.00  0.00     0.034 A 
ATOM     54  C   UNL A   1      44.122  29.802  29.470  1.00  0.00     0.034 A 
ATOM     55  C   UNL A   1      39.097  33.378  30.578  1.00  0.00     0.049 A 
ATOM     56  C   UNL A   1      44.101  31.305  29.302  1.00  0.00     0.074 A 
ATOM     57  C   UNL A   1      39.735  33.393  31.809  1.00  0.00     0.029 A 
ATOM     58  N   UNL A   1      40.062  33.718  29.637  1.00  0.00    -0.354 N 
ATOM     59  N   UNL A   1      43.087  32.066  29.606  1.00  0.00    -0.248 NA
ATOM     60  C   UNL A   1      45.214  32.063  28.745  1.00  0.00     0.031 C 
ATOM     61  C   UNL A   1      41.094  33.740  31.602  1.00  0.00     0.029 A 
ATOM     62  C   UNL A   1      41.280  33.951  30.249  1.00  0.00     0.049 A 
ATOM     63  H   UNL A   1      39.901  33.782  28.668  1.00  0.00     0.167 HD
ATOM     64  C   UNL A   1      43.369  33.374  29.282  1.00  0.00     0.074 A 
ATOM     65  C   UNL A   1      44.724  33.315  28.762  1.00  0.00     0.031 C 
ATOM     66  C   UNL A   1      42.443  34.368  29.470  1.00  0.00     0.034 A 
BRANCH  53  67
ATOM     67  C   UNL A   1      36.482  33.437  30.654  1.00  0.00     0.023 A 
ATOM     68  C   UNL A   1      35.605  34.100  29.775  1.00  0.00     0.031 A 
ATOM     69  C   UNL A   1      36.073  33.366  31.999  1.00  0.00     0.131 A 
ATOM     70  C   UNL A   1      34.450  34.744  30.248  1.00  0.00     0.055 A 
ATOM     71  C   UNL A   1      34.950  34.049  32.482  1.00  0.00     0.041 A 
ATOM     72  F   UNL A   1      36.758  32.631  32.891  1.00  0.00    -0.206 F 
ATOM     73  C   UNL A   1      34.138  34.758  31.605  1.00  0.00     0.022 A 
BRANCH  70  74
ATOM     74  S   UNL A   1      33.361  35.573  29.057  1.00  0.00     0.124 S 
ATOM     75  O   UNL A   1      32.655  34.451  28.447  1.00  0.00    -0.237 OA
ATOM     76  O   UNL A   1      32.567  36.442  29.919  1.00  0.00    -0.237 OA
ATOM     77  O   UNL A   1      34.294  36.268  28.171  1.00  0.00    -0.744 OA
ENDBRANCH  70  74
ENDBRANCH  53  67
BRANCH  54  78
ATOM     78  C   UNL A   1      44.602  28.827  28.450  1.00  0.00     0.023 A 
ATOM     79  C   UNL A   1      45.425  27.773  28.901  1.00  0.00     0.031 A 
ATOM     80  C   UNL A   1      43.979  28.690  27.202  1.00  0.00     0.131 A 
ATOM     81  C   UNL A   1      45.478  26.566  28.191  1.00  0.00     0.055 A 
ATOM     82  C   UNL A   1      44.085  27.504  26.466  1.00  0.00     0.041 A 
ATOM     83  F   UNL A   1      43.162  29.646  26.736  1.00  0.00    -0.206 F 
ATOM     84  C   UNL A   1      44.800  26.420  26.980  1.00  0.00     0.022 A 
BRANCH  81  85
ATOM     85  S   UNL A   1      46.219  25.100  28.969  1.00  0.00     0.124 S 
ATOM     86  O   UNL A   1      47.602  25.175  28.512  1.00  0.00    -0.237 OA
ATOM     87  O   UNL A   1      46.012  25.335  30.396  1.00  0.00    -0.237 OA
ATOM     88  O   UNL A   1      45.423  24.005  28.418  1.00  0.00    -0.744 OA
ENDBRANCH  81  85
ENDBRANCH  54  78
BRANCH  66  89
ATOM     89  C   UNL A   1      42.539  35.829  29.043  1.00  0.00     0.023 A 
ATOM     90  C   UNL A   1      43.306  36.800  29.701  1.00  0.00     0.031 A 
ATOM     91  C   UNL A   1      41.849  36.297  27.891  1.00  0.00     0.131 A 
ATOM     92  C   UNL A   1      43.341  38.140  29.262  1.00  0.00     0.055 A 
ATOM     93  C   UNL A   1      41.918  37.617  27.429  1.00  0.00     0.041 A 
ATOM     94  F   UNL A   1      41.081  35.493  27.143  1.00  0.00    -0.206 F 
ATOM     95  C   UNL A   1      42.662  38.554  28.122  1.00  0.00     0.022 A 
BRANCH  92  96
ATOM     96  S   UNL A   1      44.277  39.343  30.245  1.00  0.00     0.124 S 
ATOM     97  O   UNL A   1      45.648  38.868  30.080  1.00  0.00    -0.237 OA
ATOM     98  O   UNL A   1      43.960  40.602  29.578  1.00  0.00    -0.237 OA
ATOM     99  O   UNL A   1      43.725  39.197  31.590  1.00  0.00    -0.744 OA
ENDBRANCH  92  96
ENDBRANCH  66  89
ENDBRANCH  40  41
ENDBRANCH  32  35
ENDBRANCH  30  31
ENDBRANCH  29  30
ENDBRANCH  28  29
ENDBRANCH   1  28
TORSDOF 19
ENDMDL
MODEL 2
REMARK VINA RESULT:     -12.2      1.383      2.933
REMARK SMILES Cc1ccc(C(=O)NCCCCCCNC(=O)c2ccc(-c3c4nc(c(-c5cc(S(=O)(=O)[O-])ccc5F)c5ccc([nH]5)c(-c5cc(S(=O)(=O)[O-])ccc5F)c5nc(c(-c6cc(S(=O)(=O)[O-])ccc6F)c6ccc3[nH]6)C=C5)C=C4)cc2)c(Oc2cccc(F)c2C(N)=O)c1
REMARK SMILES IDX 11 1 10 2 9 3 8 4 6 5 7 6 5 8 1 9 2 10 3 11 93 12 4 13 81 14
REMARK SMILES IDX 82 15 83 16 84 17 89 18 85 19 87 20 86 21 88 22 90 23 91 24
REMARK SMILES IDX 92 25 12 28 13 29 14 30 15 31 16 32 17 34 18 35 19 36 80 37
REMARK SMILES IDX 20 38 79 39 21 40 22 41 23 42 73 43 24 44 78 45 72 46 74 47
REMARK SMILES IDX 25 48 77 49 71 50 70 51 26 53 58 54 38 55 57 56 39 57 42 58
REMARK SMILES IDX 56 59 75 60 40 61 41 62 55 64 76 65 43 66 27 67 28 68 36 69
REMARK SMILES IDX 29 70 35 71 37 72 34 73 30 74 31 75 32 76 33 77 59 78 60 79
REMARK SMILES IDX 68 80 61 81 67 82 69 83 66 84 62 85 63 86 64 87 65 88 44 89
REMARK SMILES IDX 45 90 53 91 46 92 52 93 54 94 51 95 47 96 48 97 49 98 50 99
REMARK H PARENT 8 7 91 26 91 27 15 33 74 52 42 63
REMARK Flexibility Score: inf
ROOT
ATOM      1  C   UNL A   1      36.616  23.999  25.841  1.00  0.00     0.002 C 
ENDROOT
BRANCH   1   2
ATOM      2  C   UNL A   1      35.116  24.114  25.567  1.00  0.00     0.021 C 
BRANCH   2   3
ATOM      3  C   UNL A   1      34.675  24.883  24.328  1.00  0.00     0.116 C 
BRANCH   3   4
ATOM      4  N   UNL A   1      34.327  24.104  23.170  1.00  0.00    -0.352 N 
ATOM      5  C   UNL A   1      33.249  24.209  22.323  1.00  0.00     0.255 C 
ATOM      6  O   UNL A   1      33.262  23.500  21.311  1.00  0.00    -0.269 OA
ATOM      7  H   UNL A   1      34.960  23.384  22.950  1.00  0.00     0.163 HD
BRANCH   5   8
ATOM      8  C   UNL A   1      32.029  25.053  22.558  1.00  0.00     0.082 A 
ATOM      9  C   UNL A   1      28.920  28.002  23.272  1.00  0.00     0.044 C 
ATOM     10  C   UNL A   1      30.009  26.997  23.036  1.00  0.00    -0.047 A 
ATOM     11  C   UNL A   1      31.171  27.348  22.356  1.00  0.00     0.004 A 
ATOM     12  C   UNL A   1      29.883  25.691  23.517  1.00  0.00     0.051 A 
ATOM     13  C   UNL A   1      32.169  26.394  22.135  1.00  0.00     0.018 A 
ATOM     14  C   UNL A   1      30.846  24.705  23.231  1.00  0.00     0.140 A 
BRANCH  14  15
ATOM     15  O   UNL A   1      30.674  23.446  23.737  1.00  0.00    -0.456 OA
BRANCH  15  16
ATOM     16  C   UNL A   1      31.312  23.023  24.892  1.00  0.00     0.143 A 
ATOM     17  C   UNL A   1      31.258  24.011  25.895  1.00  0.00     0.048 A 
ATOM     18  C   UNL A   1      32.049  21.851  25.141  1.00  0.00     0.117 A 
ATOM     19  C   UNL A   1      31.898  23.840  27.123  1.00  0.00     0.007 A 
ATOM     20  C   UNL A   1      32.684  21.693  26.380  1.00  0.00     0.139 A 
ATOM     21  C   UNL A   1      32.615  22.676  27.364  1.00  0.00     0.040 A 
ATOM     22  F   UNL A   1      33.399  20.590  26.648  1.00  0.00    -0.206 F 
BRANCH  18  23
ATOM     23  C   UNL A   1      32.169  20.693  24.241  1.00  0.00     0.255 C 
ATOM     24  N   UNL A   1      32.318  20.936  22.908  1.00  0.00    -0.365 N 
ATOM     25  O   UNL A   1      32.160  19.557  24.700  1.00  0.00    -0.269 OA
ATOM     26  H   UNL A   1      32.320  21.861  22.573  1.00  0.00     0.159 HD
ATOM     27  H   UNL A   1      32.423  20.185  22.280  1.00  0.00     0.159 HD
ENDBRANCH  18  23
ENDBRANCH  15  16
ENDBRANCH  14  15
ENDBRANCH   5   8
ENDBRANCH   3   4
ENDBRANCH   2   3
ENDBRANCH   1   2
BRANCH   1  28
ATOM     28  C   UNL A   1      37.212  22.605  26.074  1.00  0.00     0.002 C 
BRANCH  28  29
ATOM     29  C   UNL A   1      38.669  22.390  25.665  1.00  0.00     0.021 C 
BRANCH  29  30
ATOM     30  C   UNL A   1      39.686  22.425  26.799  1.00  0.00     0.116 C 
BRANCH  30  31
ATOM     31  N   UNL A   1      41.024  22.835  26.396  1.00  0.00    -0.352 N 
ATOM     32  C   UNL A   1      41.546  24.121  26.305  1.00  0.00     0.251 C 
ATOM     33  H   UNL A   1      41.642  22.105  26.156  1.00  0.00     0.163 HD
ATOM     34  O   UNL A   1      42.677  24.334  25.931  1.00  0.00    -0.269 OA
BRANCH  32  35
ATOM     35  C   UNL A   1      40.704  25.243  26.798  1.00  0.00     0.039 A 
ATOM     36  C   UNL A   1      40.810  26.463  26.124  1.00  0.00     0.014 A 
ATOM     37  C   UNL A   1      40.042  25.161  28.020  1.00  0.00     0.014 A 
ATOM     38  C   UNL A   1      40.463  27.638  26.788  1.00  0.00     0.010 A 
ATOM     39  C   UNL A   1      39.784  26.330  28.714  1.00  0.00     0.010 A 
ATOM     40  C   UNL A   1      40.060  27.568  28.125  1.00  0.00    -0.014 A 
BRANCH  40  41
ATOM     41  C   UNL A   1      40.089  28.728  29.008  1.00  0.00     0.031 A 
ATOM     42  C   UNL A   1      39.009  29.733  29.007  1.00  0.00     0.074 A 
ATOM     43  C   UNL A   1      41.141  28.933  29.831  1.00  0.00     0.049 A 
ATOM     44  N   UNL A   1      39.208  30.995  29.207  1.00  0.00    -0.248 NA
ATOM     45  C   UNL A   1      37.612  29.395  28.754  1.00  0.00     0.031 C 
ATOM     46  C   UNL A   1      41.249  29.923  30.901  1.00  0.00     0.029 A 
ATOM     47  N   UNL A   1      42.428  28.437  29.699  1.00  0.00    -0.354 N 
ATOM     48  C   UNL A   1      37.979  31.569  29.410  1.00  0.00     0.074 A 
ATOM     49  C   UNL A   1      37.015  30.559  29.032  1.00  0.00     0.031 C 
ATOM     50  C   UNL A   1      42.547  30.145  31.157  1.00  0.00     0.029 A 
ATOM     51  C   UNL A   1      43.322  29.399  30.182  1.00  0.00     0.049 A 
ATOM     52  H   UNL A   1      42.673  27.558  29.329  1.00  0.00     0.167 HD
ATOM     53  C   UNL A   1      37.871  32.775  30.034  1.00  0.00     0.034 A 
ATOM     54  C   UNL A   1      44.313  29.912  29.400  1.00  0.00     0.034 A 
ATOM     55  C   UNL A   1      39.157  33.311  30.465  1.00  0.00     0.049 A 
ATOM     56  C   UNL A   1      44.238  31.412  29.222  1.00  0.00     0.074 A 
ATOM     57  C   UNL A   1      39.789  33.356  31.698  1.00  0.00     0.029 A 
ATOM     58  N   UNL A   1      40.113  33.679  29.526  1.00  0.00    -0.354 N 
ATOM     59  N   UNL A   1      43.196  32.138  29.517  1.00  0.00    -0.248 NA
ATOM     60  C   UNL A   1      45.325  32.207  28.665  1.00  0.00     0.031 C 
ATOM     61  C   UNL A   1      41.135  33.751  31.495  1.00  0.00     0.029 A 
ATOM     62  C   UNL A   1      41.320  33.960  30.141  1.00  0.00     0.049 A 
ATOM     63  H   UNL A   1      39.954  33.731  28.556  1.00  0.00     0.167 HD
ATOM     64  C   UNL A   1      43.432  33.453  29.186  1.00  0.00     0.074 A 
ATOM     65  C   UNL A   1      44.790  33.441  28.673  1.00  0.00     0.031 C 
ATOM     66  C   UNL A   1      42.470  34.414  29.364  1.00  0.00     0.034 A 
BRANCH  53  67
ATOM     67  C   UNL A   1      36.541  33.275  30.530  1.00  0.00     0.023 A 
ATOM     68  C   UNL A   1      35.657  33.925  29.649  1.00  0.00     0.031 A 
ATOM     69  C   UNL A   1      36.118  33.172  31.869  1.00  0.00     0.131 A 
ATOM     70  C   UNL A   1      34.478  34.529  30.117  1.00  0.00     0.055 A 
ATOM     71  C   UNL A   1      34.970  33.816  32.347  1.00  0.00     0.041 A 
ATOM     72  F   UNL A   1      36.812  32.445  32.758  1.00  0.00    -0.206 F 
ATOM     73  C   UNL A   1      34.149  34.515  31.470  1.00  0.00     0.022 A 
BRANCH  70  74
ATOM     74  S   UNL A   1      33.380  35.345  28.924  1.00  0.00     0.124 S 
ATOM     75  O   UNL A   1      32.507  36.129  29.791  1.00  0.00    -0.237 OA
ATOM     76  O   UNL A   1      34.322  36.099  28.105  1.00  0.00    -0.237 OA
ATOM     77  O   UNL A   1      32.729  34.226  28.243  1.00  0.00    -0.744 OA
ENDBRANCH  70  74
ENDBRANCH  53  67
BRANCH  54  78
ATOM     78  C   UNL A   1      44.832  28.949  28.388  1.00  0.00     0.023 A 
ATOM     79  C   UNL A   1      45.696  27.932  28.848  1.00  0.00     0.031 A 
ATOM     80  C   UNL A   1      44.217  28.777  27.141  1.00  0.00     0.131 A 
ATOM     81  C   UNL A   1      45.798  26.723  28.148  1.00  0.00     0.055 A 
ATOM     82  C   UNL A   1      44.371  27.590  26.415  1.00  0.00     0.041 A 
ATOM     83  F   UNL A   1      43.363  29.696  26.666  1.00  0.00    -0.206 F 
ATOM     84  C   UNL A   1      45.127  26.540  26.937  1.00  0.00     0.022 A 
BRANCH  81  85
ATOM     85  S   UNL A   1      46.596  25.293  28.939  1.00  0.00     0.124 S 
ATOM     86  O   UNL A   1      45.580  24.862  29.891  1.00  0.00    -0.237 OA
ATOM     87  O   UNL A   1      46.842  24.385  27.822  1.00  0.00    -0.237 OA
ATOM     88  O   UNL A   1      47.805  25.878  29.517  1.00  0.00    -0.744 OA
ENDBRANCH  81  85
ENDBRANCH  54  78
BRANCH  66  89
ATOM     89  C   UNL A   1      42.514  35.875  28.928  1.00  0.00     0.023 A 
ATOM     90  C   UNL A   1      43.141  36.900  29.650  1.00  0.00     0.031 A 
ATOM     91  C   UNL A   1      41.922  36.287  27.702  1.00  0.00     0.131 A 
ATOM     92  C   UNL A   1      43.134  38.237  29.197  1.00  0.00     0.055 A 
ATOM     93  C   UNL A   1      41.954  37.605  27.232  1.00  0.00     0.041 A 
ATOM     94  F   UNL A   1      41.293  35.428  26.889  1.00  0.00    -0.206 F 
ATOM     95  C   UNL A   1      42.556  38.595  27.985  1.00  0.00     0.022 A 
BRANCH  92  96
ATOM     96  S   UNL A   1      43.878  39.507  30.256  1.00  0.00     0.124 S 
ATOM     97  O   UNL A   1      44.987  39.979  29.431  1.00  0.00    -0.237 OA
ATOM     98  O   UNL A   1      42.776  40.448  30.433  1.00  0.00    -0.237 OA
ATOM     99  O   UNL A   1      44.266  38.773  31.458  1.00  0.00    -0.744 OA
ENDBRANCH  92  96
ENDBRANCH  66  89
ENDBRANCH  40  41
ENDBRANCH  32  35
ENDBRANCH  30  31
ENDBRANCH  29  30
ENDBRANCH  28  29
ENDBRANCH   1  28
TORSDOF 19
ENDMDL
MODEL 3
REMARK VINA RESULT:     -12.0      1.693      2.117
REMARK SMILES Cc1ccc(C(=O)NCCCCCCNC(=O)c2ccc(-c3c4nc(c(-c5cc(S(=O)(=O)[O-])ccc5F)c5ccc([nH]5)c(-c5cc(S(=O)(=O)[O-])ccc5F)c5nc(c(-c6cc(S(=O)(=O)[O-])ccc6F)c6ccc3[nH]6)C=C5)C=C4)cc2)c(Oc2cccc(F)c2C(N)=O)c1
REMARK SMILES IDX 11 1 10 2 9 3 8 4 6 5 7 6 5 8 1 9 2 10 3 11 93 12 4 13 81 14
REMARK SMILES IDX 82 15 83 16 84 17 89 18 85 19 87 20 86 21 88 22 90 23 91 24
REMARK SMILES IDX 92 25 12 28 13 29 14 30 15 31 16 32 17 34 18 35 19 36 80 37
REMARK SMILES IDX 20 38 79 39 21 40 22 41 23 42 73 43 24 44 78 45 72 46 74 47
REMARK SMILES IDX 25 48 77 49 71 50 70 51 26 53 58 54 38 55 57 56 39 57 42 58
REMARK SMILES IDX 56 59 75 60 40 61 41 62 55 64 76 65 43 66 27 67 28 68 36 69
REMARK SMILES IDX 29 70 35 71 37 72 34 73 30 74 31 75 32 76 33 77 59 78 60 79
REMARK SMILES IDX 68 80 61 81 67 82 69 83 66 84 62 85 63 86 64 87 65 88 44 89
REMARK SMILES IDX 45 90 53 91 46 92 52 93 54 94 51 95 47 96 48 97 49 98 50 99
REMARK H PARENT 8 7 91 26 91 27 15 33 74 52 42 63
REMARK Flexibility Score: inf
ROOT
ATOM      1  C   UNL A   1      36.545  23.196  25.091  1.00  0.00     0.002 C 
ENDROOT
BRANCH   1   2
ATOM      2  C   UNL A   1      35.189  23.575  25.688  1.00  0.00     0.021 C 
BRANCH   2   3
ATOM      3  C   UNL A   1      34.772  22.905  26.990  1.00  0.00     0.116 C 
BRANCH   3   4
ATOM      4  N   UNL A   1      33.443  23.181  27.465  1.00  0.00    -0.352 N 
ATOM      5  C   UNL A   1      32.224  22.954  26.869  1.00  0.00     0.255 C 
ATOM      6  O   UNL A   1      31.219  23.155  27.558  1.00  0.00    -0.269 OA
ATOM      7  H   UNL A   1      33.399  23.597  28.355  1.00  0.00     0.163 HD
BRANCH   5   8
ATOM      8  C   UNL A   1      32.011  22.553  25.438  1.00  0.00     0.082 A 
ATOM      9  C   UNL A   1      31.897  20.982  21.390  1.00  0.00     0.044 C 
ATOM     10  C   UNL A   1      31.958  21.519  22.789  1.00  0.00    -0.047 A 
ATOM     11  C   UNL A   1      32.382  20.717  23.844  1.00  0.00     0.004 A 
ATOM     12  C   UNL A   1      31.610  22.846  23.053  1.00  0.00     0.051 A 
ATOM     13  C   UNL A   1      32.420  21.234  25.144  1.00  0.00     0.018 A 
ATOM     14  C   UNL A   1      31.570  23.350  24.367  1.00  0.00     0.140 A 
BRANCH  14  15
ATOM     15  O   UNL A   1      31.232  24.660  24.564  1.00  0.00    -0.456 OA
BRANCH  15  16
ATOM     16  C   UNL A   1      32.182  25.666  24.619  1.00  0.00     0.143 A 
ATOM     17  C   UNL A   1      32.401  26.089  25.944  1.00  0.00     0.048 A 
ATOM     18  C   UNL A   1      32.838  26.348  23.578  1.00  0.00     0.117 A 
ATOM     19  C   UNL A   1      33.264  27.146  26.240  1.00  0.00     0.007 A 
ATOM     20  C   UNL A   1      33.702  27.406  23.891  1.00  0.00     0.139 A 
ATOM     21  C   UNL A   1      33.914  27.807  25.208  1.00  0.00     0.040 A 
ATOM     22  F   UNL A   1      34.339  28.081  22.922  1.00  0.00    -0.206 F 
BRANCH  18  23
ATOM     23  C   UNL A   1      32.777  26.013  22.146  1.00  0.00     0.255 C 
ATOM     24  N   UNL A   1      31.736  26.511  21.420  1.00  0.00    -0.365 N 
ATOM     25  O   UNL A   1      33.659  25.331  21.638  1.00  0.00    -0.269 OA
ATOM     26  H   UNL A   1      31.044  27.055  21.860  1.00  0.00     0.159 HD
ATOM     27  H   UNL A   1      31.675  26.324  20.455  1.00  0.00     0.159 HD
ENDBRANCH  18  23
ENDBRANCH  15  16
ENDBRANCH  14  15
ENDBRANCH   5   8
ENDBRANCH   3   4
ENDBRANCH   2   3
ENDBRANCH   1   2
BRANCH   1  28
ATOM     28  C   UNL A   1      37.811  23.487  25.908  1.00  0.00     0.002 C 
BRANCH  28  29
ATOM     29  C   UNL A   1      38.830  22.357  26.047  1.00  0.00     0.021 C 
BRANCH  29  30
ATOM     30  C   UNL A   1      39.867  22.532  27.148  1.00  0.00     0.116 C 
BRANCH  30  31
ATOM     31  N   UNL A   1      41.186  22.933  26.676  1.00  0.00    -0.352 N 
ATOM     32  C   UNL A   1      41.673  24.216  26.451  1.00  0.00     0.251 C 
ATOM     33  H   UNL A   1      41.817  22.198  26.493  1.00  0.00     0.163 HD
ATOM     34  O   UNL A   1      42.790  24.417  26.032  1.00  0.00    -0.269 OA
BRANCH  32  35
ATOM     35  C   UNL A   1      40.814  25.360  26.854  1.00  0.00     0.039 A 
ATOM     36  C   UNL A   1      40.959  26.551  26.136  1.00  0.00     0.014 A 
ATOM     37  C   UNL A   1      40.091  25.332  28.043  1.00  0.00     0.014 A 
ATOM     38  C   UNL A   1      40.586  27.753  26.732  1.00  0.00     0.010 A 
ATOM     39  C   UNL A   1      39.805  26.529  28.675  1.00  0.00     0.010 A 
ATOM     40  C   UNL A   1      40.117  27.740  28.049  1.00  0.00    -0.014 A 
BRANCH  40  41
ATOM     41  C   UNL A   1      40.108  28.937  28.884  1.00  0.00     0.031 A 
ATOM     42  C   UNL A   1      39.041  29.950  28.779  1.00  0.00     0.074 A 
ATOM     43  C   UNL A   1      41.113  29.167  29.757  1.00  0.00     0.049 A 
ATOM     44  N   UNL A   1      39.242  31.217  28.938  1.00  0.00    -0.248 NA
ATOM     45  C   UNL A   1      37.658  29.614  28.459  1.00  0.00     0.031 C 
ATOM     46  C   UNL A   1      41.171  30.200  30.789  1.00  0.00     0.029 A 
ATOM     47  N   UNL A   1      42.400  28.654  29.721  1.00  0.00    -0.354 N 
ATOM     48  C   UNL A   1      38.011  31.811  29.045  1.00  0.00     0.074 A 
ATOM     49  C   UNL A   1      37.059  30.794  28.654  1.00  0.00     0.031 C 
ATOM     50  C   UNL A   1      42.454  30.421  31.111  1.00  0.00     0.029 A 
ATOM     51  C   UNL A   1      43.275  29.628  30.214  1.00  0.00     0.049 A 
ATOM     52  H   UNL A   1      42.656  27.758  29.402  1.00  0.00     0.167 HD
ATOM     53  C   UNL A   1      37.881  33.043  29.611  1.00  0.00     0.034 A 
ATOM     54  C   UNL A   1      44.315  30.098  29.470  1.00  0.00     0.034 A 
ATOM     55  C   UNL A   1      39.145  33.584  30.093  1.00  0.00     0.049 A 
ATOM     56  C   UNL A   1      44.268  31.590  29.227  1.00  0.00     0.074 A 
ATOM     57  C   UNL A   1      39.706  33.676  31.358  1.00  0.00     0.029 A 
ATOM     58  N   UNL A   1      40.158  33.905  29.196  1.00  0.00    -0.354 N 
ATOM     59  N   UNL A   1      43.219  32.338  29.430  1.00  0.00    -0.248 NA
ATOM     60  C   UNL A   1      45.394  32.351  28.701  1.00  0.00     0.031 C 
ATOM     61  C   UNL A   1      41.066  34.050  31.217  1.00  0.00     0.029 A 
ATOM     62  C   UNL A   1      41.330  34.200  29.868  1.00  0.00     0.049 A 
ATOM     63  H   UNL A   1      40.055  33.917  28.218  1.00  0.00     0.167 HD
ATOM     64  C   UNL A   1      43.488  33.635  29.060  1.00  0.00     0.074 A 
ATOM     65  C   UNL A   1      44.874  33.589  28.626  1.00  0.00     0.031 C 
ATOM     66  C   UNL A   1      42.528  34.611  29.141  1.00  0.00     0.034 A 
BRANCH  53  67
ATOM     67  C   UNL A   1      36.530  33.575  30.008  1.00  0.00     0.023 A 
ATOM     68  C   UNL A   1      36.136  33.567  31.359  1.00  0.00     0.031 A 
ATOM     69  C   UNL A   1      35.581  34.059  29.088  1.00  0.00     0.131 A 
ATOM     70  C   UNL A   1      34.830  33.920  31.737  1.00  0.00     0.055 A 
ATOM     71  C   UNL A   1      34.264  34.363  29.455  1.00  0.00     0.041 A 
ATOM     72  F   UNL A   1      35.903  34.249  27.799  1.00  0.00    -0.206 F 
ATOM     73  C   UNL A   1      33.877  34.278  30.787  1.00  0.00     0.022 A 
BRANCH  70  74
ATOM     74  S   UNL A   1      34.392  33.895  33.498  1.00  0.00     0.124 S 
ATOM     75  O   UNL A   1      33.024  33.389  33.472  1.00  0.00    -0.237 OA
ATOM     76  O   UNL A   1      35.400  32.997  34.052  1.00  0.00    -0.237 OA
ATOM     77  O   UNL A   1      34.525  35.295  33.901  1.00  0.00    -0.744 OA
ENDBRANCH  70  74
ENDBRANCH  53  67
BRANCH  54  78
ATOM     78  C   UNL A   1      44.881  29.089  28.531  1.00  0.00     0.023 A 
ATOM     79  C   UNL A   1      45.729  28.102  29.078  1.00  0.00     0.031 A 
ATOM     80  C   UNL A   1      44.320  28.852  27.269  1.00  0.00     0.131 A 
ATOM     81  C   UNL A   1      45.864  26.860  28.444  1.00  0.00     0.055 A 
ATOM     82  C   UNL A   1      44.510  27.631  26.610  1.00  0.00     0.041 A 
ATOM     83  F   UNL A   1      43.484  29.741  26.713  1.00  0.00    -0.206 F 
ATOM     84  C   UNL A   1      45.247  26.613  27.217  1.00  0.00     0.022 A 
BRANCH  81  85
ATOM     85  S   UNL A   1      46.634  25.476  29.338  1.00  0.00     0.124 S 
ATOM     86  O   UNL A   1      47.787  25.172  28.500  1.00  0.00    -0.237 OA
ATOM     87  O   UNL A   1      46.937  26.049  30.647  1.00  0.00    -0.237 OA
ATOM     88  O   UNL A   1      45.572  24.471  29.352  1.00  0.00    -0.744 OA
ENDBRANCH  81  85
ENDBRANCH  54  78
BRANCH  66  89
ATOM     89  C   UNL A   1      42.614  36.052  28.649  1.00  0.00     0.023 A 
ATOM     90  C   UNL A   1      43.081  37.127  29.417  1.00  0.00     0.031 A 
ATOM     91  C   UNL A   1      42.237  36.391  27.320  1.00  0.00     0.131 A 
ATOM     92  C   UNL A   1      43.122  38.442  28.905  1.00  0.00     0.055 A 
ATOM     93  C   UNL A   1      42.320  37.687  26.798  1.00  0.00     0.041 A 
ATOM     94  F   UNL A   1      41.781  35.477  26.453  1.00  0.00    -0.206 F 
ATOM     95  C   UNL A   1      42.757  38.728  27.595  1.00  0.00     0.022 A 
BRANCH  92  96
ATOM     96  S   UNL A   1      43.639  39.781  30.014  1.00  0.00     0.124 S 
ATOM     97  O   UNL A   1      42.402  40.543  30.165  1.00  0.00    -0.237 OA
ATOM     98  O   UNL A   1      44.079  39.050  31.198  1.00  0.00    -0.237 OA
ATOM     99  O   UNL A   1      44.699  40.457  29.272  1.00  0.00    -0.744 OA
ENDBRANCH  92  96
ENDBRANCH  66  89
ENDBRANCH  40  41
ENDBRANCH  32  35
ENDBRANCH  30  31
ENDBRANCH  29  30
ENDBRANCH  28  29
ENDBRANCH   1  28
TORSDOF 19
ENDMDL
